MODEL 1
REMARK VINA RESULT:      -5.5      0.000      0.000
REMARK  3 active torsions:
REMARK  status: ('A' for Active; 'I' for Inactive)
REMARK    1  A    between atoms: C_1  and  C_2 
REMARK    2  A    between atoms: C_2  and  O_3 
REMARK    3  A    between atoms: O_3  and  C_4 
ROOT
ATOM      1  C   LIG d   1       3.750  -0.228  -5.802  0.00  0.00     0.226 A 
ATOM      2  C   LIG d   1       3.936  -0.185  -4.401  0.00  0.00     0.062 A 
ATOM      3  C   LIG d   1       3.529   0.910  -3.629  0.00  0.00    -0.048 A 
ATOM      4  C   LIG d   1       3.734   0.894  -2.281  0.00  0.00    -0.061 A 
ATOM      5  C   LIG d   1       4.342  -0.195  -1.662  0.00  0.00    -0.060 A 
ATOM      6  C   LIG d   1       4.746  -1.279  -2.385  0.00  0.00    -0.035 A 
ATOM      7  C   LIG d   1       4.555  -1.294  -3.774  0.00  0.00     0.078 A 
ATOM      8  N   LIG d   1       4.937  -2.332  -4.532  0.00  0.00    -0.235 NA
ATOM      9  C   LIG d   1       4.739  -2.316  -5.828  0.00  0.00     0.120 A 
ATOM     10  N   LIG d   1       4.164  -1.301  -6.456  0.00  0.00    -0.201 NA
ATOM     11  H   LIG d   1       3.055   1.760  -4.097  0.00  0.00     0.063 H 
ATOM     12  H   LIG d   1       3.420   1.738  -1.685  0.00  0.00     0.062 H 
ATOM     13  H   LIG d   1       4.494  -0.184  -0.593  0.00  0.00     0.062 H 
ATOM     14  H   LIG d   1       5.217  -2.116  -1.891  0.00  0.00     0.064 H 
ATOM     15  H   LIG d   1       5.059  -3.168  -6.409  0.00  0.00     0.105 H 
ENDROOT
BRANCH   1  16
ATOM     16  O   LIG d   1       3.165   0.802  -6.457  0.00  0.00    -0.476 OA
BRANCH  16  17
ATOM     17  C   LIG d   1       3.161   0.744  -7.884  0.00  0.00     0.088 C 
ATOM     18  H   LIG d   1       4.144   0.429  -8.238  0.00  0.00     0.069 H 
ATOM     19  H   LIG d   1       2.409   0.029  -8.217  0.00  0.00     0.069 H 
BRANCH  17  20
ATOM     20  C   LIG d   1       2.835   2.127  -8.450  0.00  0.00    -0.031 C 
ATOM     21  H   LIG d   1       2.490   2.027  -9.479  0.00  0.00     0.026 H 
ATOM     22  H   LIG d   1       2.053   2.591  -7.848  0.00  0.00     0.026 H 
ATOM     23  H   LIG d   1       3.729   2.750  -8.426  0.00  0.00     0.026 H 
ENDBRANCH  17  20
ENDBRANCH  16  17
ENDBRANCH   1  16
TORSDOF 3
ENDMDL
MODEL 2
REMARK VINA RESULT:      -5.4      3.066      3.830
REMARK  3 active torsions:
REMARK  status: ('A' for Active; 'I' for Inactive)
REMARK    1  A    between atoms: C_1  and  C_2 
REMARK    2  A    between atoms: C_2  and  O_3 
REMARK    3  A    between atoms: O_3  and  C_4 
ROOT
ATOM      1  C   LIG d   1       5.178  -2.629  -4.066  0.00  0.00     0.226 A 
ATOM      2  C   LIG d   1       4.704  -1.447  -3.451  0.00  0.00     0.062 A 
ATOM      3  C   LIG d   1       3.339  -1.208  -3.253  0.00  0.00    -0.048 A 
ATOM      4  C   LIG d   1       2.941  -0.050  -2.651  0.00  0.00    -0.061 A 
ATOM      5  C   LIG d   1       3.873   0.896  -2.233  0.00  0.00    -0.060 A 
ATOM      6  C   LIG d   1       5.210   0.691  -2.407  0.00  0.00    -0.035 A 
ATOM      7  C   LIG d   1       5.654  -0.487  -3.026  0.00  0.00     0.078 A 
ATOM      8  N   LIG d   1       6.956  -0.736  -3.225  0.00  0.00    -0.235 NA
ATOM      9  C   LIG d   1       7.339  -1.850  -3.802  0.00  0.00     0.120 A 
ATOM     10  N   LIG d   1       6.486  -2.776  -4.215  0.00  0.00    -0.201 NA
ATOM     11  H   LIG d   1       2.607  -1.934  -3.572  0.00  0.00     0.063 H 
ATOM     12  H   LIG d   1       1.889   0.135  -2.499  0.00  0.00     0.062 H 
ATOM     13  H   LIG d   1       3.533   1.805  -1.760  0.00  0.00     0.062 H 
ATOM     14  H   LIG d   1       5.921   1.433  -2.077  0.00  0.00     0.064 H 
ATOM     15  H   LIG d   1       8.395  -2.020  -3.948  0.00  0.00     0.105 H 
ENDROOT
BRANCH   1  16
ATOM     16  O   LIG d   1       4.319  -3.583  -4.494  0.00  0.00    -0.476 OA
BRANCH  16  17
ATOM     17  C   LIG d   1       4.642  -4.245  -5.718  0.00  0.00     0.088 C 
ATOM     18  H   LIG d   1       3.909  -3.976  -6.480  0.00  0.00     0.069 H 
ATOM     19  H   LIG d   1       5.635  -3.940  -6.046  0.00  0.00     0.069 H 
BRANCH  17  20
ATOM     20  C   LIG d   1       4.618  -5.759  -5.501  0.00  0.00    -0.031 C 
ATOM     21  H   LIG d   1       5.186  -6.005  -4.603  0.00  0.00     0.026 H 
ATOM     22  H   LIG d   1       3.587  -6.093  -5.381  0.00  0.00     0.026 H 
ATOM     23  H   LIG d   1       5.064  -6.256  -6.361  0.00  0.00     0.026 H 
ENDBRANCH  17  20
ENDBRANCH  16  17
ENDBRANCH   1  16
TORSDOF 3
ENDMDL
MODEL 3
REMARK VINA RESULT:      -5.3      3.461      4.043
REMARK  3 active torsions:
REMARK  status: ('A' for Active; 'I' for Inactive)
REMARK    1  A    between atoms: C_1  and  C_2 
REMARK    2  A    between atoms: C_2  and  O_3 
REMARK    3  A    between atoms: O_3  and  C_4 
ROOT
ATOM      1  C   LIG d   1       7.306   0.922  -4.168  0.00  0.00     0.226 A 
ATOM      2  C   LIG d   1       6.259   0.409  -3.367  0.00  0.00     0.062 A 
ATOM      3  C   LIG d   1       5.371   1.245  -2.679  0.00  0.00    -0.048 A 
ATOM      4  C   LIG d   1       4.380   0.693  -1.923  0.00  0.00    -0.061 A 
ATOM      5  C   LIG d   1       4.239  -0.689  -1.826  0.00  0.00    -0.060 A 
ATOM      6  C   LIG d   1       5.085  -1.530  -2.486  0.00  0.00    -0.035 A 
ATOM      7  C   LIG d   1       6.118  -0.996  -3.270  0.00  0.00     0.078 A 
ATOM      8  N   LIG d   1       6.980  -1.778  -3.937  0.00  0.00    -0.235 NA
ATOM      9  C   LIG d   1       7.932  -1.247  -4.665  0.00  0.00     0.120 A 
ATOM     10  N   LIG d   1       8.101   0.062  -4.785  0.00  0.00    -0.201 NA
ATOM     11  H   LIG d   1       5.469   2.318  -2.748  0.00  0.00     0.063 H 
ATOM     12  H   LIG d   1       3.694   1.336  -1.392  0.00  0.00     0.062 H 
ATOM     13  H   LIG d   1       3.446  -1.102  -1.219  0.00  0.00     0.062 H 
ATOM     14  H   LIG d   1       4.964  -2.600  -2.401  0.00  0.00     0.064 H 
ATOM     15  H   LIG d   1       8.609  -1.905  -5.189  0.00  0.00     0.105 H 
ENDROOT
BRANCH   1  16
ATOM     16  O   LIG d   1       7.491   2.256  -4.300  0.00  0.00    -0.476 OA
BRANCH  16  17
ATOM     17  C   LIG d   1       8.806   2.698  -4.640  0.00  0.00     0.088 C 
ATOM     18  H   LIG d   1       9.372   1.865  -5.058  0.00  0.00     0.069 H 
ATOM     19  H   LIG d   1       8.742   3.499  -5.375  0.00  0.00     0.069 H 
BRANCH  17  20
ATOM     20  C   LIG d   1       9.512   3.212  -3.383  0.00  0.00    -0.031 C 
ATOM     21  H   LIG d   1       8.916   2.963  -2.505  0.00  0.00     0.026 H 
ATOM     22  H   LIG d   1      10.494   2.746  -3.301  0.00  0.00     0.026 H 
ATOM     23  H   LIG d   1       9.628   4.294  -3.449  0.00  0.00     0.026 H 
ENDBRANCH  17  20
ENDBRANCH  16  17
ENDBRANCH   1  16
TORSDOF 3
ENDMDL
MODEL 4
REMARK VINA RESULT:      -5.2      2.001      3.649
REMARK  3 active torsions:
REMARK  status: ('A' for Active; 'I' for Inactive)
REMARK    1  A    between atoms: C_1  and  C_2 
REMARK    2  A    between atoms: C_2  and  O_3 
REMARK    3  A    between atoms: O_3  and  C_4 
ROOT
ATOM      1  C   LIG d   1       4.463  -2.369  -4.934  0.00  0.00     0.226 A 
ATOM      2  C   LIG d   1       4.428  -1.434  -3.874  0.00  0.00     0.062 A 
ATOM      3  C   LIG d   1       4.527  -1.824  -2.533  0.00  0.00    -0.048 A 
ATOM      4  C   LIG d   1       4.489  -0.876  -1.554  0.00  0.00    -0.061 A 
ATOM      5  C   LIG d   1       4.353   0.473  -1.869  0.00  0.00    -0.060 A 
ATOM      6  C   LIG d   1       4.259   0.887  -3.165  0.00  0.00    -0.035 A 
ATOM      7  C   LIG d   1       4.290  -0.062  -4.197  0.00  0.00     0.078 A 
ATOM      8  N   LIG d   1       4.196   0.290  -5.488  0.00  0.00    -0.235 NA
ATOM      9  C   LIG d   1       4.234  -0.622  -6.430  0.00  0.00     0.120 A 
ATOM     10  N   LIG d   1       4.363  -1.915  -6.174  0.00  0.00    -0.201 NA
ATOM     11  H   LIG d   1       4.634  -2.868  -2.277  0.00  0.00     0.063 H 
ATOM     12  H   LIG d   1       4.565  -1.177  -0.520  0.00  0.00     0.062 H 
ATOM     13  H   LIG d   1       4.325   1.205  -1.075  0.00  0.00     0.062 H 
ATOM     14  H   LIG d   1       4.153   1.936  -3.393  0.00  0.00     0.064 H 
ATOM     15  H   LIG d   1       4.157  -0.304  -7.459  0.00  0.00     0.105 H 
ENDROOT
BRANCH   1  16
ATOM     16  O   LIG d   1       4.593  -3.694  -4.688  0.00  0.00    -0.476 OA
BRANCH  16  17
ATOM     17  C   LIG d   1       5.595  -4.395  -5.427  0.00  0.00     0.088 C 
ATOM     18  H   LIG d   1       5.448  -5.469  -5.308  0.00  0.00     0.069 H 
ATOM     19  H   LIG d   1       5.520  -4.133  -6.481  0.00  0.00     0.069 H 
BRANCH  17  20
ATOM     20  C   LIG d   1       6.979  -4.009  -4.901  0.00  0.00    -0.031 C 
ATOM     21  H   LIG d   1       6.922  -3.828  -3.828  0.00  0.00     0.026 H 
ATOM     22  H   LIG d   1       7.681  -4.821  -5.096  0.00  0.00     0.026 H 
ATOM     23  H   LIG d   1       7.320  -3.105  -5.405  0.00  0.00     0.026 H 
ENDBRANCH  17  20
ENDBRANCH  16  17
ENDBRANCH   1  16
TORSDOF 3
ENDMDL
MODEL 5
REMARK VINA RESULT:      -5.1      3.742      4.847
REMARK  3 active torsions:
REMARK  status: ('A' for Active; 'I' for Inactive)
REMARK    1  A    between atoms: C_1  and  C_2 
REMARK    2  A    between atoms: C_2  and  O_3 
REMARK    3  A    between atoms: O_3  and  C_4 
ROOT
ATOM      1  C   LIG d   1       7.463  -0.876  -4.172  0.00  0.00     0.226 A 
ATOM      2  C   LIG d   1       6.334  -0.604  -3.366  0.00  0.00     0.062 A 
ATOM      3  C   LIG d   1       5.503  -1.620  -2.879  0.00  0.00    -0.048 A 
ATOM      4  C   LIG d   1       4.429  -1.296  -2.105  0.00  0.00    -0.061 A 
ATOM      5  C   LIG d   1       4.148   0.031  -1.791  0.00  0.00    -0.060 A 
ATOM      6  C   LIG d   1       4.939   1.044  -2.245  0.00  0.00    -0.035 A 
ATOM      7  C   LIG d   1       6.050   0.747  -3.048  0.00  0.00     0.078 A 
ATOM      8  N   LIG d   1       6.858   1.705  -3.524  0.00  0.00    -0.235 NA
ATOM      9  C   LIG d   1       7.892   1.393  -4.268  0.00  0.00     0.120 A 
ATOM     10  N   LIG d   1       8.196   0.144  -4.590  0.00  0.00    -0.201 NA
ATOM     11  H   LIG d   1       5.713  -2.653  -3.115  0.00  0.00     0.063 H 
ATOM     12  H   LIG d   1       3.788  -2.080  -1.730  0.00  0.00     0.062 H 
ATOM     13  H   LIG d   1       3.290   0.262  -1.176  0.00  0.00     0.062 H 
ATOM     14  H   LIG d   1       4.708   2.068  -1.994  0.00  0.00     0.064 H 
ATOM     15  H   LIG d   1       8.523   2.188  -4.635  0.00  0.00     0.105 H 
ENDROOT
BRANCH   1  16
ATOM     16  O   LIG d   1       7.786  -2.147  -4.509  0.00  0.00    -0.476 OA
BRANCH  16  17
ATOM     17  C   LIG d   1       9.085  -2.361  -5.063  0.00  0.00     0.088 C 
ATOM     18  H   LIG d   1       8.988  -2.744  -6.080  0.00  0.00     0.069 H 
ATOM     19  H   LIG d   1       9.633  -1.419  -5.081  0.00  0.00     0.069 H 
BRANCH  17  20
ATOM     20  C   LIG d   1       9.844  -3.376  -4.207  0.00  0.00    -0.031 C 
ATOM     21  H   LIG d   1      10.629  -2.866  -3.648  0.00  0.00     0.026 H 
ATOM     22  H   LIG d   1       9.153  -3.852  -3.510  0.00  0.00     0.026 H 
ATOM     23  H   LIG d   1      10.290  -4.134  -4.851  0.00  0.00     0.026 H 
ENDBRANCH  17  20
ENDBRANCH  16  17
ENDBRANCH   1  16
TORSDOF 3
ENDMDL
MODEL 6
REMARK VINA RESULT:      -4.9      2.962      3.289
REMARK  3 active torsions:
REMARK  status: ('A' for Active; 'I' for Inactive)
REMARK    1  A    between atoms: C_1  and  C_2 
REMARK    2  A    between atoms: C_2  and  O_3 
REMARK    3  A    between atoms: O_3  and  C_4 
ROOT
ATOM      1  C   LIG d   1       6.502  -1.543  -4.044  0.00  0.00     0.226 A 
ATOM      2  C   LIG d   1       5.509  -0.734  -3.443  0.00  0.00     0.062 A 
ATOM      3  C   LIG d   1       5.785   0.555  -2.971  0.00  0.00    -0.048 A 
ATOM      4  C   LIG d   1       4.786   1.289  -2.402  0.00  0.00    -0.061 A 
ATOM      5  C   LIG d   1       3.498   0.774  -2.284  0.00  0.00    -0.060 A 
ATOM      6  C   LIG d   1       3.196  -0.476  -2.738  0.00  0.00    -0.035 A 
ATOM      7  C   LIG d   1       4.200  -1.260  -3.324  0.00  0.00     0.078 A 
ATOM      8  N   LIG d   1       3.958  -2.497  -3.783  0.00  0.00    -0.235 NA
ATOM      9  C   LIG d   1       4.918  -3.202  -4.331  0.00  0.00     0.120 A 
ATOM     10  N   LIG d   1       6.157  -2.750  -4.463  0.00  0.00    -0.201 NA
ATOM     11  H   LIG d   1       6.780   0.965  -3.058  0.00  0.00     0.063 H 
ATOM     12  H   LIG d   1       4.998   2.283  -2.038  0.00  0.00     0.062 H 
ATOM     13  H   LIG d   1       2.724   1.375  -1.829  0.00  0.00     0.062 H 
ATOM     14  H   LIG d   1       2.192  -0.862  -2.640  0.00  0.00     0.064 H 
ATOM     15  H   LIG d   1       4.690  -4.194  -4.690  0.00  0.00     0.105 H 
ENDROOT
BRANCH   1  16
ATOM     16  O   LIG d   1       7.771  -1.096  -4.184  0.00  0.00    -0.476 OA
BRANCH  16  17
ATOM     17  C   LIG d   1       8.298  -1.047  -5.511  0.00  0.00     0.088 C 
ATOM     18  H   LIG d   1       9.381  -0.921  -5.468  0.00  0.00     0.069 H 
ATOM     19  H   LIG d   1       8.061  -1.974  -6.032  0.00  0.00     0.069 H 
BRANCH  17  20
ATOM     20  C   LIG d   1       7.678   0.133  -6.263  0.00  0.00    -0.031 C 
ATOM     21  H   LIG d   1       8.025   0.128  -7.296  0.00  0.00     0.026 H 
ATOM     22  H   LIG d   1       6.592   0.046  -6.244  0.00  0.00     0.026 H 
ATOM     23  H   LIG d   1       7.976   1.066  -5.784  0.00  0.00     0.026 H 
ENDBRANCH  17  20
ENDBRANCH  16  17
ENDBRANCH   1  16
TORSDOF 3
ENDMDL
MODEL 7
REMARK VINA RESULT:      -4.7      1.739      3.986
REMARK  3 active torsions:
REMARK  status: ('A' for Active; 'I' for Inactive)
REMARK    1  A    between atoms: C_1  and  C_2 
REMARK    2  A    between atoms: C_2  and  O_3 
REMARK    3  A    between atoms: O_3  and  C_4 
ROOT
ATOM      1  C   LIG d   1       3.245  -0.077  -4.490  0.00  0.00     0.226 A 
ATOM      2  C   LIG d   1       4.043  -1.197  -4.818  0.00  0.00     0.062 A 
ATOM      3  C   LIG d   1       4.564  -2.053  -3.839  0.00  0.00    -0.048 A 
ATOM      4  C   LIG d   1       5.326  -3.118  -4.217  0.00  0.00    -0.061 A 
ATOM      5  C   LIG d   1       5.595  -3.366  -5.560  0.00  0.00    -0.060 A 
ATOM      6  C   LIG d   1       5.100  -2.554  -6.538  0.00  0.00    -0.035 A 
ATOM      7  C   LIG d   1       4.315  -1.447  -6.185  0.00  0.00     0.078 A 
ATOM      8  N   LIG d   1       3.808  -0.614  -7.106  0.00  0.00    -0.235 NA
ATOM      9  C   LIG d   1       3.073   0.410  -6.743  0.00  0.00     0.120 A 
ATOM     10  N   LIG d   1       2.793   0.681  -5.477  0.00  0.00    -0.201 NA
ATOM     11  H   LIG d   1       4.361  -1.871  -2.794  0.00  0.00     0.063 H 
ATOM     12  H   LIG d   1       5.728  -3.778  -3.463  0.00  0.00     0.062 H 
ATOM     13  H   LIG d   1       6.202  -4.216  -5.834  0.00  0.00     0.062 H 
ATOM     14  H   LIG d   1       5.317  -2.759  -7.575  0.00  0.00     0.064 H 
ATOM     15  H   LIG d   1       2.679   1.060  -7.509  0.00  0.00     0.105 H 
ENDROOT
BRANCH   1  16
ATOM     16  O   LIG d   1       2.952   0.214  -3.201  0.00  0.00    -0.476 OA
BRANCH  16  17
ATOM     17  C   LIG d   1       3.591   1.357  -2.632  0.00  0.00     0.088 C 
ATOM     18  H   LIG d   1       4.087   1.926  -3.420  0.00  0.00     0.069 H 
ATOM     19  H   LIG d   1       2.847   1.986  -2.144  0.00  0.00     0.069 H 
BRANCH  17  20
ATOM     20  C   LIG d   1       4.629   0.902  -1.603  0.00  0.00    -0.031 C 
ATOM     21  H   LIG d   1       4.780  -0.173  -1.692  0.00  0.00     0.026 H 
ATOM     22  H   LIG d   1       5.572   1.418  -1.786  0.00  0.00     0.026 H 
ATOM     23  H   LIG d   1       4.274   1.138  -0.601  0.00  0.00     0.026 H 
ENDBRANCH  17  20
ENDBRANCH  16  17
ENDBRANCH   1  16
TORSDOF 3
ENDMDL
MODEL 8
REMARK VINA RESULT:      -4.7      2.070      2.931
REMARK  3 active torsions:
REMARK  status: ('A' for Active; 'I' for Inactive)
REMARK    1  A    between atoms: C_1  and  C_2 
REMARK    2  A    between atoms: C_2  and  O_3 
REMARK    3  A    between atoms: O_3  and  C_4 
ROOT
ATOM      1  C   LIG d   1       4.049  -0.492  -6.305  0.00  0.00     0.226 A 
ATOM      2  C   LIG d   1       4.016  -1.077  -5.019  0.00  0.00     0.062 A 
ATOM      3  C   LIG d   1       4.782  -2.204  -4.693  0.00  0.00    -0.048 A 
ATOM      4  C   LIG d   1       4.709  -2.723  -3.435  0.00  0.00    -0.061 A 
ATOM      5  C   LIG d   1       3.885  -2.150  -2.470  0.00  0.00    -0.060 A 
ATOM      6  C   LIG d   1       3.131  -1.050  -2.753  0.00  0.00    -0.035 A 
ATOM      7  C   LIG d   1       3.177  -0.492  -4.039  0.00  0.00     0.078 A 
ATOM      8  N   LIG d   1       2.453   0.586  -4.372  0.00  0.00    -0.235 NA
ATOM      9  C   LIG d   1       2.524   1.087  -5.582  0.00  0.00     0.120 A 
ATOM     10  N   LIG d   1       3.294   0.572  -6.529  0.00  0.00    -0.201 NA
ATOM     11  H   LIG d   1       5.425  -2.656  -5.433  0.00  0.00     0.063 H 
ATOM     12  H   LIG d   1       5.299  -3.592  -3.183  0.00  0.00     0.062 H 
ATOM     13  H   LIG d   1       3.845  -2.580  -1.480  0.00  0.00     0.062 H 
ATOM     14  H   LIG d   1       2.496  -0.616  -1.995  0.00  0.00     0.064 H 
ATOM     15  H   LIG d   1       1.927   1.955  -5.817  0.00  0.00     0.105 H 
ENDROOT
BRANCH   1  16
ATOM     16  O   LIG d   1       4.831  -1.006  -7.283  0.00  0.00    -0.476 OA
BRANCH  16  17
ATOM     17  C   LIG d   1       4.201  -1.297  -8.532  0.00  0.00     0.088 C 
ATOM     18  H   LIG d   1       3.373  -0.604  -8.691  0.00  0.00     0.069 H 
ATOM     19  H   LIG d   1       4.924  -1.190  -9.339  0.00  0.00     0.069 H 
BRANCH  17  20
ATOM     20  C   LIG d   1       3.667  -2.731  -8.512  0.00  0.00    -0.031 C 
ATOM     21  H   LIG d   1       3.227  -2.968  -9.481  0.00  0.00     0.026 H 
ATOM     22  H   LIG d   1       4.486  -3.420  -8.307  0.00  0.00     0.026 H 
ATOM     23  H   LIG d   1       2.909  -2.826  -7.735  0.00  0.00     0.026 H 
ENDBRANCH  17  20
ENDBRANCH  16  17
ENDBRANCH   1  16
TORSDOF 3
ENDMDL
MODEL 9
REMARK VINA RESULT:      -4.5      2.980      6.359
REMARK  3 active torsions:
REMARK  status: ('A' for Active; 'I' for Inactive)
REMARK    1  A    between atoms: C_1  and  C_2 
REMARK    2  A    between atoms: C_2  and  O_3 
REMARK    3  A    between atoms: O_3  and  C_4 
ROOT
ATOM      1  C   LIG d   1       3.233   0.695  -8.275  0.00  0.00     0.226 A 
ATOM      2  C   LIG d   1       2.876   0.113  -9.513  0.00  0.00     0.062 A 
ATOM      3  C   LIG d   1       1.770  -0.736  -9.645  0.00  0.00    -0.048 A 
ATOM      4  C   LIG d   1       1.474  -1.266 -10.865  0.00  0.00    -0.061 A 
ATOM      5  C   LIG d   1       2.255  -0.976 -11.980  0.00  0.00    -0.060 A 
ATOM      6  C   LIG d   1       3.335  -0.150 -11.887  0.00  0.00    -0.035 A 
ATOM      7  C   LIG d   1       3.672   0.409 -10.646  0.00  0.00     0.078 A 
ATOM      8  N   LIG d   1       4.726   1.224 -10.497  0.00  0.00    -0.235 NA
ATOM      9  C   LIG d   1       5.011   1.736  -9.323  0.00  0.00     0.120 A 
ATOM     10  N   LIG d   1       4.294   1.486  -8.237  0.00  0.00    -0.201 NA
ATOM     11  H   LIG d   1       1.156  -0.967  -8.787  0.00  0.00     0.063 H 
ATOM     12  H   LIG d   1       0.621  -1.921 -10.967  0.00  0.00     0.062 H 
ATOM     13  H   LIG d   1       2.000  -1.410 -12.936  0.00  0.00     0.062 H 
ATOM     14  H   LIG d   1       3.932   0.065 -12.760  0.00  0.00     0.064 H 
ATOM     15  H   LIG d   1       5.867   2.389  -9.238  0.00  0.00     0.105 H 
ENDROOT
BRANCH   1  16
ATOM     16  O   LIG d   1       2.511   0.449  -7.157  0.00  0.00    -0.476 OA
BRANCH  16  17
ATOM     17  C   LIG d   1       3.239   0.087  -5.981  0.00  0.00     0.088 C 
ATOM     18  H   LIG d   1       3.438  -0.985  -5.993  0.00  0.00     0.069 H 
ATOM     19  H   LIG d   1       4.182   0.632  -5.955  0.00  0.00     0.069 H 
BRANCH  17  20
ATOM     20  C   LIG d   1       2.413   0.439  -4.742  0.00  0.00    -0.031 C 
ATOM     21  H   LIG d   1       2.916   1.227  -4.182  0.00  0.00     0.026 H 
ATOM     22  H   LIG d   1       1.426   0.785  -5.050  0.00  0.00     0.026 H 
ATOM     23  H   LIG d   1       2.308  -0.445  -4.113  0.00  0.00     0.026 H 
ENDBRANCH  17  20
ENDBRANCH  16  17
ENDBRANCH   1  16
TORSDOF 3
ENDMDL
MODEL 10
REMARK VINA RESULT:      -4.5      2.162      2.328
REMARK  3 active torsions:
REMARK  status: ('A' for Active; 'I' for Inactive)
REMARK    1  A    between atoms: C_1  and  C_2 
REMARK    2  A    between atoms: C_2  and  O_3 
REMARK    3  A    between atoms: O_3  and  C_4 
ROOT
ATOM      1  C   LIG d   1       5.804  -0.351  -5.641  0.00  0.00     0.226 A 
ATOM      2  C   LIG d   1       4.880  -0.666  -4.619  0.00  0.00     0.062 A 
ATOM      3  C   LIG d   1       3.547  -0.240  -4.663  0.00  0.00    -0.048 A 
ATOM      4  C   LIG d   1       2.701  -0.576  -3.647  0.00  0.00    -0.061 A 
ATOM      5  C   LIG d   1       3.145  -1.336  -2.568  0.00  0.00    -0.060 A 
ATOM      6  C   LIG d   1       4.436  -1.769  -2.497  0.00  0.00    -0.035 A 
ATOM      7  C   LIG d   1       5.334  -1.438  -3.522  0.00  0.00     0.078 A 
ATOM      8  N   LIG d   1       6.614  -1.835  -3.499  0.00  0.00    -0.235 NA
ATOM      9  C   LIG d   1       7.427  -1.513  -4.477  0.00  0.00     0.120 A 
ATOM     10  N   LIG d   1       7.046  -0.793  -5.521  0.00  0.00    -0.201 NA
ATOM     11  H   LIG d   1       3.190   0.348  -5.495  0.00  0.00     0.063 H 
ATOM     12  H   LIG d   1       1.673  -0.248  -3.681  0.00  0.00     0.062 H 
ATOM     13  H   LIG d   1       2.456  -1.588  -1.775  0.00  0.00     0.062 H 
ATOM     14  H   LIG d   1       4.766  -2.357  -1.654  0.00  0.00     0.064 H 
ATOM     15  H   LIG d   1       8.452  -1.849  -4.428  0.00  0.00     0.105 H 
ENDROOT
BRANCH   1  16
ATOM     16  O   LIG d   1       5.429   0.384  -6.714  0.00  0.00    -0.476 OA
BRANCH  16  17
ATOM     17  C   LIG d   1       6.150   0.173  -7.929  0.00  0.00     0.088 C 
ATOM     18  H   LIG d   1       6.993  -0.493  -7.740  0.00  0.00     0.069 H 
ATOM     19  H   LIG d   1       5.491  -0.277  -8.671  0.00  0.00     0.069 H 
BRANCH  17  20
ATOM     20  C   LIG d   1       6.668   1.514  -8.454  0.00  0.00    -0.031 C 
ATOM     21  H   LIG d   1       7.280   1.991  -7.689  0.00  0.00     0.026 H 
ATOM     22  H   LIG d   1       7.271   1.346  -9.348  0.00  0.00     0.026 H 
ATOM     23  H   LIG d   1       5.825   2.158  -8.700  0.00  0.00     0.026 H 
ENDBRANCH  17  20
ENDBRANCH  16  17
ENDBRANCH   1  16
TORSDOF 3
ENDMDL
