MODEL 1
REMARK VINA RESULT:      -6.3      0.000      0.000
REMARK  8 active torsions:
REMARK  status: ('A' for Active; 'I' for Inactive)
REMARK    1  A    between atoms: C_1  and  C_2 
REMARK    2  A    between atoms: C_17  and  C_20 
REMARK    3  A    between atoms: C_20  and  C_21 
REMARK    4  A    between atoms: C_21  and  S_22 
REMARK    5  A    between atoms: S_22  and  C_23 
REMARK    6  A    between atoms: N_26  and  C_29 
REMARK    7  A    between atoms: C_29  and  C_30 
REMARK    8  A    between atoms: C_30  and  C_31 
ROOT
ATOM      1  C   LIG d   1       3.231  -0.202  -6.804  0.00  0.00    -0.049 A 
ATOM      2  C   LIG d   1       4.445  -0.845  -6.974  0.00  0.00    -0.051 A 
ATOM      3  C   LIG d   1       4.766  -1.405  -8.190  0.00  0.00     0.005 A 
ATOM      4  C   LIG d   1       3.877  -1.334  -9.259  0.00  0.00     0.057 A 
ATOM      5  C   LIG d   1       2.656  -0.684  -9.081  0.00  0.00     0.063 A 
ATOM      6  C   LIG d   1       2.338  -0.129  -7.857  0.00  0.00    -0.039 A 
ATOM      7 CL   LIG d   1       1.530  -0.580 -10.397  0.00  0.00    -0.082 Cl
ATOM      8  N   LIG d   1       4.417  -1.968 -10.380  0.00  0.00    -0.282 N 
ATOM      9  C   LIG d   1       5.640  -2.476 -10.136  0.00  0.00     0.243 A 
ATOM     10  O   LIG d   1       6.346  -3.076 -10.919  0.00  0.00    -0.273 OA
ATOM     11  C   LIG d   1       5.963  -2.152  -8.702  0.00  0.00     0.136 A 
ATOM     12  C   LIG d   1       6.225  -3.426  -7.887  0.00  0.00     0.080 A 
ATOM     13  H   LIG d   1       5.737  -4.303  -8.311  0.00  0.00     0.043 H 
ATOM     14  C   LIG d   1       7.773  -3.554  -7.850  0.00  0.00     0.065 A 
ATOM     15  H   LIG d   1       8.127  -4.510  -8.237  0.00  0.00     0.042 H 
ATOM     16  C   LIG d   1       8.290  -2.354  -8.672  0.00  0.00     0.021 C 
ATOM     17  H   LIG d   1       8.481  -2.655  -9.702  0.00  0.00     0.047 H 
ATOM     18  N   LIG d   1       7.192  -1.345  -8.596  0.00  0.00    -0.295 N 
ATOM     19  C   LIG d   1       8.106  -3.357  -6.389  0.00  0.00     0.227 A 
ATOM     20  O   LIG d   1       9.222  -3.373  -5.916  0.00  0.00    -0.275 OA
ATOM     21  N   LIG d   1       6.976  -3.163  -5.698  0.00  0.00    -0.241 N 
ATOM     22  C   LIG d   1       5.846  -3.189  -6.442  0.00  0.00     0.228 A 
ATOM     23  O   LIG d   1       4.716  -3.046  -6.028  0.00  0.00    -0.275 OA
ATOM     24  H   LIG d   1       5.143  -0.906  -6.151  0.00  0.00     0.062 H 
ATOM     25  H   LIG d   1       1.390   0.369  -7.723  0.00  0.00     0.064 H 
ATOM     26  H   LIG d   1       3.964  -2.036 -11.235  0.00  0.00     0.155 HD
ATOM     27  H   LIG d   1       7.260  -0.686  -9.358  0.00  0.00     0.123 HD
ENDROOT
BRANCH  16  28
ATOM     28  C   LIG d   1       9.563  -1.785  -8.041  0.00  0.00    -0.028 C 
ATOM     29  H   LIG d   1       9.667  -2.169  -7.025  0.00  0.00     0.029 H 
ATOM     30  H   LIG d   1      10.427  -2.086  -8.633  0.00  0.00     0.029 H 
BRANCH  28  31
ATOM     31  C   LIG d   1       9.476  -0.259  -8.004  0.00  0.00    -0.005 C 
ATOM     32  H   LIG d   1      10.266   0.165  -8.625  0.00  0.00     0.038 H 
ATOM     33  H   LIG d   1       8.505   0.059  -8.385  0.00  0.00     0.038 H 
BRANCH  31  34
ATOM     34  S   LIG d   1       9.674   0.318  -6.297  0.00  0.00    -0.164 SA
BRANCH  34  35
ATOM     35  C   LIG d   1       8.305   1.487  -6.066  0.00  0.00    -0.018 C 
ATOM     36  H   LIG d   1       8.455   2.045  -5.142  0.00  0.00     0.034 H 
ATOM     37  H   LIG d   1       8.273   2.179  -6.908  0.00  0.00     0.034 H 
ATOM     38  H   LIG d   1       7.364   0.938  -6.011  0.00  0.00     0.034 H 
ENDBRANCH  34  35
ENDBRANCH  31  34
ENDBRANCH  28  31
ENDBRANCH  16  28
BRANCH   1  39
ATOM     39  C   LIG d   1       2.881   0.410  -5.472  0.00  0.00    -0.040 C 
ATOM     40  H   LIG d   1       2.758   1.486  -5.588  0.00  0.00     0.028 H 
ATOM     41  H   LIG d   1       1.952  -0.026  -5.105  0.00  0.00     0.028 H 
ATOM     42  H   LIG d   1       3.682   0.210  -4.759  0.00  0.00     0.028 H 
ENDBRANCH   1  39
BRANCH  21  43
ATOM     43  C   LIG d   1       6.961  -2.944  -4.249  0.00  0.00     0.026 C 
ATOM     44  H   LIG d   1       5.970  -3.174  -3.859  0.00  0.00     0.047 H 
ATOM     45  H   LIG d   1       7.698  -3.594  -3.776  0.00  0.00     0.047 H 
BRANCH  43  46
ATOM     46  C   LIG d   1       7.303  -1.484  -3.950  0.00  0.00    -0.011 C 
ATOM     47  H   LIG d   1       8.182  -1.440  -3.308  0.00  0.00     0.033 H 
ATOM     48  H   LIG d   1       7.507  -0.960  -4.883  0.00  0.00     0.033 H 
BRANCH  46  49
ATOM     49  C   LIG d   1       6.138  -0.829  -3.252  0.00  0.00    -0.046 A 
ATOM     50  C   LIG d   1       5.108  -1.604  -2.752  0.00  0.00    -0.059 A 
ATOM     51  C   LIG d   1       4.042  -1.004  -2.108  0.00  0.00    -0.061 A 
ATOM     52  H   LIG d   1       5.137  -2.677  -2.862  0.00  0.00     0.062 H 
ATOM     53  C   LIG d   1       4.002   0.371  -1.971  0.00  0.00    -0.062 A 
ATOM     54  H   LIG d   1       3.240  -1.609  -1.713  0.00  0.00     0.062 H 
ATOM     55  C   LIG d   1       5.030   1.146  -2.475  0.00  0.00    -0.061 A 
ATOM     56  H   LIG d   1       3.168   0.840  -1.470  0.00  0.00     0.062 H 
ATOM     57  C   LIG d   1       6.098   0.546  -3.116  0.00  0.00    -0.059 A 
ATOM     58  H   LIG d   1       4.999   2.220  -2.369  0.00  0.00     0.062 H 
ATOM     59  H   LIG d   1       6.901   1.151  -3.510  0.00  0.00     0.062 H 
ENDBRANCH  46  49
ENDBRANCH  43  46
ENDBRANCH  21  43
TORSDOF 8
ENDMDL
MODEL 2
REMARK VINA RESULT:      -6.3      1.587      1.879
REMARK  8 active torsions:
REMARK  status: ('A' for Active; 'I' for Inactive)
REMARK    1  A    between atoms: C_1  and  C_2 
REMARK    2  A    between atoms: C_17  and  C_20 
REMARK    3  A    between atoms: C_20  and  C_21 
REMARK    4  A    between atoms: C_21  and  S_22 
REMARK    5  A    between atoms: S_22  and  C_23 
REMARK    6  A    between atoms: N_26  and  C_29 
REMARK    7  A    between atoms: C_29  and  C_30 
REMARK    8  A    between atoms: C_30  and  C_31 
ROOT
ATOM      1  C   LIG d   1       3.344  -0.005  -6.811  0.00  0.00    -0.049 A 
ATOM      2  C   LIG d   1       4.695  -0.079  -7.098  0.00  0.00    -0.051 A 
ATOM      3  C   LIG d   1       5.116  -0.294  -8.391  0.00  0.00     0.005 A 
ATOM      4  C   LIG d   1       4.192  -0.440  -9.422  0.00  0.00     0.057 A 
ATOM      5  C   LIG d   1       2.832  -0.363  -9.125  0.00  0.00     0.063 A 
ATOM      6  C   LIG d   1       2.416  -0.153  -7.825  0.00  0.00    -0.039 A 
ATOM      7 CL   LIG d   1       1.659  -0.540 -10.391  0.00  0.00    -0.082 Cl
ATOM      8  N   LIG d   1       4.851  -0.647 -10.635  0.00  0.00    -0.282 N 
ATOM      9  C   LIG d   1       6.190  -0.651 -10.493  0.00  0.00     0.243 A 
ATOM     10  O   LIG d   1       7.012  -0.807 -11.370  0.00  0.00    -0.273 OA
ATOM     11  C   LIG d   1       6.468  -0.423  -9.031  0.00  0.00     0.136 A 
ATOM     12  C   LIG d   1       7.271  -1.583  -8.428  0.00  0.00     0.080 A 
ATOM     13  H   LIG d   1       7.136  -2.516  -8.975  0.00  0.00     0.043 H 
ATOM     14  C   LIG d   1       8.743  -1.085  -8.436  0.00  0.00     0.065 A 
ATOM     15  H   LIG d   1       9.413  -1.758  -8.972  0.00  0.00     0.042 H 
ATOM     16  C   LIG d   1       8.682   0.320  -9.070  0.00  0.00     0.021 C 
ATOM     17  H   LIG d   1       8.896   0.264 -10.138  0.00  0.00     0.047 H 
ATOM     18  N   LIG d   1       7.285   0.786  -8.821  0.00  0.00    -0.295 N 
ATOM     19  C   LIG d   1       9.082  -0.972  -6.968  0.00  0.00     0.227 A 
ATOM     20  O   LIG d   1      10.147  -0.604  -6.521  0.00  0.00    -0.275 OA
ATOM     21  N   LIG d   1       8.023  -1.341  -6.237  0.00  0.00    -0.241 N 
ATOM     22  C   LIG d   1       6.941  -1.716  -6.958  0.00  0.00     0.228 A 
ATOM     23  O   LIG d   1       5.881  -2.094  -6.509  0.00  0.00    -0.275 OA
ATOM     24  H   LIG d   1       5.422   0.033  -6.306  0.00  0.00     0.062 H 
ATOM     25  H   LIG d   1       1.361  -0.099  -7.601  0.00  0.00     0.064 H 
ATOM     26  H   LIG d   1       4.397  -0.774 -11.484  0.00  0.00     0.155 HD
ATOM     27  H   LIG d   1       7.030   1.513  -9.473  0.00  0.00     0.123 HD
ENDROOT
BRANCH  16  28
ATOM     28  C   LIG d   1       9.673   1.260  -8.379  0.00  0.00    -0.028 C 
ATOM     29  H   LIG d   1      10.084   0.768  -7.497  0.00  0.00     0.029 H 
ATOM     30  H   LIG d   1      10.482   1.504  -9.068  0.00  0.00     0.029 H 
BRANCH  28  31
ATOM     31  C   LIG d   1       8.954   2.543  -7.962  0.00  0.00    -0.005 C 
ATOM     32  H   LIG d   1       9.250   3.357  -8.625  0.00  0.00     0.038 H 
ATOM     33  H   LIG d   1       7.876   2.394  -8.030  0.00  0.00     0.038 H 
BRANCH  31  34
ATOM     34  S   LIG d   1       9.401   2.959  -6.255  0.00  0.00    -0.164 SA
BRANCH  34  35
ATOM     35  C   LIG d   1       9.901   4.702  -6.344  0.00  0.00    -0.018 C 
ATOM     36  H   LIG d   1       9.227   5.240  -7.011  0.00  0.00     0.034 H 
ATOM     37  H   LIG d   1       9.856   5.144  -5.349  0.00  0.00     0.034 H 
ATOM     38  H   LIG d   1      10.920   4.769  -6.726  0.00  0.00     0.034 H 
ENDBRANCH  34  35
ENDBRANCH  31  34
ENDBRANCH  28  31
ENDBRANCH  16  28
BRANCH   1  39
ATOM     39  C   LIG d   1       2.884   0.229  -5.395  0.00  0.00    -0.040 C 
ATOM     40  H   LIG d   1       1.859  -0.122  -5.283  0.00  0.00     0.028 H 
ATOM     41  H   LIG d   1       3.532  -0.315  -4.708  0.00  0.00     0.028 H 
ATOM     42  H   LIG d   1       2.930   1.295  -5.170  0.00  0.00     0.028 H 
ENDBRANCH   1  39
BRANCH  21  43
ATOM     43  C   LIG d   1       8.034  -1.345  -4.772  0.00  0.00     0.026 C 
ATOM     44  H   LIG d   1       7.342  -2.104  -4.407  0.00  0.00     0.047 H 
ATOM     45  H   LIG d   1       9.040  -1.570  -4.417  0.00  0.00     0.047 H 
BRANCH  43  46
ATOM     46  C   LIG d   1       7.605   0.029  -4.254  0.00  0.00    -0.011 C 
ATOM     47  H   LIG d   1       8.407   0.457  -3.654  0.00  0.00     0.033 H 
ATOM     48  H   LIG d   1       7.393   0.685  -5.098  0.00  0.00     0.033 H 
BRANCH  46  49
ATOM     49  C   LIG d   1       6.367  -0.118  -3.408  0.00  0.00    -0.046 A 
ATOM     50  C   LIG d   1       5.857  -1.376  -3.141  0.00  0.00    -0.059 A 
ATOM     51  C   LIG d   1       4.724  -1.510  -2.361  0.00  0.00    -0.061 A 
ATOM     52  H   LIG d   1       6.346  -2.251  -3.539  0.00  0.00     0.062 H 
ATOM     53  C   LIG d   1       4.095  -0.388  -1.856  0.00  0.00    -0.062 A 
ATOM     54  H   LIG d   1       4.329  -2.492  -2.149  0.00  0.00     0.062 H 
ATOM     55  C   LIG d   1       4.602   0.870  -2.127  0.00  0.00    -0.061 A 
ATOM     56  H   LIG d   1       3.208  -0.493  -1.249  0.00  0.00     0.062 H 
ATOM     57  C   LIG d   1       5.738   1.005  -2.903  0.00  0.00    -0.059 A 
ATOM     58  H   LIG d   1       4.111   1.746  -1.732  0.00  0.00     0.062 H 
ATOM     59  H   LIG d   1       6.133   1.987  -3.115  0.00  0.00     0.062 H 
ENDBRANCH  46  49
ENDBRANCH  43  46
ENDBRANCH  21  43
TORSDOF 8
ENDMDL
MODEL 3
REMARK VINA RESULT:      -6.2      3.075      5.930
REMARK  8 active torsions:
REMARK  status: ('A' for Active; 'I' for Inactive)
REMARK    1  A    between atoms: C_1  and  C_2 
REMARK    2  A    between atoms: C_17  and  C_20 
REMARK    3  A    between atoms: C_20  and  C_21 
REMARK    4  A    between atoms: C_21  and  S_22 
REMARK    5  A    between atoms: S_22  and  C_23 
REMARK    6  A    between atoms: N_26  and  C_29 
REMARK    7  A    between atoms: C_29  and  C_30 
REMARK    8  A    between atoms: C_30  and  C_31 
ROOT
ATOM      1  C   LIG d   1       3.082   0.161  -4.913  0.00  0.00    -0.049 A 
ATOM      2  C   LIG d   1       3.794  -0.383  -5.967  0.00  0.00    -0.051 A 
ATOM      3  C   LIG d   1       4.480  -1.566  -5.801  0.00  0.00     0.005 A 
ATOM      4  C   LIG d   1       4.467  -2.225  -4.575  0.00  0.00     0.057 A 
ATOM      5  C   LIG d   1       3.747  -1.671  -3.518  0.00  0.00     0.063 A 
ATOM      6  C   LIG d   1       3.065  -0.483  -3.689  0.00  0.00    -0.039 A 
ATOM      7 CL   LIG d   1       3.714  -2.473  -1.979  0.00  0.00    -0.082 Cl
ATOM      8  N   LIG d   1       5.228  -3.393  -4.647  0.00  0.00    -0.282 N 
ATOM      9  C   LIG d   1       5.768  -3.574  -5.868  0.00  0.00     0.243 A 
ATOM     10  O   LIG d   1       6.471  -4.496  -6.221  0.00  0.00    -0.273 OA
ATOM     11  C   LIG d   1       5.327  -2.407  -6.711  0.00  0.00     0.136 A 
ATOM     12  C   LIG d   1       6.529  -1.622  -7.250  0.00  0.00     0.080 A 
ATOM     13  H   LIG d   1       7.419  -1.738  -6.631  0.00  0.00     0.043 H 
ATOM     14  C   LIG d   1       6.726  -2.154  -8.697  0.00  0.00     0.065 A 
ATOM     15  H   LIG d   1       7.729  -2.543  -8.871  0.00  0.00     0.042 H 
ATOM     16  C   LIG d   1       5.634  -3.230  -8.875  0.00  0.00     0.021 C 
ATOM     17  H   LIG d   1       6.038  -4.219  -8.661  0.00  0.00     0.047 H 
ATOM     18  N   LIG d   1       4.571  -2.854  -7.895  0.00  0.00    -0.295 N 
ATOM     19  C   LIG d   1       6.409  -0.953  -9.558  0.00  0.00     0.227 A 
ATOM     20  O   LIG d   1       6.433  -0.934 -10.770  0.00  0.00    -0.275 OA
ATOM     21  N   LIG d   1       6.098   0.087  -8.774  0.00  0.00    -0.241 N 
ATOM     22  C   LIG d   1       6.141  -0.173  -7.447  0.00  0.00     0.228 A 
ATOM     23  O   LIG d   1       5.907   0.617  -6.557  0.00  0.00    -0.275 OA
ATOM     24  H   LIG d   1       3.811   0.120  -6.923  0.00  0.00     0.062 H 
ATOM     25  H   LIG d   1       2.513  -0.056  -2.865  0.00  0.00     0.064 H 
ATOM     26  H   LIG d   1       5.355  -4.005  -3.905  0.00  0.00     0.155 HD
ATOM     27  H   LIG d   1       3.991  -3.650  -7.676  0.00  0.00     0.123 HD
ENDROOT
BRANCH  16  28
ATOM     28  C   LIG d   1       5.069  -3.184 -10.297  0.00  0.00    -0.028 C 
ATOM     29  H   LIG d   1       4.078  -2.729 -10.279  0.00  0.00     0.029 H 
ATOM     30  H   LIG d   1       5.728  -2.592 -10.931  0.00  0.00     0.029 H 
BRANCH  28  31
ATOM     31  C   LIG d   1       4.969  -4.605 -10.852  0.00  0.00    -0.005 C 
ATOM     32  H   LIG d   1       5.730  -4.750 -11.619  0.00  0.00     0.038 H 
ATOM     33  H   LIG d   1       5.124  -5.323 -10.046  0.00  0.00     0.038 H 
BRANCH  31  34
ATOM     34  S   LIG d   1       3.326  -4.857 -11.577  0.00  0.00    -0.164 SA
BRANCH  34  35
ATOM     35  C   LIG d   1       2.202  -4.782 -10.154  0.00  0.00    -0.018 C 
ATOM     36  H   LIG d   1       1.371  -5.469 -10.310  0.00  0.00     0.034 H 
ATOM     37  H   LIG d   1       2.742  -5.063  -9.250  0.00  0.00     0.034 H 
ATOM     38  H   LIG d   1       1.819  -3.766 -10.047  0.00  0.00     0.034 H 
ENDBRANCH  34  35
ENDBRANCH  31  34
ENDBRANCH  28  31
ENDBRANCH  16  28
BRANCH   1  39
ATOM     39  C   LIG d   1       2.332   1.456  -5.096  0.00  0.00    -0.040 C 
ATOM     40  H   LIG d   1       1.282   1.243  -5.289  0.00  0.00     0.028 H 
ATOM     41  H   LIG d   1       2.422   2.058  -4.192  0.00  0.00     0.028 H 
ATOM     42  H   LIG d   1       2.754   2.002  -5.940  0.00  0.00     0.028 H 
ENDBRANCH   1  39
BRANCH  21  43
ATOM     43  C   LIG d   1       5.745   1.404  -9.308  0.00  0.00     0.026 C 
ATOM     44  H   LIG d   1       6.369   2.164  -8.840  0.00  0.00     0.047 H 
ATOM     45  H   LIG d   1       5.906   1.414 -10.386  0.00  0.00     0.047 H 
BRANCH  43  46
ATOM     46  C   LIG d   1       4.273   1.697  -9.010  0.00  0.00    -0.011 C 
ATOM     47  H   LIG d   1       4.097   1.619  -7.938  0.00  0.00     0.033 H 
ATOM     48  H   LIG d   1       4.028   2.704  -9.346  0.00  0.00     0.033 H 
BRANCH  46  49
ATOM     49  C   LIG d   1       3.407   0.701  -9.736  0.00  0.00    -0.046 A 
ATOM     50  C   LIG d   1       3.559   0.516 -11.099  0.00  0.00    -0.059 A 
ATOM     51  C   LIG d   1       2.767  -0.401 -11.764  0.00  0.00    -0.061 A 
ATOM     52  H   LIG d   1       4.298   1.085 -11.641  0.00  0.00     0.062 H 
ATOM     53  C   LIG d   1       1.817  -1.127 -11.070  0.00  0.00    -0.062 A 
ATOM     54  H   LIG d   1       2.889  -0.549 -12.826  0.00  0.00     0.062 H 
ATOM     55  C   LIG d   1       1.661  -0.938  -9.709  0.00  0.00    -0.061 A 
ATOM     56  H   LIG d   1       1.196  -1.841 -11.590  0.00  0.00     0.062 H 
ATOM     57  C   LIG d   1       2.456  -0.024  -9.042  0.00  0.00    -0.059 A 
ATOM     58  H   LIG d   1       0.919  -1.504  -9.167  0.00  0.00     0.062 H 
ATOM     59  H   LIG d   1       2.334   0.124  -7.980  0.00  0.00     0.062 H 
ENDBRANCH  46  49
ENDBRANCH  43  46
ENDBRANCH  21  43
TORSDOF 8
ENDMDL
MODEL 4
REMARK VINA RESULT:      -6.0      2.648      3.393
REMARK  8 active torsions:
REMARK  status: ('A' for Active; 'I' for Inactive)
REMARK    1  A    between atoms: C_1  and  C_2 
REMARK    2  A    between atoms: C_17  and  C_20 
REMARK    3  A    between atoms: C_20  and  C_21 
REMARK    4  A    between atoms: C_21  and  S_22 
REMARK    5  A    between atoms: S_22  and  C_23 
REMARK    6  A    between atoms: N_26  and  C_29 
REMARK    7  A    between atoms: C_29  and  C_30 
REMARK    8  A    between atoms: C_30  and  C_31 
ROOT
ATOM      1  C   LIG d   1       4.352   0.076  -9.209  0.00  0.00    -0.049 A 
ATOM      2  C   LIG d   1       4.800  -1.064  -8.565  0.00  0.00    -0.051 A 
ATOM      3  C   LIG d   1       4.107  -2.247  -8.691  0.00  0.00     0.005 A 
ATOM      4  C   LIG d   1       2.951  -2.311  -9.464  0.00  0.00     0.057 A 
ATOM      5  C   LIG d   1       2.506  -1.160 -10.111  0.00  0.00     0.063 A 
ATOM      6  C   LIG d   1       3.203   0.025  -9.976  0.00  0.00    -0.039 A 
ATOM      7 CL   LIG d   1       1.069  -1.213 -11.081  0.00  0.00    -0.082 Cl
ATOM      8  N   LIG d   1       2.427  -3.605  -9.442  0.00  0.00    -0.282 N 
ATOM      9  C   LIG d   1       3.168  -4.441  -8.688  0.00  0.00     0.243 A 
ATOM     10  O   LIG d   1       2.955  -5.618  -8.488  0.00  0.00    -0.273 OA
ATOM     11  C   LIG d   1       4.312  -3.630  -8.143  0.00  0.00     0.136 A 
ATOM     12  C   LIG d   1       4.320  -3.634  -6.609  0.00  0.00     0.080 A 
ATOM     13  H   LIG d   1       3.334  -3.821  -6.185  0.00  0.00     0.043 H 
ATOM     14  C   LIG d   1       5.358  -4.726  -6.227  0.00  0.00     0.065 A 
ATOM     15  H   LIG d   1       4.941  -5.497  -5.579  0.00  0.00     0.042 H 
ATOM     16  C   LIG d   1       5.855  -5.290  -7.575  0.00  0.00     0.021 C 
ATOM     17  H   LIG d   1       5.294  -6.186  -7.841  0.00  0.00     0.047 H 
ATOM     18  N   LIG d   1       5.613  -4.189  -8.556  0.00  0.00    -0.295 N 
ATOM     19  C   LIG d   1       6.464  -3.940  -5.561  0.00  0.00     0.227 A 
ATOM     20  O   LIG d   1       7.487  -4.411  -5.113  0.00  0.00    -0.275 OA
ATOM     21  N   LIG d   1       6.137  -2.641  -5.543  0.00  0.00    -0.241 N 
ATOM     22  C   LIG d   1       4.940  -2.351  -6.102  0.00  0.00     0.228 A 
ATOM     23  O   LIG d   1       4.440  -1.250  -6.188  0.00  0.00    -0.275 OA
ATOM     24  H   LIG d   1       5.697  -1.025  -7.962  0.00  0.00     0.062 H 
ATOM     25  H   LIG d   1       2.851   0.915 -10.476  0.00  0.00     0.064 H 
ATOM     26  H   LIG d   1       1.623  -3.873  -9.913  0.00  0.00     0.155 HD
ATOM     27  H   LIG d   1       5.568  -4.553  -9.496  0.00  0.00     0.123 HD
ENDROOT
BRANCH  16  28
ATOM     28  C   LIG d   1       7.351  -5.601  -7.504  0.00  0.00    -0.028 C 
ATOM     29  H   LIG d   1       7.870  -5.074  -8.305  0.00  0.00     0.029 H 
ATOM     30  H   LIG d   1       7.744  -5.274  -6.541  0.00  0.00     0.029 H 
BRANCH  28  31
ATOM     31  C   LIG d   1       7.568  -7.107  -7.657  0.00  0.00    -0.005 C 
ATOM     32  H   LIG d   1       6.613  -7.592  -7.862  0.00  0.00     0.038 H 
ATOM     33  H   LIG d   1       8.255  -7.292  -8.484  0.00  0.00     0.038 H 
BRANCH  31  34
ATOM     34  S   LIG d   1       8.271  -7.776  -6.126  0.00  0.00    -0.164 SA
BRANCH  34  35
ATOM     35  C   LIG d   1       6.835  -7.978  -5.035  0.00  0.00    -0.018 C 
ATOM     36  H   LIG d   1       6.684  -9.037  -4.824  0.00  0.00     0.034 H 
ATOM     37  H   LIG d   1       7.010  -7.443  -4.101  0.00  0.00     0.034 H 
ATOM     38  H   LIG d   1       5.948  -7.574  -5.523  0.00  0.00     0.034 H 
ENDBRANCH  34  35
ENDBRANCH  31  34
ENDBRANCH  28  31
ENDBRANCH  16  28
BRANCH   1  39
ATOM     39  C   LIG d   1       5.111   1.370  -9.069  0.00  0.00    -0.040 C 
ATOM     40  H   LIG d   1       5.710   1.538  -9.963  0.00  0.00     0.028 H 
ATOM     41  H   LIG d   1       4.407   2.192  -8.944  0.00  0.00     0.028 H 
ATOM     42  H   LIG d   1       5.765   1.315  -8.198  0.00  0.00     0.028 H 
ENDBRANCH   1  39
BRANCH  21  43
ATOM     43  C   LIG d   1       7.004  -1.614  -4.959  0.00  0.00     0.026 C 
ATOM     44  H   LIG d   1       8.040  -1.822  -5.223  0.00  0.00     0.047 H 
ATOM     45  H   LIG d   1       6.718  -0.636  -5.345  0.00  0.00     0.047 H 
BRANCH  43  46
ATOM     46  C   LIG d   1       6.853  -1.625  -3.436  0.00  0.00    -0.011 C 
ATOM     47  H   LIG d   1       6.679  -2.645  -3.096  0.00  0.00     0.033 H 
ATOM     48  H   LIG d   1       7.762  -1.239  -2.978  0.00  0.00     0.033 H 
BRANCH  46  49
ATOM     49  C   LIG d   1       5.685  -0.757  -3.042  0.00  0.00    -0.046 A 
ATOM     50  C   LIG d   1       4.484  -1.338  -2.678  0.00  0.00    -0.059 A 
ATOM     51  C   LIG d   1       3.415  -0.542  -2.312  0.00  0.00    -0.061 A 
ATOM     52  H   LIG d   1       4.383  -2.413  -2.676  0.00  0.00     0.062 H 
ATOM     53  C   LIG d   1       3.543   0.834  -2.319  0.00  0.00    -0.062 A 
ATOM     54  H   LIG d   1       2.479  -0.996  -2.023  0.00  0.00     0.062 H 
ATOM     55  C   LIG d   1       4.742   1.415  -2.687  0.00  0.00    -0.061 A 
ATOM     56  H   LIG d   1       2.706   1.456  -2.035  0.00  0.00     0.062 H 
ATOM     57  C   LIG d   1       5.813   0.619  -3.050  0.00  0.00    -0.059 A 
ATOM     58  H   LIG d   1       4.842   2.489  -2.693  0.00  0.00     0.062 H 
ATOM     59  H   LIG d   1       6.749   1.073  -3.338  0.00  0.00     0.062 H 
ENDBRANCH  46  49
ENDBRANCH  43  46
ENDBRANCH  21  43
TORSDOF 8
ENDMDL
MODEL 5
REMARK VINA RESULT:      -5.8      3.685      5.958
REMARK  8 active torsions:
REMARK  status: ('A' for Active; 'I' for Inactive)
REMARK    1  A    between atoms: C_1  and  C_2 
REMARK    2  A    between atoms: C_17  and  C_20 
REMARK    3  A    between atoms: C_20  and  C_21 
REMARK    4  A    between atoms: C_21  and  S_22 
REMARK    5  A    between atoms: S_22  and  C_23 
REMARK    6  A    between atoms: N_26  and  C_29 
REMARK    7  A    between atoms: C_29  and  C_30 
REMARK    8  A    between atoms: C_30  and  C_31 
ROOT
ATOM      1  C   LIG d   1       9.730  -4.904  -4.235  0.00  0.00    -0.049 A 
ATOM      2  C   LIG d   1       9.035  -3.827  -4.756  0.00  0.00    -0.051 A 
ATOM      3  C   LIG d   1       9.662  -2.611  -4.913  0.00  0.00     0.005 A 
ATOM      4  C   LIG d   1      10.996  -2.450  -4.549  0.00  0.00     0.057 A 
ATOM      5  C   LIG d   1      11.689  -3.539  -4.025  0.00  0.00     0.063 A 
ATOM      6  C   LIG d   1      11.054  -4.755  -3.866  0.00  0.00    -0.039 A 
ATOM      7 CL   LIG d   1      13.353  -3.366  -3.565  0.00  0.00    -0.082 Cl
ATOM      8  N   LIG d   1      11.409  -1.139  -4.797  0.00  0.00    -0.282 N 
ATOM      9  C   LIG d   1      10.421  -0.385  -5.317  0.00  0.00     0.243 A 
ATOM     10  O   LIG d   1      10.491   0.784  -5.632  0.00  0.00    -0.273 OA
ATOM     11  C   LIG d   1       9.214  -1.276  -5.433  0.00  0.00     0.136 A 
ATOM     12  C   LIG d   1       8.032  -0.723  -4.627  0.00  0.00     0.080 A 
ATOM     13  H   LIG d   1       8.348  -0.080  -3.806  0.00  0.00     0.043 H 
ATOM     14  C   LIG d   1       7.159   0.023  -5.675  0.00  0.00     0.065 A 
ATOM     15  H   LIG d   1       6.984   1.066  -5.414  0.00  0.00     0.042 H 
ATOM     16  C   LIG d   1       7.920  -0.135  -7.009  0.00  0.00     0.021 C 
ATOM     17  H   LIG d   1       8.548   0.737  -7.193  0.00  0.00     0.047 H 
ATOM     18  N   LIG d   1       8.745  -1.368  -6.828  0.00  0.00    -0.295 N 
ATOM     19  C   LIG d   1       5.885  -0.790  -5.712  0.00  0.00     0.227 A 
ATOM     20  O   LIG d   1       4.925  -0.557  -6.414  0.00  0.00    -0.275 OA
ATOM     21  N   LIG d   1       5.982  -1.807  -4.847  0.00  0.00    -0.241 N 
ATOM     22  C   LIG d   1       7.152  -1.865  -4.169  0.00  0.00     0.228 A 
ATOM     23  O   LIG d   1       7.454  -2.691  -3.335  0.00  0.00    -0.275 OA
ATOM     24  H   LIG d   1       7.999  -3.941  -5.042  0.00  0.00     0.062 H 
ATOM     25  H   LIG d   1      11.595  -5.594  -3.455  0.00  0.00     0.064 H 
ATOM     26  H   LIG d   1      12.303  -0.809  -4.617  0.00  0.00     0.155 HD
ATOM     27  H   LIG d   1       9.522  -1.374  -7.472  0.00  0.00     0.123 HD
ENDROOT
BRANCH  16  28
ATOM     28  C   LIG d   1       6.936  -0.335  -8.163  0.00  0.00    -0.028 C 
ATOM     29  H   LIG d   1       7.318  -1.102  -8.838  0.00  0.00     0.029 H 
ATOM     30  H   LIG d   1       5.970  -0.649  -7.767  0.00  0.00     0.029 H 
BRANCH  28  31
ATOM     31  C   LIG d   1       6.770   0.980  -8.926  0.00  0.00    -0.005 C 
ATOM     32  H   LIG d   1       6.782   1.813  -8.222  0.00  0.00     0.038 H 
ATOM     33  H   LIG d   1       7.590   1.094  -9.637  0.00  0.00     0.038 H 
BRANCH  31  34
ATOM     34  S   LIG d   1       5.192   0.967  -9.820  0.00  0.00    -0.164 SA
BRANCH  34  35
ATOM     35  C   LIG d   1       4.341   2.458  -9.231  0.00  0.00    -0.018 C 
ATOM     36  H   LIG d   1       3.305   2.441  -9.568  0.00  0.00     0.034 H 
ATOM     37  H   LIG d   1       4.370   2.486  -8.142  0.00  0.00     0.034 H 
ATOM     38  H   LIG d   1       4.839   3.342  -9.630  0.00  0.00     0.034 H 
ENDBRANCH  34  35
ENDBRANCH  31  34
ENDBRANCH  28  31
ENDBRANCH  16  28
BRANCH   1  39
ATOM     39  C   LIG d   1       9.043  -6.235  -4.063  0.00  0.00    -0.040 C 
ATOM     40  H   LIG d   1       8.031  -6.076  -3.692  0.00  0.00     0.028 H 
ATOM     41  H   LIG d   1       9.002  -6.749  -5.023  0.00  0.00     0.028 H 
ATOM     42  H   LIG d   1       9.601  -6.841  -3.350  0.00  0.00     0.028 H 
ENDBRANCH   1  39
BRANCH  21  43
ATOM     43  C   LIG d   1       4.906  -2.780  -4.644  0.00  0.00     0.026 C 
ATOM     44  H   LIG d   1       4.112  -2.598  -5.368  0.00  0.00     0.047 H 
ATOM     45  H   LIG d   1       5.297  -3.789  -4.779  0.00  0.00     0.047 H 
BRANCH  43  46
ATOM     46  C   LIG d   1       4.348  -2.636  -3.227  0.00  0.00    -0.011 C 
ATOM     47  H   LIG d   1       3.426  -3.210  -3.139  0.00  0.00     0.033 H 
ATOM     48  H   LIG d   1       5.078  -3.009  -2.510  0.00  0.00     0.033 H 
BRANCH  46  49
ATOM     49  C   LIG d   1       4.064  -1.183  -2.945  0.00  0.00    -0.046 A 
ATOM     50  C   LIG d   1       3.090  -0.517  -3.667  0.00  0.00    -0.059 A 
ATOM     51  C   LIG d   1       2.827   0.815  -3.406  0.00  0.00    -0.061 A 
ATOM     52  H   LIG d   1       2.535  -1.037  -4.433  0.00  0.00     0.062 H 
ATOM     53  C   LIG d   1       3.542   1.482  -2.429  0.00  0.00    -0.062 A 
ATOM     54  H   LIG d   1       2.064   1.334  -3.966  0.00  0.00     0.062 H 
ATOM     55  C   LIG d   1       4.518   0.817  -1.710  0.00  0.00    -0.061 A 
ATOM     56  H   LIG d   1       3.337   2.524  -2.227  0.00  0.00     0.062 H 
ATOM     57  C   LIG d   1       4.779  -0.515  -1.969  0.00  0.00    -0.059 A 
ATOM     58  H   LIG d   1       5.076   1.339  -0.948  0.00  0.00     0.062 H 
ATOM     59  H   LIG d   1       5.542  -1.035  -1.408  0.00  0.00     0.062 H 
ENDBRANCH  46  49
ENDBRANCH  43  46
ENDBRANCH  21  43
TORSDOF 8
ENDMDL
MODEL 6
REMARK VINA RESULT:      -5.7      3.254      5.652
REMARK  8 active torsions:
REMARK  status: ('A' for Active; 'I' for Inactive)
REMARK    1  A    between atoms: C_1  and  C_2 
REMARK    2  A    between atoms: C_17  and  C_20 
REMARK    3  A    between atoms: C_20  and  C_21 
REMARK    4  A    between atoms: C_21  and  S_22 
REMARK    5  A    between atoms: S_22  and  C_23 
REMARK    6  A    between atoms: N_26  and  C_29 
REMARK    7  A    between atoms: C_29  and  C_30 
REMARK    8  A    between atoms: C_30  and  C_31 
ROOT
ATOM      1  C   LIG d   1       5.137  -5.650  -6.730  0.00  0.00    -0.049 A 
ATOM      2  C   LIG d   1       5.701  -4.465  -6.295  0.00  0.00    -0.051 A 
ATOM      3  C   LIG d   1       6.818  -4.486  -5.489  0.00  0.00     0.005 A 
ATOM      4  C   LIG d   1       7.389  -5.695  -5.102  0.00  0.00     0.057 A 
ATOM      5  C   LIG d   1       6.815  -6.886  -5.546  0.00  0.00     0.063 A 
ATOM      6  C   LIG d   1       5.693  -6.858  -6.350  0.00  0.00    -0.039 A 
ATOM      7 CL   LIG d   1       7.509  -8.406  -5.080  0.00  0.00    -0.082 Cl
ATOM      8  N   LIG d   1       8.503  -5.465  -4.292  0.00  0.00    -0.282 N 
ATOM      9  C   LIG d   1       8.729  -4.152  -4.100  0.00  0.00     0.243 A 
ATOM     10  O   LIG d   1       9.622  -3.658  -3.444  0.00  0.00    -0.273 OA
ATOM     11  C   LIG d   1       7.658  -3.415  -4.858  0.00  0.00     0.136 A 
ATOM     12  C   LIG d   1       6.829  -2.521  -3.926  0.00  0.00     0.080 A 
ATOM     13  H   LIG d   1       6.839  -2.868  -2.893  0.00  0.00     0.043 H 
ATOM     14  C   LIG d   1       7.446  -1.104  -4.093  0.00  0.00     0.065 A 
ATOM     15  H   LIG d   1       7.774  -0.672  -3.148  0.00  0.00     0.042 H 
ATOM     16  C   LIG d   1       8.606  -1.292  -5.093  0.00  0.00     0.021 C 
ATOM     17  H   LIG d   1       9.547  -1.430  -4.561  0.00  0.00     0.047 H 
ATOM     18  N   LIG d   1       8.239  -2.514  -5.871  0.00  0.00    -0.295 N 
ATOM     19  C   LIG d   1       6.333  -0.312  -4.741  0.00  0.00     0.227 A 
ATOM     20  O   LIG d   1       6.397   0.856  -5.056  0.00  0.00    -0.275 OA
ATOM     21  N   LIG d   1       5.266  -1.102  -4.911  0.00  0.00    -0.241 N 
ATOM     22  C   LIG d   1       5.429  -2.374  -4.479  0.00  0.00     0.228 A 
ATOM     23  O   LIG d   1       4.598  -3.255  -4.524  0.00  0.00    -0.275 OA
ATOM     24  H   LIG d   1       5.265  -3.520  -6.588  0.00  0.00     0.062 H 
ATOM     25  H   LIG d   1       5.250  -7.783  -6.686  0.00  0.00     0.064 H 
ATOM     26  H   LIG d   1       9.051  -6.170  -3.912  0.00  0.00     0.155 HD
ATOM     27  H   LIG d   1       9.057  -2.925  -6.295  0.00  0.00     0.123 HD
ENDROOT
BRANCH  16  28
ATOM     28  C   LIG d   1       8.700  -0.088  -6.033  0.00  0.00    -0.028 C 
ATOM     29  H   LIG d   1       8.712  -0.435  -7.067  0.00  0.00     0.029 H 
ATOM     30  H   LIG d   1       7.838   0.561  -5.879  0.00  0.00     0.029 H 
BRANCH  28  31
ATOM     31  C   LIG d   1       9.983   0.690  -5.740  0.00  0.00    -0.005 C 
ATOM     32  H   LIG d   1      10.492   0.243  -4.885  0.00  0.00     0.038 H 
ATOM     33  H   LIG d   1      10.637   0.654  -6.612  0.00  0.00     0.038 H 
BRANCH  31  34
ATOM     34  S   LIG d   1       9.571   2.416  -5.364  0.00  0.00    -0.164 SA
BRANCH  34  35
ATOM     35  C   LIG d   1       9.235   2.409  -3.581  0.00  0.00    -0.018 C 
ATOM     36  H   LIG d   1       9.193   1.380  -3.223  0.00  0.00     0.034 H 
ATOM     37  H   LIG d   1      10.030   2.943  -3.059  0.00  0.00     0.034 H 
ATOM     38  H   LIG d   1       8.281   2.900  -3.389  0.00  0.00     0.034 H 
ENDBRANCH  34  35
ENDBRANCH  31  34
ENDBRANCH  28  31
ENDBRANCH  16  28
BRANCH   1  39
ATOM     39  C   LIG d   1       3.914  -5.626  -7.611  0.00  0.00    -0.040 C 
ATOM     40  H   LIG d   1       4.206  -5.374  -8.630  0.00  0.00     0.028 H 
ATOM     41  H   LIG d   1       3.439  -6.607  -7.601  0.00  0.00     0.028 H 
ATOM     42  H   LIG d   1       3.213  -4.879  -7.238  0.00  0.00     0.028 H 
ENDBRANCH   1  39
BRANCH  21  43
ATOM     43  C   LIG d   1       4.017  -0.629  -5.513  0.00  0.00     0.026 C 
ATOM     44  H   LIG d   1       3.173  -1.114  -5.025  0.00  0.00     0.047 H 
ATOM     45  H   LIG d   1       3.940   0.451  -5.386  0.00  0.00     0.047 H 
BRANCH  43  46
ATOM     46  C   LIG d   1       4.009  -0.969  -7.005  0.00  0.00    -0.011 C 
ATOM     47  H   LIG d   1       4.881  -1.577  -7.243  0.00  0.00     0.033 H 
ATOM     48  H   LIG d   1       3.102  -1.523  -7.246  0.00  0.00     0.033 H 
BRANCH  46  49
ATOM     49  C   LIG d   1       4.048   0.305  -7.809  0.00  0.00    -0.046 A 
ATOM     50  C   LIG d   1       5.234   0.719  -8.389  0.00  0.00    -0.059 A 
ATOM     51  C   LIG d   1       5.269   1.885  -9.131  0.00  0.00    -0.061 A 
ATOM     52  H   LIG d   1       6.130   0.132  -8.264  0.00  0.00     0.062 H 
ATOM     53  C   LIG d   1       4.122   2.640  -9.287  0.00  0.00    -0.062 A 
ATOM     54  H   LIG d   1       6.193   2.207  -9.587  0.00  0.00     0.062 H 
ATOM     55  C   LIG d   1       2.938   2.228  -8.704  0.00  0.00    -0.061 A 
ATOM     56  H   LIG d   1       4.150   3.553  -9.865  0.00  0.00     0.062 H 
ATOM     57  C   LIG d   1       2.901   1.060  -7.965  0.00  0.00    -0.059 A 
ATOM     58  H   LIG d   1       2.042   2.818  -8.826  0.00  0.00     0.062 H 
ATOM     59  H   LIG d   1       1.977   0.738  -7.510  0.00  0.00     0.062 H 
ENDBRANCH  46  49
ENDBRANCH  43  46
ENDBRANCH  21  43
TORSDOF 8
ENDMDL
MODEL 7
REMARK VINA RESULT:      -5.5      2.707      5.833
REMARK  8 active torsions:
REMARK  status: ('A' for Active; 'I' for Inactive)
REMARK    1  A    between atoms: C_1  and  C_2 
REMARK    2  A    between atoms: C_17  and  C_20 
REMARK    3  A    between atoms: C_20  and  C_21 
REMARK    4  A    between atoms: C_21  and  S_22 
REMARK    5  A    between atoms: S_22  and  C_23 
REMARK    6  A    between atoms: N_26  and  C_29 
REMARK    7  A    between atoms: C_29  and  C_30 
REMARK    8  A    between atoms: C_30  and  C_31 
ROOT
ATOM      1  C   LIG d   1       6.650  -2.762  -8.950  0.00  0.00    -0.049 A 
ATOM      2  C   LIG d   1       6.428  -2.137  -7.736  0.00  0.00    -0.051 A 
ATOM      3  C   LIG d   1       7.043  -2.604  -6.596  0.00  0.00     0.005 A 
ATOM      4  C   LIG d   1       7.891  -3.707  -6.649  0.00  0.00     0.057 A 
ATOM      5  C   LIG d   1       8.110  -4.331  -7.876  0.00  0.00     0.063 A 
ATOM      6  C   LIG d   1       7.487  -3.861  -9.016  0.00  0.00    -0.039 A 
ATOM      7 CL   LIG d   1       9.163  -5.707  -7.972  0.00  0.00    -0.082 Cl
ATOM      8  N   LIG d   1       8.393  -3.992  -5.378  0.00  0.00    -0.282 N 
ATOM      9  C   LIG d   1       7.932  -3.137  -4.446  0.00  0.00     0.243 A 
ATOM     10  O   LIG d   1       8.197  -3.142  -3.262  0.00  0.00    -0.273 OA
ATOM     11  C   LIG d   1       7.023  -2.172  -5.158  0.00  0.00     0.136 A 
ATOM     12  C   LIG d   1       5.603  -2.208  -4.577  0.00  0.00     0.080 A 
ATOM     13  H   LIG d   1       5.372  -3.158  -4.094  0.00  0.00     0.043 H 
ATOM     14  C   LIG d   1       5.552  -1.004  -3.597  0.00  0.00     0.065 A 
ATOM     15  H   LIG d   1       5.273  -1.295  -2.584  0.00  0.00     0.042 H 
ATOM     16  C   LIG d   1       6.959  -0.375  -3.666  0.00  0.00     0.021 C 
ATOM     17  H   LIG d   1       7.586  -0.759  -2.861  0.00  0.00     0.047 H 
ATOM     18  N   LIG d   1       7.487  -0.781  -5.004  0.00  0.00    -0.295 N 
ATOM     19  C   LIG d   1       4.543  -0.076  -4.234  0.00  0.00     0.227 A 
ATOM     20  O   LIG d   1       4.205   1.001  -3.794  0.00  0.00    -0.275 OA
ATOM     21  N   LIG d   1       4.082  -0.629  -5.363  0.00  0.00    -0.241 N 
ATOM     22  C   LIG d   1       4.606  -1.843  -5.654  0.00  0.00     0.228 A 
ATOM     23  O   LIG d   1       4.329  -2.528  -6.615  0.00  0.00    -0.275 OA
ATOM     24  H   LIG d   1       5.772  -1.280  -7.682  0.00  0.00     0.062 H 
ATOM     25  H   LIG d   1       7.657  -4.351  -9.962  0.00  0.00     0.064 H 
ATOM     26  H   LIG d   1       9.003  -4.722  -5.187  0.00  0.00     0.155 HD
ATOM     27  H   LIG d   1       8.495  -0.732  -5.019  0.00  0.00     0.123 HD
ENDROOT
BRANCH  16  28
ATOM     28  C   LIG d   1       6.866   1.150  -3.586  0.00  0.00    -0.028 C 
ATOM     29  H   LIG d   1       5.857   1.466  -3.851  0.00  0.00     0.029 H 
ATOM     30  H   LIG d   1       7.094   1.475  -2.571  0.00  0.00     0.029 H 
BRANCH  28  31
ATOM     31  C   LIG d   1       7.869   1.774  -4.558  0.00  0.00    -0.005 C 
ATOM     32  H   LIG d   1       8.222   1.013  -5.255  0.00  0.00     0.038 H 
ATOM     33  H   LIG d   1       7.384   2.578  -5.114  0.00  0.00     0.038 H 
BRANCH  31  34
ATOM     34  S   LIG d   1       9.275   2.444  -3.630  0.00  0.00    -0.164 SA
BRANCH  34  35
ATOM     35  C   LIG d   1       9.551   4.079  -4.368  0.00  0.00    -0.018 C 
ATOM     36  H   LIG d   1      10.606   4.192  -4.617  0.00  0.00     0.034 H 
ATOM     37  H   LIG d   1       8.951   4.174  -5.274  0.00  0.00     0.034 H 
ATOM     38  H   LIG d   1       9.259   4.852  -3.657  0.00  0.00     0.034 H 
ENDBRANCH  34  35
ENDBRANCH  31  34
ENDBRANCH  28  31
ENDBRANCH  16  28
BRANCH   1  39
ATOM     39  C   LIG d   1       5.975  -2.251 -10.197  0.00  0.00    -0.040 C 
ATOM     40  H   LIG d   1       6.309  -1.234 -10.400  0.00  0.00     0.028 H 
ATOM     41  H   LIG d   1       6.233  -2.893 -11.039  0.00  0.00     0.028 H 
ATOM     42  H   LIG d   1       4.894  -2.257 -10.053  0.00  0.00     0.028 H 
ENDBRANCH   1  39
BRANCH  21  43
ATOM     43  C   LIG d   1       3.084   0.022  -6.215  0.00  0.00     0.026 C 
ATOM     44  H   LIG d   1       2.427  -0.732  -6.646  0.00  0.00     0.047 H 
ATOM     45  H   LIG d   1       2.495   0.718  -5.617  0.00  0.00     0.047 H 
BRANCH  43  46
ATOM     46  C   LIG d   1       3.791   0.785  -7.336  0.00  0.00    -0.011 C 
ATOM     47  H   LIG d   1       3.585   1.851  -7.236  0.00  0.00     0.033 H 
ATOM     48  H   LIG d   1       4.864   0.615  -7.271  0.00  0.00     0.033 H 
BRANCH  46  49
ATOM     49  C   LIG d   1       3.285   0.299  -8.670  0.00  0.00    -0.046 A 
ATOM     50  C   LIG d   1       2.253  -0.621  -8.724  0.00  0.00    -0.059 A 
ATOM     51  C   LIG d   1       1.787  -1.063  -9.948  0.00  0.00    -0.061 A 
ATOM     52  H   LIG d   1       1.812  -0.991  -7.812  0.00  0.00     0.062 H 
ATOM     53  C   LIG d   1       2.357  -0.594 -11.117  0.00  0.00    -0.062 A 
ATOM     54  H   LIG d   1       0.979  -1.778  -9.990  0.00  0.00     0.062 H 
ATOM     55  C   LIG d   1       3.391   0.322 -11.062  0.00  0.00    -0.061 A 
ATOM     56  H   LIG d   1       1.993  -0.942 -12.073  0.00  0.00     0.062 H 
ATOM     57  C   LIG d   1       3.855   0.768  -9.839  0.00  0.00    -0.059 A 
ATOM     58  H   LIG d   1       3.835   0.689 -11.974  0.00  0.00     0.062 H 
ATOM     59  H   LIG d   1       4.663   1.483  -9.796  0.00  0.00     0.062 H 
ENDBRANCH  46  49
ENDBRANCH  43  46
ENDBRANCH  21  43
TORSDOF 8
ENDMDL
MODEL 8
REMARK VINA RESULT:      -5.4     10.252     12.755
REMARK  8 active torsions:
REMARK  status: ('A' for Active; 'I' for Inactive)
REMARK    1  A    between atoms: C_1  and  C_2 
REMARK    2  A    between atoms: C_17  and  C_20 
REMARK    3  A    between atoms: C_20  and  C_21 
REMARK    4  A    between atoms: C_21  and  S_22 
REMARK    5  A    between atoms: S_22  and  C_23 
REMARK    6  A    between atoms: N_26  and  C_29 
REMARK    7  A    between atoms: C_29  and  C_30 
REMARK    8  A    between atoms: C_30  and  C_31 
ROOT
ATOM      1  C   LIG d   1      10.515  10.496  -4.548  0.00  0.00    -0.049 A 
ATOM      2  C   LIG d   1      10.684   9.527  -3.575  0.00  0.00    -0.051 A 
ATOM      3  C   LIG d   1      10.281   8.232  -3.814  0.00  0.00     0.005 A 
ATOM      4  C   LIG d   1       9.700   7.883  -5.030  0.00  0.00     0.057 A 
ATOM      5  C   LIG d   1       9.534   8.866  -6.005  0.00  0.00     0.063 A 
ATOM      6  C   LIG d   1       9.936  10.164  -5.758  0.00  0.00    -0.039 A 
ATOM      7 CL   LIG d   1       8.814   8.458  -7.530  0.00  0.00    -0.082 Cl
ATOM      8  N   LIG d   1       9.376   6.525  -5.039  0.00  0.00    -0.282 N 
ATOM      9  C   LIG d   1       9.706   5.916  -3.884  0.00  0.00     0.243 A 
ATOM     10  O   LIG d   1       9.543   4.746  -3.609  0.00  0.00    -0.273 OA
ATOM     11  C   LIG d   1      10.317   6.970  -3.001  0.00  0.00     0.136 A 
ATOM     12  C   LIG d   1       9.536   7.121  -1.689  0.00  0.00     0.080 A 
ATOM     13  H   LIG d   1       8.497   6.804  -1.780  0.00  0.00     0.043 H 
ATOM     14  C   LIG d   1      10.337   6.278  -0.658  0.00  0.00     0.065 A 
ATOM     15  H   LIG d   1       9.729   5.513  -0.174  0.00  0.00     0.042 H 
ATOM     16  C   LIG d   1      11.510   5.680  -1.462  0.00  0.00     0.021 C 
ATOM     17  H   LIG d   1      11.262   4.675  -1.805  0.00  0.00     0.047 H 
ATOM     18  N   LIG d   1      11.694   6.615  -2.613  0.00  0.00    -0.295 N 
ATOM     19  C   LIG d   1      10.855   7.312   0.314  0.00  0.00     0.227 A 
ATOM     20  O   LIG d   1      11.545   7.080   1.283  0.00  0.00    -0.275 OA
ATOM     21  N   LIG d   1      10.433   8.526  -0.062  0.00  0.00    -0.241 N 
ATOM     22  C   LIG d   1       9.670   8.539  -1.180  0.00  0.00     0.228 A 
ATOM     23  O   LIG d   1       9.175   9.519  -1.694  0.00  0.00    -0.275 OA
ATOM     24  H   LIG d   1      11.133   9.786  -2.627  0.00  0.00     0.062 H 
ATOM     25  H   LIG d   1       9.800  10.921  -6.515  0.00  0.00     0.064 H 
ATOM     26  H   LIG d   1       8.960   6.072  -5.790  0.00  0.00     0.155 HD
ATOM     27  H   LIG d   1      12.177   6.156  -3.371  0.00  0.00     0.123 HD
ENDROOT
BRANCH  16  28
ATOM     28  C   LIG d   1      12.781   5.651  -0.609  0.00  0.00    -0.028 C 
ATOM     29  H   LIG d   1      12.903   6.612  -0.108  0.00  0.00     0.029 H 
ATOM     30  H   LIG d   1      12.699   4.860   0.137  0.00  0.00     0.029 H 
BRANCH  28  31
ATOM     31  C   LIG d   1      13.991   5.384  -1.505  0.00  0.00    -0.005 C 
ATOM     32  H   LIG d   1      14.192   4.313  -1.535  0.00  0.00     0.038 H 
ATOM     33  H   LIG d   1      13.783   5.744  -2.513  0.00  0.00     0.038 H 
BRANCH  31  34
ATOM     34  S   LIG d   1      15.438   6.253  -0.840  0.00  0.00    -0.164 SA
BRANCH  34  35
ATOM     35  C   LIG d   1      14.810   7.907  -0.437  0.00  0.00    -0.018 C 
ATOM     36  H   LIG d   1      14.712   8.006   0.644  0.00  0.00     0.034 H 
ATOM     37  H   LIG d   1      15.505   8.660  -0.810  0.00  0.00     0.034 H 
ATOM     38  H   LIG d   1      13.835   8.050  -0.905  0.00  0.00     0.034 H 
ENDBRANCH  34  35
ENDBRANCH  31  34
ENDBRANCH  28  31
ENDBRANCH  16  28
BRANCH   1  39
ATOM     39  C   LIG d   1      10.956  11.914  -4.285  0.00  0.00    -0.040 C 
ATOM     40  H   LIG d   1      11.977  12.048  -4.641  0.00  0.00     0.028 H 
ATOM     41  H   LIG d   1      10.294  12.603  -4.809  0.00  0.00     0.028 H 
ATOM     42  H   LIG d   1      10.914  12.114  -3.214  0.00  0.00     0.028 H 
ENDBRANCH   1  39
BRANCH  21  43
ATOM     43  C   LIG d   1      10.765   9.745   0.680  0.00  0.00     0.026 C 
ATOM     44  H   LIG d   1       9.959  10.469   0.566  0.00  0.00     0.047 H 
ATOM     45  H   LIG d   1      10.892   9.505   1.736  0.00  0.00     0.047 H 
BRANCH  43  46
ATOM     46  C   LIG d   1      12.064  10.338   0.132  0.00  0.00    -0.011 C 
ATOM     47  H   LIG d   1      12.803  10.395   0.931  0.00  0.00     0.033 H 
ATOM     48  H   LIG d   1      12.444   9.704  -0.668  0.00  0.00     0.033 H 
BRANCH  46  49
ATOM     49  C   LIG d   1      11.798  11.720  -0.405  0.00  0.00    -0.046 A 
ATOM     50  C   LIG d   1      10.536  12.275  -0.292  0.00  0.00    -0.059 A 
ATOM     51  C   LIG d   1      10.293  13.544  -0.781  0.00  0.00    -0.061 A 
ATOM     52  H   LIG d   1       9.742  11.717   0.181  0.00  0.00     0.062 H 
ATOM     53  C   LIG d   1      11.308  14.257  -1.391  0.00  0.00    -0.062 A 
ATOM     54  H   LIG d   1       9.309  13.979  -0.688  0.00  0.00     0.062 H 
ATOM     55  C   LIG d   1      12.568  13.700  -1.509  0.00  0.00    -0.061 A 
ATOM     56  H   LIG d   1      11.117  15.248  -1.776  0.00  0.00     0.062 H 
ATOM     57  C   LIG d   1      12.813  12.432  -1.017  0.00  0.00    -0.059 A 
ATOM     58  H   LIG d   1      13.361  14.256  -1.985  0.00  0.00     0.062 H 
ATOM     59  H   LIG d   1      13.797  11.998  -1.109  0.00  0.00     0.062 H 
ENDBRANCH  46  49
ENDBRANCH  43  46
ENDBRANCH  21  43
TORSDOF 8
ENDMDL
MODEL 9
REMARK VINA RESULT:      -5.4      3.119      5.982
REMARK  8 active torsions:
REMARK  status: ('A' for Active; 'I' for Inactive)
REMARK    1  A    between atoms: C_1  and  C_2 
REMARK    2  A    between atoms: C_17  and  C_20 
REMARK    3  A    between atoms: C_20  and  C_21 
REMARK    4  A    between atoms: C_21  and  S_22 
REMARK    5  A    between atoms: S_22  and  C_23 
REMARK    6  A    between atoms: N_26  and  C_29 
REMARK    7  A    between atoms: C_29  and  C_30 
REMARK    8  A    between atoms: C_30  and  C_31 
ROOT
ATOM      1  C   LIG d   1       3.615  -0.235  -5.397  0.00  0.00    -0.049 A 
ATOM      2  C   LIG d   1       4.529  -1.219  -5.733  0.00  0.00    -0.051 A 
ATOM      3  C   LIG d   1       5.497  -1.599  -4.831  0.00  0.00     0.005 A 
ATOM      4  C   LIG d   1       5.570  -1.001  -3.576  0.00  0.00     0.057 A 
ATOM      5  C   LIG d   1       4.645  -0.012  -3.244  0.00  0.00     0.063 A 
ATOM      6  C   LIG d   1       3.680   0.369  -4.155  0.00  0.00    -0.039 A 
ATOM      7 CL   LIG d   1       4.713   0.748  -1.686  0.00  0.00    -0.082 Cl
ATOM      8  N   LIG d   1       6.625  -1.547  -2.841  0.00  0.00    -0.282 N 
ATOM      9  C   LIG d   1       7.287  -2.496  -3.531  0.00  0.00     0.243 A 
ATOM     10  O   LIG d   1       8.241  -3.138  -3.147  0.00  0.00    -0.273 OA
ATOM     11  C   LIG d   1       6.611  -2.605  -4.871  0.00  0.00     0.136 A 
ATOM     12  C   LIG d   1       7.591  -2.318  -6.016  0.00  0.00     0.080 A 
ATOM     13  H   LIG d   1       8.427  -1.692  -5.706  0.00  0.00     0.043 H 
ATOM     14  C   LIG d   1       8.038  -3.723  -6.509  0.00  0.00     0.065 A 
ATOM     15  H   LIG d   1       9.120  -3.854  -6.484  0.00  0.00     0.042 H 
ATOM     16  C   LIG d   1       7.300  -4.718  -5.590  0.00  0.00     0.021 C 
ATOM     17  H   LIG d   1       7.941  -5.015  -4.760  0.00  0.00     0.047 H 
ATOM     18  N   LIG d   1       6.101  -3.969  -5.107  0.00  0.00    -0.295 N 
ATOM     19  C   LIG d   1       7.473  -3.799  -7.908  0.00  0.00     0.227 A 
ATOM     20  O   LIG d   1       7.585  -4.745  -8.658  0.00  0.00    -0.275 OA
ATOM     21  N   LIG d   1       6.829  -2.660  -8.191  0.00  0.00    -0.241 N 
ATOM     22  C   LIG d   1       6.837  -1.743  -7.195  0.00  0.00     0.228 A 
ATOM     23  O   LIG d   1       6.327  -0.644  -7.233  0.00  0.00    -0.275 OA
ATOM     24  H   LIG d   1       4.482  -1.689  -6.705  0.00  0.00     0.062 H 
ATOM     25  H   LIG d   1       2.969   1.139  -3.894  0.00  0.00     0.064 H 
ATOM     26  H   LIG d   1       6.855  -1.274  -1.939  0.00  0.00     0.155 HD
ATOM     27  H   LIG d   1       5.746  -4.375  -4.255  0.00  0.00     0.123 HD
ENDROOT
BRANCH  16  28
ATOM     28  C   LIG d   1       6.856  -5.949  -6.385  0.00  0.00    -0.028 C 
ATOM     29  H   LIG d   1       5.875  -5.763  -6.823  0.00  0.00     0.029 H 
ATOM     30  H   LIG d   1       7.576  -6.147  -7.179  0.00  0.00     0.029 H 
BRANCH  28  31
ATOM     31  C   LIG d   1       6.780  -7.159  -5.453  0.00  0.00    -0.005 C 
ATOM     32  H   LIG d   1       7.504  -7.909  -5.771  0.00  0.00     0.038 H 
ATOM     33  H   LIG d   1       7.006  -6.846  -4.432  0.00  0.00     0.038 H 
BRANCH  31  34
ATOM     34  S   LIG d   1       5.111  -7.864  -5.513  0.00  0.00    -0.164 SA
BRANCH  34  35
ATOM     35  C   LIG d   1       5.252  -9.408  -4.569  0.00  0.00    -0.018 C 
ATOM     36  H   LIG d   1       4.283  -9.659  -4.137  0.00  0.00     0.034 H 
ATOM     37  H   LIG d   1       5.574 -10.211  -5.232  0.00  0.00     0.034 H 
ATOM     38  H   LIG d   1       5.984  -9.280  -3.771  0.00  0.00     0.034 H 
ENDBRANCH  34  35
ENDBRANCH  31  34
ENDBRANCH  28  31
ENDBRANCH  16  28
BRANCH   1  39
ATOM     39  C   LIG d   1       2.557   0.181  -6.386  0.00  0.00    -0.040 C 
ATOM     40  H   LIG d   1       2.817  -0.192  -7.376  0.00  0.00     0.028 H 
ATOM     41  H   LIG d   1       1.594  -0.231  -6.083  0.00  0.00     0.028 H 
ATOM     42  H   LIG d   1       2.493   1.269  -6.412  0.00  0.00     0.028 H 
ENDBRANCH   1  39
BRANCH  21  43
ATOM     43  C   LIG d   1       6.171  -2.420  -9.477  0.00  0.00     0.026 C 
ATOM     44  H   LIG d   1       6.158  -1.350  -9.683  0.00  0.00     0.047 H 
ATOM     45  H   LIG d   1       6.718  -2.935 -10.267  0.00  0.00     0.047 H 
BRANCH  43  46
ATOM     46  C   LIG d   1       4.736  -2.948  -9.423  0.00  0.00    -0.011 C 
ATOM     47  H   LIG d   1       4.592  -3.690 -10.208  0.00  0.00     0.033 H 
ATOM     48  H   LIG d   1       4.554  -3.406  -8.452  0.00  0.00     0.033 H 
BRANCH  46  49
ATOM     49  C   LIG d   1       3.774  -1.806  -9.628  0.00  0.00    -0.046 A 
ATOM     50  C   LIG d   1       2.411  -2.029  -9.552  0.00  0.00    -0.059 A 
ATOM     51  C   LIG d   1       1.529  -0.981  -9.736  0.00  0.00    -0.061 A 
ATOM     52  H   LIG d   1       2.037  -3.021  -9.348  0.00  0.00     0.062 H 
ATOM     53  C   LIG d   1       2.007   0.288 -10.003  0.00  0.00    -0.062 A 
ATOM     54  H   LIG d   1       0.465  -1.155  -9.673  0.00  0.00     0.062 H 
ATOM     55  C   LIG d   1       3.370   0.510 -10.082  0.00  0.00    -0.061 A 
ATOM     56  H   LIG d   1       1.317   1.106 -10.148  0.00  0.00     0.062 H 
ATOM     57  C   LIG d   1       4.253  -0.537  -9.895  0.00  0.00    -0.059 A 
ATOM     58  H   LIG d   1       3.744   1.500 -10.291  0.00  0.00     0.062 H 
ATOM     59  H   LIG d   1       5.317  -0.364  -9.958  0.00  0.00     0.062 H 
ENDBRANCH  46  49
ENDBRANCH  43  46
ENDBRANCH  21  43
TORSDOF 8
ENDMDL
