MODEL 1
REMARK VINA RESULT:      -7.1      0.000      0.000
REMARK  7 active torsions:
REMARK  status: ('A' for Active; 'I' for Inactive)
REMARK    1  A    between atoms: C_1  and  O_2 
REMARK    2  A    between atoms: O_2  and  C_3 
REMARK    3  A    between atoms: C_8  and  C_9 
REMARK    4  A    between atoms: C_9  and  C_10 
REMARK    5  A    between atoms: C_10  and  N_11 
REMARK    6  A    between atoms: N_11  and  C_12 
REMARK    7  A    between atoms: C_20  and  N_22 
ROOT
ATOM      1  C   LIG d   1       4.491  -2.192  -8.144  0.00  0.00     0.020 C 
ATOM      2  H   LIG d   1       4.927  -2.957  -8.786  0.00  0.00     0.047 H 
ATOM      3  H   LIG d   1       5.184  -1.355  -8.054  0.00  0.00     0.047 H 
ENDROOT
BRANCH   1   4
ATOM      4  C   LIG d   1       3.176  -1.703  -8.754  0.00  0.00    -0.009 C 
ATOM      5  H   LIG d   1       2.368  -1.844  -8.035  0.00  0.00     0.033 H 
ATOM      6  H   LIG d   1       2.961  -2.272  -9.658  0.00  0.00     0.033 H 
BRANCH   4   7
ATOM      7  C   LIG d   1       3.295  -0.240  -9.097  0.00  0.00    -0.004 A 
ATOM      8  C   LIG d   1       3.805   0.145 -10.327  0.00  0.00     0.123 A 
ATOM      9  C   LIG d   1       3.908   1.493 -10.642  0.00  0.00    -0.020 A 
ATOM     10  C   LIG d   1       3.507   2.446  -9.728  0.00  0.00    -0.058 A 
ATOM     11  H   LIG d   1       4.302   1.795 -11.602  0.00  0.00     0.065 H 
ATOM     12  C   LIG d   1       3.002   2.060  -8.500  0.00  0.00    -0.061 A 
ATOM     13  H   LIG d   1       3.587   3.495  -9.973  0.00  0.00     0.062 H 
ATOM     14  C   LIG d   1       2.899   0.719  -8.183  0.00  0.00    -0.055 A 
ATOM     15  H   LIG d   1       2.689   2.808  -7.786  0.00  0.00     0.062 H 
ATOM     16  H   LIG d   1       2.506   0.419  -7.223  0.00  0.00     0.062 H 
BRANCH   8  17
ATOM     17  O   LIG d   1       4.199  -0.796 -11.226  0.00  0.00    -0.495 OA
BRANCH  17  18
ATOM     18  C   LIG d   1       4.270  -0.395 -12.596  0.00  0.00     0.079 C 
ATOM     19  H   LIG d   1       3.948   0.641 -12.689  0.00  0.00     0.066 H 
ATOM     20  H   LIG d   1       5.298  -0.489 -12.948  0.00  0.00     0.066 H 
ATOM     21  H   LIG d   1       3.621  -1.034 -13.194  0.00  0.00     0.066 H 
ENDBRANCH  17  18
ENDBRANCH   8  17
ENDBRANCH   4   7
ENDBRANCH   1   4
BRANCH   1  22
ATOM     22  N   LIG d   1       4.234  -2.757  -6.817  0.00  0.00    -0.274 N 
ATOM     23  H   LIG d   1       3.839  -3.639  -6.734  0.00  0.00     0.153 HD
BRANCH  22  24
ATOM     24  C   LIG d   1       4.557  -2.033  -5.683  0.00  0.00     0.374 A 
ATOM     25  N   LIG d   1       5.728  -2.259  -5.096  0.00  0.00    -0.157 NA
ATOM     26  C   LIG d   1       6.096  -1.594  -4.010  0.00  0.00     0.138 A 
ATOM     27  C   LIG d   1       5.201  -0.634  -3.475  0.00  0.00     0.086 A 
ATOM     28  C   LIG d   1       3.963  -0.430  -4.131  0.00  0.00     0.219 A 
ATOM     29  C   LIG d   1       5.509   0.108  -2.329  0.00  0.00    -0.045 A 
ATOM     30  N   LIG d   1       3.688  -1.151  -5.228  0.00  0.00    -0.174 N 
ATOM     31  C   LIG d   1       3.063   0.515  -3.619  0.00  0.00     0.011 A 
ATOM     32  H   LIG d   1       2.844  -1.023  -5.689  0.00  0.00     0.457 HD
ATOM     33  C   LIG d   1       3.392   1.221  -2.501  0.00  0.00    -0.056 A 
ATOM     34  H   LIG d   1       2.115   0.682  -4.109  0.00  0.00     0.068 H 
ATOM     35  C   LIG d   1       4.610   1.020  -1.857  0.00  0.00    -0.061 A 
ATOM     36  H   LIG d   1       2.697   1.949  -2.108  0.00  0.00     0.062 H 
ATOM     37  H   LIG d   1       4.847   1.593  -0.974  0.00  0.00     0.062 H 
ATOM     38  H   LIG d   1       6.450  -0.039  -1.822  0.00  0.00     0.063 H 
BRANCH  26  39
ATOM     39  N   LIG d   1       7.315  -1.834  -3.413  0.00  0.00    -0.342 N 
ATOM     40  H   LIG d   1       7.374  -1.917  -2.449  0.00  0.00     0.144 HD
ATOM     41  H   LIG d   1       8.113  -1.920  -3.957  0.00  0.00     0.144 HD
ENDBRANCH  26  39
ENDBRANCH  22  24
ENDBRANCH   1  22
TORSDOF 7
ENDMDL
MODEL 2
REMARK VINA RESULT:      -6.9      1.973      2.636
REMARK  7 active torsions:
REMARK  status: ('A' for Active; 'I' for Inactive)
REMARK    1  A    between atoms: C_1  and  O_2 
REMARK    2  A    between atoms: O_2  and  C_3 
REMARK    3  A    between atoms: C_8  and  C_9 
REMARK    4  A    between atoms: C_9  and  C_10 
REMARK    5  A    between atoms: C_10  and  N_11 
REMARK    6  A    between atoms: N_11  and  C_12 
REMARK    7  A    between atoms: C_20  and  N_22 
ROOT
ATOM      1  C   LIG d   1       3.903  -4.456  -6.755  0.00  0.00     0.020 C 
ATOM      2  H   LIG d   1       2.916  -4.041  -6.559  0.00  0.00     0.047 H 
ATOM      3  H   LIG d   1       3.800  -5.454  -7.182  0.00  0.00     0.047 H 
ENDROOT
BRANCH   1   4
ATOM      4  C   LIG d   1       4.649  -3.554  -7.741  0.00  0.00    -0.009 C 
ATOM      5  H   LIG d   1       5.092  -4.165  -8.528  0.00  0.00     0.033 H 
ATOM      6  H   LIG d   1       5.436  -3.014  -7.215  0.00  0.00     0.033 H 
BRANCH   4   7
ATOM      7  C   LIG d   1       3.684  -2.570  -8.350  0.00  0.00    -0.004 A 
ATOM      8  C   LIG d   1       3.637  -1.265  -7.883  0.00  0.00     0.123 A 
ATOM      9  C   LIG d   1       2.751  -0.359  -8.449  0.00  0.00    -0.020 A 
ATOM     10  C   LIG d   1       1.916  -0.761  -9.473  0.00  0.00    -0.058 A 
ATOM     11  H   LIG d   1       2.715   0.659  -8.090  0.00  0.00     0.065 H 
ATOM     12  C   LIG d   1       1.963  -2.064  -9.935  0.00  0.00    -0.061 A 
ATOM     13  H   LIG d   1       1.227  -0.056  -9.915  0.00  0.00     0.062 H 
ATOM     14  C   LIG d   1       2.843  -2.968  -9.371  0.00  0.00    -0.055 A 
ATOM     15  H   LIG d   1       1.308  -2.376 -10.736  0.00  0.00     0.062 H 
ATOM     16  H   LIG d   1       2.877  -3.986  -9.732  0.00  0.00     0.062 H 
BRANCH   8  17
ATOM     17  O   LIG d   1       4.460  -0.872  -6.875  0.00  0.00    -0.495 OA
BRANCH  17  18
ATOM     18  C   LIG d   1       5.622  -0.125  -7.241  0.00  0.00     0.079 C 
ATOM     19  H   LIG d   1       5.632   0.820  -6.698  0.00  0.00     0.066 H 
ATOM     20  H   LIG d   1       6.515  -0.697  -6.990  0.00  0.00     0.066 H 
ATOM     21  H   LIG d   1       5.604   0.072  -8.312  0.00  0.00     0.066 H 
ENDBRANCH  17  18
ENDBRANCH   8  17
ENDBRANCH   4   7
ENDBRANCH   1   4
BRANCH   1  22
ATOM     22  N   LIG d   1       4.657  -4.538  -5.501  0.00  0.00    -0.274 N 
ATOM     23  H   LIG d   1       5.007  -5.392  -5.201  0.00  0.00     0.153 HD
BRANCH  22  24
ATOM     24  C   LIG d   1       4.870  -3.399  -4.746  0.00  0.00     0.374 A 
ATOM     25  N   LIG d   1       6.116  -3.081  -4.412  0.00  0.00    -0.157 NA
ATOM     26  C   LIG d   1       6.385  -1.999  -3.694  0.00  0.00     0.138 A 
ATOM     27  C   LIG d   1       5.302  -1.185  -3.277  0.00  0.00     0.086 A 
ATOM     28  C   LIG d   1       3.991  -1.565  -3.653  0.00  0.00     0.219 A 
ATOM     29  C   LIG d   1       5.496  -0.029  -2.513  0.00  0.00    -0.045 A 
ATOM     30  N   LIG d   1       3.826  -2.676  -4.385  0.00  0.00    -0.174 N 
ATOM     31  C   LIG d   1       2.906  -0.774  -3.251  0.00  0.00     0.011 A 
ATOM     32  H   LIG d   1       2.935  -2.950  -4.651  0.00  0.00     0.457 HD
ATOM     33  C   LIG d   1       3.128   0.346  -2.507  0.00  0.00    -0.056 A 
ATOM     34  H   LIG d   1       1.900  -1.051  -3.530  0.00  0.00     0.068 H 
ATOM     35  C   LIG d   1       4.418   0.718  -2.138  0.00  0.00    -0.061 A 
ATOM     36  H   LIG d   1       2.291   0.954  -2.198  0.00  0.00     0.062 H 
ATOM     37  H   LIG d   1       4.567   1.611  -1.550  0.00  0.00     0.062 H 
ATOM     38  H   LIG d   1       6.492   0.270  -2.222  0.00  0.00     0.063 H 
BRANCH  26  39
ATOM     39  N   LIG d   1       7.682  -1.678  -3.358  0.00  0.00    -0.342 N 
ATOM     40  H   LIG d   1       7.907  -1.473  -2.437  0.00  0.00     0.144 HD
ATOM     41  H   LIG d   1       8.369  -1.656  -4.042  0.00  0.00     0.144 HD
ENDBRANCH  26  39
ENDBRANCH  22  24
ENDBRANCH   1  22
TORSDOF 7
ENDMDL
MODEL 3
REMARK VINA RESULT:      -6.9      2.445      6.507
REMARK  7 active torsions:
REMARK  status: ('A' for Active; 'I' for Inactive)
REMARK    1  A    between atoms: C_1  and  O_2 
REMARK    2  A    between atoms: O_2  and  C_3 
REMARK    3  A    between atoms: C_8  and  C_9 
REMARK    4  A    between atoms: C_9  and  C_10 
REMARK    5  A    between atoms: C_10  and  N_11 
REMARK    6  A    between atoms: N_11  and  C_12 
REMARK    7  A    between atoms: C_20  and  N_22 
ROOT
ATOM      1  C   LIG d   1       5.248  -2.692  -5.058  0.00  0.00     0.020 C 
ATOM      2  H   LIG d   1       5.798  -3.559  -5.422  0.00  0.00     0.047 H 
ATOM      3  H   LIG d   1       4.179  -2.908  -5.071  0.00  0.00     0.047 H 
ENDROOT
BRANCH   1   4
ATOM      4  C   LIG d   1       5.686  -2.375  -3.627  0.00  0.00    -0.009 C 
ATOM      5  H   LIG d   1       6.769  -2.257  -3.597  0.00  0.00     0.033 H 
ATOM      6  H   LIG d   1       5.391  -3.192  -2.968  0.00  0.00     0.033 H 
BRANCH   4   7
ATOM      7  C   LIG d   1       5.028  -1.098  -3.171  0.00  0.00    -0.004 A 
ATOM      8  C   LIG d   1       5.764   0.075  -3.098  0.00  0.00     0.123 A 
ATOM      9  C   LIG d   1       5.154   1.250  -2.683  0.00  0.00    -0.020 A 
ATOM     10  C   LIG d   1       3.817   1.247  -2.339  0.00  0.00    -0.058 A 
ATOM     11  H   LIG d   1       5.724   2.165  -2.630  0.00  0.00     0.065 H 
ATOM     12  C   LIG d   1       3.085   0.075  -2.407  0.00  0.00    -0.061 A 
ATOM     13  H   LIG d   1       3.341   2.162  -2.016  0.00  0.00     0.062 H 
ATOM     14  C   LIG d   1       3.691  -1.097  -2.819  0.00  0.00    -0.055 A 
ATOM     15  H   LIG d   1       2.039   0.076  -2.137  0.00  0.00     0.062 H 
ATOM     16  H   LIG d   1       3.119  -2.011  -2.872  0.00  0.00     0.062 H 
BRANCH   8  17
ATOM     17  O   LIG d   1       7.080   0.074  -3.438  0.00  0.00    -0.495 OA
BRANCH  17  18
ATOM     18  C   LIG d   1       7.646   1.322  -3.844  0.00  0.00     0.079 C 
ATOM     19  H   LIG d   1       8.578   1.491  -3.306  0.00  0.00     0.066 H 
ATOM     20  H   LIG d   1       7.844   1.300  -4.915  0.00  0.00     0.066 H 
ATOM     21  H   LIG d   1       6.946   2.128  -3.620  0.00  0.00     0.066 H 
ENDBRANCH  17  18
ENDBRANCH   8  17
ENDBRANCH   4   7
ENDBRANCH   1   4
BRANCH   1  22
ATOM     22  N   LIG d   1       5.524  -1.540  -5.920  0.00  0.00    -0.274 N 
ATOM     23  H   LIG d   1       6.356  -1.052  -5.825  0.00  0.00     0.153 HD
BRANCH  22  24
ATOM     24  C   LIG d   1       4.597  -1.150  -6.871  0.00  0.00     0.374 A 
ATOM     25  N   LIG d   1       4.260   0.134  -6.941  0.00  0.00    -0.157 NA
ATOM     26  C   LIG d   1       3.382   0.570  -7.833  0.00  0.00     0.138 A 
ATOM     27  C   LIG d   1       2.795  -0.373  -8.714  0.00  0.00     0.086 A 
ATOM     28  C   LIG d   1       3.181  -1.731  -8.599  0.00  0.00     0.219 A 
ATOM     29  C   LIG d   1       1.856   0.001  -9.681  0.00  0.00    -0.045 A 
ATOM     30  N   LIG d   1       4.083  -2.069  -7.666  0.00  0.00    -0.174 N 
ATOM     31  C   LIG d   1       2.613  -2.680  -9.460  0.00  0.00     0.011 A 
ATOM     32  H   LIG d   1       4.357  -2.995  -7.575  0.00  0.00     0.457 HD
ATOM     33  C   LIG d   1       1.701  -2.283 -10.392  0.00  0.00    -0.056 A 
ATOM     34  H   LIG d   1       2.898  -3.719  -9.385  0.00  0.00     0.068 H 
ATOM     35  C   LIG d   1       1.323  -0.948 -10.503  0.00  0.00    -0.061 A 
ATOM     36  H   LIG d   1       1.264  -3.016 -11.054  0.00  0.00     0.062 H 
ATOM     37  H   LIG d   1       0.599  -0.660 -11.250  0.00  0.00     0.062 H 
ATOM     38  H   LIG d   1       1.556   1.034  -9.777  0.00  0.00     0.063 H 
BRANCH  26  39
ATOM     39  N   LIG d   1       3.044   1.904  -7.899  0.00  0.00    -0.342 N 
ATOM     40  H   LIG d   1       3.487   2.546  -7.323  0.00  0.00     0.144 HD
ATOM     41  H   LIG d   1       2.362   2.201  -8.521  0.00  0.00     0.144 HD
ENDBRANCH  26  39
ENDBRANCH  22  24
ENDBRANCH   1  22
TORSDOF 7
ENDMDL
MODEL 4
REMARK VINA RESULT:      -6.6      2.537      6.597
REMARK  7 active torsions:
REMARK  status: ('A' for Active; 'I' for Inactive)
REMARK    1  A    between atoms: C_1  and  O_2 
REMARK    2  A    between atoms: O_2  and  C_3 
REMARK    3  A    between atoms: C_8  and  C_9 
REMARK    4  A    between atoms: C_9  and  C_10 
REMARK    5  A    between atoms: C_10  and  N_11 
REMARK    6  A    between atoms: N_11  and  C_12 
REMARK    7  A    between atoms: C_20  and  N_22 
ROOT
ATOM      1  C   LIG d   1       7.019   0.217  -5.866  0.00  0.00     0.020 C 
ATOM      2  H   LIG d   1       6.304   1.035  -5.775  0.00  0.00     0.047 H 
ATOM      3  H   LIG d   1       7.881   0.550  -6.444  0.00  0.00     0.047 H 
ENDROOT
BRANCH   1   4
ATOM      4  C   LIG d   1       7.478  -0.216  -4.471  0.00  0.00    -0.009 C 
ATOM      5  H   LIG d   1       8.239   0.476  -4.109  0.00  0.00     0.033 H 
ATOM      6  H   LIG d   1       7.895  -1.221  -4.523  0.00  0.00     0.033 H 
BRANCH   4   7
ATOM      7  C   LIG d   1       6.301  -0.207  -3.530  0.00  0.00    -0.004 A 
ATOM      8  C   LIG d   1       5.628  -1.386  -3.249  0.00  0.00     0.123 A 
ATOM      9  C   LIG d   1       4.548  -1.376  -2.378  0.00  0.00    -0.020 A 
ATOM     10  C   LIG d   1       4.144  -0.190  -1.796  0.00  0.00    -0.058 A 
ATOM     11  H   LIG d   1       4.024  -2.294  -2.155  0.00  0.00     0.065 H 
ATOM     12  C   LIG d   1       4.814   0.985  -2.081  0.00  0.00    -0.061 A 
ATOM     13  H   LIG d   1       3.303  -0.182  -1.117  0.00  0.00     0.062 H 
ATOM     14  C   LIG d   1       5.889   0.978  -2.949  0.00  0.00    -0.055 A 
ATOM     15  H   LIG d   1       4.495   1.911  -1.624  0.00  0.00     0.062 H 
ATOM     16  H   LIG d   1       6.411   1.897  -3.171  0.00  0.00     0.062 H 
BRANCH   8  17
ATOM     17  O   LIG d   1       6.028  -2.552  -3.823  0.00  0.00    -0.495 OA
BRANCH  17  18
ATOM     18  C   LIG d   1       5.021  -3.340  -4.462  0.00  0.00     0.079 C 
ATOM     19  H   LIG d   1       4.549  -3.991  -3.727  0.00  0.00     0.066 H 
ATOM     20  H   LIG d   1       4.270  -2.683  -4.900  0.00  0.00     0.066 H 
ATOM     21  H   LIG d   1       5.477  -3.945  -5.245  0.00  0.00     0.066 H 
ENDBRANCH  17  18
ENDBRANCH   8  17
ENDBRANCH   4   7
ENDBRANCH   1   4
BRANCH   1  22
ATOM     22  N   LIG d   1       6.384  -0.915  -6.544  0.00  0.00    -0.274 N 
ATOM     23  H   LIG d   1       6.763  -1.804  -6.462  0.00  0.00     0.153 HD
BRANCH  22  24
ATOM     24  C   LIG d   1       5.244  -0.716  -7.301  0.00  0.00     0.374 A 
ATOM     25  N   LIG d   1       4.741   0.512  -7.383  0.00  0.00    -0.157 NA
ATOM     26  C   LIG d   1       3.653   0.767  -8.097  0.00  0.00     0.138 A 
ATOM     27  C   LIG d   1       3.024  -0.310  -8.770  0.00  0.00     0.086 A 
ATOM     28  C   LIG d   1       3.592  -1.601  -8.650  0.00  0.00     0.219 A 
ATOM     29  C   LIG d   1       1.870  -0.129  -9.540  0.00  0.00    -0.045 A 
ATOM     30  N   LIG d   1       4.698  -1.753  -7.908  0.00  0.00    -0.174 N 
ATOM     31  C   LIG d   1       2.986  -2.681  -9.307  0.00  0.00     0.011 A 
ATOM     32  H   LIG d   1       5.100  -2.631  -7.816  0.00  0.00     0.457 HD
ATOM     33  C   LIG d   1       1.862  -2.472 -10.050  0.00  0.00    -0.056 A 
ATOM     34  H   LIG d   1       3.408  -3.672  -9.226  0.00  0.00     0.068 H 
ATOM     35  C   LIG d   1       1.305  -1.201 -10.166  0.00  0.00    -0.061 A 
ATOM     36  H   LIG d   1       1.396  -3.305 -10.555  0.00  0.00     0.062 H 
ATOM     37  H   LIG d   1       0.415  -1.063 -10.762  0.00  0.00     0.062 H 
ATOM     38  H   LIG d   1       1.429   0.852  -9.638  0.00  0.00     0.063 H 
BRANCH  26  39
ATOM     39  N   LIG d   1       3.144   2.045  -8.178  0.00  0.00    -0.342 N 
ATOM     40  H   LIG d   1       2.374   2.226  -8.738  0.00  0.00     0.144 HD
ATOM     41  H   LIG d   1       3.557   2.764  -7.674  0.00  0.00     0.144 HD
ENDBRANCH  26  39
ENDBRANCH  22  24
ENDBRANCH   1  22
TORSDOF 7
ENDMDL
MODEL 5
REMARK VINA RESULT:      -6.5      2.341      6.173
REMARK  7 active torsions:
REMARK  status: ('A' for Active; 'I' for Inactive)
REMARK    1  A    between atoms: C_1  and  O_2 
REMARK    2  A    between atoms: O_2  and  C_3 
REMARK    3  A    between atoms: C_8  and  C_9 
REMARK    4  A    between atoms: C_9  and  C_10 
REMARK    5  A    between atoms: C_10  and  N_11 
REMARK    6  A    between atoms: N_11  and  C_12 
REMARK    7  A    between atoms: C_20  and  N_22 
ROOT
ATOM      1  C   LIG d   1       5.409  -2.762  -5.191  0.00  0.00     0.020 C 
ATOM      2  H   LIG d   1       6.030  -1.876  -5.313  0.00  0.00     0.047 H 
ATOM      3  H   LIG d   1       5.995  -3.652  -5.426  0.00  0.00     0.047 H 
ENDROOT
BRANCH   1   4
ATOM      4  C   LIG d   1       4.916  -2.844  -3.745  0.00  0.00    -0.009 C 
ATOM      5  H   LIG d   1       5.697  -3.279  -3.120  0.00  0.00     0.033 H 
ATOM      6  H   LIG d   1       4.025  -3.470  -3.700  0.00  0.00     0.033 H 
BRANCH   4   7
ATOM      7  C   LIG d   1       4.585  -1.461  -3.247  0.00  0.00    -0.004 A 
ATOM      8  C   LIG d   1       5.603  -0.555  -2.985  0.00  0.00     0.123 A 
ATOM      9  C   LIG d   1       5.294   0.720  -2.533  0.00  0.00    -0.020 A 
ATOM     10  C   LIG d   1       3.976   1.082  -2.340  0.00  0.00    -0.058 A 
ATOM     11  H   LIG d   1       6.085   1.428  -2.332  0.00  0.00     0.065 H 
ATOM     12  C   LIG d   1       2.963   0.176  -2.597  0.00  0.00    -0.061 A 
ATOM     13  H   LIG d   1       3.736   2.074  -1.988  0.00  0.00     0.062 H 
ATOM     14  C   LIG d   1       3.268  -1.095  -3.047  0.00  0.00    -0.055 A 
ATOM     15  H   LIG d   1       1.933   0.462  -2.445  0.00  0.00     0.062 H 
ATOM     16  H   LIG d   1       2.475  -1.801  -3.247  0.00  0.00     0.062 H 
BRANCH   8  17
ATOM     17  O   LIG d   1       6.900  -0.915  -3.177  0.00  0.00    -0.495 OA
BRANCH  17  18
ATOM     18  C   LIG d   1       7.686  -0.078  -4.028  0.00  0.00     0.079 C 
ATOM     19  H   LIG d   1       7.133   0.833  -4.253  0.00  0.00     0.066 H 
ATOM     20  H   LIG d   1       8.618   0.178  -3.525  0.00  0.00     0.066 H 
ATOM     21  H   LIG d   1       7.906  -0.608  -4.954  0.00  0.00     0.066 H 
ENDBRANCH  17  18
ENDBRANCH   8  17
ENDBRANCH   4   7
ENDBRANCH   1   4
BRANCH   1  22
ATOM     22  N   LIG d   1       4.259  -2.683  -6.096  0.00  0.00    -0.274 N 
ATOM     23  H   LIG d   1       3.479  -3.236  -5.937  0.00  0.00     0.153 HD
BRANCH  22  24
ATOM     24  C   LIG d   1       4.287  -1.817  -7.174  0.00  0.00     0.374 A 
ATOM     25  N   LIG d   1       4.980  -2.167  -8.253  0.00  0.00    -0.157 NA
ATOM     26  C   LIG d   1       5.040  -1.383  -9.320  0.00  0.00     0.138 A 
ATOM     27  C   LIG d   1       4.352  -0.145  -9.283  0.00  0.00     0.086 A 
ATOM     28  C   LIG d   1       3.631   0.189  -8.111  0.00  0.00     0.219 A 
ATOM     29  C   LIG d   1       4.368   0.744 -10.363  0.00  0.00    -0.045 A 
ATOM     30  N   LIG d   1       3.628  -0.677  -7.087  0.00  0.00    -0.174 N 
ATOM     31  C   LIG d   1       2.943   1.408  -8.053  0.00  0.00     0.011 A 
ATOM     32  H   LIG d   1       3.139  -0.464  -6.277  0.00  0.00     0.457 HD
ATOM     33  C   LIG d   1       2.979   2.253  -9.122  0.00  0.00    -0.056 A 
ATOM     34  H   LIG d   1       2.389   1.677  -7.166  0.00  0.00     0.068 H 
ATOM     35  C   LIG d   1       3.688   1.923 -10.273  0.00  0.00    -0.061 A 
ATOM     36  H   LIG d   1       2.448   3.193  -9.075  0.00  0.00     0.062 H 
ATOM     37  H   LIG d   1       3.699   2.610 -11.107  0.00  0.00     0.062 H 
ATOM     38  H   LIG d   1       4.914   0.499 -11.262  0.00  0.00     0.063 H 
BRANCH  26  39
ATOM     39  N   LIG d   1       5.758  -1.760 -10.435  0.00  0.00    -0.342 N 
ATOM     40  H   LIG d   1       5.680  -1.251 -11.257  0.00  0.00     0.144 HD
ATOM     41  H   LIG d   1       6.341  -2.534 -10.397  0.00  0.00     0.144 HD
ENDBRANCH  26  39
ENDBRANCH  22  24
ENDBRANCH   1  22
TORSDOF 7
ENDMDL
MODEL 6
REMARK VINA RESULT:      -6.5      5.590      7.484
REMARK  7 active torsions:
REMARK  status: ('A' for Active; 'I' for Inactive)
REMARK    1  A    between atoms: C_1  and  O_2 
REMARK    2  A    between atoms: O_2  and  C_3 
REMARK    3  A    between atoms: C_8  and  C_9 
REMARK    4  A    between atoms: C_9  and  C_10 
REMARK    5  A    between atoms: C_10  and  N_11 
REMARK    6  A    between atoms: N_11  and  C_12 
REMARK    7  A    between atoms: C_20  and  N_22 
ROOT
ATOM      1  C   LIG d   1       9.173   2.333  -4.206  0.00  0.00     0.020 C 
ATOM      2  H   LIG d   1       9.499   2.599  -5.211  0.00  0.00     0.047 H 
ATOM      3  H   LIG d   1       9.494   1.317  -3.976  0.00  0.00     0.047 H 
ENDROOT
BRANCH   1   4
ATOM      4  C   LIG d   1       9.789   3.304  -3.197  0.00  0.00    -0.009 C 
ATOM      5  H   LIG d   1      10.819   3.009  -2.992  0.00  0.00     0.033 H 
ATOM      6  H   LIG d   1       9.214   3.279  -2.271  0.00  0.00     0.033 H 
BRANCH   4   7
ATOM      7  C   LIG d   1       9.769   4.700  -3.764  0.00  0.00    -0.004 A 
ATOM      8  C   LIG d   1       9.896   5.794  -2.921  0.00  0.00     0.123 A 
ATOM      9  C   LIG d   1       9.882   7.078  -3.448  0.00  0.00    -0.020 A 
ATOM     10  C   LIG d   1       9.736   7.262  -4.808  0.00  0.00    -0.058 A 
ATOM     11  H   LIG d   1       9.985   7.931  -2.793  0.00  0.00     0.065 H 
ATOM     12  C   LIG d   1       9.605   6.170  -5.646  0.00  0.00    -0.061 A 
ATOM     13  H   LIG d   1       9.726   8.262  -5.218  0.00  0.00     0.062 H 
ATOM     14  C   LIG d   1       9.618   4.891  -5.125  0.00  0.00    -0.055 A 
ATOM     15  H   LIG d   1       9.491   6.318  -6.711  0.00  0.00     0.062 H 
ATOM     16  H   LIG d   1       9.515   4.039  -5.781  0.00  0.00     0.062 H 
BRANCH   8  17
ATOM     17  O   LIG d   1      10.039   5.608  -1.582  0.00  0.00    -0.495 OA
BRANCH  17  18
ATOM     18  C   LIG d   1      10.310   6.768  -0.792  0.00  0.00     0.079 C 
ATOM     19  H   LIG d   1       9.405   7.070  -0.267  0.00  0.00     0.066 H 
ATOM     20  H   LIG d   1      11.091   6.539  -0.067  0.00  0.00     0.066 H 
ATOM     21  H   LIG d   1      10.642   7.579  -1.440  0.00  0.00     0.066 H 
ENDBRANCH  17  18
ENDBRANCH   8  17
ENDBRANCH   4   7
ENDBRANCH   1   4
BRANCH   1  22
ATOM     22  N   LIG d   1       7.712   2.411  -4.130  0.00  0.00    -0.274 N 
ATOM     23  H   LIG d   1       7.261   3.249  -4.319  0.00  0.00     0.153 HD
BRANCH  22  24
ATOM     24  C   LIG d   1       6.976   1.290  -3.790  0.00  0.00     0.374 A 
ATOM     25  N   LIG d   1       7.602   0.121  -3.704  0.00  0.00    -0.157 NA
ATOM     26  C   LIG d   1       6.953  -0.988  -3.378  0.00  0.00     0.138 A 
ATOM     27  C   LIG d   1       5.560  -0.903  -3.131  0.00  0.00     0.086 A 
ATOM     28  C   LIG d   1       4.935   0.363  -3.240  0.00  0.00     0.219 A 
ATOM     29  C   LIG d   1       4.798  -2.025  -2.787  0.00  0.00    -0.045 A 
ATOM     30  N   LIG d   1       5.682   1.426  -3.571  0.00  0.00    -0.174 N 
ATOM     31  C   LIG d   1       3.558   0.470  -3.000  0.00  0.00     0.011 A 
ATOM     32  H   LIG d   1       5.269   2.300  -3.649  0.00  0.00     0.457 HD
ATOM     33  C   LIG d   1       2.843  -0.642  -2.667  0.00  0.00    -0.056 A 
ATOM     34  H   LIG d   1       3.066   1.429  -3.079  0.00  0.00     0.068 H 
ATOM     35  C   LIG d   1       3.461  -1.885  -2.560  0.00  0.00    -0.061 A 
ATOM     36  H   LIG d   1       1.782  -0.557  -2.483  0.00  0.00     0.062 H 
ATOM     37  H   LIG d   1       2.872  -2.751  -2.294  0.00  0.00     0.062 H 
ATOM     38  H   LIG d   1       5.266  -2.994  -2.700  0.00  0.00     0.063 H 
BRANCH  26  39
ATOM     39  N   LIG d   1       7.614  -2.194  -3.287  0.00  0.00    -0.342 N 
ATOM     40  H   LIG d   1       7.227  -2.923  -2.778  0.00  0.00     0.144 HD
ATOM     41  H   LIG d   1       8.468  -2.313  -3.731  0.00  0.00     0.144 HD
ENDBRANCH  26  39
ENDBRANCH  22  24
ENDBRANCH   1  22
TORSDOF 7
ENDMDL
MODEL 7
REMARK VINA RESULT:      -6.4      2.732      7.082
REMARK  7 active torsions:
REMARK  status: ('A' for Active; 'I' for Inactive)
REMARK    1  A    between atoms: C_1  and  O_2 
REMARK    2  A    between atoms: O_2  and  C_3 
REMARK    3  A    between atoms: C_8  and  C_9 
REMARK    4  A    between atoms: C_9  and  C_10 
REMARK    5  A    between atoms: C_10  and  N_11 
REMARK    6  A    between atoms: N_11  and  C_12 
REMARK    7  A    between atoms: C_20  and  N_22 
ROOT
ATOM      1  C   LIG d   1       2.452   1.159  -5.091  0.00  0.00     0.020 C 
ATOM      2  H   LIG d   1       1.498   0.635  -5.041  0.00  0.00     0.047 H 
ATOM      3  H   LIG d   1       2.311   2.128  -5.570  0.00  0.00     0.047 H 
ENDROOT
BRANCH   1   4
ATOM      4  C   LIG d   1       2.994   1.365  -3.674  0.00  0.00    -0.009 C 
ATOM      5  H   LIG d   1       2.162   1.519  -2.987  0.00  0.00     0.033 H 
ATOM      6  H   LIG d   1       3.645   2.239  -3.658  0.00  0.00     0.033 H 
BRANCH   4   7
ATOM      7  C   LIG d   1       3.776   0.147  -3.253  0.00  0.00    -0.004 A 
ATOM      8  C   LIG d   1       5.162   0.158  -3.312  0.00  0.00     0.123 A 
ATOM      9  C   LIG d   1       5.879  -0.963  -2.918  0.00  0.00    -0.020 A 
ATOM     10  C   LIG d   1       5.211  -2.087  -2.474  0.00  0.00    -0.058 A 
ATOM     11  H   LIG d   1       6.958  -0.956  -2.959  0.00  0.00     0.065 H 
ATOM     12  C   LIG d   1       3.829  -2.097  -2.420  0.00  0.00    -0.061 A 
ATOM     13  H   LIG d   1       5.770  -2.959  -2.167  0.00  0.00     0.062 H 
ATOM     14  C   LIG d   1       3.113  -0.982  -2.813  0.00  0.00    -0.055 A 
ATOM     15  H   LIG d   1       3.310  -2.978  -2.073  0.00  0.00     0.062 H 
ATOM     16  H   LIG d   1       2.033  -0.992  -2.771  0.00  0.00     0.062 H 
BRANCH   8  17
ATOM     17  O   LIG d   1       5.816   1.266  -3.749  0.00  0.00    -0.495 OA
BRANCH  17  18
ATOM     18  C   LIG d   1       7.243   1.201  -3.795  0.00  0.00     0.079 C 
ATOM     19  H   LIG d   1       7.640   2.163  -4.118  0.00  0.00     0.066 H 
ATOM     20  H   LIG d   1       7.627   0.965  -2.803  0.00  0.00     0.066 H 
ATOM     21  H   LIG d   1       7.548   0.426  -4.498  0.00  0.00     0.066 H 
ENDBRANCH  17  18
ENDBRANCH   8  17
ENDBRANCH   4   7
ENDBRANCH   1   4
BRANCH   1  22
ATOM     22  N   LIG d   1       3.407   0.365  -5.868  0.00  0.00    -0.274 N 
ATOM     23  H   LIG d   1       4.142  -0.083  -5.421  0.00  0.00     0.153 HD
BRANCH  22  24
ATOM     24  C   LIG d   1       3.259   0.254  -7.239  0.00  0.00     0.374 A 
ATOM     25  N   LIG d   1       3.503   1.320  -7.994  0.00  0.00    -0.157 NA
ATOM     26  C   LIG d   1       3.384   1.275  -9.313  0.00  0.00     0.138 A 
ATOM     27  C   LIG d   1       2.976   0.056  -9.909  0.00  0.00     0.086 A 
ATOM     28  C   LIG d   1       2.722  -1.052  -9.065  0.00  0.00     0.219 A 
ATOM     29  C   LIG d   1       2.820  -0.077 -11.293  0.00  0.00    -0.045 A 
ATOM     30  N   LIG d   1       2.877  -0.905  -7.741  0.00  0.00    -0.174 N 
ATOM     31  C   LIG d   1       2.317  -2.268  -9.633  0.00  0.00     0.011 A 
ATOM     32  H   LIG d   1       2.708  -1.655  -7.150  0.00  0.00     0.457 HD
ATOM     33  C   LIG d   1       2.174  -2.365 -10.985  0.00  0.00    -0.056 A 
ATOM     34  H   LIG d   1       2.120  -3.123  -9.003  0.00  0.00     0.068 H 
ATOM     35  C   LIG d   1       2.424  -1.274 -11.813  0.00  0.00    -0.061 A 
ATOM     36  H   LIG d   1       1.861  -3.303 -11.421  0.00  0.00     0.062 H 
ATOM     37  H   LIG d   1       2.304  -1.378 -12.881  0.00  0.00     0.062 H 
ATOM     38  H   LIG d   1       3.012   0.762 -11.945  0.00  0.00     0.063 H 
BRANCH  26  39
ATOM     39  N   LIG d   1       3.644   2.387 -10.085  0.00  0.00    -0.342 N 
ATOM     40  H   LIG d   1       3.668   3.266  -9.677  0.00  0.00     0.144 HD
ATOM     41  H   LIG d   1       3.803   2.289 -11.037  0.00  0.00     0.144 HD
ENDBRANCH  26  39
ENDBRANCH  22  24
ENDBRANCH   1  22
TORSDOF 7
ENDMDL
MODEL 8
REMARK VINA RESULT:      -6.4      5.656      7.798
REMARK  7 active torsions:
REMARK  status: ('A' for Active; 'I' for Inactive)
REMARK    1  A    between atoms: C_1  and  O_2 
REMARK    2  A    between atoms: O_2  and  C_3 
REMARK    3  A    between atoms: C_8  and  C_9 
REMARK    4  A    between atoms: C_9  and  C_10 
REMARK    5  A    between atoms: C_10  and  N_11 
REMARK    6  A    between atoms: N_11  and  C_12 
REMARK    7  A    between atoms: C_20  and  N_22 
ROOT
ATOM      1  C   LIG d   1       7.908   1.379  -4.370  0.00  0.00     0.020 C 
ATOM      2  H   LIG d   1       7.835   1.678  -5.415  0.00  0.00     0.047 H 
ATOM      3  H   LIG d   1       7.200   1.957  -3.775  0.00  0.00     0.047 H 
ENDROOT
BRANCH   1   4
ATOM      4  C   LIG d   1       7.585  -0.111  -4.241  0.00  0.00    -0.009 C 
ATOM      5  H   LIG d   1       8.427  -0.626  -3.778  0.00  0.00     0.033 H 
ATOM      6  H   LIG d   1       7.403  -0.529  -5.231  0.00  0.00     0.033 H 
BRANCH   4   7
ATOM      7  C   LIG d   1       6.356  -0.287  -3.387  0.00  0.00    -0.004 A 
ATOM      8  C   LIG d   1       5.803  -1.547  -3.217  0.00  0.00     0.123 A 
ATOM      9  C   LIG d   1       4.674  -1.707  -2.426  0.00  0.00    -0.020 A 
ATOM     10  C   LIG d   1       4.102  -0.609  -1.814  0.00  0.00    -0.058 A 
ATOM     11  H   LIG d   1       4.245  -2.688  -2.288  0.00  0.00     0.065 H 
ATOM     12  C   LIG d   1       4.652   0.648  -1.988  0.00  0.00    -0.061 A 
ATOM     13  H   LIG d   1       3.223  -0.733  -1.197  0.00  0.00     0.062 H 
ATOM     14  C   LIG d   1       5.775   0.809  -2.777  0.00  0.00    -0.055 A 
ATOM     15  H   LIG d   1       4.202   1.505  -1.509  0.00  0.00     0.062 H 
ATOM     16  H   LIG d   1       6.203   1.792  -2.913  0.00  0.00     0.062 H 
BRANCH   8  17
ATOM     17  O   LIG d   1       6.369  -2.626  -3.820  0.00  0.00    -0.495 OA
BRANCH  17  18
ATOM     18  C   LIG d   1       5.589  -3.299  -4.810  0.00  0.00     0.079 C 
ATOM     19  H   LIG d   1       5.085  -4.153  -4.357  0.00  0.00     0.066 H 
ATOM     20  H   LIG d   1       4.846  -2.613  -5.215  0.00  0.00     0.066 H 
ATOM     21  H   LIG d   1       6.240  -3.646  -5.612  0.00  0.00     0.066 H 
ENDBRANCH  17  18
ENDBRANCH   8  17
ENDBRANCH   4   7
ENDBRANCH   1   4
BRANCH   1  22
ATOM     22  N   LIG d   1       9.268   1.628  -3.885  0.00  0.00    -0.274 N 
ATOM     23  H   LIG d   1       9.888   0.889  -3.781  0.00  0.00     0.153 HD
BRANCH  22  24
ATOM     24  C   LIG d   1       9.668   2.915  -3.576  0.00  0.00     0.374 A 
ATOM     25  N   LIG d   1      10.397   3.110  -2.482  0.00  0.00    -0.157 NA
ATOM     26  C   LIG d   1      10.815   4.320  -2.136  0.00  0.00     0.138 A 
ATOM     27  C   LIG d   1      10.455   5.416  -2.960  0.00  0.00     0.086 A 
ATOM     28  C   LIG d   1       9.672   5.161  -4.112  0.00  0.00     0.219 A 
ATOM     29  C   LIG d   1      10.848   6.725  -2.665  0.00  0.00    -0.045 A 
ATOM     30  N   LIG d   1       9.305   3.899  -4.378  0.00  0.00    -0.174 N 
ATOM     31  C   LIG d   1       9.305   6.230  -4.941  0.00  0.00     0.011 A 
ATOM     32  H   LIG d   1       8.770   3.708  -5.164  0.00  0.00     0.457 HD
ATOM     33  C   LIG d   1       9.704   7.495  -4.626  0.00  0.00    -0.056 A 
ATOM     34  H   LIG d   1       8.709   6.052  -5.824  0.00  0.00     0.068 H 
ATOM     35  C   LIG d   1      10.473   7.743  -3.493  0.00  0.00    -0.061 A 
ATOM     36  H   LIG d   1       9.419   8.317  -5.266  0.00  0.00     0.062 H 
ATOM     37  H   LIG d   1      10.777   8.754  -3.266  0.00  0.00     0.062 H 
ATOM     38  H   LIG d   1      11.445   6.929  -1.789  0.00  0.00     0.063 H 
BRANCH  26  39
ATOM     39  N   LIG d   1      11.574   4.508  -1.002  0.00  0.00    -0.342 N 
ATOM     40  H   LIG d   1      11.387   3.994  -0.202  0.00  0.00     0.144 HD
ATOM     41  H   LIG d   1      12.296   5.157  -1.004  0.00  0.00     0.144 HD
ENDBRANCH  26  39
ENDBRANCH  22  24
ENDBRANCH   1  22
TORSDOF 7
ENDMDL
MODEL 9
REMARK VINA RESULT:      -6.3      6.031      8.301
REMARK  7 active torsions:
REMARK  status: ('A' for Active; 'I' for Inactive)
REMARK    1  A    between atoms: C_1  and  O_2 
REMARK    2  A    between atoms: O_2  and  C_3 
REMARK    3  A    between atoms: C_8  and  C_9 
REMARK    4  A    between atoms: C_9  and  C_10 
REMARK    5  A    between atoms: C_10  and  N_11 
REMARK    6  A    between atoms: N_11  and  C_12 
REMARK    7  A    between atoms: C_20  and  N_22 
ROOT
ATOM      1  C   LIG d   1       7.946   1.987  -3.984  0.00  0.00     0.020 C 
ATOM      2  H   LIG d   1       7.741   2.371  -4.983  0.00  0.00     0.047 H 
ATOM      3  H   LIG d   1       7.270   2.455  -3.268  0.00  0.00     0.047 H 
ENDROOT
BRANCH   1   4
ATOM      4  C   LIG d   1       7.734   0.471  -3.969  0.00  0.00    -0.009 C 
ATOM      5  H   LIG d   1       8.565  -0.005  -3.447  0.00  0.00     0.033 H 
ATOM      6  H   LIG d   1       7.688   0.101  -4.992  0.00  0.00     0.033 H 
BRANCH   4   7
ATOM      7  C   LIG d   1       6.444   0.152  -3.258  0.00  0.00    -0.004 A 
ATOM      8  C   LIG d   1       6.063  -1.169  -3.073  0.00  0.00     0.123 A 
ATOM      9  C   LIG d   1       4.877  -1.460  -2.415  0.00  0.00    -0.020 A 
ATOM     10  C   LIG d   1       4.077  -0.435  -1.950  0.00  0.00    -0.058 A 
ATOM     11  H   LIG d   1       4.579  -2.488  -2.266  0.00  0.00     0.065 H 
ATOM     12  C   LIG d   1       4.458   0.881  -2.139  0.00  0.00    -0.061 A 
ATOM     13  H   LIG d   1       3.154  -0.662  -1.436  0.00  0.00     0.062 H 
ATOM     14  C   LIG d   1       5.638   1.174  -2.796  0.00  0.00    -0.055 A 
ATOM     15  H   LIG d   1       3.830   1.681  -1.774  0.00  0.00     0.062 H 
ATOM     16  H   LIG d   1       5.933   2.203  -2.944  0.00  0.00     0.062 H 
BRANCH   8  17
ATOM     17  O   LIG d   1       6.852  -2.176  -3.532  0.00  0.00    -0.495 OA
BRANCH  17  18
ATOM     18  C   LIG d   1       6.312  -3.004  -4.564  0.00  0.00     0.079 C 
ATOM     19  H   LIG d   1       7.091  -3.234  -5.291  0.00  0.00     0.066 H 
ATOM     20  H   LIG d   1       5.939  -3.931  -4.128  0.00  0.00     0.066 H 
ATOM     21  H   LIG d   1       5.495  -2.480  -5.060  0.00  0.00     0.066 H 
ENDBRANCH  17  18
ENDBRANCH   8  17
ENDBRANCH   4   7
ENDBRANCH   1   4
BRANCH   1  22
ATOM     22  N   LIG d   1       9.332   2.291  -3.618  0.00  0.00    -0.274 N 
ATOM     23  H   LIG d   1      10.003   1.590  -3.636  0.00  0.00     0.153 HD
BRANCH  22  24
ATOM     24  C   LIG d   1       9.683   3.576  -3.248  0.00  0.00     0.374 A 
ATOM     25  N   LIG d   1       9.248   4.592  -3.986  0.00  0.00    -0.157 NA
ATOM     26  C   LIG d   1       9.546   5.847  -3.680  0.00  0.00     0.138 A 
ATOM     27  C   LIG d   1      10.358   6.086  -2.543  0.00  0.00     0.086 A 
ATOM     28  C   LIG d   1      10.803   4.972  -1.789  0.00  0.00     0.219 A 
ATOM     29  C   LIG d   1      10.725   7.378  -2.152  0.00  0.00    -0.045 A 
ATOM     30  N   LIG d   1      10.440   3.742  -2.180  0.00  0.00    -0.174 N 
ATOM     31  C   LIG d   1      11.606   5.185  -0.660  0.00  0.00     0.011 A 
ATOM     32  H   LIG d   1      10.736   2.969  -1.674  0.00  0.00     0.457 HD
ATOM     33  C   LIG d   1      11.946   6.457  -0.306  0.00  0.00    -0.056 A 
ATOM     34  H   LIG d   1      11.953   4.346  -0.075  0.00  0.00     0.068 H 
ATOM     35  C   LIG d   1      11.508   7.550  -1.048  0.00  0.00    -0.061 A 
ATOM     36  H   LIG d   1      12.566   6.619   0.564  0.00  0.00     0.062 H 
ATOM     37  H   LIG d   1      11.790   8.547  -0.745  0.00  0.00     0.062 H 
ATOM     38  H   LIG d   1      10.390   8.233  -2.719  0.00  0.00     0.063 H 
BRANCH  26  39
ATOM     39  N   LIG d   1       9.085   6.892  -4.451  0.00  0.00    -0.342 N 
ATOM     40  H   LIG d   1       9.681   7.335  -5.075  0.00  0.00     0.144 HD
ATOM     41  H   LIG d   1       8.164   7.185  -4.368  0.00  0.00     0.144 HD
ENDBRANCH  26  39
ENDBRANCH  22  24
ENDBRANCH   1  22
TORSDOF 7
ENDMDL
MODEL 10
REMARK VINA RESULT:      -6.2      2.556      6.533
REMARK  7 active torsions:
REMARK  status: ('A' for Active; 'I' for Inactive)
REMARK    1  A    between atoms: C_1  and  O_2 
REMARK    2  A    between atoms: O_2  and  C_3 
REMARK    3  A    between atoms: C_8  and  C_9 
REMARK    4  A    between atoms: C_9  and  C_10 
REMARK    5  A    between atoms: C_10  and  N_11 
REMARK    6  A    between atoms: N_11  and  C_12 
REMARK    7  A    between atoms: C_20  and  N_22 
ROOT
ATOM      1  C   LIG d   1       2.386  -0.471  -3.975  0.00  0.00     0.020 C 
ATOM      2  H   LIG d   1       2.262  -1.381  -4.560  0.00  0.00     0.047 H 
ATOM      3  H   LIG d   1       1.418  -0.150  -3.591  0.00  0.00     0.047 H 
ENDROOT
BRANCH   1   4
ATOM      4  C   LIG d   1       3.335  -0.742  -2.805  0.00  0.00    -0.009 C 
ATOM      5  H   LIG d   1       2.822  -1.344  -2.055  0.00  0.00     0.033 H 
ATOM      6  H   LIG d   1       3.643   0.205  -2.362  0.00  0.00     0.033 H 
BRANCH   4   7
ATOM      7  C   LIG d   1       4.548  -1.484  -3.303  0.00  0.00    -0.004 A 
ATOM      8  C   LIG d   1       5.802  -0.897  -3.221  0.00  0.00     0.123 A 
ATOM      9  C   LIG d   1       6.919  -1.585  -3.676  0.00  0.00    -0.020 A 
ATOM     10  C   LIG d   1       6.777  -2.849  -4.213  0.00  0.00    -0.058 A 
ATOM     11  H   LIG d   1       7.897  -1.132  -3.609  0.00  0.00     0.065 H 
ATOM     12  C   LIG d   1       5.525  -3.430  -4.298  0.00  0.00    -0.061 A 
ATOM     13  H   LIG d   1       7.646  -3.385  -4.567  0.00  0.00     0.062 H 
ATOM     14  C   LIG d   1       4.412  -2.747  -3.847  0.00  0.00    -0.055 A 
ATOM     15  H   LIG d   1       5.417  -4.419  -4.720  0.00  0.00     0.062 H 
ATOM     16  H   LIG d   1       3.434  -3.202  -3.915  0.00  0.00     0.062 H 
BRANCH   8  17
ATOM     17  O   LIG d   1       5.938   0.347  -2.691  0.00  0.00    -0.495 OA
BRANCH  17  18
ATOM     18  C   LIG d   1       6.670   1.303  -3.461  0.00  0.00     0.079 C 
ATOM     19  H   LIG d   1       7.355   1.846  -2.810  0.00  0.00     0.066 H 
ATOM     20  H   LIG d   1       7.237   0.788  -4.236  0.00  0.00     0.066 H 
ATOM     21  H   LIG d   1       5.975   2.004  -3.923  0.00  0.00     0.066 H 
ENDBRANCH  17  18
ENDBRANCH   8  17
ENDBRANCH   4   7
ENDBRANCH   1   4
BRANCH   1  22
ATOM     22  N   LIG d   1       2.947   0.583  -4.825  0.00  0.00    -0.274 N 
ATOM     23  H   LIG d   1       3.131   1.460  -4.451  0.00  0.00     0.153 HD
BRANCH  22  24
ATOM     24  C   LIG d   1       3.214   0.328  -6.158  0.00  0.00     0.374 A 
ATOM     25  N   LIG d   1       3.537  -0.910  -6.516  0.00  0.00    -0.157 NA
ATOM     26  C   LIG d   1       3.799  -1.219  -7.778  0.00  0.00     0.138 A 
ATOM     27  C   LIG d   1       3.738  -0.187  -8.748  0.00  0.00     0.086 A 
ATOM     28  C   LIG d   1       3.395   1.118  -8.319  0.00  0.00     0.219 A 
ATOM     29  C   LIG d   1       4.005  -0.424 -10.100  0.00  0.00    -0.045 A 
ATOM     30  N   LIG d   1       3.142   1.325  -7.019  0.00  0.00    -0.174 N 
ATOM     31  C   LIG d   1       3.328   2.154  -9.262  0.00  0.00     0.011 A 
ATOM     32  H   LIG d   1       2.905   2.214  -6.709  0.00  0.00     0.457 HD
ATOM     33  C   LIG d   1       3.594   1.890 -10.572  0.00  0.00    -0.056 A 
ATOM     34  H   LIG d   1       3.067   3.155  -8.950  0.00  0.00     0.068 H 
ATOM     35  C   LIG d   1       3.932   0.606 -10.991  0.00  0.00    -0.061 A 
ATOM     36  H   LIG d   1       3.543   2.690 -11.297  0.00  0.00     0.062 H 
ATOM     37  H   LIG d   1       4.137   0.424 -12.035  0.00  0.00     0.062 H 
ATOM     38  H   LIG d   1       4.267  -1.416 -10.437  0.00  0.00     0.063 H 
BRANCH  26  39
ATOM     39  N   LIG d   1       4.129  -2.508  -8.137  0.00  0.00    -0.342 N 
ATOM     40  H   LIG d   1       4.258  -2.733  -9.072  0.00  0.00     0.144 HD
ATOM     41  H   LIG d   1       4.232  -3.189  -7.456  0.00  0.00     0.144 HD
ENDBRANCH  26  39
ENDBRANCH  22  24
ENDBRANCH   1  22
TORSDOF 7
ENDMDL
