MODEL 1
REMARK VINA RESULT:      -6.1      0.000      0.000
REMARK  17 active torsions:
REMARK  status: ('A' for Active; 'I' for Inactive)
REMARK    1  A    between atoms: C_1  and  C_2 
REMARK    2  A    between atoms: C_5  and  O_37 
REMARK    3  A    between atoms: C_7  and  C_34 
REMARK    4  A    between atoms: C_7  and  C_35 
REMARK    5  A    between atoms: C_14  and  N_16 
REMARK       I    between atoms: N_16  and  C_17 
REMARK    6  A    between atoms: C_17  and  C_19 
REMARK    7  A    between atoms: C_19  and  C_20 
REMARK    8  A    between atoms: C_20  and  C_21 
REMARK    9  A    between atoms: C_20  and  C_22 
REMARK   10  A    between atoms: C_20  and  C_23 
REMARK   11  A    between atoms: C_24  and  C_26 
REMARK   12  A    between atoms: C_26  and  C_27 
REMARK       I    between atoms: C_27  and  N_29 
REMARK   13  A    between atoms: N_29  and  C_30 
REMARK   14  A    between atoms: C_30  and  C_31 
REMARK   15  A    between atoms: C_31  and  O_32 
REMARK   16  A    between atoms: O_32  and  C_33 
REMARK   17  A    between atoms: C_35  and  O_36 
ROOT
ATOM      1  C   LIG d   1      10.759   4.482  -5.431  0.00  0.00    -0.019 C 
ATOM      2  C   LIG d   1      11.442   5.827  -5.161  0.00  0.00    -0.044 C 
ATOM      3  C   LIG d   1      12.392   6.190  -6.284  0.00  0.00    -0.026 C 
ATOM      4  C   LIG d   1      11.601   6.293  -7.591  0.00  0.00     0.063 C 
ATOM      5  H   LIG d   1      10.818   7.043  -7.488  0.00  0.00     0.060 H 
ATOM      6  C   LIG d   1      10.971   4.934  -7.893  0.00  0.00     0.021 C 
ATOM      7  C   LIG d   1      10.014   4.528  -6.767  0.00  0.00    -0.021 C 
ATOM      8  H   LIG d   1       9.187   5.235  -6.709  0.00  0.00     0.032 H 
ATOM      9  C   LIG d   1       9.481   3.119  -7.092  0.00  0.00    -0.016 C 
ATOM     10  C   LIG d   1       8.835   2.552  -5.877  0.00  0.00     0.015 A 
ATOM     11  C   LIG d   1       8.930   3.003  -4.600  0.00  0.00     0.058 A 
ATOM     12  N   LIG d   1       8.251   2.312  -3.686  0.00  0.00    -0.229 NA
ATOM     13  C   LIG d   1       7.529   1.256  -3.998  0.00  0.00     0.165 A 
ATOM     14  S   LIG d   1       7.766   1.147  -5.717  0.00  0.00    -0.057 SA
ATOM     15  C   LIG d   1       9.772   4.229  -4.284  0.00  0.00     0.016 C 
ATOM     16  H   LIG d   1       9.121   5.096  -4.166  0.00  0.00     0.037 H 
ATOM     17  H   LIG d   1      10.685   6.608  -5.086  0.00  0.00     0.027 H 
ATOM     18  H   LIG d   1      11.993   5.771  -4.222  0.00  0.00     0.027 H 
ATOM     19  H   LIG d   1      13.151   5.413  -6.375  0.00  0.00     0.029 H 
ATOM     20  H   LIG d   1      12.869   7.146  -6.068  0.00  0.00     0.029 H 
ATOM     21  H   LIG d   1      10.308   2.478  -7.397  0.00  0.00     0.032 H 
ATOM     22  H   LIG d   1       8.751   3.182  -7.898  0.00  0.00     0.032 H 
ENDROOT
BRANCH  13  23
ATOM     23  N   LIG d   1       6.772   0.439  -3.167  0.00  0.00    -0.265 N 
ATOM     24  C   LIG d   1       5.491   0.756  -2.893  0.00  0.00     0.219 C 
ATOM     25  O   LIG d   1       4.999   1.755  -3.373  0.00  0.00    -0.275 OA
ATOM     26  H   LIG d   1       7.166  -0.360  -2.783  0.00  0.00     0.157 HD
BRANCH  24  27
ATOM     27  C   LIG d   1       4.671  -0.130  -1.991  0.00  0.00     0.029 C 
ATOM     28  H   LIG d   1       5.335  -0.686  -1.328  0.00  0.00     0.036 H 
ATOM     29  H   LIG d   1       3.994   0.483  -1.397  0.00  0.00     0.036 H 
BRANCH  27  30
ATOM     30  C   LIG d   1       3.861  -1.111  -2.840  0.00  0.00    -0.029 C 
BRANCH  30  31
ATOM     31  C   LIG d   1       4.572  -1.339  -4.176  0.00  0.00    -0.060 C 
ATOM     32  H   LIG d   1       3.909  -1.879  -4.852  0.00  0.00     0.024 H 
ATOM     33  H   LIG d   1       4.837  -0.378  -4.615  0.00  0.00     0.024 H 
ATOM     34  H   LIG d   1       5.477  -1.924  -4.009  0.00  0.00     0.024 H 
ENDBRANCH  30  31
BRANCH  30  35
ATOM     35  C   LIG d   1       3.731  -2.442  -2.098  0.00  0.00    -0.060 C 
ATOM     36  H   LIG d   1       4.606  -2.592  -1.464  0.00  0.00     0.024 H 
ATOM     37  H   LIG d   1       2.833  -2.428  -1.479  0.00  0.00     0.024 H 
ATOM     38  H   LIG d   1       3.662  -3.256  -2.819  0.00  0.00     0.024 H 
ENDBRANCH  30  35
BRANCH  30  39
ATOM     39  C   LIG d   1       2.468  -0.532  -3.096  0.00  0.00    -0.060 C 
ATOM     40  H   LIG d   1       1.716  -1.181  -2.646  0.00  0.00     0.024 H 
ATOM     41  H   LIG d   1       2.401   0.463  -2.655  0.00  0.00     0.024 H 
ATOM     42  H   LIG d   1       2.294  -0.465  -4.170  0.00  0.00     0.024 H 
ENDBRANCH  30  39
ENDBRANCH  27  30
ENDBRANCH  24  27
ENDBRANCH  13  23
BRANCH  15  43
ATOM     43  C   LIG d   1      10.547   3.995  -2.986  0.00  0.00     0.033 C 
ATOM     44  H   LIG d   1      10.221   3.060  -2.531  0.00  0.00     0.036 H 
ATOM     45  H   LIG d   1      11.613   3.939  -3.205  0.00  0.00     0.036 H 
BRANCH  43  46
ATOM     46  C   LIG d   1      10.290   5.134  -2.034  0.00  0.00     0.214 C 
ATOM     47  O   LIG d   1       9.523   6.021  -2.343  0.00  0.00    -0.276 OA
ATOM     48  N   LIG d   1      10.911   5.167  -0.838  0.00  0.00    -0.313 N 
ATOM     49  H   LIG d   1      11.524   4.456  -0.590  0.00  0.00     0.149 HD
BRANCH  48  50
ATOM     50  C   LIG d   1      10.660   6.274   0.088  0.00  0.00     0.035 C 
ATOM     51  H   LIG d   1      11.258   7.137  -0.207  0.00  0.00     0.048 H 
ATOM     52  H   LIG d   1       9.602   6.538   0.061  0.00  0.00     0.048 H 
BRANCH  50  53
ATOM     53  C   LIG d   1      11.043   5.849   1.506  0.00  0.00     0.063 C 
ATOM     54  H   LIG d   1      10.199   5.343   1.975  0.00  0.00     0.058 H 
ATOM     55  H   LIG d   1      11.895   5.170   1.464  0.00  0.00     0.058 H 
BRANCH  53  56
ATOM     56  O   LIG d   1      11.392   7.003   2.273  0.00  0.00    -0.381 OA
BRANCH  56  57
ATOM     57  C   LIG d   1      11.417   8.216   1.517  0.00  0.00     0.036 C 
ATOM     58  H   LIG d   1      10.865   8.989   2.053  0.00  0.00     0.052 H 
ATOM     59  H   LIG d   1      12.449   8.537   1.377  0.00  0.00     0.052 H 
ATOM     60  H   LIG d   1      10.954   8.048   0.544  0.00  0.00     0.052 H 
ENDBRANCH  56  57
ENDBRANCH  53  56
ENDBRANCH  50  53
ENDBRANCH  48  50
ENDBRANCH  43  46
ENDBRANCH  15  43
BRANCH   1  61
ATOM     61  C   LIG d   1      11.803   3.365  -5.463  0.00  0.00    -0.059 C 
ATOM     62  H   LIG d   1      12.702   3.723  -5.966  0.00  0.00     0.024 H 
ATOM     63  H   LIG d   1      12.051   3.070  -4.443  0.00  0.00     0.024 H 
ATOM     64  H   LIG d   1      11.402   2.508  -6.003  0.00  0.00     0.024 H 
ENDBRANCH   1  61
BRANCH   6  65
ATOM     65  C   LIG d   1      10.199   5.016  -9.210  0.00  0.00    -0.055 C 
ATOM     66  H   LIG d   1       9.191   4.624  -9.065  0.00  0.00     0.024 H 
ATOM     67  H   LIG d   1      10.142   6.055  -9.534  0.00  0.00     0.024 H 
ATOM     68  H   LIG d   1      10.712   4.426  -9.970  0.00  0.00     0.024 H 
ENDBRANCH   6  65
BRANCH   6  69
ATOM     69  C   LIG d   1      12.078   3.885  -8.019  0.00  0.00     0.052 C 
ATOM     70  H   LIG d   1      12.920   4.167  -7.386  0.00  0.00     0.056 H 
ATOM     71  H   LIG d   1      11.695   2.914  -7.703  0.00  0.00     0.056 H 
BRANCH  69  72
ATOM     72  O   LIG d   1      12.509   3.808  -9.379  0.00  0.00    -0.394 OA
ATOM     73  H   LIG d   1      11.957   4.309  -9.995  0.00  0.00     0.209 HD
ENDBRANCH  69  72
ENDBRANCH   6  69
BRANCH   4  74
ATOM     74  O   LIG d   1      12.481   6.660  -8.656  0.00  0.00    -0.391 OA
ATOM     75  H   LIG d   1      12.840   7.555  -8.578  0.00  0.00     0.210 HD
ENDBRANCH   4  74
TORSDOF 17
ENDMDL
MODEL 2
REMARK VINA RESULT:      -5.7      3.440      6.206
REMARK  17 active torsions:
REMARK  status: ('A' for Active; 'I' for Inactive)
REMARK    1  A    between atoms: C_1  and  C_2 
REMARK    2  A    between atoms: C_5  and  O_37 
REMARK    3  A    between atoms: C_7  and  C_34 
REMARK    4  A    between atoms: C_7  and  C_35 
REMARK    5  A    between atoms: C_14  and  N_16 
REMARK       I    between atoms: N_16  and  C_17 
REMARK    6  A    between atoms: C_17  and  C_19 
REMARK    7  A    between atoms: C_19  and  C_20 
REMARK    8  A    between atoms: C_20  and  C_21 
REMARK    9  A    between atoms: C_20  and  C_22 
REMARK   10  A    between atoms: C_20  and  C_23 
REMARK   11  A    between atoms: C_24  and  C_26 
REMARK   12  A    between atoms: C_26  and  C_27 
REMARK       I    between atoms: C_27  and  N_29 
REMARK   13  A    between atoms: N_29  and  C_30 
REMARK   14  A    between atoms: C_30  and  C_31 
REMARK   15  A    between atoms: C_31  and  O_32 
REMARK   16  A    between atoms: O_32  and  C_33 
REMARK   17  A    between atoms: C_35  and  O_36 
ROOT
ATOM      1  C   LIG d   1       9.511   2.368  -4.696  0.00  0.00    -0.019 C 
ATOM      2  C   LIG d   1       9.555   2.719  -3.205  0.00  0.00    -0.044 C 
ATOM      3  C   LIG d   1      10.912   3.264  -2.813  0.00  0.00    -0.026 C 
ATOM      4  C   LIG d   1      11.193   4.532  -3.625  0.00  0.00     0.063 C 
ATOM      5  H   LIG d   1      10.411   5.267  -3.438  0.00  0.00     0.060 H 
ATOM      6  C   LIG d   1      11.212   4.171  -5.109  0.00  0.00     0.021 C 
ATOM      7  C   LIG d   1       9.855   3.600  -5.537  0.00  0.00    -0.021 C 
ATOM      8  H   LIG d   1       9.080   4.357  -5.423  0.00  0.00     0.032 H 
ATOM      9  C   LIG d   1       9.970   3.180  -7.015  0.00  0.00    -0.016 C 
ATOM     10  C   LIG d   1       8.810   2.317  -7.367  0.00  0.00     0.015 A 
ATOM     11  C   LIG d   1       7.938   1.714  -6.519  0.00  0.00     0.058 A 
ATOM     12  N   LIG d   1       6.980   0.985  -7.088  0.00  0.00    -0.229 NA
ATOM     13  C   LIG d   1       6.879   0.857  -8.395  0.00  0.00     0.165 A 
ATOM     14  S   LIG d   1       8.215   1.816  -8.959  0.00  0.00    -0.057 SA
ATOM     15  C   LIG d   1       8.089   1.891  -5.016  0.00  0.00     0.016 C 
ATOM     16  H   LIG d   1       7.369   2.630  -4.663  0.00  0.00     0.037 H 
ATOM     17  H   LIG d   1       8.804   3.480  -2.991  0.00  0.00     0.027 H 
ATOM     18  H   LIG d   1       9.337   1.826  -2.618  0.00  0.00     0.027 H 
ATOM     19  H   LIG d   1      11.674   2.515  -3.029  0.00  0.00     0.029 H 
ATOM     20  H   LIG d   1      10.921   3.501  -1.749  0.00  0.00     0.029 H 
ATOM     21  H   LIG d   1      10.895   2.626  -7.167  0.00  0.00     0.032 H 
ATOM     22  H   LIG d   1       9.968   4.069  -7.647  0.00  0.00     0.032 H 
ENDROOT
BRANCH  13  23
ATOM     23  N   LIG d   1       5.946   0.140  -9.133  0.00  0.00    -0.265 N 
ATOM     24  C   LIG d   1       5.023   0.792  -9.869  0.00  0.00     0.219 C 
ATOM     25  O   LIG d   1       5.009   2.004  -9.888  0.00  0.00    -0.275 OA
ATOM     26  H   LIG d   1       5.957  -0.830  -9.118  0.00  0.00     0.157 HD
BRANCH  24  27
ATOM     27  C   LIG d   1       4.010   0.013 -10.669  0.00  0.00     0.029 C 
ATOM     28  H   LIG d   1       3.692   0.606 -11.527  0.00  0.00     0.036 H 
ATOM     29  H   LIG d   1       4.458  -0.918 -11.015  0.00  0.00     0.036 H 
BRANCH  27  30
ATOM     30  C   LIG d   1       2.798  -0.299  -9.789  0.00  0.00    -0.029 C 
BRANCH  30  31
ATOM     31  C   LIG d   1       3.131  -1.465  -8.855  0.00  0.00    -0.060 C 
ATOM     32  H   LIG d   1       4.210  -1.620  -8.839  0.00  0.00     0.024 H 
ATOM     33  H   LIG d   1       2.781  -1.236  -7.849  0.00  0.00     0.024 H 
ATOM     34  H   LIG d   1       2.639  -2.369  -9.214  0.00  0.00     0.024 H 
ENDBRANCH  30  31
BRANCH  30  35
ATOM     35  C   LIG d   1       2.440   0.933  -8.957  0.00  0.00    -0.060 C 
ATOM     36  H   LIG d   1       3.030   1.785  -9.296  0.00  0.00     0.024 H 
ATOM     37  H   LIG d   1       1.379   1.157  -9.076  0.00  0.00     0.024 H 
ATOM     38  H   LIG d   1       2.654   0.738  -7.907  0.00  0.00     0.024 H 
ENDBRANCH  30  35
BRANCH  30  39
ATOM     39  C   LIG d   1       1.610  -0.679 -10.675  0.00  0.00    -0.060 C 
ATOM     40  H   LIG d   1       1.341  -1.720 -10.496  0.00  0.00     0.024 H 
ATOM     41  H   LIG d   1       0.761  -0.037 -10.439  0.00  0.00     0.024 H 
ATOM     42  H   LIG d   1       1.882  -0.549 -11.723  0.00  0.00     0.024 H 
ENDBRANCH  30  39
ENDBRANCH  27  30
ENDBRANCH  24  27
ENDBRANCH  13  23
BRANCH  15  43
ATOM     43  C   LIG d   1       7.830   0.555  -4.316  0.00  0.00     0.033 C 
ATOM     44  H   LIG d   1       7.718  -0.231  -5.062  0.00  0.00     0.036 H 
ATOM     45  H   LIG d   1       8.670   0.318  -3.663  0.00  0.00     0.036 H 
BRANCH  43  46
ATOM     46  C   LIG d   1       6.570   0.653  -3.496  0.00  0.00     0.214 C 
ATOM     47  O   LIG d   1       6.081   1.738  -3.261  0.00  0.00    -0.276 OA
ATOM     48  N   LIG d   1       5.984  -0.465  -3.023  0.00  0.00    -0.313 N 
ATOM     49  H   LIG d   1       6.374  -1.334  -3.212  0.00  0.00     0.149 HD
BRANCH  48  50
ATOM     50  C   LIG d   1       4.758  -0.370  -2.227  0.00  0.00     0.035 C 
ATOM     51  H   LIG d   1       4.982  -0.608  -1.186  0.00  0.00     0.048 H 
ATOM     52  H   LIG d   1       4.361   0.643  -2.291  0.00  0.00     0.048 H 
BRANCH  50  53
ATOM     53  C   LIG d   1       3.723  -1.359  -2.764  0.00  0.00     0.063 C 
ATOM     54  H   LIG d   1       4.116  -1.848  -3.656  0.00  0.00     0.058 H 
ATOM     55  H   LIG d   1       3.509  -2.111  -2.003  0.00  0.00     0.058 H 
BRANCH  53  56
ATOM     56  O   LIG d   1       2.521  -0.661  -3.093  0.00  0.00    -0.381 OA
BRANCH  56  57
ATOM     57  C   LIG d   1       2.614   0.126  -4.283  0.00  0.00     0.036 C 
ATOM     58  H   LIG d   1       2.804  -0.527  -5.135  0.00  0.00     0.052 H 
ATOM     59  H   LIG d   1       1.678   0.662  -4.438  0.00  0.00     0.052 H 
ATOM     60  H   LIG d   1       3.431   0.841  -4.184  0.00  0.00     0.052 H 
ENDBRANCH  56  57
ENDBRANCH  53  56
ENDBRANCH  50  53
ENDBRANCH  48  50
ENDBRANCH  43  46
ENDBRANCH  15  43
BRANCH   1  61
ATOM     61  C   LIG d   1      10.507   1.247  -4.997  0.00  0.00    -0.059 C 
ATOM     62  H   LIG d   1      11.341   1.647  -5.573  0.00  0.00     0.024 H 
ATOM     63  H   LIG d   1      10.880   0.832  -4.059  0.00  0.00     0.024 H 
ATOM     64  H   LIG d   1      10.012   0.465  -5.570  0.00  0.00     0.024 H 
ENDBRANCH   1  61
BRANCH   6  65
ATOM     65  C   LIG d   1      11.516   5.424  -5.931  0.00  0.00    -0.055 C 
ATOM     66  H   LIG d   1      11.411   5.197  -6.992  0.00  0.00     0.024 H 
ATOM     67  H   LIG d   1      10.818   6.216  -5.657  0.00  0.00     0.024 H 
ATOM     68  H   LIG d   1      12.535   5.753  -5.729  0.00  0.00     0.024 H 
ENDBRANCH   6  65
BRANCH   6  69
ATOM     69  C   LIG d   1      12.302   3.125  -5.357  0.00  0.00     0.052 C 
ATOM     70  H   LIG d   1      12.386   2.474  -4.487  0.00  0.00     0.056 H 
ATOM     71  H   LIG d   1      12.041   2.530  -6.232  0.00  0.00     0.056 H 
BRANCH  69  72
ATOM     72  O   LIG d   1      13.550   3.783  -5.583  0.00  0.00    -0.394 OA
ATOM     73  H   LIG d   1      13.588   4.281  -6.410  0.00  0.00     0.209 HD
ENDBRANCH  69  72
ENDBRANCH   6  69
BRANCH   4  74
ATOM     74  O   LIG d   1      12.461   5.072  -3.246  0.00  0.00    -0.391 OA
ATOM     75  H   LIG d   1      12.413   5.725  -2.535  0.00  0.00     0.210 HD
ENDBRANCH   4  74
TORSDOF 17
ENDMDL
MODEL 3
REMARK VINA RESULT:      -5.5      6.958     11.334
REMARK  17 active torsions:
REMARK  status: ('A' for Active; 'I' for Inactive)
REMARK    1  A    between atoms: C_1  and  C_2 
REMARK    2  A    between atoms: C_5  and  O_37 
REMARK    3  A    between atoms: C_7  and  C_34 
REMARK    4  A    between atoms: C_7  and  C_35 
REMARK    5  A    between atoms: C_14  and  N_16 
REMARK       I    between atoms: N_16  and  C_17 
REMARK    6  A    between atoms: C_17  and  C_19 
REMARK    7  A    between atoms: C_19  and  C_20 
REMARK    8  A    between atoms: C_20  and  C_21 
REMARK    9  A    between atoms: C_20  and  C_22 
REMARK   10  A    between atoms: C_20  and  C_23 
REMARK   11  A    between atoms: C_24  and  C_26 
REMARK   12  A    between atoms: C_26  and  C_27 
REMARK       I    between atoms: C_27  and  N_29 
REMARK   13  A    between atoms: N_29  and  C_30 
REMARK   14  A    between atoms: C_30  and  C_31 
REMARK   15  A    between atoms: C_31  and  O_32 
REMARK   16  A    between atoms: O_32  and  C_33 
REMARK   17  A    between atoms: C_35  and  O_36 
ROOT
ATOM      1  C   LIG d   1       4.880  -2.130  -4.906  0.00  0.00    -0.019 C 
ATOM      2  C   LIG d   1       4.727  -2.850  -3.562  0.00  0.00    -0.044 C 
ATOM      3  C   LIG d   1       5.053  -1.925  -2.408  0.00  0.00    -0.026 C 
ATOM      4  C   LIG d   1       4.092  -0.733  -2.439  0.00  0.00     0.063 C 
ATOM      5  H   LIG d   1       3.064  -1.088  -2.373  0.00  0.00     0.060 H 
ATOM      6  C   LIG d   1       4.289   0.022  -3.752  0.00  0.00     0.021 C 
ATOM      7  C   LIG d   1       3.983  -0.891  -4.944  0.00  0.00    -0.021 C 
ATOM      8  H   LIG d   1       2.935  -1.189  -4.925  0.00  0.00     0.032 H 
ATOM      9  C   LIG d   1       4.281  -0.097  -6.231  0.00  0.00    -0.016 C 
ATOM     10  C   LIG d   1       4.332  -1.038  -7.382  0.00  0.00     0.015 A 
ATOM     11  C   LIG d   1       4.418  -2.392  -7.343  0.00  0.00     0.058 A 
ATOM     12  N   LIG d   1       4.451  -3.009  -8.523  0.00  0.00    -0.229 NA
ATOM     13  C   LIG d   1       4.402  -2.348  -9.662  0.00  0.00     0.165 A 
ATOM     14  S   LIG d   1       4.299  -0.699  -9.122  0.00  0.00    -0.057 SA
ATOM     15  C   LIG d   1       4.469  -3.116  -6.006  0.00  0.00     0.016 C 
ATOM     16  H   LIG d   1       3.484  -3.526  -5.778  0.00  0.00     0.037 H 
ATOM     17  H   LIG d   1       3.697  -3.190  -3.450  0.00  0.00     0.027 H 
ATOM     18  H   LIG d   1       5.394  -3.713  -3.537  0.00  0.00     0.027 H 
ATOM     19  H   LIG d   1       6.078  -1.572  -2.511  0.00  0.00     0.029 H 
ATOM     20  H   LIG d   1       4.942  -2.461  -1.464  0.00  0.00     0.029 H 
ATOM     21  H   LIG d   1       5.241   0.410  -6.132  0.00  0.00     0.032 H 
ATOM     22  H   LIG d   1       3.494   0.639  -6.396  0.00  0.00     0.032 H 
ENDROOT
BRANCH  13  23
ATOM     23  N   LIG d   1       4.427  -2.842 -10.960  0.00  0.00    -0.265 N 
ATOM     24  C   LIG d   1       3.272  -3.108 -11.603  0.00  0.00     0.219 C 
ATOM     25  O   LIG d   1       2.211  -2.914 -11.048  0.00  0.00    -0.275 OA
ATOM     26  H   LIG d   1       5.275  -2.998 -11.403  0.00  0.00     0.157 HD
BRANCH  24  27
ATOM     27  C   LIG d   1       3.299  -3.645 -13.010  0.00  0.00     0.029 C 
ATOM     28  H   LIG d   1       4.301  -4.008 -13.241  0.00  0.00     0.036 H 
ATOM     29  H   LIG d   1       2.585  -4.463 -13.101  0.00  0.00     0.036 H 
BRANCH  27  30
ATOM     30  C   LIG d   1       2.924  -2.529 -13.989  0.00  0.00    -0.029 C 
BRANCH  30  31
ATOM     31  C   LIG d   1       3.475  -1.196 -13.479  0.00  0.00    -0.060 C 
ATOM     32  H   LIG d   1       3.224  -0.406 -14.186  0.00  0.00     0.024 H 
ATOM     33  H   LIG d   1       3.035  -0.969 -12.508  0.00  0.00     0.024 H 
ATOM     34  H   LIG d   1       4.558  -1.266 -13.379  0.00  0.00     0.024 H 
ENDBRANCH  30  31
BRANCH  30  35
ATOM     35  C   LIG d   1       3.520  -2.835 -15.363  0.00  0.00    -0.060 C 
ATOM     36  H   LIG d   1       3.075  -2.176 -16.108  0.00  0.00     0.024 H 
ATOM     37  H   LIG d   1       4.599  -2.676 -15.336  0.00  0.00     0.024 H 
ATOM     38  H   LIG d   1       3.314  -3.873 -15.627  0.00  0.00     0.024 H 
ENDBRANCH  30  35
BRANCH  30  39
ATOM     39  C   LIG d   1       1.401  -2.442 -14.101  0.00  0.00    -0.060 C 
ATOM     40  H   LIG d   1       1.126  -1.516 -14.605  0.00  0.00     0.024 H 
ATOM     41  H   LIG d   1       1.030  -3.292 -14.675  0.00  0.00     0.024 H 
ATOM     42  H   LIG d   1       0.961  -2.459 -13.104  0.00  0.00     0.024 H 
ENDBRANCH  30  39
ENDBRANCH  27  30
ENDBRANCH  24  27
ENDBRANCH  13  23
BRANCH  15  43
ATOM     43  C   LIG d   1       5.489  -4.253  -6.080  0.00  0.00     0.033 C 
ATOM     44  H   LIG d   1       6.071  -4.161  -6.997  0.00  0.00     0.036 H 
ATOM     45  H   LIG d   1       6.155  -4.199  -5.219  0.00  0.00     0.036 H 
BRANCH  43  46
ATOM     46  C   LIG d   1       4.768  -5.577  -6.075  0.00  0.00     0.214 C 
ATOM     47  O   LIG d   1       3.563  -5.610  -5.938  0.00  0.00    -0.276 OA
ATOM     48  N   LIG d   1       5.462  -6.723  -6.222  0.00  0.00    -0.313 N 
ATOM     49  H   LIG d   1       6.425  -6.696  -6.331  0.00  0.00     0.149 HD
BRANCH  48  50
ATOM     50  C   LIG d   1       4.760  -8.009  -6.217  0.00  0.00     0.035 C 
ATOM     51  H   LIG d   1       3.690  -7.840  -6.343  0.00  0.00     0.048 H 
ATOM     52  H   LIG d   1       5.129  -8.628  -7.035  0.00  0.00     0.048 H 
BRANCH  50  53
ATOM     53  C   LIG d   1       5.010  -8.721  -4.886  0.00  0.00     0.063 C 
ATOM     54  H   LIG d   1       5.819  -9.442  -5.006  0.00  0.00     0.058 H 
ATOM     55  H   LIG d   1       5.288  -7.988  -4.129  0.00  0.00     0.058 H 
BRANCH  53  56
ATOM     56  O   LIG d   1       3.822  -9.401  -4.478  0.00  0.00    -0.381 OA
BRANCH  56  57
ATOM     57  C   LIG d   1       3.943 -10.083  -3.228  0.00  0.00     0.036 C 
ATOM     58  H   LIG d   1       3.585 -11.107  -3.337  0.00  0.00     0.052 H 
ATOM     59  H   LIG d   1       4.988 -10.095  -2.920  0.00  0.00     0.052 H 
ATOM     60  H   LIG d   1       3.347  -9.568  -2.474  0.00  0.00     0.052 H 
ENDBRANCH  56  57
ENDBRANCH  53  56
ENDBRANCH  50  53
ENDBRANCH  48  50
ENDBRANCH  43  46
ENDBRANCH  15  43
BRANCH   1  61
ATOM     61  C   LIG d   1       6.338  -1.714  -5.110  0.00  0.00    -0.059 C 
ATOM     62  H   LIG d   1       6.693  -2.094  -6.068  0.00  0.00     0.024 H 
ATOM     63  H   LIG d   1       6.410  -0.626  -5.101  0.00  0.00     0.024 H 
ATOM     64  H   LIG d   1       6.949  -2.125  -4.307  0.00  0.00     0.024 H 
ENDBRANCH   1  61
BRANCH   6  65
ATOM     65  C   LIG d   1       3.353   1.231  -3.786  0.00  0.00    -0.055 C 
ATOM     66  H   LIG d   1       2.445   1.003  -3.228  0.00  0.00     0.024 H 
ATOM     67  H   LIG d   1       3.852   2.089  -3.335  0.00  0.00     0.024 H 
ATOM     68  H   LIG d   1       3.095   1.463  -4.820  0.00  0.00     0.024 H 
ENDBRANCH   6  65
BRANCH   6  69
ATOM     69  C   LIG d   1       5.740   0.502  -3.842  0.00  0.00     0.052 C 
ATOM     70  H   LIG d   1       6.402  -0.264  -3.438  0.00  0.00     0.056 H 
ATOM     71  H   LIG d   1       5.995   0.690  -4.885  0.00  0.00     0.056 H 
BRANCH  69  72
ATOM     72  O   LIG d   1       5.890   1.707  -3.089  0.00  0.00    -0.394 OA
ATOM     73  H   LIG d   1       5.093   2.253  -3.058  0.00  0.00     0.209 HD
ENDBRANCH  69  72
ENDBRANCH   6  69
BRANCH   4  74
ATOM     74  O   LIG d   1       4.371   0.136  -1.339  0.00  0.00    -0.391 OA
ATOM     75  H   LIG d   1       3.867   0.961  -1.352  0.00  0.00     0.210 HD
ENDBRANCH   4  74
TORSDOF 17
ENDMDL
MODEL 4
REMARK VINA RESULT:      -5.4      1.859      2.410
REMARK  17 active torsions:
REMARK  status: ('A' for Active; 'I' for Inactive)
REMARK    1  A    between atoms: C_1  and  C_2 
REMARK    2  A    between atoms: C_5  and  O_37 
REMARK    3  A    between atoms: C_7  and  C_34 
REMARK    4  A    between atoms: C_7  and  C_35 
REMARK    5  A    between atoms: C_14  and  N_16 
REMARK       I    between atoms: N_16  and  C_17 
REMARK    6  A    between atoms: C_17  and  C_19 
REMARK    7  A    between atoms: C_19  and  C_20 
REMARK    8  A    between atoms: C_20  and  C_21 
REMARK    9  A    between atoms: C_20  and  C_22 
REMARK   10  A    between atoms: C_20  and  C_23 
REMARK   11  A    between atoms: C_24  and  C_26 
REMARK   12  A    between atoms: C_26  and  C_27 
REMARK       I    between atoms: C_27  and  N_29 
REMARK   13  A    between atoms: N_29  and  C_30 
REMARK   14  A    between atoms: C_30  and  C_31 
REMARK   15  A    between atoms: C_31  and  O_32 
REMARK   16  A    between atoms: O_32  and  C_33 
REMARK   17  A    between atoms: C_35  and  O_36 
ROOT
ATOM      1  C   LIG d   1      10.201   4.040  -7.236  0.00  0.00    -0.019 C 
ATOM      2  C   LIG d   1      10.922   5.295  -6.733  0.00  0.00    -0.044 C 
ATOM      3  C   LIG d   1      11.701   5.960  -7.849  0.00  0.00    -0.026 C 
ATOM      4  C   LIG d   1      10.729   6.364  -8.962  0.00  0.00     0.063 C 
ATOM      5  H   LIG d   1       9.973   7.038  -8.561  0.00  0.00     0.060 H 
ATOM      6  C   LIG d   1      10.056   5.106  -9.506  0.00  0.00     0.021 C 
ATOM      7  C   LIG d   1       9.270   4.398  -8.398  0.00  0.00    -0.021 C 
ATOM      8  H   LIG d   1       8.464   5.040  -8.045  0.00  0.00     0.032 H 
ATOM      9  C   LIG d   1       8.689   3.100  -8.992  0.00  0.00    -0.016 C 
ATOM     10  C   LIG d   1       8.223   2.224  -7.882  0.00  0.00     0.015 A 
ATOM     11  C   LIG d   1       8.504   2.341  -6.559  0.00  0.00     0.058 A 
ATOM     12  N   LIG d   1       7.963   1.419  -5.765  0.00  0.00    -0.229 NA
ATOM     13  C   LIG d   1       7.198   0.454  -6.230  0.00  0.00     0.165 A 
ATOM     14  S   LIG d   1       7.182   0.790  -7.935  0.00  0.00    -0.057 SA
ATOM     15  C   LIG d   1       9.390   3.474  -6.064  0.00  0.00     0.016 C 
ATOM     16  H   LIG d   1       8.767   4.261  -5.638  0.00  0.00     0.037 H 
ATOM     17  H   LIG d   1      10.188   6.006  -6.355  0.00  0.00     0.027 H 
ATOM     18  H   LIG d   1      11.603   5.020  -5.926  0.00  0.00     0.027 H 
ATOM     19  H   LIG d   1      12.435   5.256  -8.242  0.00  0.00     0.029 H 
ATOM     20  H   LIG d   1      12.209   6.845  -7.467  0.00  0.00     0.029 H 
ATOM     21  H   LIG d   1       9.460   2.584  -9.564  0.00  0.00     0.032 H 
ATOM     22  H   LIG d   1       7.849   3.341  -9.643  0.00  0.00     0.032 H 
ENDROOT
BRANCH  13  23
ATOM     23  N   LIG d   1       6.566  -0.571  -5.536  0.00  0.00    -0.265 N 
ATOM     24  C   LIG d   1       5.225  -0.563  -5.394  0.00  0.00     0.219 C 
ATOM     25  O   LIG d   1       4.571   0.339  -5.873  0.00  0.00    -0.275 OA
ATOM     26  H   LIG d   1       7.089  -1.292  -5.153  0.00  0.00     0.157 HD
BRANCH  24  27
ATOM     27  C   LIG d   1       4.540  -1.674  -4.641  0.00  0.00     0.029 C 
ATOM     28  H   LIG d   1       3.703  -2.050  -5.230  0.00  0.00     0.036 H 
ATOM     29  H   LIG d   1       5.249  -2.481  -4.460  0.00  0.00     0.036 H 
BRANCH  27  30
ATOM     30  C   LIG d   1       4.022  -1.139  -3.304  0.00  0.00    -0.029 C 
BRANCH  30  31
ATOM     31  C   LIG d   1       5.028  -0.140  -2.729  0.00  0.00    -0.060 C 
ATOM     32  H   LIG d   1       4.865  -0.037  -1.656  0.00  0.00     0.024 H 
ATOM     33  H   LIG d   1       6.041  -0.499  -2.910  0.00  0.00     0.024 H 
ATOM     34  H   LIG d   1       4.894   0.828  -3.212  0.00  0.00     0.024 H 
ENDBRANCH  30  31
BRANCH  30  35
ATOM     35  C   LIG d   1       2.678  -0.442  -3.520  0.00  0.00    -0.060 C 
ATOM     36  H   LIG d   1       1.962  -1.152  -3.934  0.00  0.00     0.024 H 
ATOM     37  H   LIG d   1       2.305  -0.066  -2.567  0.00  0.00     0.024 H 
ATOM     38  H   LIG d   1       2.806   0.389  -4.213  0.00  0.00     0.024 H 
ENDBRANCH  30  35
BRANCH  30  39
ATOM     39  C   LIG d   1       3.842  -2.302  -2.326  0.00  0.00    -0.060 C 
ATOM     40  H   LIG d   1       3.087  -2.987  -2.711  0.00  0.00     0.024 H 
ATOM     41  H   LIG d   1       4.790  -2.830  -2.212  0.00  0.00     0.024 H 
ATOM     42  H   LIG d   1       3.524  -1.916  -1.358  0.00  0.00     0.024 H 
ENDBRANCH  30  39
ENDBRANCH  27  30
ENDBRANCH  24  27
ENDBRANCH  13  23
BRANCH  15  43
ATOM     43  C   LIG d   1      10.344   2.944  -4.992  0.00  0.00     0.033 C 
ATOM     44  H   LIG d   1      10.267   1.858  -4.940  0.00  0.00     0.036 H 
ATOM     45  H   LIG d   1      11.367   3.223  -5.247  0.00  0.00     0.036 H 
BRANCH  43  46
ATOM     46  C   LIG d   1       9.980   3.538  -3.656  0.00  0.00     0.214 C 
ATOM     47  O   LIG d   1       9.143   3.001  -2.961  0.00  0.00    -0.276 OA
ATOM     48  N   LIG d   1      10.583   4.667  -3.233  0.00  0.00    -0.313 N 
ATOM     49  H   LIG d   1      11.253   5.096  -3.788  0.00  0.00     0.149 HD
BRANCH  48  50
ATOM     50  C   LIG d   1      10.228   5.244  -1.933  0.00  0.00     0.035 C 
ATOM     51  H   LIG d   1       9.382   4.700  -1.513  0.00  0.00     0.048 H 
ATOM     52  H   LIG d   1      11.081   5.170  -1.258  0.00  0.00     0.048 H 
BRANCH  50  53
ATOM     53  C   LIG d   1       9.849   6.715  -2.116  0.00  0.00     0.063 C 
ATOM     54  H   LIG d   1      10.719   7.275  -2.459  0.00  0.00     0.058 H 
ATOM     55  H   LIG d   1       9.051   6.795  -2.855  0.00  0.00     0.058 H 
BRANCH  53  56
ATOM     56  O   LIG d   1       9.399   7.249  -0.870  0.00  0.00    -0.381 OA
BRANCH  56  57
ATOM     57  C   LIG d   1       9.014   8.624  -0.933  0.00  0.00     0.036 C 
ATOM     58  H   LIG d   1       9.171   8.999  -1.945  0.00  0.00     0.052 H 
ATOM     59  H   LIG d   1       7.961   8.720  -0.669  0.00  0.00     0.052 H 
ATOM     60  H   LIG d   1       9.618   9.203  -0.233  0.00  0.00     0.052 H 
ENDBRANCH  56  57
ENDBRANCH  53  56
ENDBRANCH  50  53
ENDBRANCH  48  50
ENDBRANCH  43  46
ENDBRANCH  15  43
BRANCH   1  61
ATOM     61  C   LIG d   1      11.224   3.002  -7.700  0.00  0.00    -0.059 C 
ATOM     62  H   LIG d   1      11.522   3.219  -8.726  0.00  0.00     0.024 H 
ATOM     63  H   LIG d   1      12.100   3.040  -7.051  0.00  0.00     0.024 H 
ATOM     64  H   LIG d   1      10.780   2.008  -7.653  0.00  0.00     0.024 H 
ENDBRANCH   1  61
BRANCH   6  65
ATOM     65  C   LIG d   1       9.101   5.493 -10.636  0.00  0.00    -0.055 C 
ATOM     66  H   LIG d   1       9.663   5.965 -11.442  0.00  0.00     0.024 H 
ATOM     67  H   LIG d   1       8.604   4.598 -11.014  0.00  0.00     0.024 H 
ATOM     68  H   LIG d   1       8.353   6.190 -10.258  0.00  0.00     0.024 H 
ENDBRANCH   6  65
BRANCH   6  69
ATOM     69  C   LIG d   1      11.128   4.159 -10.051  0.00  0.00     0.052 C 
ATOM     70  H   LIG d   1      12.043   4.272  -9.469  0.00  0.00     0.056 H 
ATOM     71  H   LIG d   1      10.774   3.130  -9.977  0.00  0.00     0.056 H 
BRANCH  69  72
ATOM     72  O   LIG d   1      11.392   4.475 -11.420  0.00  0.00    -0.394 OA
ATOM     73  H   LIG d   1      12.134   5.081 -11.547  0.00  0.00     0.209 HD
ENDBRANCH  69  72
ENDBRANCH   6  69
BRANCH   4  74
ATOM     74  O   LIG d   1      11.448   7.016 -10.011  0.00  0.00    -0.391 OA
ATOM     75  H   LIG d   1      10.930   7.151 -10.817  0.00  0.00     0.210 HD
ENDBRANCH   4  74
TORSDOF 17
ENDMDL
MODEL 5
REMARK VINA RESULT:      -5.3      7.251      9.708
REMARK  17 active torsions:
REMARK  status: ('A' for Active; 'I' for Inactive)
REMARK    1  A    between atoms: C_1  and  C_2 
REMARK    2  A    between atoms: C_5  and  O_37 
REMARK    3  A    between atoms: C_7  and  C_34 
REMARK    4  A    between atoms: C_7  and  C_35 
REMARK    5  A    between atoms: C_14  and  N_16 
REMARK       I    between atoms: N_16  and  C_17 
REMARK    6  A    between atoms: C_17  and  C_19 
REMARK    7  A    between atoms: C_19  and  C_20 
REMARK    8  A    between atoms: C_20  and  C_21 
REMARK    9  A    between atoms: C_20  and  C_22 
REMARK   10  A    between atoms: C_20  and  C_23 
REMARK   11  A    between atoms: C_24  and  C_26 
REMARK   12  A    between atoms: C_26  and  C_27 
REMARK       I    between atoms: C_27  and  N_29 
REMARK   13  A    between atoms: N_29  and  C_30 
REMARK   14  A    between atoms: C_30  and  C_31 
REMARK   15  A    between atoms: C_31  and  O_32 
REMARK   16  A    between atoms: O_32  and  C_33 
REMARK   17  A    between atoms: C_35  and  O_36 
ROOT
ATOM      1  C   LIG d   1       3.516  -1.830  -8.813  0.00  0.00    -0.019 C 
ATOM      2  C   LIG d   1       2.456  -0.727  -8.735  0.00  0.00    -0.044 C 
ATOM      3  C   LIG d   1       1.947  -0.362 -10.115  0.00  0.00    -0.026 C 
ATOM      4  C   LIG d   1       1.320  -1.603 -10.758  0.00  0.00     0.063 C 
ATOM      5  H   LIG d   1       0.510  -1.971 -10.131  0.00  0.00     0.060 H 
ATOM      6  C   LIG d   1       2.394  -2.681 -10.893  0.00  0.00     0.021 C 
ATOM      7  C   LIG d   1       2.942  -3.064  -9.514  0.00  0.00    -0.021 C 
ATOM      8  H   LIG d   1       2.151  -3.503  -8.907  0.00  0.00     0.032 H 
ATOM      9  C   LIG d   1       4.073  -4.089  -9.728  0.00  0.00    -0.016 C 
ATOM     10  C   LIG d   1       4.854  -4.221  -8.468  0.00  0.00     0.015 A 
ATOM     11  C   LIG d   1       4.829  -3.401  -7.387  0.00  0.00     0.058 A 
ATOM     12  N   LIG d   1       5.631  -3.740  -6.379  0.00  0.00    -0.229 NA
ATOM     13  C   LIG d   1       6.401  -4.807  -6.423  0.00  0.00     0.165 A 
ATOM     14  S   LIG d   1       6.031  -5.458  -7.993  0.00  0.00    -0.057 SA
ATOM     15  C   LIG d   1       3.922  -2.180  -7.375  0.00  0.00     0.016 C 
ATOM     16  H   LIG d   1       3.030  -2.396  -6.787  0.00  0.00     0.037 H 
ATOM     17  H   LIG d   1       1.612  -1.078  -8.140  0.00  0.00     0.027 H 
ATOM     18  H   LIG d   1       2.887   0.156  -8.261  0.00  0.00     0.027 H 
ATOM     19  H   LIG d   1       2.782  -0.016 -10.724  0.00  0.00     0.029 H 
ATOM     20  H   LIG d   1       1.199   0.427 -10.035  0.00  0.00     0.029 H 
ATOM     21  H   LIG d   1       4.729  -3.746 -10.528  0.00  0.00     0.032 H 
ATOM     22  H   LIG d   1       3.644  -5.054  -9.994  0.00  0.00     0.032 H 
ENDROOT
BRANCH  13  23
ATOM     23  N   LIG d   1       7.282  -5.289  -5.464  0.00  0.00    -0.265 N 
ATOM     24  C   LIG d   1       8.577  -4.912  -5.486  0.00  0.00     0.219 C 
ATOM     25  O   LIG d   1       8.971  -4.151  -6.344  0.00  0.00    -0.275 OA
ATOM     26  H   LIG d   1       6.967  -5.898  -4.777  0.00  0.00     0.157 HD
BRANCH  24  27
ATOM     27  C   LIG d   1       9.532  -5.436  -4.446  0.00  0.00     0.029 C 
ATOM     28  H   LIG d   1       9.126  -6.347  -4.006  0.00  0.00     0.036 H 
ATOM     29  H   LIG d   1      10.493  -5.654  -4.912  0.00  0.00     0.036 H 
BRANCH  27  30
ATOM     30  C   LIG d   1       9.722  -4.383  -3.352  0.00  0.00    -0.029 C 
BRANCH  30  31
ATOM     31  C   LIG d   1      11.050  -3.653  -3.570  0.00  0.00    -0.060 C 
ATOM     32  H   LIG d   1      11.875  -4.319  -3.318  0.00  0.00     0.024 H 
ATOM     33  H   LIG d   1      11.131  -3.351  -4.614  0.00  0.00     0.024 H 
ATOM     34  H   LIG d   1      11.087  -2.770  -2.932  0.00  0.00     0.024 H 
ENDBRANCH  30  31
BRANCH  30  35
ATOM     35  C   LIG d   1       8.572  -3.377  -3.408  0.00  0.00    -0.060 C 
ATOM     36  H   LIG d   1       7.694  -3.799  -2.919  0.00  0.00     0.024 H 
ATOM     37  H   LIG d   1       8.866  -2.459  -2.896  0.00  0.00     0.024 H 
ATOM     38  H   LIG d   1       8.335  -3.152  -4.448  0.00  0.00     0.024 H 
ENDBRANCH  30  35
BRANCH  30  39
ATOM     39  C   LIG d   1       9.735  -5.067  -1.984  0.00  0.00    -0.060 C 
ATOM     40  H   LIG d   1       8.726  -5.074  -1.571  0.00  0.00     0.024 H 
ATOM     41  H   LIG d   1      10.091  -6.092  -2.094  0.00  0.00     0.024 H 
ATOM     42  H   LIG d   1      10.399  -4.524  -1.312  0.00  0.00     0.024 H 
ENDBRANCH  30  39
ENDBRANCH  27  30
ENDBRANCH  24  27
ENDBRANCH  13  23
BRANCH  15  43
ATOM     43  C   LIG d   1       4.667  -0.997  -6.753  0.00  0.00     0.033 C 
ATOM     44  H   LIG d   1       5.714  -1.260  -6.611  0.00  0.00     0.036 H 
ATOM     45  H   LIG d   1       4.596  -0.134  -7.416  0.00  0.00     0.036 H 
BRANCH  43  46
ATOM     46  C   LIG d   1       4.049  -0.658  -5.421  0.00  0.00     0.214 C 
ATOM     47  O   LIG d   1       3.687   0.477  -5.192  0.00  0.00    -0.276 OA
ATOM     48  N   LIG d   1       3.898  -1.615  -4.485  0.00  0.00    -0.313 N 
ATOM     49  H   LIG d   1       4.187  -2.523  -4.669  0.00  0.00     0.149 HD
BRANCH  48  50
ATOM     50  C   LIG d   1       3.297  -1.286  -3.190  0.00  0.00     0.035 C 
ATOM     51  H   LIG d   1       2.924  -0.261  -3.213  0.00  0.00     0.048 H 
ATOM     52  H   LIG d   1       2.471  -1.968  -2.988  0.00  0.00     0.048 H 
BRANCH  50  53
ATOM     53  C   LIG d   1       4.351  -1.420  -2.090  0.00  0.00     0.063 C 
ATOM     54  H   LIG d   1       4.090  -2.252  -1.436  0.00  0.00     0.058 H 
ATOM     55  H   LIG d   1       5.326  -1.606  -2.542  0.00  0.00     0.058 H 
BRANCH  53  56
ATOM     56  O   LIG d   1       4.402  -0.212  -1.328  0.00  0.00    -0.381 OA
BRANCH  56  57
ATOM     57  C   LIG d   1       4.815   0.931  -2.079  0.00  0.00     0.036 C 
ATOM     58  H   LIG d   1       5.073   1.741  -1.395  0.00  0.00     0.052 H 
ATOM     59  H   LIG d   1       5.686   0.675  -2.682  0.00  0.00     0.052 H 
ATOM     60  H   LIG d   1       4.003   1.252  -2.731  0.00  0.00     0.052 H 
ENDBRANCH  56  57
ENDBRANCH  53  56
ENDBRANCH  50  53
ENDBRANCH  48  50
ENDBRANCH  43  46
ENDBRANCH  15  43
BRANCH   1  61
ATOM     61  C   LIG d   1       4.738  -1.325  -9.582  0.00  0.00    -0.059 C 
ATOM     62  H   LIG d   1       4.542  -0.320  -9.954  0.00  0.00     0.024 H 
ATOM     63  H   LIG d   1       5.602  -1.304  -8.917  0.00  0.00     0.024 H 
ATOM     64  H   LIG d   1       4.940  -1.990 -10.420  0.00  0.00     0.024 H 
ENDBRANCH   1  61
BRANCH   6  65
ATOM     65  C   LIG d   1       1.788  -3.918 -11.557  0.00  0.00    -0.055 C 
ATOM     66  H   LIG d   1       1.730  -4.730 -10.831  0.00  0.00     0.024 H 
ATOM     67  H   LIG d   1       0.786  -3.682 -11.919  0.00  0.00     0.024 H 
ATOM     68  H   LIG d   1       2.413  -4.224 -12.396  0.00  0.00     0.024 H 
ENDBRANCH   6  65
BRANCH   6  69
ATOM     69  C   LIG d   1       3.536  -2.148 -11.761  0.00  0.00     0.052 C 
ATOM     70  H   LIG d   1       3.628  -1.071 -11.619  0.00  0.00     0.056 H 
ATOM     71  H   LIG d   1       4.468  -2.634 -11.474  0.00  0.00     0.056 H 
BRANCH  69  72
ATOM     72  O   LIG d   1       3.258  -2.425 -13.136  0.00  0.00    -0.394 OA
ATOM     73  H   LIG d   1       2.610  -3.130 -13.271  0.00  0.00     0.209 HD
ENDBRANCH  69  72
ENDBRANCH   6  69
BRANCH   4  74
ATOM     74  O   LIG d   1       0.813  -1.267 -12.051  0.00  0.00    -0.391 OA
ATOM     75  H   LIG d   1      -0.145  -1.362 -12.134  0.00  0.00     0.210 HD
ENDBRANCH   4  74
TORSDOF 17
ENDMDL
MODEL 6
REMARK VINA RESULT:      -5.2      3.186      8.453
REMARK  17 active torsions:
REMARK  status: ('A' for Active; 'I' for Inactive)
REMARK    1  A    between atoms: C_1  and  C_2 
REMARK    2  A    between atoms: C_5  and  O_37 
REMARK    3  A    between atoms: C_7  and  C_34 
REMARK    4  A    between atoms: C_7  and  C_35 
REMARK    5  A    between atoms: C_14  and  N_16 
REMARK       I    between atoms: N_16  and  C_17 
REMARK    6  A    between atoms: C_17  and  C_19 
REMARK    7  A    between atoms: C_19  and  C_20 
REMARK    8  A    between atoms: C_20  and  C_21 
REMARK    9  A    between atoms: C_20  and  C_22 
REMARK   10  A    between atoms: C_20  and  C_23 
REMARK   11  A    between atoms: C_24  and  C_26 
REMARK   12  A    between atoms: C_26  and  C_27 
REMARK       I    between atoms: C_27  and  N_29 
REMARK   13  A    between atoms: N_29  and  C_30 
REMARK   14  A    between atoms: C_30  and  C_31 
REMARK   15  A    between atoms: C_31  and  O_32 
REMARK   16  A    between atoms: O_32  and  C_33 
REMARK   17  A    between atoms: C_35  and  O_36 
ROOT
ATOM      1  C   LIG d   1      10.570   6.346  -3.139  0.00  0.00    -0.019 C 
ATOM      2  C   LIG d   1      10.464   5.177  -2.154  0.00  0.00    -0.044 C 
ATOM      3  C   LIG d   1      11.113   5.520  -0.829  0.00  0.00    -0.026 C 
ATOM      4  C   LIG d   1      10.405   6.736  -0.227  0.00  0.00     0.063 C 
ATOM      5  H   LIG d   1       9.346   6.516  -0.094  0.00  0.00     0.060 H 
ATOM      6  C   LIG d   1      10.565   7.919  -1.180  0.00  0.00     0.021 C 
ATOM      7  C   LIG d   1       9.930   7.601  -2.538  0.00  0.00    -0.021 C 
ATOM      8  H   LIG d   1       8.857   7.453  -2.422  0.00  0.00     0.032 H 
ATOM      9  C   LIG d   1      10.200   8.796  -3.473  0.00  0.00    -0.016 C 
ATOM     10  C   LIG d   1       9.913   8.390  -4.875  0.00  0.00     0.015 A 
ATOM     11  C   LIG d   1       9.741   7.132  -5.356  0.00  0.00     0.058 A 
ATOM     12  N   LIG d   1       9.496   7.036  -6.662  0.00  0.00    -0.229 NA
ATOM     13  C   LIG d   1       9.422   8.094  -7.442  0.00  0.00     0.165 A 
ATOM     14  S   LIG d   1       9.712   9.393  -6.323  0.00  0.00    -0.057 SA
ATOM     15  C   LIG d   1       9.832   5.938  -4.420  0.00  0.00     0.016 C 
ATOM     16  H   LIG d   1       8.827   5.597  -4.168  0.00  0.00     0.037 H 
ATOM     17  H   LIG d   1       9.412   4.952  -1.972  0.00  0.00     0.027 H 
ATOM     18  H   LIG d   1      10.949   4.299  -2.582  0.00  0.00     0.027 H 
ATOM     19  H   LIG d   1      12.165   5.754  -0.997  0.00  0.00     0.029 H 
ATOM     20  H   LIG d   1      11.030   4.673  -0.148  0.00  0.00     0.029 H 
ATOM     21  H   LIG d   1      11.244   9.098  -3.387  0.00  0.00     0.032 H 
ATOM     22  H   LIG d   1       9.554   9.628  -3.195  0.00  0.00     0.032 H 
ENDROOT
BRANCH  13  23
ATOM     23  N   LIG d   1       9.176   8.157  -8.808  0.00  0.00    -0.265 N 
ATOM     24  C   LIG d   1      10.191   8.017  -9.684  0.00  0.00     0.219 C 
ATOM     25  O   LIG d   1      11.320   7.836  -9.279  0.00  0.00    -0.275 OA
ATOM     26  H   LIG d   1       8.273   8.302  -9.132  0.00  0.00     0.157 HD
BRANCH  24  27
ATOM     27  C   LIG d   1       9.924   8.087 -11.165  0.00  0.00     0.029 C 
ATOM     28  H   LIG d   1       8.999   8.637 -11.342  0.00  0.00     0.036 H 
ATOM     29  H   LIG d   1      10.751   8.596 -11.660  0.00  0.00     0.036 H 
BRANCH  27  30
ATOM     30  C   LIG d   1       9.787   6.669 -11.725  0.00  0.00    -0.029 C 
BRANCH  30  31
ATOM     31  C   LIG d   1       8.886   6.693 -12.962  0.00  0.00    -0.060 C 
ATOM     32  H   LIG d   1       8.854   5.699 -13.406  0.00  0.00     0.024 H 
ATOM     33  H   LIG d   1       7.880   6.995 -12.672  0.00  0.00     0.024 H 
ATOM     34  H   LIG d   1       9.284   7.403 -13.687  0.00  0.00     0.024 H 
ENDBRANCH  30  31
BRANCH  30  35
ATOM     35  C   LIG d   1      11.169   6.138 -12.111  0.00  0.00    -0.060 C 
ATOM     36  H   LIG d   1      11.185   5.054 -12.003  0.00  0.00     0.024 H 
ATOM     37  H   LIG d   1      11.384   6.403 -13.147  0.00  0.00     0.024 H 
ATOM     38  H   LIG d   1      11.923   6.579 -11.460  0.00  0.00     0.024 H 
ENDBRANCH  30  35
BRANCH  30  39
ATOM     39  C   LIG d   1       9.170   5.759 -10.662  0.00  0.00    -0.060 C 
ATOM     40  H   LIG d   1       8.083   5.796 -10.738  0.00  0.00     0.024 H 
ATOM     41  H   LIG d   1       9.511   4.735 -10.817  0.00  0.00     0.024 H 
ATOM     42  H   LIG d   1       9.477   6.097  -9.672  0.00  0.00     0.024 H 
ENDBRANCH  30  39
ENDBRANCH  27  30
ENDBRANCH  24  27
ENDBRANCH  13  23
BRANCH  15  43
ATOM     43  C   LIG d   1      10.595   4.805  -5.109  0.00  0.00     0.033 C 
ATOM     44  H   LIG d   1      11.097   5.192  -5.995  0.00  0.00     0.036 H 
ATOM     45  H   LIG d   1      11.335   4.395  -4.422  0.00  0.00     0.036 H 
BRANCH  43  46
ATOM     46  C   LIG d   1       9.629   3.721  -5.512  0.00  0.00     0.214 C 
ATOM     47  O   LIG d   1       9.419   3.502  -6.687  0.00  0.00    -0.276 OA
ATOM     48  N   LIG d   1       8.999   2.994  -4.568  0.00  0.00    -0.313 N 
ATOM     49  H   LIG d   1       9.167   3.169  -3.629  0.00  0.00     0.149 HD
BRANCH  48  50
ATOM     50  C   LIG d   1       8.061   1.939  -4.961  0.00  0.00     0.035 C 
ATOM     51  H   LIG d   1       7.267   2.369  -5.574  0.00  0.00     0.048 H 
ATOM     52  H   LIG d   1       8.589   1.176  -5.532  0.00  0.00     0.048 H 
BRANCH  50  53
ATOM     53  C   LIG d   1       7.451   1.308  -3.708  0.00  0.00     0.063 C 
ATOM     54  H   LIG d   1       7.656   0.237  -3.705  0.00  0.00     0.058 H 
ATOM     55  H   LIG d   1       7.891   1.764  -2.821  0.00  0.00     0.058 H 
BRANCH  53  56
ATOM     56  O   LIG d   1       6.038   1.523  -3.704  0.00  0.00    -0.381 OA
BRANCH  56  57
ATOM     57  C   LIG d   1       5.361   0.914  -2.604  0.00  0.00     0.036 C 
ATOM     58  H   LIG d   1       4.479   1.502  -2.350  0.00  0.00     0.052 H 
ATOM     59  H   LIG d   1       5.057  -0.096  -2.878  0.00  0.00     0.052 H 
ATOM     60  H   LIG d   1       6.029   0.871  -1.743  0.00  0.00     0.052 H 
ENDBRANCH  56  57
ENDBRANCH  53  56
ENDBRANCH  50  53
ENDBRANCH  48  50
ENDBRANCH  43  46
ENDBRANCH  15  43
BRANCH   1  61
ATOM     61  C   LIG d   1      12.039   6.624  -3.461  0.00  0.00    -0.059 C 
ATOM     62  H   LIG d   1      12.104   7.248  -4.351  0.00  0.00     0.024 H 
ATOM     63  H   LIG d   1      12.504   7.140  -2.620  0.00  0.00     0.024 H 
ATOM     64  H   LIG d   1      12.556   5.682  -3.639  0.00  0.00     0.024 H 
ENDBRANCH   1  61
BRANCH   6  65
ATOM     65  C   LIG d   1       9.883   9.149  -0.579  0.00  0.00    -0.055 C 
ATOM     66  H   LIG d   1       8.804   9.073  -0.721  0.00  0.00     0.024 H 
ATOM     67  H   LIG d   1      10.106   9.204   0.487  0.00  0.00     0.024 H 
ATOM     68  H   LIG d   1      10.251  10.048  -1.073  0.00  0.00     0.024 H 
ENDBRANCH   6  65
BRANCH   6  69
ATOM     69  C   LIG d   1      12.055   8.210  -1.373  0.00  0.00     0.052 C 
ATOM     70  H   LIG d   1      12.622   7.284  -1.277  0.00  0.00     0.056 H 
ATOM     71  H   LIG d   1      12.216   8.634  -2.365  0.00  0.00     0.056 H 
BRANCH  69  72
ATOM     72  O   LIG d   1      12.491   9.142  -0.381  0.00  0.00    -0.394 OA
ATOM     73  H   LIG d   1      13.396   9.456  -0.508  0.00  0.00     0.209 HD
ENDBRANCH  69  72
ENDBRANCH   6  69
BRANCH   4  74
ATOM     74  O   LIG d   1      10.992   7.056   1.036  0.00  0.00    -0.391 OA
ATOM     75  H   LIG d   1      11.707   7.704   0.984  0.00  0.00     0.210 HD
ENDBRANCH   4  74
TORSDOF 17
ENDMDL
MODEL 7
REMARK VINA RESULT:      -5.2      2.297      2.751
REMARK  17 active torsions:
REMARK  status: ('A' for Active; 'I' for Inactive)
REMARK    1  A    between atoms: C_1  and  C_2 
REMARK    2  A    between atoms: C_5  and  O_37 
REMARK    3  A    between atoms: C_7  and  C_34 
REMARK    4  A    between atoms: C_7  and  C_35 
REMARK    5  A    between atoms: C_14  and  N_16 
REMARK       I    between atoms: N_16  and  C_17 
REMARK    6  A    between atoms: C_17  and  C_19 
REMARK    7  A    between atoms: C_19  and  C_20 
REMARK    8  A    between atoms: C_20  and  C_21 
REMARK    9  A    between atoms: C_20  and  C_22 
REMARK   10  A    between atoms: C_20  and  C_23 
REMARK   11  A    between atoms: C_24  and  C_26 
REMARK   12  A    between atoms: C_26  and  C_27 
REMARK       I    between atoms: C_27  and  N_29 
REMARK   13  A    between atoms: N_29  and  C_30 
REMARK   14  A    between atoms: C_30  and  C_31 
REMARK   15  A    between atoms: C_31  and  O_32 
REMARK   16  A    between atoms: O_32  and  C_33 
REMARK   17  A    between atoms: C_35  and  O_36 
ROOT
ATOM      1  C   LIG d   1      12.165   2.604  -4.522  0.00  0.00    -0.019 C 
ATOM      2  C   LIG d   1      13.240   3.679  -4.333  0.00  0.00    -0.044 C 
ATOM      3  C   LIG d   1      14.584   3.200  -4.840  0.00  0.00    -0.026 C 
ATOM      4  C   LIG d   1      14.468   2.877  -6.333  0.00  0.00     0.063 C 
ATOM      5  H   LIG d   1      14.143   3.764  -6.875  0.00  0.00     0.060 H 
ATOM      6  C   LIG d   1      13.441   1.760  -6.514  0.00  0.00     0.021 C 
ATOM      7  C   LIG d   1      12.070   2.207  -5.997  0.00  0.00    -0.021 C 
ATOM      8  H   LIG d   1      11.705   3.048  -6.586  0.00  0.00     0.032 H 
ATOM      9  C   LIG d   1      11.107   1.011  -6.132  0.00  0.00    -0.016 C 
ATOM     10  C   LIG d   1       9.880   1.283  -5.334  0.00  0.00     0.015 A 
ATOM     11  C   LIG d   1       9.700   2.241  -4.390  0.00  0.00     0.058 A 
ATOM     12  N   LIG d   1       8.500   2.274  -3.814  0.00  0.00    -0.229 NA
ATOM     13  C   LIG d   1       7.542   1.431  -4.139  0.00  0.00     0.165 A 
ATOM     14  S   LIG d   1       8.309   0.462  -5.362  0.00  0.00    -0.057 SA
ATOM     15  C   LIG d   1      10.832   3.197  -4.046  0.00  0.00     0.016 C 
ATOM     16  H   LIG d   1      10.662   4.153  -4.541  0.00  0.00     0.037 H 
ATOM     17  H   LIG d   1      12.960   4.571  -4.894  0.00  0.00     0.027 H 
ATOM     18  H   LIG d   1      13.318   3.931  -3.275  0.00  0.00     0.027 H 
ATOM     19  H   LIG d   1      14.873   2.303  -4.293  0.00  0.00     0.029 H 
ATOM     20  H   LIG d   1      15.333   3.978  -4.691  0.00  0.00     0.029 H 
ATOM     21  H   LIG d   1      11.591   0.109  -5.759  0.00  0.00     0.032 H 
ATOM     22  H   LIG d   1      10.838   0.877  -7.179  0.00  0.00     0.032 H 
ENDROOT
BRANCH  13  23
ATOM     23  N   LIG d   1       6.250   1.339  -3.635  0.00  0.00    -0.265 N 
ATOM     24  C   LIG d   1       5.875   0.249  -2.936  0.00  0.00     0.219 C 
ATOM     25  O   LIG d   1       6.665  -0.650  -2.747  0.00  0.00    -0.275 OA
ATOM     26  H   LIG d   1       5.618   2.059  -3.787  0.00  0.00     0.157 HD
BRANCH  24  27
ATOM     27  C   LIG d   1       4.474   0.150  -2.391  0.00  0.00     0.029 C 
ATOM     28  H   LIG d   1       4.514  -0.101  -1.330  0.00  0.00     0.036 H 
ATOM     29  H   LIG d   1       3.965   1.105  -2.519  0.00  0.00     0.036 H 
BRANCH  27  30
ATOM     30  C   LIG d   1       3.710  -0.941  -3.144  0.00  0.00    -0.029 C 
BRANCH  30  31
ATOM     31  C   LIG d   1       2.235  -0.548  -3.256  0.00  0.00    -0.060 C 
ATOM     32  H   LIG d   1       2.110   0.160  -4.075  0.00  0.00     0.024 H 
ATOM     33  H   LIG d   1       1.636  -1.437  -3.448  0.00  0.00     0.024 H 
ATOM     34  H   LIG d   1       1.911  -0.086  -2.323  0.00  0.00     0.024 H 
ENDBRANCH  30  31
BRANCH  30  35
ATOM     35  C   LIG d   1       4.302  -1.104  -4.544  0.00  0.00    -0.060 C 
ATOM     36  H   LIG d   1       5.355  -1.375  -4.465  0.00  0.00     0.024 H 
ATOM     37  H   LIG d   1       3.765  -1.889  -5.078  0.00  0.00     0.024 H 
ATOM     38  H   LIG d   1       4.209  -0.165  -5.090  0.00  0.00     0.024 H 
ENDBRANCH  30  35
BRANCH  30  39
ATOM     39  C   LIG d   1       3.828  -2.263  -2.382  0.00  0.00    -0.060 C 
ATOM     40  H   LIG d   1       2.833  -2.627  -2.128  0.00  0.00     0.024 H 
ATOM     41  H   LIG d   1       4.335  -2.998  -3.009  0.00  0.00     0.024 H 
ATOM     42  H   LIG d   1       4.403  -2.106  -1.470  0.00  0.00     0.024 H 
ENDBRANCH  30  39
ENDBRANCH  27  30
ENDBRANCH  24  27
ENDBRANCH  13  23
BRANCH  15  43
ATOM     43  C   LIG d   1      10.879   3.409  -2.532  0.00  0.00     0.033 C 
ATOM     44  H   LIG d   1      10.130   2.780  -2.053  0.00  0.00     0.036 H 
ATOM     45  H   LIG d   1      11.868   3.143  -2.159  0.00  0.00     0.036 H 
BRANCH  43  46
ATOM     46  C   LIG d   1      10.597   4.855  -2.218  0.00  0.00     0.214 C 
ATOM     47  O   LIG d   1       9.661   5.419  -2.745  0.00  0.00    -0.276 OA
ATOM     48  N   LIG d   1      11.383   5.523  -1.351  0.00  0.00    -0.313 N 
ATOM     49  H   LIG d   1      12.132   5.072  -0.929  0.00  0.00     0.149 HD
BRANCH  48  50
ATOM     50  C   LIG d   1      11.108   6.930  -1.045  0.00  0.00     0.035 C 
ATOM     51  H   LIG d   1      11.936   7.546  -1.394  0.00  0.00     0.048 H 
ATOM     52  H   LIG d   1      10.189   7.237  -1.545  0.00  0.00     0.048 H 
BRANCH  50  53
ATOM     53  C   LIG d   1      10.948   7.100   0.466  0.00  0.00     0.063 C 
ATOM     54  H   LIG d   1      11.402   8.042   0.776  0.00  0.00     0.058 H 
ATOM     55  H   LIG d   1       9.887   7.109   0.721  0.00  0.00     0.058 H 
BRANCH  53  56
ATOM     56  O   LIG d   1      11.591   6.017   1.140  0.00  0.00    -0.381 OA
BRANCH  56  57
ATOM     57  C   LIG d   1      10.880   5.540   2.284  0.00  0.00     0.036 C 
ATOM     58  H   LIG d   1      11.588   5.303   3.079  0.00  0.00     0.052 H 
ATOM     59  H   LIG d   1      10.190   6.309   2.630  0.00  0.00     0.052 H 
ATOM     60  H   LIG d   1      10.321   4.643   2.017  0.00  0.00     0.052 H 
ENDBRANCH  56  57
ENDBRANCH  53  56
ENDBRANCH  50  53
ENDBRANCH  48  50
ENDBRANCH  43  46
ENDBRANCH  15  43
BRANCH   1  61
ATOM     61  C   LIG d   1      12.507   1.373  -3.680  0.00  0.00    -0.059 C 
ATOM     62  H   LIG d   1      13.297   0.806  -4.171  0.00  0.00     0.024 H 
ATOM     63  H   LIG d   1      12.846   1.691  -2.694  0.00  0.00     0.024 H 
ATOM     64  H   LIG d   1      11.622   0.747  -3.576  0.00  0.00     0.024 H 
ENDBRANCH   1  61
BRANCH   6  65
ATOM     65  C   LIG d   1      13.332   1.410  -7.999  0.00  0.00    -0.055 C 
ATOM     66  H   LIG d   1      12.476   0.754  -8.156  0.00  0.00     0.024 H 
ATOM     67  H   LIG d   1      13.203   2.324  -8.579  0.00  0.00     0.024 H 
ATOM     68  H   LIG d   1      14.242   0.902  -8.320  0.00  0.00     0.024 H 
ENDBRANCH   6  65
BRANCH   6  69
ATOM     69  C   LIG d   1      13.899   0.526  -5.734  0.00  0.00     0.052 C 
ATOM     70  H   LIG d   1      14.474   0.839  -4.863  0.00  0.00     0.056 H 
ATOM     71  H   LIG d   1      13.027  -0.042  -5.409  0.00  0.00     0.056 H 
BRANCH  69  72
ATOM     72  O   LIG d   1      14.714  -0.294  -6.575  0.00  0.00    -0.394 OA
ATOM     73  H   LIG d   1      14.243  -0.675  -7.328  0.00  0.00     0.209 HD
ENDBRANCH  69  72
ENDBRANCH   6  69
BRANCH   4  74
ATOM     74  O   LIG d   1      15.736   2.447  -6.830  0.00  0.00    -0.391 OA
ATOM     75  H   LIG d   1      16.412   2.343  -6.146  0.00  0.00     0.210 HD
ENDBRANCH   4  74
TORSDOF 17
ENDMDL
MODEL 8
REMARK VINA RESULT:      -5.1      4.652      8.500
REMARK  17 active torsions:
REMARK  status: ('A' for Active; 'I' for Inactive)
REMARK    1  A    between atoms: C_1  and  C_2 
REMARK    2  A    between atoms: C_5  and  O_37 
REMARK    3  A    between atoms: C_7  and  C_34 
REMARK    4  A    between atoms: C_7  and  C_35 
REMARK    5  A    between atoms: C_14  and  N_16 
REMARK       I    between atoms: N_16  and  C_17 
REMARK    6  A    between atoms: C_17  and  C_19 
REMARK    7  A    between atoms: C_19  and  C_20 
REMARK    8  A    between atoms: C_20  and  C_21 
REMARK    9  A    between atoms: C_20  and  C_22 
REMARK   10  A    between atoms: C_20  and  C_23 
REMARK   11  A    between atoms: C_24  and  C_26 
REMARK   12  A    between atoms: C_26  and  C_27 
REMARK       I    between atoms: C_27  and  N_29 
REMARK   13  A    between atoms: N_29  and  C_30 
REMARK   14  A    between atoms: C_30  and  C_31 
REMARK   15  A    between atoms: C_31  and  O_32 
REMARK   16  A    between atoms: O_32  and  C_33 
REMARK   17  A    between atoms: C_35  and  O_36 
ROOT
ATOM      1  C   LIG d   1      10.323   6.283  -4.585  0.00  0.00    -0.019 C 
ATOM      2  C   LIG d   1      10.445   7.066  -3.273  0.00  0.00    -0.044 C 
ATOM      3  C   LIG d   1      10.314   6.147  -2.076  0.00  0.00    -0.026 C 
ATOM      4  C   LIG d   1      11.430   5.099  -2.129  0.00  0.00     0.063 C 
ATOM      5  H   LIG d   1      12.399   5.595  -2.133  0.00  0.00     0.060 H 
ATOM      6  C   LIG d   1      11.270   4.277  -3.406  0.00  0.00     0.021 C 
ATOM      7  C   LIG d   1      11.382   5.179  -4.639  0.00  0.00    -0.021 C 
ATOM      8  H   LIG d   1      12.377   5.620  -4.689  0.00  0.00     0.032 H 
ATOM      9  C   LIG d   1      11.129   4.305  -5.883  0.00  0.00    -0.016 C 
ATOM     10  C   LIG d   1      10.886   5.188  -7.056  0.00  0.00     0.015 A 
ATOM     11  C   LIG d   1      10.613   6.518  -7.051  0.00  0.00     0.058 A 
ATOM     12  N   LIG d   1      10.431   7.080  -8.244  0.00  0.00    -0.229 NA
ATOM     13  C   LIG d   1      10.511   6.392  -9.364  0.00  0.00     0.165 A 
ATOM     14  S   LIG d   1      10.873   4.794  -8.784  0.00  0.00    -0.057 SA
ATOM     15  C   LIG d   1      10.533   7.276  -5.735  0.00  0.00     0.016 C 
ATOM     16  H   LIG d   1      11.461   7.826  -5.576  0.00  0.00     0.037 H 
ATOM     17  H   LIG d   1      11.422   7.548  -3.230  0.00  0.00     0.027 H 
ATOM     18  H   LIG d   1       9.667   7.829  -3.234  0.00  0.00     0.027 H 
ATOM     19  H   LIG d   1       9.344   5.652  -2.110  0.00  0.00     0.029 H 
ATOM     20  H   LIG d   1      10.399   6.727  -1.156  0.00  0.00     0.029 H 
ATOM     21  H   LIG d   1      10.256   3.675  -5.715  0.00  0.00     0.032 H 
ATOM     22  H   LIG d   1      12.001   3.680  -6.073  0.00  0.00     0.032 H 
ENDROOT
BRANCH  13  23
ATOM     23  N   LIG d   1      10.349   6.831 -10.672  0.00  0.00    -0.265 N 
ATOM     24  C   LIG d   1       9.244   6.490 -11.366  0.00  0.00     0.219 C 
ATOM     25  O   LIG d   1       8.391   5.801 -10.847  0.00  0.00    -0.275 OA
ATOM     26  H   LIG d   1      11.031   7.382 -11.088  0.00  0.00     0.157 HD
BRANCH  24  27
ATOM     27  C   LIG d   1       9.068   6.965 -12.785  0.00  0.00     0.029 C 
ATOM     28  H   LIG d   1       8.010   7.146 -12.979  0.00  0.00     0.036 H 
ATOM     29  H   LIG d   1       9.628   7.889 -12.931  0.00  0.00     0.036 H 
BRANCH  27  30
ATOM     30  C   LIG d   1       9.587   5.895 -13.748  0.00  0.00    -0.029 C 
BRANCH  30  31
ATOM     31  C   LIG d   1      10.726   6.475 -14.590  0.00  0.00    -0.060 C 
ATOM     32  H   LIG d   1      10.414   7.428 -15.016  0.00  0.00     0.024 H 
ATOM     33  H   LIG d   1      11.602   6.628 -13.959  0.00  0.00     0.024 H 
ATOM     34  H   LIG d   1      10.974   5.781 -15.393  0.00  0.00     0.024 H 
ENDBRANCH  30  31
BRANCH  30  35
ATOM     35  C   LIG d   1      10.102   4.697 -12.950  0.00  0.00    -0.060 C 
ATOM     36  H   LIG d   1       9.351   3.906 -12.955  0.00  0.00     0.024 H 
ATOM     37  H   LIG d   1      11.022   4.326 -13.402  0.00  0.00     0.024 H 
ATOM     38  H   LIG d   1      10.300   5.002 -11.922  0.00  0.00     0.024 H 
ENDBRANCH  30  35
BRANCH  30  39
ATOM     39  C   LIG d   1       8.451   5.445 -14.669  0.00  0.00    -0.060 C 
ATOM     40  H   LIG d   1       8.574   4.388 -14.907  0.00  0.00     0.024 H 
ATOM     41  H   LIG d   1       7.495   5.597 -14.167  0.00  0.00     0.024 H 
ATOM     42  H   LIG d   1       8.475   6.031 -15.588  0.00  0.00     0.024 H 
ENDBRANCH  30  39
ENDBRANCH  27  30
ENDBRANCH  24  27
ENDBRANCH  13  23
BRANCH  15  43
ATOM     43  C   LIG d   1       9.361   8.258  -5.782  0.00  0.00     0.033 C 
ATOM     44  H   LIG d   1       8.730   8.030  -6.640  0.00  0.00     0.036 H 
ATOM     45  H   LIG d   1       8.776   8.169  -4.867  0.00  0.00     0.036 H 
BRANCH  43  46
ATOM     46  C   LIG d   1       9.888   9.664  -5.906  0.00  0.00     0.214 C 
ATOM     47  O   LIG d   1      10.204  10.284  -4.911  0.00  0.00    -0.276 OA
ATOM     48  N   LIG d   1      10.010  10.234  -7.121  0.00  0.00    -0.313 N 
ATOM     49  H   LIG d   1       9.758   9.739  -7.916  0.00  0.00     0.149 HD
BRANCH  48  50
ATOM     50  C   LIG d   1      10.523  11.601  -7.241  0.00  0.00     0.035 C 
ATOM     51  H   LIG d   1      11.302  11.764  -6.496  0.00  0.00     0.048 H 
ATOM     52  H   LIG d   1      10.937  11.748  -8.239  0.00  0.00     0.048 H 
BRANCH  50  53
ATOM     53  C   LIG d   1       9.383  12.595  -7.010  0.00  0.00     0.063 C 
ATOM     54  H   LIG d   1       8.478  12.053  -6.735  0.00  0.00     0.058 H 
ATOM     55  H   LIG d   1       9.654  13.279  -6.206  0.00  0.00     0.058 H 
BRANCH  53  56
ATOM     56  O   LIG d   1       9.148  13.338  -8.208  0.00  0.00    -0.381 OA
BRANCH  56  57
ATOM     57  C   LIG d   1      10.097  14.381  -8.440  0.00  0.00     0.036 C 
ATOM     58  H   LIG d   1       9.596  15.232  -8.902  0.00  0.00     0.052 H 
ATOM     59  H   LIG d   1      10.537  14.690  -7.492  0.00  0.00     0.052 H 
ATOM     60  H   LIG d   1      10.882  14.018  -9.103  0.00  0.00     0.052 H 
ENDBRANCH  56  57
ENDBRANCH  53  56
ENDBRANCH  50  53
ENDBRANCH  48  50
ENDBRANCH  43  46
ENDBRANCH  15  43
BRANCH   1  61
ATOM     61  C   LIG d   1       8.929   5.662  -4.692  0.00  0.00    -0.059 C 
ATOM     62  H   LIG d   1       8.181   6.394  -4.386  0.00  0.00     0.024 H 
ATOM     63  H   LIG d   1       8.743   5.363  -5.724  0.00  0.00     0.024 H 
ATOM     64  H   LIG d   1       8.869   4.789  -4.044  0.00  0.00     0.024 H 
ENDBRANCH   1  61
BRANCH   6  65
ATOM     65  C   LIG d   1      12.363   3.208  -3.460  0.00  0.00    -0.055 C 
ATOM     66  H   LIG d   1      13.341   3.685  -3.391  0.00  0.00     0.024 H 
ATOM     67  H   LIG d   1      12.236   2.516  -2.627  0.00  0.00     0.024 H 
ATOM     68  H   LIG d   1      12.291   2.661  -4.400  0.00  0.00     0.024 H 
ENDBRANCH   6  65
BRANCH   6  69
ATOM     69  C   LIG d   1       9.898   3.598  -3.398  0.00  0.00     0.052 C 
ATOM     70  H   LIG d   1       9.241   4.114  -2.697  0.00  0.00     0.056 H 
ATOM     71  H   LIG d   1       9.467   3.640  -4.399  0.00  0.00     0.056 H 
BRANCH  69  72
ATOM     72  O   LIG d   1      10.044   2.233  -2.999  0.00  0.00    -0.394 OA
ATOM     73  H   LIG d   1       9.710   2.045  -2.112  0.00  0.00     0.209 HD
ENDBRANCH  69  72
ENDBRANCH   6  69
BRANCH   4  74
ATOM     74  O   LIG d   1      11.333   4.240  -0.991  0.00  0.00    -0.391 OA
ATOM     75  H   LIG d   1      11.025   4.684  -0.189  0.00  0.00     0.210 HD
ENDBRANCH   4  74
TORSDOF 17
ENDMDL
MODEL 9
REMARK VINA RESULT:      -5.1      7.773     10.349
REMARK  17 active torsions:
REMARK  status: ('A' for Active; 'I' for Inactive)
REMARK    1  A    between atoms: C_1  and  C_2 
REMARK    2  A    between atoms: C_5  and  O_37 
REMARK    3  A    between atoms: C_7  and  C_34 
REMARK    4  A    between atoms: C_7  and  C_35 
REMARK    5  A    between atoms: C_14  and  N_16 
REMARK       I    between atoms: N_16  and  C_17 
REMARK    6  A    between atoms: C_17  and  C_19 
REMARK    7  A    between atoms: C_19  and  C_20 
REMARK    8  A    between atoms: C_20  and  C_21 
REMARK    9  A    between atoms: C_20  and  C_22 
REMARK   10  A    between atoms: C_20  and  C_23 
REMARK   11  A    between atoms: C_24  and  C_26 
REMARK   12  A    between atoms: C_26  and  C_27 
REMARK       I    between atoms: C_27  and  N_29 
REMARK   13  A    between atoms: N_29  and  C_30 
REMARK   14  A    between atoms: C_30  and  C_31 
REMARK   15  A    between atoms: C_31  and  O_32 
REMARK   16  A    between atoms: O_32  and  C_33 
REMARK   17  A    between atoms: C_35  and  O_36 
ROOT
ATOM      1  C   LIG d   1       4.287  -2.673  -7.944  0.00  0.00    -0.019 C 
ATOM      2  C   LIG d   1       3.832  -1.240  -7.647  0.00  0.00    -0.044 C 
ATOM      3  C   LIG d   1       3.521  -0.491  -8.926  0.00  0.00    -0.026 C 
ATOM      4  C   LIG d   1       2.398  -1.220  -9.670  0.00  0.00     0.063 C 
ATOM      5  H   LIG d   1       1.517  -1.282  -9.033  0.00  0.00     0.060 H 
ATOM      6  C   LIG d   1       2.875  -2.627 -10.022  0.00  0.00     0.021 C 
ATOM      7  C   LIG d   1       3.214  -3.410  -8.749  0.00  0.00    -0.021 C 
ATOM      8  H   LIG d   1       2.318  -3.541  -8.142  0.00  0.00     0.032 H 
ATOM      9  C   LIG d   1       3.766  -4.784  -9.177  0.00  0.00    -0.016 C 
ATOM     10  C   LIG d   1       4.422  -5.430  -8.008  0.00  0.00     0.015 A 
ATOM     11  C   LIG d   1       4.781  -4.851  -6.833  0.00  0.00     0.058 A 
ATOM     12  N   LIG d   1       5.361  -5.652  -5.942  0.00  0.00    -0.229 NA
ATOM     13  C   LIG d   1       5.573  -6.930  -6.179  0.00  0.00     0.165 A 
ATOM     14  S   LIG d   1       4.930  -7.114  -7.785  0.00  0.00    -0.057 SA
ATOM     15  C   LIG d   1       4.514  -3.372  -6.598  0.00  0.00     0.016 C 
ATOM     16  H   LIG d   1       3.627  -3.258  -5.975  0.00  0.00     0.037 H 
ATOM     17  H   LIG d   1       2.929  -1.268  -7.037  0.00  0.00     0.027 H 
ATOM     18  H   LIG d   1       4.618  -0.718  -7.100  0.00  0.00     0.027 H 
ATOM     19  H   LIG d   1       4.415  -0.462  -9.550  0.00  0.00     0.029 H 
ATOM     20  H   LIG d   1       3.205   0.526  -8.690  0.00  0.00     0.029 H 
ATOM     21  H   LIG d   1       4.495  -4.651  -9.976  0.00  0.00     0.032 H 
ATOM     22  H   LIG d   1       2.947  -5.412  -9.528  0.00  0.00     0.032 H 
ENDROOT
BRANCH  13  23
ATOM     23  N   LIG d   1       6.159  -7.886  -5.359  0.00  0.00    -0.265 N 
ATOM     24  C   LIG d   1       5.390  -8.789  -4.719  0.00  0.00     0.219 C 
ATOM     25  O   LIG d   1       4.186  -8.768  -4.860  0.00  0.00    -0.275 OA
ATOM     26  H   LIG d   1       7.122  -7.903  -5.246  0.00  0.00     0.157 HD
BRANCH  24  27
ATOM     27  C   LIG d   1       6.026  -9.825  -3.828  0.00  0.00     0.029 C 
ATOM     28  H   LIG d   1       7.013  -9.479  -3.517  0.00  0.00     0.036 H 
ATOM     29  H   LIG d   1       5.402  -9.981  -2.949  0.00  0.00     0.036 H 
BRANCH  27  30
ATOM     30  C   LIG d   1       6.167 -11.140  -4.596  0.00  0.00    -0.029 C 
BRANCH  30  31
ATOM     31  C   LIG d   1       6.804 -10.870  -5.960  0.00  0.00    -0.060 C 
ATOM     32  H   LIG d   1       6.083 -10.367  -6.605  0.00  0.00     0.024 H 
ATOM     33  H   LIG d   1       7.682 -10.237  -5.832  0.00  0.00     0.024 H 
ATOM     34  H   LIG d   1       7.101 -11.815  -6.416  0.00  0.00     0.024 H 
ENDBRANCH  30  31
BRANCH  30  35
ATOM     35  C   LIG d   1       7.051 -12.103  -3.802  0.00  0.00    -0.060 C 
ATOM     36  H   LIG d   1       6.911 -11.930  -2.735  0.00  0.00     0.024 H 
ATOM     37  H   LIG d   1       6.778 -13.131  -4.042  0.00  0.00     0.024 H 
ATOM     38  H   LIG d   1       8.096 -11.935  -4.062  0.00  0.00     0.024 H 
ENDBRANCH  30  35
BRANCH  30  39
ATOM     39  C   LIG d   1       4.784 -11.764  -4.794  0.00  0.00    -0.060 C 
ATOM     40  H   LIG d   1       4.576 -12.455  -3.976  0.00  0.00     0.024 H 
ATOM     41  H   LIG d   1       4.029 -10.977  -4.806  0.00  0.00     0.024 H 
ATOM     42  H   LIG d   1       4.760 -12.303  -5.741  0.00  0.00     0.024 H 
ENDBRANCH  30  39
ENDBRANCH  27  30
ENDBRANCH  24  27
ENDBRANCH  13  23
BRANCH  15  43
ATOM     43  C   LIG d   1       5.717  -2.743  -5.892  0.00  0.00     0.033 C 
ATOM     44  H   LIG d   1       6.502  -3.489  -5.776  0.00  0.00     0.036 H 
ATOM     45  H   LIG d   1       6.092  -1.911  -6.487  0.00  0.00     0.036 H 
BRANCH  43  46
ATOM     46  C   LIG d   1       5.296  -2.241  -4.535  0.00  0.00     0.214 C 
ATOM     47  O   LIG d   1       6.134  -1.875  -3.737  0.00  0.00    -0.276 OA
ATOM     48  N   LIG d   1       3.990  -2.197  -4.207  0.00  0.00    -0.313 N 
ATOM     49  H   LIG d   1       3.320  -2.489  -4.845  0.00  0.00     0.149 HD
BRANCH  48  50
ATOM     50  C   LIG d   1       3.582  -1.708  -2.887  0.00  0.00     0.035 C 
ATOM     51  H   LIG d   1       3.035  -2.492  -2.363  0.00  0.00     0.048 H 
ATOM     52  H   LIG d   1       4.466  -1.433  -2.312  0.00  0.00     0.048 H 
BRANCH  50  53
ATOM     53  C   LIG d   1       2.681  -0.483  -3.054  0.00  0.00     0.063 C 
ATOM     54  H   LIG d   1       2.692  -0.163  -4.097  0.00  0.00     0.058 H 
ATOM     55  H   LIG d   1       1.661  -0.739  -2.765  0.00  0.00     0.058 H 
BRANCH  53  56
ATOM     56  O   LIG d   1       3.159   0.578  -2.225  0.00  0.00    -0.381 OA
BRANCH  56  57
ATOM     57  C   LIG d   1       4.499   0.395  -1.764  0.00  0.00     0.036 C 
ATOM     58  H   LIG d   1       4.701   1.094  -0.951  0.00  0.00     0.052 H 
ATOM     59  H   LIG d   1       4.624  -0.626  -1.404  0.00  0.00     0.052 H 
ATOM     60  H   LIG d   1       5.194   0.580  -2.583  0.00  0.00     0.052 H 
ENDBRANCH  56  57
ENDBRANCH  53  56
ENDBRANCH  50  53
ENDBRANCH  48  50
ENDBRANCH  43  46
ENDBRANCH  15  43
BRANCH   1  61
ATOM     61  C   LIG d   1       5.596  -2.649  -8.736  0.00  0.00    -0.059 C 
ATOM     62  H   LIG d   1       6.437  -2.746  -8.050  0.00  0.00     0.024 H 
ATOM     63  H   LIG d   1       5.607  -3.479  -9.444  0.00  0.00     0.024 H 
ATOM     64  H   LIG d   1       5.676  -1.708  -9.278  0.00  0.00     0.024 H 
ENDBRANCH   1  61
BRANCH   6  65
ATOM     65  C   LIG d   1       1.772  -3.359 -10.787  0.00  0.00    -0.055 C 
ATOM     66  H   LIG d   1       0.800  -3.075 -10.384  0.00  0.00     0.024 H 
ATOM     67  H   LIG d   1       1.822  -3.089 -11.842  0.00  0.00     0.024 H 
ATOM     68  H   LIG d   1       1.908  -4.435 -10.682  0.00  0.00     0.024 H 
ENDBRANCH   6  65
BRANCH   6  69
ATOM     69  C   LIG d   1       4.124  -2.529 -10.902  0.00  0.00     0.052 C 
ATOM     70  H   LIG d   1       4.685  -1.633 -10.638  0.00  0.00     0.056 H 
ATOM     71  H   LIG d   1       4.748  -3.409 -10.746  0.00  0.00     0.056 H 
BRANCH  69  72
ATOM     72  O   LIG d   1       3.733  -2.459 -12.275  0.00  0.00    -0.394 OA
ATOM     73  H   LIG d   1       4.261  -1.845 -12.803  0.00  0.00     0.209 HD
ENDBRANCH  69  72
ENDBRANCH   6  69
BRANCH   4  74
ATOM     74  O   LIG d   1       2.077  -0.509 -10.867  0.00  0.00    -0.391 OA
ATOM     75  H   LIG d   1       1.175  -0.160 -10.887  0.00  0.00     0.210 HD
ENDBRANCH   4  74
TORSDOF 17
ENDMDL
