MODEL 1
REMARK VINA RESULT:      -6.7      0.000      0.000
REMARK  6 active torsions:
REMARK  status: ('A' for Active; 'I' for Inactive)
REMARK    1  A    between atoms: C_1  and  C_2 
REMARK    2  A    between atoms: C_2  and  C_4 
REMARK    3  A    between atoms: C_4  and  C_5 
REMARK    4  A    between atoms: C_5  and  C_7 
REMARK    5  A    between atoms: C_5  and  C_16 
REMARK    6  A    between atoms: C_10  and  N_13 
ROOT
ATOM      1  C   LIG d   1       4.259   0.533  -8.580  0.00  0.00     0.022 C 
ATOM      2  H   LIG d   1       3.897   1.541  -8.380  0.00  0.00     0.040 H 
ENDROOT
BRANCH   1   3
ATOM      3  C   LIG d   1       5.671   0.604  -9.166  0.00  0.00     0.017 C 
ATOM      4  H   LIG d   1       5.643   0.312 -10.216  0.00  0.00     0.035 H 
ATOM      5  H   LIG d   1       6.326  -0.072  -8.617  0.00  0.00     0.035 H 
BRANCH   3   6
ATOM      6  C   LIG d   1       6.192   2.014  -9.051  0.00  0.00     0.131 C 
ATOM      7  O   LIG d   1       5.448   2.949  -9.228  0.00  0.00    -0.298 OA
BRANCH   6   8
ATOM      8  C   LIG d   1       7.640   2.256  -8.714  0.00  0.00    -0.006 C 
ATOM      9  H   LIG d   1       8.266   1.579  -9.295  0.00  0.00     0.031 H 
ATOM     10  H   LIG d   1       7.901   3.287  -8.950  0.00  0.00     0.031 H 
ATOM     11  H   LIG d   1       7.800   2.075  -7.650  0.00  0.00     0.031 H 
ENDBRANCH   6   8
ENDBRANCH   3   6
ENDBRANCH   1   3
BRANCH   1  12
ATOM     12  C   LIG d   1       3.341  -0.146  -9.563  0.00  0.00    -0.039 A 
ATOM     13  C   LIG d   1       3.761  -0.368 -10.862  0.00  0.00    -0.052 A 
ATOM     14  C   LIG d   1       2.920  -0.994 -11.763  0.00  0.00     0.016 A 
ATOM     15  H   LIG d   1       4.747  -0.056 -11.172  0.00  0.00     0.062 H 
ATOM     16  C   LIG d   1       1.655  -1.391 -11.368  0.00  0.00     0.273 A 
ATOM     17  H   LIG d   1       3.250  -1.172 -12.775  0.00  0.00     0.069 H 
ATOM     18  C   LIG d   1       1.234  -1.164 -10.072  0.00  0.00     0.016 A 
ATOM     19  C   LIG d   1       2.076  -0.541  -9.169  0.00  0.00    -0.052 A 
ATOM     20  H   LIG d   1       0.246  -1.473  -9.763  0.00  0.00     0.069 H 
ATOM     21  H   LIG d   1       1.746  -0.364  -8.156  0.00  0.00     0.062 H 
BRANCH  16  22
ATOM     22  N   LIG d   1       0.755  -2.058 -12.334  0.00  0.00     0.080 N 
ATOM     23  O   LIG d   1       1.059  -3.131 -12.802  0.00  0.00     0.041 OA
ATOM     24  O   LIG d   1      -0.284  -1.531 -12.656  0.00  0.00    -0.576 OA
ENDBRANCH  16  22
ENDBRANCH   1  12
BRANCH   1  25
ATOM     25  C   LIG d   1       4.288  -0.254  -7.295  0.00  0.00     0.038 A 
ATOM     26  C   LIG d   1       5.028  -1.445  -7.215  0.00  0.00     0.341 A 
ATOM     27  O   LIG d   1       5.083  -2.169  -6.086  0.00  0.00    -0.422 OA
ATOM     28  O   LIG d   1       5.640  -1.829  -8.196  0.00  0.00    -0.245 OA
ATOM     29  C   LIG d   1       4.420  -1.796  -4.970  0.00  0.00     0.139 A 
ATOM     30  C   LIG d   1       3.654  -0.618  -4.974  0.00  0.00     0.010 A 
ATOM     31  C   LIG d   1       4.486  -2.563  -3.814  0.00  0.00    -0.019 A 
ATOM     32  C   LIG d   1       3.592   0.186  -6.204  0.00  0.00    -0.087 A 
ATOM     33  C   LIG d   1       2.966  -0.229  -3.823  0.00  0.00    -0.052 A 
ATOM     34  O   LIG d   1       2.867   1.327  -6.254  0.00  0.00    -0.873 OA
ATOM     35  C   LIG d   1       3.045  -1.004  -2.687  0.00  0.00    -0.061 A 
ATOM     36  H   LIG d   1       2.377   0.677  -3.823  0.00  0.00     0.062 H 
ATOM     37  C   LIG d   1       3.802  -2.167  -2.685  0.00  0.00    -0.058 A 
ATOM     38  H   LIG d   1       2.515  -0.707  -1.795  0.00  0.00     0.062 H 
ATOM     39  H   LIG d   1       3.856  -2.768  -1.789  0.00  0.00     0.062 H 
ATOM     40  H   LIG d   1       5.074  -3.470  -3.801  0.00  0.00     0.065 H 
ENDBRANCH   1  25
TORSDOF 6
ENDMDL
MODEL 2
REMARK VINA RESULT:      -6.6      4.170      7.610
REMARK  6 active torsions:
REMARK  status: ('A' for Active; 'I' for Inactive)
REMARK    1  A    between atoms: C_1  and  C_2 
REMARK    2  A    between atoms: C_2  and  C_4 
REMARK    3  A    between atoms: C_4  and  C_5 
REMARK    4  A    between atoms: C_5  and  C_7 
REMARK    5  A    between atoms: C_5  and  C_16 
REMARK    6  A    between atoms: C_10  and  N_13 
ROOT
ATOM      1  C   LIG d   1       6.048  -3.887  -4.779  0.00  0.00     0.022 C 
ATOM      2  H   LIG d   1       5.957  -4.762  -4.136  0.00  0.00     0.040 H 
ENDROOT
BRANCH   1   3
ATOM      3  C   LIG d   1       7.511  -3.701  -5.185  0.00  0.00     0.017 C 
ATOM      4  H   LIG d   1       7.815  -2.673  -4.986  0.00  0.00     0.035 H 
ATOM      5  H   LIG d   1       7.621  -3.913  -6.248  0.00  0.00     0.035 H 
BRANCH   3   6
ATOM      6  C   LIG d   1       8.377  -4.644  -4.391  0.00  0.00     0.131 C 
ATOM      7  O   LIG d   1       8.397  -5.820  -4.664  0.00  0.00    -0.298 OA
BRANCH   6   8
ATOM      8  C   LIG d   1       9.218  -4.119  -3.256  0.00  0.00    -0.006 C 
ATOM      9  H   LIG d   1       8.570  -3.815  -2.434  0.00  0.00     0.031 H 
ATOM     10  H   LIG d   1       9.897  -4.900  -2.915  0.00  0.00     0.031 H 
ATOM     11  H   LIG d   1       9.795  -3.260  -3.600  0.00  0.00     0.031 H 
ENDBRANCH   6   8
ENDBRANCH   3   6
ENDBRANCH   1   3
BRANCH   1  12
ATOM     12  C   LIG d   1       5.574  -2.665  -4.033  0.00  0.00    -0.039 A 
ATOM     13  C   LIG d   1       4.272  -2.597  -3.573  0.00  0.00    -0.052 A 
ATOM     14  C   LIG d   1       3.839  -1.479  -2.886  0.00  0.00     0.016 A 
ATOM     15  H   LIG d   1       3.593  -3.419  -3.749  0.00  0.00     0.062 H 
ATOM     16  C   LIG d   1       4.706  -0.425  -2.665  0.00  0.00     0.273 A 
ATOM     17  H   LIG d   1       2.823  -1.429  -2.523  0.00  0.00     0.069 H 
ATOM     18  C   LIG d   1       6.006  -0.491  -3.129  0.00  0.00     0.016 A 
ATOM     19  C   LIG d   1       6.440  -1.611  -3.813  0.00  0.00    -0.052 A 
ATOM     20  H   LIG d   1       6.683   0.332  -2.955  0.00  0.00     0.069 H 
ATOM     21  H   LIG d   1       7.457  -1.663  -4.175  0.00  0.00     0.062 H 
BRANCH  16  22
ATOM     22  N   LIG d   1       4.241   0.773  -1.931  0.00  0.00     0.080 N 
ATOM     23  O   LIG d   1       3.142   1.229  -2.153  0.00  0.00     0.041 OA
ATOM     24  O   LIG d   1       4.958   1.298  -1.112  0.00  0.00    -0.576 OA
ENDBRANCH  16  22
ENDBRANCH   1  12
BRANCH   1  25
ATOM     25  C   LIG d   1       5.204  -4.080  -6.012  0.00  0.00     0.038 A 
ATOM     26  C   LIG d   1       4.269  -5.126  -6.069  0.00  0.00     0.341 A 
ATOM     27  O   LIG d   1       3.496  -5.325  -7.149  0.00  0.00    -0.422 OA
ATOM     28  O   LIG d   1       4.152  -5.869  -5.111  0.00  0.00    -0.245 OA
ATOM     29  C   LIG d   1       3.585  -4.537  -8.241  0.00  0.00     0.139 A 
ATOM     30  C   LIG d   1       4.502  -3.473  -8.262  0.00  0.00     0.010 A 
ATOM     31  C   LIG d   1       2.779  -4.765  -9.349  0.00  0.00    -0.019 A 
ATOM     32  C   LIG d   1       5.350  -3.241  -7.082  0.00  0.00    -0.087 A 
ATOM     33  C   LIG d   1       4.598  -2.656  -9.390  0.00  0.00    -0.052 A 
ATOM     34  O   LIG d   1       6.246  -2.229  -7.057  0.00  0.00    -0.873 OA
ATOM     35  C   LIG d   1       3.790  -2.900 -10.479  0.00  0.00    -0.061 A 
ATOM     36  H   LIG d   1       5.302  -1.837  -9.409  0.00  0.00     0.062 H 
ATOM     37  C   LIG d   1       2.885  -3.951 -10.457  0.00  0.00    -0.058 A 
ATOM     38  H   LIG d   1       3.861  -2.270 -11.353  0.00  0.00     0.062 H 
ATOM     39  H   LIG d   1       2.257  -4.133 -11.316  0.00  0.00     0.062 H 
ATOM     40  H   LIG d   1       2.070  -5.580  -9.343  0.00  0.00     0.065 H 
ENDBRANCH   1  25
TORSDOF 6
ENDMDL
MODEL 3
REMARK VINA RESULT:      -6.3      2.890      4.722
REMARK  6 active torsions:
REMARK  status: ('A' for Active; 'I' for Inactive)
REMARK    1  A    between atoms: C_1  and  C_2 
REMARK    2  A    between atoms: C_2  and  C_4 
REMARK    3  A    between atoms: C_4  and  C_5 
REMARK    4  A    between atoms: C_5  and  C_7 
REMARK    5  A    between atoms: C_5  and  C_16 
REMARK    6  A    between atoms: C_10  and  N_13 
ROOT
ATOM      1  C   LIG d   1       3.896  -0.970  -5.250  0.00  0.00     0.022 C 
ATOM      2  H   LIG d   1       3.136  -1.680  -4.923  0.00  0.00     0.040 H 
ENDROOT
BRANCH   1   3
ATOM      3  C   LIG d   1       3.777   0.317  -4.431  0.00  0.00     0.017 C 
ATOM      4  H   LIG d   1       2.958   0.921  -4.821  0.00  0.00     0.035 H 
ATOM      5  H   LIG d   1       4.709   0.878  -4.502  0.00  0.00     0.035 H 
BRANCH   3   6
ATOM      6  C   LIG d   1       3.506  -0.027  -2.989  0.00  0.00     0.131 C 
ATOM      7  O   LIG d   1       2.664  -0.848  -2.712  0.00  0.00    -0.298 OA
BRANCH   6   8
ATOM      8  C   LIG d   1       4.286   0.651  -1.894  0.00  0.00    -0.006 C 
ATOM      9  H   LIG d   1       4.885   1.456  -2.319  0.00  0.00     0.031 H 
ATOM     10  H   LIG d   1       3.597   1.062  -1.156  0.00  0.00     0.031 H 
ATOM     11  H   LIG d   1       4.944  -0.074  -1.413  0.00  0.00     0.031 H 
ENDBRANCH   6   8
ENDBRANCH   3   6
ENDBRANCH   1   3
BRANCH   1  12
ATOM     12  C   LIG d   1       3.695  -0.657  -6.710  0.00  0.00    -0.039 A 
ATOM     13  C   LIG d   1       3.120   0.543  -7.088  0.00  0.00    -0.052 A 
ATOM     14  C   LIG d   1       2.941   0.831  -8.427  0.00  0.00     0.016 A 
ATOM     15  H   LIG d   1       2.814   1.255  -6.336  0.00  0.00     0.062 H 
ATOM     16  C   LIG d   1       3.328  -0.082  -9.390  0.00  0.00     0.273 A 
ATOM     17  H   LIG d   1       2.496   1.771  -8.722  0.00  0.00     0.069 H 
ATOM     18  C   LIG d   1       3.899  -1.283  -9.012  0.00  0.00     0.016 A 
ATOM     19  C   LIG d   1       4.082  -1.571  -7.673  0.00  0.00    -0.052 A 
ATOM     20  H   LIG d   1       4.202  -1.996  -9.764  0.00  0.00     0.069 H 
ATOM     21  H   LIG d   1       4.528  -2.509  -7.377  0.00  0.00     0.062 H 
BRANCH  16  22
ATOM     22  N   LIG d   1       3.133   0.227 -10.824  0.00  0.00     0.080 N 
ATOM     23  O   LIG d   1       3.747   1.134 -11.336  0.00  0.00     0.041 OA
ATOM     24  O   LIG d   1       2.359  -0.427 -11.483  0.00  0.00    -0.576 OA
ENDBRANCH  16  22
ENDBRANCH   1  12
BRANCH   1  25
ATOM     25  C   LIG d   1       5.263  -1.570  -5.047  0.00  0.00     0.038 A 
ATOM     26  C   LIG d   1       5.393  -2.879  -4.557  0.00  0.00     0.341 A 
ATOM     27  O   LIG d   1       6.594  -3.449  -4.371  0.00  0.00    -0.422 OA
ATOM     28  O   LIG d   1       4.387  -3.518  -4.299  0.00  0.00    -0.245 OA
ATOM     29  C   LIG d   1       7.742  -2.789  -4.634  0.00  0.00     0.139 A 
ATOM     30  C   LIG d   1       7.693  -1.473  -5.122  0.00  0.00     0.010 A 
ATOM     31  C   LIG d   1       8.974  -3.396  -4.427  0.00  0.00    -0.019 A 
ATOM     32  C   LIG d   1       6.383  -0.840  -5.336  0.00  0.00    -0.087 A 
ATOM     33  C   LIG d   1       8.878  -0.785  -5.394  0.00  0.00    -0.052 A 
ATOM     34  O   LIG d   1       6.288   0.425  -5.804  0.00  0.00    -0.873 OA
ATOM     35  C   LIG d   1      10.090  -1.405  -5.183  0.00  0.00    -0.061 A 
ATOM     36  H   LIG d   1       8.844   0.227  -5.770  0.00  0.00     0.062 H 
ATOM     37  C   LIG d   1      10.135  -2.705  -4.701  0.00  0.00    -0.058 A 
ATOM     38  H   LIG d   1      11.008  -0.877  -5.392  0.00  0.00     0.062 H 
ATOM     39  H   LIG d   1      11.091  -3.181  -4.538  0.00  0.00     0.062 H 
ATOM     40  H   LIG d   1       9.021  -4.408  -4.053  0.00  0.00     0.065 H 
ENDBRANCH   1  25
TORSDOF 6
ENDMDL
MODEL 4
REMARK VINA RESULT:      -6.2      1.097      2.386
REMARK  6 active torsions:
REMARK  status: ('A' for Active; 'I' for Inactive)
REMARK    1  A    between atoms: C_1  and  C_2 
REMARK    2  A    between atoms: C_2  and  C_4 
REMARK    3  A    between atoms: C_4  and  C_5 
REMARK    4  A    between atoms: C_5  and  C_7 
REMARK    5  A    between atoms: C_5  and  C_16 
REMARK    6  A    between atoms: C_10  and  N_13 
ROOT
ATOM      1  C   LIG d   1       4.124   0.240  -8.705  0.00  0.00     0.022 C 
ATOM      2  H   LIG d   1       3.702   1.199  -9.006  0.00  0.00     0.040 H 
ENDROOT
BRANCH   1   3
ATOM      3  C   LIG d   1       5.633   0.243  -8.956  0.00  0.00     0.017 C 
ATOM      4  H   LIG d   1       5.843  -0.236  -9.912  0.00  0.00     0.035 H 
ATOM      5  H   LIG d   1       6.134  -0.303  -8.157  0.00  0.00     0.035 H 
BRANCH   3   6
ATOM      6  C   LIG d   1       6.134   1.664  -8.984  0.00  0.00     0.131 C 
ATOM      7  O   LIG d   1       5.401   2.556  -9.338  0.00  0.00    -0.298 OA
BRANCH   6   8
ATOM      8  C   LIG d   1       7.549   1.972  -8.569  0.00  0.00    -0.006 C 
ATOM      9  H   LIG d   1       7.789   1.423  -7.658  0.00  0.00     0.031 H 
ATOM     10  H   LIG d   1       8.234   1.674  -9.363  0.00  0.00     0.031 H 
ATOM     11  H   LIG d   1       7.650   3.042  -8.384  0.00  0.00     0.031 H 
ENDBRANCH   6   8
ENDBRANCH   3   6
ENDBRANCH   1   3
BRANCH   1  12
ATOM     12  C   LIG d   1       3.484  -0.864  -9.508  0.00  0.00    -0.039 A 
ATOM     13  C   LIG d   1       2.133  -1.127  -9.367  0.00  0.00    -0.052 A 
ATOM     14  C   LIG d   1       1.546  -2.137 -10.107  0.00  0.00     0.016 A 
ATOM     15  H   LIG d   1       1.537  -0.543  -8.682  0.00  0.00     0.062 H 
ATOM     16  C   LIG d   1       2.309  -2.888 -10.981  0.00  0.00     0.273 A 
ATOM     17  H   LIG d   1       0.490  -2.339 -10.000  0.00  0.00     0.069 H 
ATOM     18  C   LIG d   1       3.660  -2.628 -11.117  0.00  0.00     0.016 A 
ATOM     19  C   LIG d   1       4.247  -1.616 -10.381  0.00  0.00    -0.052 A 
ATOM     20  H   LIG d   1       4.256  -3.214 -11.800  0.00  0.00     0.069 H 
ATOM     21  H   LIG d   1       5.303  -1.412 -10.488  0.00  0.00     0.062 H 
BRANCH  16  22
ATOM     22  N   LIG d   1       1.680  -3.970 -11.770  0.00  0.00     0.080 N 
ATOM     23  O   LIG d   1       0.944  -3.698 -12.689  0.00  0.00     0.041 OA
ATOM     24  O   LIG d   1       1.901  -5.126 -11.495  0.00  0.00    -0.576 OA
ENDBRANCH  16  22
ENDBRANCH   1  12
BRANCH   1  25
ATOM     25  C   LIG d   1       3.858   0.013  -7.239  0.00  0.00     0.038 A 
ATOM     26  C   LIG d   1       3.074   0.925  -6.515  0.00  0.00     0.341 A 
ATOM     27  O   LIG d   1       2.811   0.753  -5.210  0.00  0.00    -0.422 OA
ATOM     28  O   LIG d   1       2.615   1.897  -7.089  0.00  0.00    -0.245 OA
ATOM     29  C   LIG d   1       3.297  -0.302  -4.521  0.00  0.00     0.139 A 
ATOM     30  C   LIG d   1       4.095  -1.255  -5.175  0.00  0.00     0.010 A 
ATOM     31  C   LIG d   1       3.017  -0.457  -3.170  0.00  0.00    -0.019 A 
ATOM     32  C   LIG d   1       4.384  -1.080  -6.607  0.00  0.00    -0.087 A 
ATOM     33  C   LIG d   1       4.601  -2.347  -4.466  0.00  0.00    -0.052 A 
ATOM     34  O   LIG d   1       5.147  -1.972  -7.277  0.00  0.00    -0.873 OA
ATOM     35  C   LIG d   1       4.311  -2.482  -3.127  0.00  0.00    -0.061 A 
ATOM     36  H   LIG d   1       5.214  -3.082  -4.967  0.00  0.00     0.062 H 
ATOM     37  C   LIG d   1       3.523  -1.540  -2.482  0.00  0.00    -0.058 A 
ATOM     38  H   LIG d   1       4.700  -3.325  -2.575  0.00  0.00     0.062 H 
ATOM     39  H   LIG d   1       3.303  -1.655  -1.431  0.00  0.00     0.062 H 
ATOM     40  H   LIG d   1       2.404   0.271  -2.659  0.00  0.00     0.065 H 
ENDBRANCH   1  25
TORSDOF 6
ENDMDL
MODEL 5
REMARK VINA RESULT:      -6.2      4.021      5.855
REMARK  6 active torsions:
REMARK  status: ('A' for Active; 'I' for Inactive)
REMARK    1  A    between atoms: C_1  and  C_2 
REMARK    2  A    between atoms: C_2  and  C_4 
REMARK    3  A    between atoms: C_4  and  C_5 
REMARK    4  A    between atoms: C_5  and  C_7 
REMARK    5  A    between atoms: C_5  and  C_16 
REMARK    6  A    between atoms: C_10  and  N_13 
ROOT
ATOM      1  C   LIG d   1       6.206  -2.780  -6.823  0.00  0.00     0.022 C 
ATOM      2  H   LIG d   1       5.860  -2.684  -7.853  0.00  0.00     0.040 H 
ENDROOT
BRANCH   1   3
ATOM      3  C   LIG d   1       7.697  -2.446  -6.751  0.00  0.00     0.017 C 
ATOM      4  H   LIG d   1       8.274  -3.269  -7.173  0.00  0.00     0.035 H 
ATOM      5  H   LIG d   1       7.985  -2.296  -5.711  0.00  0.00     0.035 H 
BRANCH   3   6
ATOM      6  C   LIG d   1       7.968  -1.187  -7.535  0.00  0.00     0.131 C 
ATOM      7  O   LIG d   1       7.682  -1.132  -8.707  0.00  0.00    -0.298 OA
BRANCH   6   8
ATOM      8  C   LIG d   1       8.594   0.002  -6.855  0.00  0.00    -0.006 C 
ATOM      9  H   LIG d   1       7.947   0.341  -6.046  0.00  0.00     0.031 H 
ATOM     10  H   LIG d   1       9.566  -0.280  -6.450  0.00  0.00     0.031 H 
ATOM     11  H   LIG d   1       8.723   0.808  -7.579  0.00  0.00     0.031 H 
ENDBRANCH   6   8
ENDBRANCH   3   6
ENDBRANCH   1   3
BRANCH   1  12
ATOM     12  C   LIG d   1       5.984  -4.194  -6.349  0.00  0.00    -0.039 A 
ATOM     13  C   LIG d   1       7.068  -5.007  -6.071  0.00  0.00    -0.052 A 
ATOM     14  C   LIG d   1       6.865  -6.302  -5.632  0.00  0.00     0.016 A 
ATOM     15  H   LIG d   1       8.072  -4.630  -6.194  0.00  0.00     0.062 H 
ATOM     16  C   LIG d   1       5.579  -6.787  -5.478  0.00  0.00     0.273 A 
ATOM     17  H   LIG d   1       7.711  -6.935  -5.410  0.00  0.00     0.069 H 
ATOM     18  C   LIG d   1       4.497  -5.975  -5.761  0.00  0.00     0.016 A 
ATOM     19  C   LIG d   1       4.699  -4.679  -6.196  0.00  0.00    -0.052 A 
ATOM     20  H   LIG d   1       3.492  -6.353  -5.640  0.00  0.00     0.069 H 
ATOM     21  H   LIG d   1       3.853  -4.044  -6.417  0.00  0.00     0.062 H 
BRANCH  16  22
ATOM     22  N   LIG d   1       5.362  -8.174  -5.011  0.00  0.00     0.080 N 
ATOM     23  O   LIG d   1       6.307  -8.858  -4.691  0.00  0.00     0.041 OA
ATOM     24  O   LIG d   1       4.242  -8.624  -4.950  0.00  0.00    -0.576 OA
ENDBRANCH  16  22
ENDBRANCH   1  12
BRANCH   1  25
ATOM     25  C   LIG d   1       5.435  -1.829  -5.945  0.00  0.00     0.038 A 
ATOM     26  C   LIG d   1       4.338  -1.123  -6.463  0.00  0.00     0.341 A 
ATOM     27  O   LIG d   1       3.623  -0.272  -5.709  0.00  0.00    -0.422 OA
ATOM     28  O   LIG d   1       4.022  -1.291  -7.628  0.00  0.00    -0.245 OA
ATOM     29  C   LIG d   1       3.929  -0.043  -4.414  0.00  0.00     0.139 A 
ATOM     30  C   LIG d   1       5.017  -0.708  -3.826  0.00  0.00     0.010 A 
ATOM     31  C   LIG d   1       3.180   0.846  -3.655  0.00  0.00    -0.019 A 
ATOM     32  C   LIG d   1       5.803  -1.647  -4.640  0.00  0.00    -0.087 A 
ATOM     33  C   LIG d   1       5.338  -0.473  -2.487  0.00  0.00    -0.052 A 
ATOM     34  O   LIG d   1       6.858  -2.310  -4.116  0.00  0.00    -0.873 OA
ATOM     35  C   LIG d   1       4.582   0.413  -1.751  0.00  0.00    -0.061 A 
ATOM     36  H   LIG d   1       6.173  -0.984  -2.031  0.00  0.00     0.062 H 
ATOM     37  C   LIG d   1       3.508   1.069  -2.334  0.00  0.00    -0.058 A 
ATOM     38  H   LIG d   1       4.826   0.597  -0.715  0.00  0.00     0.062 H 
ATOM     39  H   LIG d   1       2.923   1.762  -1.748  0.00  0.00     0.062 H 
ATOM     40  H   LIG d   1       2.341   1.362  -4.099  0.00  0.00     0.065 H 
ENDBRANCH   1  25
TORSDOF 6
ENDMDL
MODEL 6
REMARK VINA RESULT:      -6.1      2.492      4.850
REMARK  6 active torsions:
REMARK  status: ('A' for Active; 'I' for Inactive)
REMARK    1  A    between atoms: C_1  and  C_2 
REMARK    2  A    between atoms: C_2  and  C_4 
REMARK    3  A    between atoms: C_4  and  C_5 
REMARK    4  A    between atoms: C_5  and  C_7 
REMARK    5  A    between atoms: C_5  and  C_16 
REMARK    6  A    between atoms: C_10  and  N_13 
ROOT
ATOM      1  C   LIG d   1       4.317  -0.786  -8.531  0.00  0.00     0.022 C 
ATOM      2  H   LIG d   1       4.359  -1.654  -9.190  0.00  0.00     0.040 H 
ENDROOT
BRANCH   1   3
ATOM      3  C   LIG d   1       3.042   0.011  -8.818  0.00  0.00     0.017 C 
ATOM      4  H   LIG d   1       3.303   1.048  -9.026  0.00  0.00     0.035 H 
ATOM      5  H   LIG d   1       2.385  -0.033  -7.949  0.00  0.00     0.035 H 
BRANCH   3   6
ATOM      6  C   LIG d   1       2.338  -0.581 -10.012  0.00  0.00     0.131 C 
ATOM      7  O   LIG d   1       1.325  -1.221  -9.860  0.00  0.00    -0.298 OA
BRANCH   6   8
ATOM      8  C   LIG d   1       2.897  -0.372 -11.395  0.00  0.00    -0.006 C 
ATOM      9  H   LIG d   1       3.611   0.451 -11.378  0.00  0.00     0.031 H 
ATOM     10  H   LIG d   1       3.398  -1.281 -11.726  0.00  0.00     0.031 H 
ATOM     11  H   LIG d   1       2.085  -0.133 -12.083  0.00  0.00     0.031 H 
ENDBRANCH   6   8
ENDBRANCH   3   6
ENDBRANCH   1   3
BRANCH   1  12
ATOM     12  C   LIG d   1       5.521   0.087  -8.774  0.00  0.00    -0.039 A 
ATOM     13  C   LIG d   1       6.776  -0.481  -8.888  0.00  0.00    -0.052 A 
ATOM     14  C   LIG d   1       7.879   0.320  -9.115  0.00  0.00     0.016 A 
ATOM     15  H   LIG d   1       6.894  -1.552  -8.803  0.00  0.00     0.062 H 
ATOM     16  C   LIG d   1       7.730   1.690  -9.220  0.00  0.00     0.273 A 
ATOM     17  H   LIG d   1       8.859  -0.126  -9.209  0.00  0.00     0.069 H 
ATOM     18  C   LIG d   1       6.475   2.259  -9.101  0.00  0.00     0.016 A 
ATOM     19  C   LIG d   1       5.371   1.458  -8.878  0.00  0.00    -0.052 A 
ATOM     20  H   LIG d   1       6.358   3.329  -9.184  0.00  0.00     0.069 H 
ATOM     21  H   LIG d   1       4.391   1.902  -8.785  0.00  0.00     0.062 H 
BRANCH  16  22
ATOM     22  N   LIG d   1       8.912   2.547  -9.460  0.00  0.00     0.080 N 
ATOM     23  O   LIG d   1       8.789   3.594 -10.054  0.00  0.00     0.041 OA
ATOM     24  O   LIG d   1      10.000   2.201  -9.064  0.00  0.00    -0.576 OA
ENDBRANCH  16  22
ENDBRANCH   1  12
BRANCH   1  25
ATOM     25  C   LIG d   1       4.311  -1.245  -7.096  0.00  0.00     0.038 A 
ATOM     26  C   LIG d   1       4.741  -2.541  -6.769  0.00  0.00     0.341 A 
ATOM     27  O   LIG d   1       4.755  -2.983  -5.501  0.00  0.00    -0.422 OA
ATOM     28  O   LIG d   1       5.116  -3.283  -7.659  0.00  0.00    -0.245 OA
ATOM     29  C   LIG d   1       4.346  -2.207  -4.475  0.00  0.00     0.139 A 
ATOM     30  C   LIG d   1       3.896  -0.900  -4.723  0.00  0.00     0.010 A 
ATOM     31  C   LIG d   1       4.364  -2.687  -3.171  0.00  0.00    -0.019 A 
ATOM     32  C   LIG d   1       3.882  -0.403  -6.108  0.00  0.00    -0.087 A 
ATOM     33  C   LIG d   1       3.471  -0.094  -3.665  0.00  0.00    -0.052 A 
ATOM     34  O   LIG d   1       3.457   0.848  -6.394  0.00  0.00    -0.873 OA
ATOM     35  C   LIG d   1       3.497  -0.589  -2.379  0.00  0.00    -0.061 A 
ATOM     36  H   LIG d   1       3.125   0.912  -3.853  0.00  0.00     0.062 H 
ATOM     37  C   LIG d   1       3.941  -1.880  -2.136  0.00  0.00    -0.058 A 
ATOM     38  H   LIG d   1       3.169   0.030  -1.558  0.00  0.00     0.062 H 
ATOM     39  H   LIG d   1       3.956  -2.258  -1.124  0.00  0.00     0.062 H 
ATOM     40  H   LIG d   1       4.709  -3.690  -2.970  0.00  0.00     0.065 H 
ENDBRANCH   1  25
TORSDOF 6
ENDMDL
MODEL 7
REMARK VINA RESULT:      -6.0      3.014      5.001
REMARK  6 active torsions:
REMARK  status: ('A' for Active; 'I' for Inactive)
REMARK    1  A    between atoms: C_1  and  C_2 
REMARK    2  A    between atoms: C_2  and  C_4 
REMARK    3  A    between atoms: C_4  and  C_5 
REMARK    4  A    between atoms: C_5  and  C_7 
REMARK    5  A    between atoms: C_5  and  C_16 
REMARK    6  A    between atoms: C_10  and  N_13 
ROOT
ATOM      1  C   LIG d   1       4.280  -1.212  -5.255  0.00  0.00     0.022 C 
ATOM      2  H   LIG d   1       3.669  -2.075  -4.991  0.00  0.00     0.040 H 
ENDROOT
BRANCH   1   3
ATOM      3  C   LIG d   1       3.947  -0.047  -4.320  0.00  0.00     0.017 C 
ATOM      4  H   LIG d   1       3.012   0.416  -4.636  0.00  0.00     0.035 H 
ATOM      5  H   LIG d   1       4.749   0.689  -4.359  0.00  0.00     0.035 H 
BRANCH   3   6
ATOM      6  C   LIG d   1       3.802  -0.559  -2.910  0.00  0.00     0.131 C 
ATOM      7  O   LIG d   1       3.155  -1.556  -2.693  0.00  0.00    -0.298 OA
BRANCH   6   8
ATOM      8  C   LIG d   1       4.466   0.171  -1.772  0.00  0.00    -0.006 C 
ATOM      9  H   LIG d   1       3.753   0.858  -1.315  0.00  0.00     0.031 H 
ATOM     10  H   LIG d   1       4.806  -0.548  -1.027  0.00  0.00     0.031 H 
ATOM     11  H   LIG d   1       5.320   0.734  -2.150  0.00  0.00     0.031 H 
ENDBRANCH   6   8
ENDBRANCH   3   6
ENDBRANCH   1   3
BRANCH   1  12
ATOM     12  C   LIG d   1       3.994  -0.810  -6.679  0.00  0.00    -0.039 A 
ATOM     13  C   LIG d   1       3.196   0.288  -6.941  0.00  0.00    -0.052 A 
ATOM     14  C   LIG d   1       2.938   0.659  -8.247  0.00  0.00     0.016 A 
ATOM     15  H   LIG d   1       2.776   0.858  -6.125  0.00  0.00     0.062 H 
ATOM     16  C   LIG d   1       3.471  -0.073  -9.292  0.00  0.00     0.273 A 
ATOM     17  H   LIG d   1       2.318   1.520  -8.451  0.00  0.00     0.069 H 
ATOM     18  C   LIG d   1       4.265  -1.173  -9.030  0.00  0.00     0.016 A 
ATOM     19  C   LIG d   1       4.527  -1.542  -7.724  0.00  0.00    -0.052 A 
ATOM     20  H   LIG d   1       4.682  -1.745  -9.846  0.00  0.00     0.069 H 
ATOM     21  H   LIG d   1       5.147  -2.402  -7.519  0.00  0.00     0.062 H 
BRANCH  16  22
ATOM     22  N   LIG d   1       3.192   0.323 -10.691  0.00  0.00     0.080 N 
ATOM     23  O   LIG d   1       2.402  -0.311 -11.351  0.00  0.00     0.041 OA
ATOM     24  O   LIG d   1       3.753   1.278 -11.173  0.00  0.00    -0.576 OA
ENDBRANCH  16  22
ENDBRANCH   1  12
BRANCH   1  25
ATOM     25  C   LIG d   1       5.737  -1.567  -5.115  0.00  0.00     0.038 A 
ATOM     26  C   LIG d   1       6.721  -0.576  -5.263  0.00  0.00     0.341 A 
ATOM     27  O   LIG d   1       8.029  -0.853  -5.139  0.00  0.00    -0.422 OA
ATOM     28  O   LIG d   1       6.378   0.568  -5.505  0.00  0.00    -0.245 OA
ATOM     29  C   LIG d   1       8.468  -2.103  -4.877  0.00  0.00     0.139 A 
ATOM     30  C   LIG d   1       7.544  -3.149  -4.721  0.00  0.00     0.010 A 
ATOM     31  C   LIG d   1       9.826  -2.368  -4.759  0.00  0.00    -0.019 A 
ATOM     32  C   LIG d   1       6.108  -2.856  -4.848  0.00  0.00    -0.087 A 
ATOM     33  C   LIG d   1       7.993  -4.443  -4.451  0.00  0.00    -0.052 A 
ATOM     34  O   LIG d   1       5.182  -3.831  -4.706  0.00  0.00    -0.873 OA
ATOM     35  C   LIG d   1       9.345  -4.685  -4.338  0.00  0.00    -0.061 A 
ATOM     36  H   LIG d   1       7.285  -5.250  -4.330  0.00  0.00     0.062 H 
ATOM     37  C   LIG d   1      10.256  -3.651  -4.492  0.00  0.00    -0.058 A 
ATOM     38  H   LIG d   1       9.697  -5.684  -4.129  0.00  0.00     0.062 H 
ATOM     39  H   LIG d   1      11.313  -3.852  -4.402  0.00  0.00     0.062 H 
ATOM     40  H   LIG d   1      10.544  -1.570  -4.877  0.00  0.00     0.065 H 
ENDBRANCH   1  25
TORSDOF 6
ENDMDL
MODEL 8
REMARK VINA RESULT:      -6.0      5.093      8.055
REMARK  6 active torsions:
REMARK  status: ('A' for Active; 'I' for Inactive)
REMARK    1  A    between atoms: C_1  and  C_2 
REMARK    2  A    between atoms: C_2  and  C_4 
REMARK    3  A    between atoms: C_4  and  C_5 
REMARK    4  A    between atoms: C_5  and  C_7 
REMARK    5  A    between atoms: C_5  and  C_16 
REMARK    6  A    between atoms: C_10  and  N_13 
ROOT
ATOM      1  C   LIG d   1       7.193  -3.649  -5.585  0.00  0.00     0.022 C 
ATOM      2  H   LIG d   1       6.634  -4.346  -6.209  0.00  0.00     0.040 H 
ENDROOT
BRANCH   1   3
ATOM      3  C   LIG d   1       8.034  -2.730  -6.474  0.00  0.00     0.017 C 
ATOM      4  H   LIG d   1       9.030  -3.156  -6.596  0.00  0.00     0.035 H 
ATOM      5  H   LIG d   1       8.113  -1.748  -6.008  0.00  0.00     0.035 H 
BRANCH   3   6
ATOM      6  C   LIG d   1       7.376  -2.595  -7.823  0.00  0.00     0.131 C 
ATOM      7  O   LIG d   1       7.171  -3.576  -8.496  0.00  0.00    -0.298 OA
BRANCH   6   8
ATOM      8  C   LIG d   1       6.972  -1.235  -8.331  0.00  0.00    -0.006 C 
ATOM      9  H   LIG d   1       7.252  -0.477  -7.600  0.00  0.00     0.031 H 
ATOM     10  H   LIG d   1       7.478  -1.035  -9.275  0.00  0.00     0.031 H 
ATOM     11  H   LIG d   1       5.893  -1.210  -8.484  0.00  0.00     0.031 H 
ENDBRANCH   6   8
ENDBRANCH   3   6
ENDBRANCH   1   3
BRANCH   1  12
ATOM     12  C   LIG d   1       8.099  -4.418  -4.659  0.00  0.00    -0.039 A 
ATOM     13  C   LIG d   1       8.784  -3.758  -3.656  0.00  0.00    -0.052 A 
ATOM     14  C   LIG d   1       9.612  -4.464  -2.803  0.00  0.00     0.016 A 
ATOM     15  H   LIG d   1       8.672  -2.690  -3.537  0.00  0.00     0.062 H 
ATOM     16  C   LIG d   1       9.760  -5.830  -2.958  0.00  0.00     0.273 A 
ATOM     17  H   LIG d   1      10.143  -3.949  -2.017  0.00  0.00     0.069 H 
ATOM     18  C   LIG d   1       9.078  -6.489  -3.963  0.00  0.00     0.016 A 
ATOM     19  C   LIG d   1       8.248  -5.784  -4.814  0.00  0.00    -0.052 A 
ATOM     20  H   LIG d   1       9.194  -7.556  -4.084  0.00  0.00     0.069 H 
ATOM     21  H   LIG d   1       7.715  -6.299  -5.600  0.00  0.00     0.062 H 
BRANCH  16  22
ATOM     22  N   LIG d   1      10.648  -6.585  -2.046  0.00  0.00     0.080 N 
ATOM     23  O   LIG d   1      10.322  -6.764  -0.895  0.00  0.00     0.041 OA
ATOM     24  O   LIG d   1      11.700  -7.023  -2.451  0.00  0.00    -0.576 OA
ENDBRANCH  16  22
ENDBRANCH   1  12
BRANCH   1  25
ATOM     25  C   LIG d   1       6.231  -2.820  -4.774  0.00  0.00     0.038 A 
ATOM     26  C   LIG d   1       4.963  -3.328  -4.450  0.00  0.00     0.341 A 
ATOM     27  O   LIG d   1       4.082  -2.621  -3.724  0.00  0.00    -0.422 OA
ATOM     28  O   LIG d   1       4.655  -4.442  -4.835  0.00  0.00    -0.245 OA
ATOM     29  C   LIG d   1       4.366  -1.379  -3.275  0.00  0.00     0.139 A 
ATOM     30  C   LIG d   1       5.613  -0.801  -3.564  0.00  0.00     0.010 A 
ATOM     31  C   LIG d   1       3.437  -0.664  -2.531  0.00  0.00    -0.019 A 
ATOM     32  C   LIG d   1       6.588  -1.568  -4.353  0.00  0.00    -0.087 A 
ATOM     33  C   LIG d   1       5.910   0.483  -3.103  0.00  0.00    -0.052 A 
ATOM     34  O   LIG d   1       7.801  -1.052  -4.655  0.00  0.00    -0.873 OA
ATOM     35  C   LIG d   1       4.975   1.176  -2.366  0.00  0.00    -0.061 A 
ATOM     36  H   LIG d   1       6.869   0.931  -3.323  0.00  0.00     0.062 H 
ATOM     37  C   LIG d   1       3.744   0.603  -2.082  0.00  0.00    -0.058 A 
ATOM     38  H   LIG d   1       5.201   2.169  -2.008  0.00  0.00     0.062 H 
ATOM     39  H   LIG d   1       3.018   1.156  -1.504  0.00  0.00     0.062 H 
ATOM     40  H   LIG d   1       2.476  -1.101  -2.303  0.00  0.00     0.065 H 
ENDBRANCH   1  25
TORSDOF 6
ENDMDL
MODEL 9
REMARK VINA RESULT:      -6.0      4.681      7.546
REMARK  6 active torsions:
REMARK  status: ('A' for Active; 'I' for Inactive)
REMARK    1  A    between atoms: C_1  and  C_2 
REMARK    2  A    between atoms: C_2  and  C_4 
REMARK    3  A    between atoms: C_4  and  C_5 
REMARK    4  A    between atoms: C_5  and  C_7 
REMARK    5  A    between atoms: C_5  and  C_16 
REMARK    6  A    between atoms: C_10  and  N_13 
ROOT
ATOM      1  C   LIG d   1       5.613  -1.203  -4.248  0.00  0.00     0.022 C 
ATOM      2  H   LIG d   1       5.130  -1.195  -3.271  0.00  0.00     0.040 H 
ENDROOT
BRANCH   1   3
ATOM      3  C   LIG d   1       4.546  -1.200  -5.346  0.00  0.00     0.017 C 
ATOM      4  H   LIG d   1       4.142  -2.205  -5.462  0.00  0.00     0.035 H 
ATOM      5  H   LIG d   1       4.994  -0.876  -6.285  0.00  0.00     0.035 H 
BRANCH   3   6
ATOM      6  C   LIG d   1       3.436  -0.253  -4.965  0.00  0.00     0.131 C 
ATOM      7  O   LIG d   1       3.150   0.666  -5.693  0.00  0.00    -0.298 OA
BRANCH   6   8
ATOM      8  C   LIG d   1       2.685  -0.456  -3.675  0.00  0.00    -0.006 C 
ATOM      9  H   LIG d   1       2.837   0.407  -3.026  0.00  0.00     0.031 H 
ATOM     10  H   LIG d   1       1.622  -0.568  -3.887  0.00  0.00     0.031 H 
ATOM     11  H   LIG d   1       3.053  -1.353  -3.176  0.00  0.00     0.031 H 
ENDBRANCH   6   8
ENDBRANCH   3   6
ENDBRANCH   1   3
BRANCH   1  12
ATOM     12  C   LIG d   1       6.463  -2.440  -4.379  0.00  0.00    -0.039 A 
ATOM     13  C   LIG d   1       6.049  -3.482  -5.189  0.00  0.00    -0.052 A 
ATOM     14  C   LIG d   1       6.832  -4.615  -5.312  0.00  0.00     0.016 A 
ATOM     15  H   LIG d   1       5.116  -3.409  -5.729  0.00  0.00     0.062 H 
ATOM     16  C   LIG d   1       8.024  -4.711  -4.618  0.00  0.00     0.273 A 
ATOM     17  H   LIG d   1       6.510  -5.426  -5.949  0.00  0.00     0.069 H 
ATOM     18  C   LIG d   1       8.435  -3.672  -3.805  0.00  0.00     0.016 A 
ATOM     19  C   LIG d   1       7.655  -2.537  -3.685  0.00  0.00    -0.052 A 
ATOM     20  H   LIG d   1       9.366  -3.746  -3.263  0.00  0.00     0.069 H 
ATOM     21  H   LIG d   1       7.976  -1.725  -3.048  0.00  0.00     0.062 H 
BRANCH  16  22
ATOM     22  N   LIG d   1       8.859  -5.925  -4.748  0.00  0.00     0.080 N 
ATOM     23  O   LIG d   1       8.530  -6.947  -4.190  0.00  0.00     0.041 OA
ATOM     24  O   LIG d   1       9.870  -5.897  -5.410  0.00  0.00    -0.576 OA
ENDBRANCH  16  22
ENDBRANCH   1  12
BRANCH   1  25
ATOM     25  C   LIG d   1       6.481   0.020  -4.388  0.00  0.00     0.038 A 
ATOM     26  C   LIG d   1       6.541   0.965  -3.351  0.00  0.00     0.341 A 
ATOM     27  O   LIG d   1       7.308   2.063  -3.437  0.00  0.00    -0.422 OA
ATOM     28  O   LIG d   1       5.882   0.779  -2.343  0.00  0.00    -0.245 OA
ATOM     29  C   LIG d   1       8.055   2.323  -4.532  0.00  0.00     0.139 A 
ATOM     30  C   LIG d   1       8.043   1.428  -5.613  0.00  0.00     0.010 A 
ATOM     31  C   LIG d   1       8.836   3.469  -4.602  0.00  0.00    -0.019 A 
ATOM     32  C   LIG d   1       7.211   0.218  -5.528  0.00  0.00    -0.087 A 
ATOM     33  C   LIG d   1       8.813   1.694  -6.748  0.00  0.00    -0.052 A 
ATOM     34  O   LIG d   1       7.169  -0.672  -6.545  0.00  0.00    -0.873 OA
ATOM     35  C   LIG d   1       9.581   2.836  -6.798  0.00  0.00    -0.061 A 
ATOM     36  H   LIG d   1       8.807   1.006  -7.582  0.00  0.00     0.062 H 
ATOM     37  C   LIG d   1       9.591   3.719  -5.728  0.00  0.00    -0.058 A 
ATOM     38  H   LIG d   1      10.178   3.045  -7.673  0.00  0.00     0.062 H 
ATOM     39  H   LIG d   1      10.197   4.612  -5.778  0.00  0.00     0.062 H 
ATOM     40  H   LIG d   1       8.852   4.163  -3.774  0.00  0.00     0.065 H 
ENDBRANCH   1  25
TORSDOF 6
ENDMDL
