MODEL 1
REMARK VINA RESULT:      -7.0      0.000      0.000
REMARK  9 active torsions:
REMARK  status: ('A' for Active; 'I' for Inactive)
REMARK    1  A    between atoms: C_1  and  C_2 
REMARK    2  A    between atoms: C_2  and  C_4 
REMARK    3  A    between atoms: C_2  and  N_12 
REMARK    4  A    between atoms: C_4  and  C_5 
REMARK    5  A    between atoms: C_5  and  C_6 
REMARK    6  A    between atoms: C_15  and  C_22 
REMARK    7  A    between atoms: C_29  and  O_30 
REMARK    8  A    between atoms: O_30  and  C_31 
REMARK    9  A    between atoms: N_37  and  C_38 
ROOT
ATOM      1  N   LIG d   1       6.001  -1.667  -5.299  0.00  0.00    -0.258 N 
ATOM      2  C   LIG d   1       5.244  -1.823  -6.404  0.00  0.00     0.265 A 
ATOM      3  O   LIG d   1       4.570  -2.828  -6.548  0.00  0.00    -0.267 OA
ATOM      4  C   LIG d   1       5.238  -0.820  -7.388  0.00  0.00     0.078 A 
ATOM      5  C   LIG d   1       6.001   0.295  -7.203  0.00  0.00    -0.020 A 
ATOM      6  N   LIG d   1       6.756   0.414  -6.063  0.00  0.00    -0.320 N 
ATOM      7  H   LIG d   1       7.300   1.205  -5.926  0.00  0.00     0.169 HD
ATOM      8  C   LIG d   1       6.743  -0.557  -5.131  0.00  0.00     0.329 A 
ATOM      9  O   LIG d   1       7.415  -0.432  -4.126  0.00  0.00    -0.246 OA
ATOM     10  O   LIG d   1       6.013   1.273  -8.132  0.00  0.00    -0.861 OA
ENDROOT
BRANCH   4  11
ATOM     11  C   LIG d   1       4.400  -0.974  -8.632  0.00  0.00     0.041 C 
ATOM     12  H   LIG d   1       4.534  -0.098  -9.266  0.00  0.00     0.096 H 
ATOM     13  N   LIG d   1       2.989  -1.084  -8.252  0.00  0.00     0.242 N 
ATOM     14  C   LIG d   1       2.191  -1.371  -9.455  0.00  0.00    -0.027 C 
ATOM     15  H   LIG d   1       2.876  -1.833  -7.585  0.00  0.00     0.204 HD
ATOM     16  C   LIG d   1       2.454  -2.815  -9.880  0.00  0.00     0.013 C 
ATOM     17  H   LIG d   1       2.485  -0.694 -10.258  0.00  0.00     0.082 H 
ATOM     18  H   LIG d   1       1.133  -1.241  -9.232  0.00  0.00     0.082 H 
ATOM     19  C   LIG d   1       3.939  -3.061  -9.968  0.00  0.00    -0.026 A 
ATOM     20  H   LIG d   1       1.999  -2.995 -10.855  0.00  0.00     0.036 H 
ATOM     21  H   LIG d   1       2.018  -3.494  -9.148  0.00  0.00     0.036 H 
ATOM     22  C   LIG d   1       4.845  -2.202  -9.380  0.00  0.00     0.054 A 
ATOM     23  C   LIG d   1       4.387  -4.179 -10.655  0.00  0.00    -0.012 A 
ATOM     24  C   LIG d   1       6.207  -2.466  -9.474  0.00  0.00     0.174 A 
ATOM     25  C   LIG d   1       6.660  -3.585 -10.158  0.00  0.00     0.208 A 
ATOM     26  C   LIG d   1       5.742  -4.446 -10.753  0.00  0.00     0.170 A 
ATOM     27  O   LIG d   1       7.918  -4.060 -10.392  0.00  0.00    -0.449 OA
ATOM     28  O   LIG d   1       6.425  -5.460 -11.360  0.00  0.00    -0.453 OA
ATOM     29  C   LIG d   1       7.744  -5.434 -10.784  0.00  0.00     0.233 C 
ATOM     30  H   LIG d   1       8.491  -5.719 -11.526  0.00  0.00     0.117 H 
ATOM     31  H   LIG d   1       7.796  -6.090  -9.915  0.00  0.00     0.117 H 
ATOM     32  H   LIG d   1       3.674  -4.846 -11.115  0.00  0.00     0.066 H 
BRANCH  13  33
ATOM     33  C   LIG d   1       2.540   0.181  -7.655  0.00  0.00    -0.042 C 
ATOM     34  H   LIG d   1       2.964   0.282  -6.655  0.00  0.00     0.078 H 
ATOM     35  H   LIG d   1       2.872   1.013  -8.275  0.00  0.00     0.078 H 
ATOM     36  H   LIG d   1       1.453   0.187  -7.592  0.00  0.00     0.078 H 
ENDBRANCH  13  33
BRANCH  24  37
ATOM     37  O   LIG d   1       7.101  -1.620  -8.893  0.00  0.00    -0.491 OA
BRANCH  37  38
ATOM     38  C   LIG d   1       8.027  -0.960  -9.759  0.00  0.00     0.079 C 
ATOM     39  H   LIG d   1       9.045  -1.212  -9.462  0.00  0.00     0.066 H 
ATOM     40  H   LIG d   1       7.857  -1.284 -10.787  0.00  0.00     0.066 H 
ATOM     41  H   LIG d   1       7.884   0.118  -9.689  0.00  0.00     0.066 H 
ENDBRANCH  37  38
ENDBRANCH  24  37
ENDBRANCH   4  11
BRANCH   1  42
ATOM     42  C   LIG d   1       6.010  -2.710  -4.270  0.00  0.00     0.040 C 
ATOM     43  H   LIG d   1       6.475  -2.322  -3.364  0.00  0.00     0.053 H 
BRANCH  42  44
ATOM     44  C   LIG d   1       6.803  -3.917  -4.775  0.00  0.00    -0.044 C 
ATOM     45  H   LIG d   1       6.390  -4.828  -4.344  0.00  0.00     0.025 H 
ATOM     46  H   LIG d   1       6.738  -3.965  -5.862  0.00  0.00     0.025 H 
ATOM     47  H   LIG d   1       7.847  -3.814  -4.478  0.00  0.00     0.025 H 
ENDBRANCH  42  44
BRANCH  42  48
ATOM     48  C   LIG d   1       4.573  -3.136  -3.963  0.00  0.00    -0.028 C 
ATOM     49  H   LIG d   1       3.904  -2.737  -4.726  0.00  0.00     0.029 H 
ATOM     50  H   LIG d   1       4.510  -4.224  -3.957  0.00  0.00     0.029 H 
BRANCH  48  51
ATOM     51  C   LIG d   1       4.162  -2.594  -2.592  0.00  0.00    -0.026 C 
ATOM     52  H   LIG d   1       3.237  -3.075  -2.273  0.00  0.00     0.031 H 
ATOM     53  H   LIG d   1       4.950  -2.804  -1.867  0.00  0.00     0.031 H 
BRANCH  51  54
ATOM     54  C   LIG d   1       3.949  -1.106  -2.684  0.00  0.00    -0.047 A 
ATOM     55  C   LIG d   1       4.570  -0.262  -1.781  0.00  0.00    -0.059 A 
ATOM     56  C   LIG d   1       4.377   1.104  -1.868  0.00  0.00    -0.061 A 
ATOM     57  H   LIG d   1       5.208  -0.670  -1.012  0.00  0.00     0.062 H 
ATOM     58  C   LIG d   1       3.556   1.626  -2.849  0.00  0.00    -0.062 A 
ATOM     59  H   LIG d   1       4.866   1.764  -1.165  0.00  0.00     0.062 H 
ATOM     60  C   LIG d   1       2.932   0.782  -3.749  0.00  0.00    -0.061 A 
ATOM     61  H   LIG d   1       3.405   2.693  -2.915  0.00  0.00     0.062 H 
ATOM     62  C   LIG d   1       3.128  -0.584  -3.665  0.00  0.00    -0.059 A 
ATOM     63  H   LIG d   1       2.291   1.190  -4.516  0.00  0.00     0.062 H 
ATOM     64  H   LIG d   1       2.639  -1.243  -4.367  0.00  0.00     0.062 H 
ENDBRANCH  51  54
ENDBRANCH  48  51
ENDBRANCH  42  48
ENDBRANCH   1  42
TORSDOF 9
ENDMDL
MODEL 2
REMARK VINA RESULT:      -6.8      2.387      6.886
REMARK  9 active torsions:
REMARK  status: ('A' for Active; 'I' for Inactive)
REMARK    1  A    between atoms: C_1  and  C_2 
REMARK    2  A    between atoms: C_2  and  C_4 
REMARK    3  A    between atoms: C_2  and  N_12 
REMARK    4  A    between atoms: C_4  and  C_5 
REMARK    5  A    between atoms: C_5  and  C_6 
REMARK    6  A    between atoms: C_15  and  C_22 
REMARK    7  A    between atoms: C_29  and  O_30 
REMARK    8  A    between atoms: O_30  and  C_31 
REMARK    9  A    between atoms: N_37  and  C_38 
ROOT
ATOM      1  N   LIG d   1       5.289   1.012  -8.407  0.00  0.00    -0.258 N 
ATOM      2  C   LIG d   1       5.415  -0.086  -7.635  0.00  0.00     0.265 A 
ATOM      3  O   LIG d   1       4.431  -0.736  -7.327  0.00  0.00    -0.267 OA
ATOM      4  C   LIG d   1       6.689  -0.476  -7.187  0.00  0.00     0.078 A 
ATOM      5  C   LIG d   1       7.774   0.268  -7.545  0.00  0.00    -0.020 A 
ATOM      6  N   LIG d   1       7.601   1.379  -8.332  0.00  0.00    -0.320 N 
ATOM      7  H   LIG d   1       8.369   1.911  -8.590  0.00  0.00     0.169 HD
ATOM      8  C   LIG d   1       6.372   1.731  -8.754  0.00  0.00     0.329 A 
ATOM      9  O   LIG d   1       6.238   2.715  -9.454  0.00  0.00    -0.246 OA
ATOM     10  O   LIG d   1       9.008  -0.085  -7.129  0.00  0.00    -0.861 OA
ENDROOT
BRANCH   4  11
ATOM     11  C   LIG d   1       6.854  -1.700  -6.322  0.00  0.00     0.041 C 
ATOM     12  H   LIG d   1       7.915  -1.870  -6.138  0.00  0.00     0.096 H 
ATOM     13  N   LIG d   1       6.292  -2.861  -7.019  0.00  0.00     0.242 N 
ATOM     14  C   LIG d   1       6.332  -4.024  -6.117  0.00  0.00    -0.027 C 
ATOM     15  H   LIG d   1       5.337  -2.669  -7.281  0.00  0.00     0.204 HD
ATOM     16  C   LIG d   1       5.269  -3.837  -5.036  0.00  0.00     0.013 C 
ATOM     17  H   LIG d   1       7.317  -4.094  -5.654  0.00  0.00     0.082 H 
ATOM     18  H   LIG d   1       6.125  -4.932  -6.682  0.00  0.00     0.082 H 
ATOM     19  C   LIG d   1       5.414  -2.475  -4.404  0.00  0.00    -0.026 A 
ATOM     20  H   LIG d   1       5.390  -4.606  -4.271  0.00  0.00     0.036 H 
ATOM     21  H   LIG d   1       4.278  -3.925  -5.481  0.00  0.00     0.036 H 
ATOM     22  C   LIG d   1       6.151  -1.479  -5.010  0.00  0.00     0.054 A 
ATOM     23  C   LIG d   1       4.786  -2.235  -3.192  0.00  0.00    -0.012 A 
ATOM     24  C   LIG d   1       6.255  -0.232  -4.403  0.00  0.00     0.174 A 
ATOM     25  C   LIG d   1       5.626   0.014  -3.190  0.00  0.00     0.208 A 
ATOM     26  C   LIG d   1       4.887  -0.997  -2.582  0.00  0.00     0.170 A 
ATOM     27  O   LIG d   1       5.574   1.127  -2.403  0.00  0.00    -0.449 OA
ATOM     28  O   LIG d   1       4.372  -0.517  -1.412  0.00  0.00    -0.453 OA
ATOM     29  C   LIG d   1       4.463   0.916  -1.511  0.00  0.00     0.233 C 
ATOM     30  H   LIG d   1       4.666   1.356  -0.535  0.00  0.00     0.117 H 
ATOM     31  H   LIG d   1       3.547   1.330  -1.936  0.00  0.00     0.117 H 
ATOM     32  H   LIG d   1       4.213  -3.020  -2.721  0.00  0.00     0.066 H 
BRANCH  13  33
ATOM     33  C   LIG d   1       7.087  -3.145  -8.222  0.00  0.00    -0.042 C 
ATOM     34  H   LIG d   1       6.509  -3.776  -8.898  0.00  0.00     0.078 H 
ATOM     35  H   LIG d   1       7.336  -2.209  -8.721  0.00  0.00     0.078 H 
ATOM     36  H   LIG d   1       8.004  -3.661  -7.938  0.00  0.00     0.078 H 
ENDBRANCH  13  33
BRANCH  24  37
ATOM     37  O   LIG d   1       6.980   0.752  -5.000  0.00  0.00    -0.491 OA
BRANCH  37  38
ATOM     38  C   LIG d   1       7.974   1.400  -4.204  0.00  0.00     0.079 C 
ATOM     39  H   LIG d   1       8.868   1.571  -4.805  0.00  0.00     0.066 H 
ATOM     40  H   LIG d   1       7.589   2.356  -3.848  0.00  0.00     0.066 H 
ATOM     41  H   LIG d   1       8.225   0.769  -3.351  0.00  0.00     0.066 H 
ENDBRANCH  37  38
ENDBRANCH  24  37
ENDBRANCH   4  11
BRANCH   1  42
ATOM     42  C   LIG d   1       3.963   1.422  -8.876  0.00  0.00     0.040 C 
ATOM     43  H   LIG d   1       4.020   2.428  -9.291  0.00  0.00     0.053 H 
BRANCH  42  44
ATOM     44  C   LIG d   1       2.980   1.409  -7.704  0.00  0.00    -0.044 C 
ATOM     45  H   LIG d   1       1.965   1.532  -8.080  0.00  0.00     0.025 H 
ATOM     46  H   LIG d   1       3.060   0.460  -7.174  0.00  0.00     0.025 H 
ATOM     47  H   LIG d   1       3.218   2.227  -7.023  0.00  0.00     0.025 H 
ENDBRANCH  42  44
BRANCH  42  48
ATOM     48  C   LIG d   1       3.481   0.451  -9.956  0.00  0.00    -0.028 C 
ATOM     49  H   LIG d   1       3.610   0.907 -10.938  0.00  0.00     0.029 H 
ATOM     50  H   LIG d   1       4.063  -0.469  -9.903  0.00  0.00     0.029 H 
BRANCH  48  51
ATOM     51  C   LIG d   1       2.002   0.132  -9.732  0.00  0.00    -0.026 C 
ATOM     52  H   LIG d   1       1.808   0.039  -8.664  0.00  0.00     0.031 H 
ATOM     53  H   LIG d   1       1.390   0.936 -10.144  0.00  0.00     0.031 H 
BRANCH  51  54
ATOM     54  C   LIG d   1       1.658  -1.163 -10.420  0.00  0.00    -0.047 A 
ATOM     55  C   LIG d   1       1.972  -2.368  -9.820  0.00  0.00    -0.059 A 
ATOM     56  C   LIG d   1       1.652  -3.558 -10.450  0.00  0.00    -0.061 A 
ATOM     57  H   LIG d   1       2.463  -2.381  -8.859  0.00  0.00     0.062 H 
ATOM     58  C   LIG d   1       1.028  -3.541 -11.682  0.00  0.00    -0.062 A 
ATOM     59  H   LIG d   1       1.894  -4.500  -9.979  0.00  0.00     0.062 H 
ATOM     60  C   LIG d   1       0.717  -2.336 -12.284  0.00  0.00    -0.061 A 
ATOM     61  H   LIG d   1       0.780  -4.470 -12.175  0.00  0.00     0.062 H 
ATOM     62  C   LIG d   1       1.033  -1.147 -11.653  0.00  0.00    -0.059 A 
ATOM     63  H   LIG d   1       0.229  -2.323 -13.247  0.00  0.00     0.062 H 
ATOM     64  H   LIG d   1       0.791  -0.205 -12.124  0.00  0.00     0.062 H 
ENDBRANCH  51  54
ENDBRANCH  48  51
ENDBRANCH  42  48
ENDBRANCH   1  42
TORSDOF 9
ENDMDL
MODEL 3
REMARK VINA RESULT:      -6.6      2.028      3.229
REMARK  9 active torsions:
REMARK  status: ('A' for Active; 'I' for Inactive)
REMARK    1  A    between atoms: C_1  and  C_2 
REMARK    2  A    between atoms: C_2  and  C_4 
REMARK    3  A    between atoms: C_2  and  N_12 
REMARK    4  A    between atoms: C_4  and  C_5 
REMARK    5  A    between atoms: C_5  and  C_6 
REMARK    6  A    between atoms: C_15  and  C_22 
REMARK    7  A    between atoms: C_29  and  O_30 
REMARK    8  A    between atoms: O_30  and  C_31 
REMARK    9  A    between atoms: N_37  and  C_38 
ROOT
ATOM      1  N   LIG d   1       6.526  -2.938  -6.668  0.00  0.00    -0.258 N 
ATOM      2  C   LIG d   1       5.762  -2.022  -7.295  0.00  0.00     0.265 A 
ATOM      3  O   LIG d   1       4.678  -1.708  -6.834  0.00  0.00    -0.267 OA
ATOM      4  C   LIG d   1       6.223  -1.429  -8.483  0.00  0.00     0.078 A 
ATOM      5  C   LIG d   1       7.439  -1.796  -8.978  0.00  0.00    -0.020 A 
ATOM      6  N   LIG d   1       8.185  -2.734  -8.309  0.00  0.00    -0.320 N 
ATOM      7  H   LIG d   1       9.051  -2.998  -8.656  0.00  0.00     0.169 HD
ATOM      8  C   LIG d   1       7.726  -3.284  -7.170  0.00  0.00     0.329 A 
ATOM      9  O   LIG d   1       8.402  -4.110  -6.588  0.00  0.00    -0.246 OA
ATOM     10  O   LIG d   1       7.905  -1.243 -10.117  0.00  0.00    -0.861 OA
ENDROOT
BRANCH   4  11
ATOM     11  C   LIG d   1       5.385  -0.402  -9.201  0.00  0.00     0.041 C 
ATOM     12  H   LIG d   1       5.893  -0.099 -10.116  0.00  0.00     0.096 H 
ATOM     13  N   LIG d   1       5.211   0.769  -8.336  0.00  0.00     0.242 N 
ATOM     14  C   LIG d   1       4.282   1.708  -8.983  0.00  0.00    -0.027 C 
ATOM     15  H   LIG d   1       4.833   0.478  -7.446  0.00  0.00     0.204 HD
ATOM     16  C   LIG d   1       2.871   1.125  -8.910  0.00  0.00     0.013 C 
ATOM     17  H   LIG d   1       4.568   1.844 -10.027  0.00  0.00     0.082 H 
ATOM     18  H   LIG d   1       4.310   2.666  -8.466  0.00  0.00     0.082 H 
ATOM     19  C   LIG d   1       2.876  -0.294  -9.419  0.00  0.00    -0.026 A 
ATOM     20  H   LIG d   1       2.197   1.727  -9.522  0.00  0.00     0.036 H 
ATOM     21  H   LIG d   1       2.526   1.137  -7.876  0.00  0.00     0.036 H 
ATOM     22  C   LIG d   1       4.050  -1.006  -9.549  0.00  0.00     0.054 A 
ATOM     23  C   LIG d   1       1.667  -0.883  -9.756  0.00  0.00    -0.012 A 
ATOM     24  C   LIG d   1       4.016  -2.316 -10.013  0.00  0.00     0.174 A 
ATOM     25  C   LIG d   1       2.807  -2.910 -10.349  0.00  0.00     0.208 A 
ATOM     26  C   LIG d   1       1.626  -2.186 -10.220  0.00  0.00     0.170 A 
ATOM     27  O   LIG d   1       2.507  -4.156 -10.819  0.00  0.00    -0.449 OA
ATOM     28  O   LIG d   1       0.584  -2.978 -10.610  0.00  0.00    -0.453 OA
ATOM     29  C   LIG d   1       1.095  -4.324 -10.589  0.00  0.00     0.233 C 
ATOM     30  H   LIG d   1       0.645  -4.917 -11.386  0.00  0.00     0.117 H 
ATOM     31  H   LIG d   1       0.918  -4.787  -9.618  0.00  0.00     0.117 H 
ATOM     32  H   LIG d   1       0.751  -0.320  -9.655  0.00  0.00     0.066 H 
BRANCH  13  33
ATOM     33  C   LIG d   1       6.509   1.425  -8.129  0.00  0.00    -0.042 C 
ATOM     34  H   LIG d   1       6.891   1.173  -7.140  0.00  0.00     0.078 H 
ATOM     35  H   LIG d   1       7.213   1.083  -8.888  0.00  0.00     0.078 H 
ATOM     36  H   LIG d   1       6.386   2.505  -8.208  0.00  0.00     0.078 H 
ENDBRANCH  13  33
BRANCH  24  37
ATOM     37  O   LIG d   1       5.173  -3.019 -10.140  0.00  0.00    -0.491 OA
BRANCH  37  38
ATOM     38  C   LIG d   1       5.526  -3.458 -11.454  0.00  0.00     0.079 C 
ATOM     39  H   LIG d   1       6.198  -4.314 -11.384  0.00  0.00     0.066 H 
ATOM     40  H   LIG d   1       4.624  -3.748 -11.994  0.00  0.00     0.066 H 
ATOM     41  H   LIG d   1       6.023  -2.647 -11.986  0.00  0.00     0.066 H 
ENDBRANCH  37  38
ENDBRANCH  24  37
ENDBRANCH   4  11
BRANCH   1  42
ATOM     42  C   LIG d   1       6.049  -3.558  -5.429  0.00  0.00     0.040 C 
ATOM     43  H   LIG d   1       6.702  -4.390  -5.165  0.00  0.00     0.053 H 
BRANCH  42  44
ATOM     44  C   LIG d   1       4.623  -4.075  -5.633  0.00  0.00    -0.044 C 
ATOM     45  H   LIG d   1       4.303  -4.616  -4.744  0.00  0.00     0.025 H 
ATOM     46  H   LIG d   1       3.954  -3.232  -5.808  0.00  0.00     0.025 H 
ATOM     47  H   LIG d   1       4.600  -4.743  -6.494  0.00  0.00     0.025 H 
ENDBRANCH  42  44
BRANCH  42  48
ATOM     48  C   LIG d   1       6.061  -2.522  -4.303  0.00  0.00    -0.028 C 
ATOM     49  H   LIG d   1       6.867  -2.752  -3.607  0.00  0.00     0.029 H 
ATOM     50  H   LIG d   1       6.216  -1.529  -4.725  0.00  0.00     0.029 H 
BRANCH  48  51
ATOM     51  C   LIG d   1       4.722  -2.558  -3.564  0.00  0.00    -0.026 C 
ATOM     52  H   LIG d   1       3.958  -2.983  -4.215  0.00  0.00     0.031 H 
ATOM     53  H   LIG d   1       4.818  -3.173  -2.668  0.00  0.00     0.031 H 
BRANCH  51  54
ATOM     54  C   LIG d   1       4.327  -1.158  -3.172  0.00  0.00    -0.047 A 
ATOM     55  C   LIG d   1       4.834  -0.596  -2.015  0.00  0.00    -0.059 A 
ATOM     56  C   LIG d   1       4.475   0.691  -1.657  0.00  0.00    -0.061 A 
ATOM     57  H   LIG d   1       5.513  -1.160  -1.393  0.00  0.00     0.062 H 
ATOM     58  C   LIG d   1       3.601   1.410  -2.450  0.00  0.00    -0.062 A 
ATOM     59  H   LIG d   1       4.874   1.132  -0.755  0.00  0.00     0.062 H 
ATOM     60  C   LIG d   1       3.091   0.846  -3.604  0.00  0.00    -0.061 A 
ATOM     61  H   LIG d   1       3.319   2.414  -2.169  0.00  0.00     0.062 H 
ATOM     62  C   LIG d   1       3.454  -0.438  -3.965  0.00  0.00    -0.059 A 
ATOM     63  H   LIG d   1       2.409   1.408  -4.224  0.00  0.00     0.062 H 
ATOM     64  H   LIG d   1       3.054  -0.879  -4.866  0.00  0.00     0.062 H 
ENDBRANCH  51  54
ENDBRANCH  48  51
ENDBRANCH  42  48
ENDBRANCH   1  42
TORSDOF 9
ENDMDL
MODEL 4
REMARK VINA RESULT:      -6.5      3.190      6.045
REMARK  9 active torsions:
REMARK  status: ('A' for Active; 'I' for Inactive)
REMARK    1  A    between atoms: C_1  and  C_2 
REMARK    2  A    between atoms: C_2  and  C_4 
REMARK    3  A    between atoms: C_2  and  N_12 
REMARK    4  A    between atoms: C_4  and  C_5 
REMARK    5  A    between atoms: C_5  and  C_6 
REMARK    6  A    between atoms: C_15  and  C_22 
REMARK    7  A    between atoms: C_29  and  O_30 
REMARK    8  A    between atoms: O_30  and  C_31 
REMARK    9  A    between atoms: N_37  and  C_38 
ROOT
ATOM      1  N   LIG d   1       6.123  -4.494  -5.510  0.00  0.00    -0.258 N 
ATOM      2  C   LIG d   1       5.285  -3.454  -5.327  0.00  0.00     0.265 A 
ATOM      3  O   LIG d   1       4.178  -3.461  -5.839  0.00  0.00    -0.267 OA
ATOM      4  C   LIG d   1       5.694  -2.363  -4.542  0.00  0.00     0.078 A 
ATOM      5  C   LIG d   1       6.936  -2.379  -3.980  0.00  0.00    -0.020 A 
ATOM      6  N   LIG d   1       7.758  -3.457  -4.192  0.00  0.00    -0.320 N 
ATOM      7  H   LIG d   1       8.642  -3.475  -3.794  0.00  0.00     0.169 HD
ATOM      8  C   LIG d   1       7.343  -4.494  -4.943  0.00  0.00     0.329 A 
ATOM      9  O   LIG d   1       8.083  -5.443  -5.116  0.00  0.00    -0.246 OA
ATOM     10  O   LIG d   1       7.354  -1.344  -3.222  0.00  0.00    -0.861 OA
ENDROOT
BRANCH   4  11
ATOM     11  C   LIG d   1       4.773  -1.189  -4.324  0.00  0.00     0.041 C 
ATOM     12  H   LIG d   1       5.264  -0.462  -3.677  0.00  0.00     0.096 H 
ATOM     13  N   LIG d   1       3.541  -1.655  -3.681  0.00  0.00     0.242 N 
ATOM     14  C   LIG d   1       2.593  -0.534  -3.596  0.00  0.00    -0.027 C 
ATOM     15  H   LIG d   1       3.136  -2.400  -4.228  0.00  0.00     0.204 HD
ATOM     16  C   LIG d   1       2.054  -0.244  -4.996  0.00  0.00     0.013 C 
ATOM     17  H   LIG d   1       3.104   0.349  -3.210  0.00  0.00     0.082 H 
ATOM     18  H   LIG d   1       1.770  -0.801  -2.934  0.00  0.00     0.082 H 
ATOM     19  C   LIG d   1       3.201  -0.099  -5.966  0.00  0.00    -0.026 A 
ATOM     20  H   LIG d   1       1.476   0.681  -4.979  0.00  0.00     0.036 H 
ATOM     21  H   LIG d   1       1.412  -1.064  -5.315  0.00  0.00     0.036 H 
ATOM     22  C   LIG d   1       4.467  -0.546  -5.651  0.00  0.00     0.054 A 
ATOM     23  C   LIG d   1       2.959   0.493  -7.195  0.00  0.00    -0.012 A 
ATOM     24  C   LIG d   1       5.498  -0.404  -6.574  0.00  0.00     0.174 A 
ATOM     25  C   LIG d   1       5.260   0.186  -7.807  0.00  0.00     0.208 A 
ATOM     26  C   LIG d   1       3.981   0.638  -8.117  0.00  0.00     0.170 A 
ATOM     27  O   LIG d   1       6.082   0.439  -8.867  0.00  0.00    -0.449 OA
ATOM     28  O   LIG d   1       4.001   1.176  -9.373  0.00  0.00    -0.453 OA
ATOM     29  C   LIG d   1       5.206   0.680  -9.984  0.00  0.00     0.233 C 
ATOM     30  H   LIG d   1       5.633   1.428 -10.652  0.00  0.00     0.117 H 
ATOM     31  H   LIG d   1       5.009  -0.248 -10.523  0.00  0.00     0.117 H 
ATOM     32  H   LIG d   1       1.966   0.844  -7.435  0.00  0.00     0.066 H 
BRANCH  13  33
ATOM     33  C   LIG d   1       3.847  -2.144  -2.330  0.00  0.00    -0.042 C 
ATOM     34  H   LIG d   1       3.586  -1.378  -1.599  0.00  0.00     0.078 H 
ATOM     35  H   LIG d   1       3.269  -3.047  -2.131  0.00  0.00     0.078 H 
ATOM     36  H   LIG d   1       4.910  -2.370  -2.257  0.00  0.00     0.078 H 
ENDBRANCH  13  33
BRANCH  24  37
ATOM     37  O   LIG d   1       6.747  -0.846  -6.265  0.00  0.00    -0.491 OA
BRANCH  37  38
ATOM     38  C   LIG d   1       7.802   0.117  -6.300  0.00  0.00     0.079 C 
ATOM     39  H   LIG d   1       7.561   0.896  -7.023  0.00  0.00     0.066 H 
ATOM     40  H   LIG d   1       7.920   0.563  -5.311  0.00  0.00     0.066 H 
ATOM     41  H   LIG d   1       8.732  -0.374  -6.589  0.00  0.00     0.066 H 
ENDBRANCH  37  38
ENDBRANCH  24  37
ENDBRANCH   4  11
BRANCH   1  42
ATOM     42  C   LIG d   1       5.700  -5.634  -6.327  0.00  0.00     0.040 C 
ATOM     43  H   LIG d   1       6.568  -6.243  -6.578  0.00  0.00     0.053 H 
BRANCH  42  44
ATOM     44  C   LIG d   1       5.046  -5.125  -7.613  0.00  0.00    -0.044 C 
ATOM     45  H   LIG d   1       5.745  -4.481  -8.145  0.00  0.00     0.025 H 
ATOM     46  H   LIG d   1       4.779  -5.973  -8.244  0.00  0.00     0.025 H 
ATOM     47  H   LIG d   1       4.147  -4.561  -7.364  0.00  0.00     0.025 H 
ENDBRANCH  42  44
BRANCH  42  48
ATOM     48  C   LIG d   1       4.694  -6.479  -5.542  0.00  0.00    -0.028 C 
ATOM     49  H   LIG d   1       4.900  -6.391  -4.475  0.00  0.00     0.029 H 
ATOM     50  H   LIG d   1       3.684  -6.125  -5.748  0.00  0.00     0.029 H 
BRANCH  48  51
ATOM     51  C   LIG d   1       4.817  -7.944  -5.966  0.00  0.00    -0.026 C 
ATOM     52  H   LIG d   1       3.850  -8.303  -6.319  0.00  0.00     0.031 H 
ATOM     53  H   LIG d   1       5.552  -8.029  -6.768  0.00  0.00     0.031 H 
BRANCH  51  54
ATOM     54  C   LIG d   1       5.261  -8.772  -4.789  0.00  0.00    -0.047 A 
ATOM     55  C   LIG d   1       6.585  -8.753  -4.391  0.00  0.00    -0.059 A 
ATOM     56  C   LIG d   1       6.992  -9.510  -3.307  0.00  0.00    -0.061 A 
ATOM     57  H   LIG d   1       7.300  -8.144  -4.923  0.00  0.00     0.062 H 
ATOM     58  C   LIG d   1       6.078 -10.293  -2.629  0.00  0.00    -0.062 A 
ATOM     59  H   LIG d   1       8.025  -9.491  -2.993  0.00  0.00     0.062 H 
ATOM     60  C   LIG d   1       4.755 -10.316  -3.030  0.00  0.00    -0.061 A 
ATOM     61  H   LIG d   1       6.396 -10.886  -1.784  0.00  0.00     0.062 H 
ATOM     62  C   LIG d   1       4.347  -9.555  -4.110  0.00  0.00    -0.059 A 
ATOM     63  H   LIG d   1       4.040 -10.928  -2.500  0.00  0.00     0.062 H 
ATOM     64  H   LIG d   1       3.314  -9.574  -4.424  0.00  0.00     0.062 H 
ENDBRANCH  51  54
ENDBRANCH  48  51
ENDBRANCH  42  48
ENDBRANCH   1  42
TORSDOF 9
ENDMDL
MODEL 5
REMARK VINA RESULT:      -6.4      3.595      6.646
REMARK  9 active torsions:
REMARK  status: ('A' for Active; 'I' for Inactive)
REMARK    1  A    between atoms: C_1  and  C_2 
REMARK    2  A    between atoms: C_2  and  C_4 
REMARK    3  A    between atoms: C_2  and  N_12 
REMARK    4  A    between atoms: C_4  and  C_5 
REMARK    5  A    between atoms: C_5  and  C_6 
REMARK    6  A    between atoms: C_15  and  C_22 
REMARK    7  A    between atoms: C_29  and  O_30 
REMARK    8  A    between atoms: O_30  and  C_31 
REMARK    9  A    between atoms: N_37  and  C_38 
ROOT
ATOM      1  N   LIG d   1       8.327  -1.938  -5.485  0.00  0.00    -0.258 N 
ATOM      2  C   LIG d   1       7.940  -0.786  -6.069  0.00  0.00     0.265 A 
ATOM      3  O   LIG d   1       6.755  -0.530  -6.196  0.00  0.00    -0.267 OA
ATOM      4  C   LIG d   1       8.912   0.118  -6.531  0.00  0.00     0.078 A 
ATOM      5  C   LIG d   1      10.231  -0.191  -6.378  0.00  0.00    -0.020 A 
ATOM      6  N   LIG d   1      10.581  -1.374  -5.777  0.00  0.00    -0.320 N 
ATOM      7  H   LIG d   1      11.518  -1.599  -5.665  0.00  0.00     0.169 HD
ATOM      8  C   LIG d   1       9.633  -2.223  -5.338  0.00  0.00     0.329 A 
ATOM      9  O   LIG d   1       9.963  -3.264  -4.804  0.00  0.00    -0.246 OA
ATOM     10  O   LIG d   1      11.184   0.659  -6.812  0.00  0.00    -0.861 OA
ENDROOT
BRANCH   4  11
ATOM     11  C   LIG d   1       8.502   1.412  -7.188  0.00  0.00     0.041 C 
ATOM     12  H   LIG d   1       7.415   1.465  -7.231  0.00  0.00     0.096 H 
ATOM     13  N   LIG d   1       9.042   1.451  -8.551  0.00  0.00     0.242 N 
ATOM     14  C   LIG d   1       8.757   2.769  -9.139  0.00  0.00    -0.027 C 
ATOM     15  H   LIG d   1      10.039   1.301  -8.524  0.00  0.00     0.204 HD
ATOM     16  C   LIG d   1       9.664   3.805  -8.476  0.00  0.00     0.013 C 
ATOM     17  H   LIG d   1       7.713   3.031  -8.962  0.00  0.00     0.082 H 
ATOM     18  H   LIG d   1       8.953   2.742 -10.210  0.00  0.00     0.082 H 
ATOM     19  C   LIG d   1       9.564   3.688  -6.976  0.00  0.00    -0.026 A 
ATOM     20  H   LIG d   1       9.358   4.806  -8.783  0.00  0.00     0.036 H 
ATOM     21  H   LIG d   1      10.696   3.634  -8.784  0.00  0.00     0.036 H 
ATOM     22  C   LIG d   1       9.026   2.567  -6.378  0.00  0.00     0.054 A 
ATOM     23  C   LIG d   1      10.030   4.735  -6.197  0.00  0.00    -0.012 A 
ATOM     24  C   LIG d   1       8.958   2.491  -4.991  0.00  0.00     0.174 A 
ATOM     25  C   LIG d   1       9.426   3.536  -4.207  0.00  0.00     0.208 A 
ATOM     26  C   LIG d   1       9.964   4.665  -4.816  0.00  0.00     0.170 A 
ATOM     27  O   LIG d   1       9.473   3.705  -2.853  0.00  0.00    -0.449 OA
ATOM     28  O   LIG d   1      10.348   5.544  -3.843  0.00  0.00    -0.453 OA
ATOM     29  C   LIG d   1      10.416   4.770  -2.631  0.00  0.00     0.233 C 
ATOM     30  H   LIG d   1      10.117   5.374  -1.774  0.00  0.00     0.117 H 
ATOM     31  H   LIG d   1      11.419   4.369  -2.487  0.00  0.00     0.117 H 
ATOM     32  H   LIG d   1      10.448   5.611  -6.670  0.00  0.00     0.066 H 
BRANCH  13  33
ATOM     33  C   LIG d   1       8.406   0.403  -9.362  0.00  0.00    -0.042 C 
ATOM     34  H   LIG d   1       9.077   0.114 -10.172  0.00  0.00     0.078 H 
ATOM     35  H   LIG d   1       8.198  -0.464  -8.736  0.00  0.00     0.078 H 
ATOM     36  H   LIG d   1       7.474   0.783  -9.779  0.00  0.00     0.078 H 
ENDBRANCH  13  33
BRANCH  24  37
ATOM     37  O   LIG d   1       8.429   1.385  -4.400  0.00  0.00    -0.491 OA
BRANCH  37  38
ATOM     38  C   LIG d   1       7.224   1.563  -3.653  0.00  0.00     0.079 C 
ATOM     39  H   LIG d   1       7.299   2.470  -3.052  0.00  0.00     0.066 H 
ATOM     40  H   LIG d   1       6.380   1.652  -4.339  0.00  0.00     0.066 H 
ATOM     41  H   LIG d   1       7.072   0.704  -2.999  0.00  0.00     0.066 H 
ENDBRANCH  37  38
ENDBRANCH  24  37
ENDBRANCH   4  11
BRANCH   1  42
ATOM     42  C   LIG d   1       7.317  -2.883  -5.001  0.00  0.00     0.040 C 
ATOM     43  H   LIG d   1       7.783  -3.851  -4.821  0.00  0.00     0.053 H 
BRANCH  42  44
ATOM     44  C   LIG d   1       6.216  -3.035  -6.052  0.00  0.00    -0.044 C 
ATOM     45  H   LIG d   1       5.509  -2.211  -5.959  0.00  0.00     0.025 H 
ATOM     46  H   LIG d   1       6.660  -3.022  -7.048  0.00  0.00     0.025 H 
ATOM     47  H   LIG d   1       5.695  -3.980  -5.898  0.00  0.00     0.025 H 
ENDBRANCH  42  44
BRANCH  42  48
ATOM     48  C   LIG d   1       6.710  -2.358  -3.698  0.00  0.00    -0.028 C 
ATOM     49  H   LIG d   1       7.056  -2.969  -2.864  0.00  0.00     0.029 H 
ATOM     50  H   LIG d   1       7.018  -1.324  -3.545  0.00  0.00     0.029 H 
BRANCH  48  51
ATOM     51  C   LIG d   1       5.184  -2.428  -3.782  0.00  0.00    -0.026 C 
ATOM     52  H   LIG d   1       4.885  -2.618  -4.813  0.00  0.00     0.031 H 
ATOM     53  H   LIG d   1       4.821  -3.235  -3.144  0.00  0.00     0.031 H 
BRANCH  51  54
ATOM     54  C   LIG d   1       4.595  -1.120  -3.321  0.00  0.00    -0.047 A 
ATOM     55  C   LIG d   1       3.777  -0.395  -4.167  0.00  0.00    -0.059 A 
ATOM     56  C   LIG d   1       3.233   0.804  -3.742  0.00  0.00    -0.061 A 
ATOM     57  H   LIG d   1       3.560  -0.765  -5.157  0.00  0.00     0.062 H 
ATOM     58  C   LIG d   1       3.515   1.281  -2.476  0.00  0.00    -0.062 A 
ATOM     59  H   LIG d   1       2.590   1.369  -4.401  0.00  0.00     0.062 H 
ATOM     60  C   LIG d   1       4.337   0.557  -1.632  0.00  0.00    -0.061 A 
ATOM     61  H   LIG d   1       3.092   2.217  -2.145  0.00  0.00     0.062 H 
ATOM     62  C   LIG d   1       4.877  -0.643  -2.055  0.00  0.00    -0.059 A 
ATOM     63  H   LIG d   1       4.557   0.929  -0.643  0.00  0.00     0.062 H 
ATOM     64  H   LIG d   1       5.520  -1.208  -1.396  0.00  0.00     0.062 H 
ENDBRANCH  51  54
ENDBRANCH  48  51
ENDBRANCH  42  48
ENDBRANCH   1  42
TORSDOF 9
ENDMDL
MODEL 6
REMARK VINA RESULT:      -6.4      3.865      7.271
REMARK  9 active torsions:
REMARK  status: ('A' for Active; 'I' for Inactive)
REMARK    1  A    between atoms: C_1  and  C_2 
REMARK    2  A    between atoms: C_2  and  C_4 
REMARK    3  A    between atoms: C_2  and  N_12 
REMARK    4  A    between atoms: C_4  and  C_5 
REMARK    5  A    between atoms: C_5  and  C_6 
REMARK    6  A    between atoms: C_15  and  C_22 
REMARK    7  A    between atoms: C_29  and  O_30 
REMARK    8  A    between atoms: O_30  and  C_31 
REMARK    9  A    between atoms: N_37  and  C_38 
ROOT
ATOM      1  N   LIG d   1       7.780   1.673  -8.276  0.00  0.00    -0.258 N 
ATOM      2  C   LIG d   1       8.022   0.605  -7.491  0.00  0.00     0.265 A 
ATOM      3  O   LIG d   1       9.156   0.364  -7.114  0.00  0.00    -0.267 OA
ATOM      4  C   LIG d   1       6.958  -0.231  -7.108  0.00  0.00     0.078 A 
ATOM      5  C   LIG d   1       5.699   0.059  -7.543  0.00  0.00    -0.020 A 
ATOM      6  N   LIG d   1       5.497   1.157  -8.341  0.00  0.00    -0.320 N 
ATOM      7  H   LIG d   1       4.603   1.369  -8.653  0.00  0.00     0.169 HD
ATOM      8  C   LIG d   1       6.530   1.947  -8.690  0.00  0.00     0.329 A 
ATOM      9  O   LIG d   1       6.331   2.917  -9.394  0.00  0.00    -0.246 OA
ATOM     10  O   LIG d   1       4.660  -0.726  -7.191  0.00  0.00    -0.861 OA
ENDROOT
BRANCH   4  11
ATOM     11  C   LIG d   1       7.205  -1.432  -6.231  0.00  0.00     0.041 C 
ATOM     12  H   LIG d   1       8.270  -1.501  -6.009  0.00  0.00     0.096 H 
ATOM     13  N   LIG d   1       6.779  -2.642  -6.941  0.00  0.00     0.242 N 
ATOM     14  C   LIG d   1       6.894  -3.793  -6.032  0.00  0.00    -0.027 C 
ATOM     15  H   LIG d   1       5.820  -2.540  -7.238  0.00  0.00     0.204 HD
ATOM     16  C   LIG d   1       5.780  -3.704  -4.990  0.00  0.00     0.013 C 
ATOM     17  H   LIG d   1       7.864  -3.771  -5.534  0.00  0.00     0.082 H 
ATOM     18  H   LIG d   1       6.793  -4.718  -6.599  0.00  0.00     0.082 H 
ATOM     19  C   LIG d   1       5.776  -2.333  -4.361  0.00  0.00    -0.026 A 
ATOM     20  H   LIG d   1       5.945  -4.456  -4.217  0.00  0.00     0.036 H 
ATOM     21  H   LIG d   1       4.819  -3.885  -5.470  0.00  0.00     0.036 H 
ATOM     22  C   LIG d   1       6.438  -1.274  -4.946  0.00  0.00     0.054 A 
ATOM     23  C   LIG d   1       5.085  -2.150  -3.173  0.00  0.00    -0.012 A 
ATOM     24  C   LIG d   1       6.404  -0.021  -4.342  0.00  0.00     0.174 A 
ATOM     25  C   LIG d   1       5.712   0.167  -3.154  0.00  0.00     0.208 A 
ATOM     26  C   LIG d   1       5.049  -0.906  -2.567  0.00  0.00     0.170 A 
ATOM     27  O   LIG d   1       5.528   1.273  -2.375  0.00  0.00    -0.449 OA
ATOM     28  O   LIG d   1       4.450  -0.474  -1.418  0.00  0.00    -0.453 OA
ATOM     29  C   LIG d   1       4.411   0.961  -1.522  0.00  0.00     0.233 C 
ATOM     30  H   LIG d   1       4.537   1.420  -0.542  0.00  0.00     0.117 H 
ATOM     31  H   LIG d   1       3.477   1.287  -1.981  0.00  0.00     0.117 H 
ATOM     32  H   LIG d   1       4.571  -2.984  -2.718  0.00  0.00     0.066 H 
BRANCH  13  33
ATOM     33  C   LIG d   1       7.639  -2.853  -8.113  0.00  0.00    -0.042 C 
ATOM     34  H   LIG d   1       8.657  -2.538  -7.879  0.00  0.00     0.078 H 
ATOM     35  H   LIG d   1       7.639  -3.910  -8.377  0.00  0.00     0.078 H 
ATOM     36  H   LIG d   1       7.261  -2.269  -8.951  0.00  0.00     0.078 H 
ENDBRANCH  13  33
BRANCH  24  37
ATOM     37  O   LIG d   1       7.055   1.025  -4.919  0.00  0.00    -0.491 OA
BRANCH  37  38
ATOM     38  C   LIG d   1       8.017   1.712  -4.116  0.00  0.00     0.079 C 
ATOM     39  H   LIG d   1       8.250   2.675  -4.573  0.00  0.00     0.066 H 
ATOM     40  H   LIG d   1       7.609   1.874  -3.118  0.00  0.00     0.066 H 
ATOM     41  H   LIG d   1       8.925   1.114  -4.045  0.00  0.00     0.066 H 
ENDBRANCH  37  38
ENDBRANCH  24  37
ENDBRANCH   4  11
BRANCH   1  42
ATOM     42  C   LIG d   1       8.886   2.547  -8.676  0.00  0.00     0.040 C 
ATOM     43  H   LIG d   1       8.508   3.338  -9.323  0.00  0.00     0.053 H 
BRANCH  42  44
ATOM     44  C   LIG d   1       9.936   1.728  -9.431  0.00  0.00    -0.044 C 
ATOM     45  H   LIG d   1       9.437   1.025 -10.097  0.00  0.00     0.025 H 
ATOM     46  H   LIG d   1      10.567   2.398 -10.015  0.00  0.00     0.025 H 
ATOM     47  H   LIG d   1      10.550   1.180  -8.717  0.00  0.00     0.025 H 
ENDBRANCH  42  44
BRANCH  42  48
ATOM     48  C   LIG d   1       9.523   3.167  -7.430  0.00  0.00    -0.028 C 
ATOM     49  H   LIG d   1       8.740   3.480  -6.740  0.00  0.00     0.029 H 
ATOM     50  H   LIG d   1      10.163   2.431  -6.945  0.00  0.00     0.029 H 
BRANCH  48  51
ATOM     51  C   LIG d   1      10.360   4.381  -7.836  0.00  0.00    -0.026 C 
ATOM     52  H   LIG d   1      11.416   4.170  -7.663  0.00  0.00     0.031 H 
ATOM     53  H   LIG d   1      10.201   4.596  -8.894  0.00  0.00     0.031 H 
BRANCH  51  54
ATOM     54  C   LIG d   1       9.946   5.575  -7.015  0.00  0.00    -0.047 A 
ATOM     55  C   LIG d   1       9.685   5.427  -5.665  0.00  0.00    -0.059 A 
ATOM     56  C   LIG d   1       9.309   6.523  -4.910  0.00  0.00    -0.061 A 
ATOM     57  H   LIG d   1       9.779   4.458  -5.200  0.00  0.00     0.062 H 
ATOM     58  C   LIG d   1       9.184   7.763  -5.507  0.00  0.00    -0.062 A 
ATOM     59  H   LIG d   1       9.110   6.409  -3.855  0.00  0.00     0.062 H 
ATOM     60  C   LIG d   1       9.440   7.910  -6.857  0.00  0.00    -0.061 A 
ATOM     61  H   LIG d   1       8.888   8.619  -4.918  0.00  0.00     0.062 H 
ATOM     62  C   LIG d   1       9.821   6.815  -7.611  0.00  0.00    -0.059 A 
ATOM     63  H   LIG d   1       9.343   8.879  -7.323  0.00  0.00     0.062 H 
ATOM     64  H   LIG d   1      10.020   6.930  -8.667  0.00  0.00     0.062 H 
ENDBRANCH  51  54
ENDBRANCH  48  51
ENDBRANCH  42  48
ENDBRANCH   1  42
TORSDOF 9
ENDMDL
MODEL 7
REMARK VINA RESULT:      -6.4      3.525      6.372
REMARK  9 active torsions:
REMARK  status: ('A' for Active; 'I' for Inactive)
REMARK    1  A    between atoms: C_1  and  C_2 
REMARK    2  A    between atoms: C_2  and  C_4 
REMARK    3  A    between atoms: C_2  and  N_12 
REMARK    4  A    between atoms: C_4  and  C_5 
REMARK    5  A    between atoms: C_5  and  C_6 
REMARK    6  A    between atoms: C_15  and  C_22 
REMARK    7  A    between atoms: C_29  and  O_30 
REMARK    8  A    between atoms: O_30  and  C_31 
REMARK    9  A    between atoms: N_37  and  C_38 
ROOT
ATOM      1  N   LIG d   1       8.431   0.910  -7.517  0.00  0.00    -0.258 N 
ATOM      2  C   LIG d   1       7.132   0.551  -7.480  0.00  0.00     0.265 A 
ATOM      3  O   LIG d   1       6.259   1.401  -7.524  0.00  0.00    -0.267 OA
ATOM      4  C   LIG d   1       6.790  -0.810  -7.391  0.00  0.00     0.078 A 
ATOM      5  C   LIG d   1       7.785  -1.741  -7.343  0.00  0.00    -0.020 A 
ATOM      6  N   LIG d   1       9.095  -1.332  -7.383  0.00  0.00    -0.320 N 
ATOM      7  H   LIG d   1       9.806  -1.990  -7.350  0.00  0.00     0.169 HD
ATOM      8  C   LIG d   1       9.398  -0.024  -7.474  0.00  0.00     0.329 A 
ATOM      9  O   LIG d   1      10.564   0.319  -7.513  0.00  0.00    -0.246 OA
ATOM     10  O   LIG d   1       7.485  -3.053  -7.258  0.00  0.00    -0.861 OA
ENDROOT
BRANCH   4  11
ATOM     11  C   LIG d   1       5.344  -1.234  -7.348  0.00  0.00     0.041 C 
ATOM     12  H   LIG d   1       5.290  -2.322  -7.315  0.00  0.00     0.096 H 
ATOM     13  N   LIG d   1       4.664  -0.752  -8.554  0.00  0.00     0.242 N 
ATOM     14  C   LIG d   1       3.228  -1.049  -8.443  0.00  0.00    -0.027 C 
ATOM     15  H   LIG d   1       4.798   0.244  -8.642  0.00  0.00     0.204 HD
ATOM     16  C   LIG d   1       2.614  -0.105  -7.411  0.00  0.00     0.013 C 
ATOM     17  H   LIG d   1       3.092  -2.082  -8.121  0.00  0.00     0.082 H 
ATOM     18  H   LIG d   1       2.748  -0.899  -9.409  0.00  0.00     0.082 H 
ATOM     19  C   LIG d   1       3.421  -0.143  -6.138  0.00  0.00    -0.026 A 
ATOM     20  H   LIG d   1       1.589  -0.414  -7.199  0.00  0.00     0.036 H 
ATOM     21  H   LIG d   1       2.609   0.911  -7.806  0.00  0.00     0.036 H 
ATOM     22  C   LIG d   1       4.697  -0.666  -6.113  0.00  0.00     0.054 A 
ATOM     23  C   LIG d   1       2.857   0.366  -4.979  0.00  0.00    -0.012 A 
ATOM     24  C   LIG d   1       5.416  -0.676  -4.922  0.00  0.00     0.174 A 
ATOM     25  C   LIG d   1       4.855  -0.165  -3.760  0.00  0.00     0.208 A 
ATOM     26  C   LIG d   1       3.567   0.357  -3.790  0.00  0.00     0.170 A 
ATOM     27  O   LIG d   1       5.340  -0.060  -2.488  0.00  0.00    -0.449 OA
ATOM     28  O   LIG d   1       3.242   0.791  -2.536  0.00  0.00    -0.453 OA
ATOM     29  C   LIG d   1       4.493   0.902  -1.832  0.00  0.00     0.233 C 
ATOM     30  H   LIG d   1       4.364   0.645  -0.780  0.00  0.00     0.117 H 
ATOM     31  H   LIG d   1       4.903   1.907  -1.935  0.00  0.00     0.117 H 
ATOM     32  H   LIG d   1       1.856   0.771  -5.003  0.00  0.00     0.066 H 
BRANCH  13  33
ATOM     33  C   LIG d   1       5.217  -1.431  -9.734  0.00  0.00    -0.042 C 
ATOM     34  H   LIG d   1       5.625  -2.398  -9.439  0.00  0.00     0.078 H 
ATOM     35  H   LIG d   1       4.427  -1.581 -10.470  0.00  0.00     0.078 H 
ATOM     36  H   LIG d   1       6.007  -0.820 -10.168  0.00  0.00     0.078 H 
ENDBRANCH  13  33
BRANCH  24  37
ATOM     37  O   LIG d   1       6.675  -1.190  -4.897  0.00  0.00    -0.491 OA
BRANCH  37  38
ATOM     38  C   LIG d   1       6.932  -2.232  -3.953  0.00  0.00     0.079 C 
ATOM     39  H   LIG d   1       6.259  -2.126  -3.102  0.00  0.00     0.066 H 
ATOM     40  H   LIG d   1       6.767  -3.201  -4.427  0.00  0.00     0.066 H 
ATOM     41  H   LIG d   1       7.965  -2.166  -3.611  0.00  0.00     0.066 H 
ENDBRANCH  37  38
ENDBRANCH  24  37
ENDBRANCH   4  11
BRANCH   1  42
ATOM     42  C   LIG d   1       8.792   2.327  -7.610  0.00  0.00     0.040 C 
ATOM     43  H   LIG d   1       7.887   2.934  -7.587  0.00  0.00     0.053 H 
BRANCH  42  44
ATOM     44  C   LIG d   1       9.541   2.577  -8.921  0.00  0.00    -0.044 C 
ATOM     45  H   LIG d   1       9.941   1.636  -9.296  0.00  0.00     0.025 H 
ATOM     46  H   LIG d   1       8.856   3.000  -9.655  0.00  0.00     0.025 H 
ATOM     47  H   LIG d   1      10.359   3.275  -8.743  0.00  0.00     0.025 H 
ENDBRANCH  42  44
BRANCH  42  48
ATOM     48  C   LIG d   1       9.689   2.703  -6.429  0.00  0.00    -0.028 C 
ATOM     49  H   LIG d   1      10.453   1.937  -6.294  0.00  0.00     0.029 H 
ATOM     50  H   LIG d   1      10.167   3.663  -6.628  0.00  0.00     0.029 H 
BRANCH  48  51
ATOM     51  C   LIG d   1       8.843   2.809  -5.159  0.00  0.00    -0.026 C 
ATOM     52  H   LIG d   1       7.797   2.954  -5.430  0.00  0.00     0.031 H 
ATOM     53  H   LIG d   1       8.944   1.893  -4.577  0.00  0.00     0.031 H 
BRANCH  51  54
ATOM     54  C   LIG d   1       9.315   3.981  -4.337  0.00  0.00    -0.047 A 
ATOM     55  C   LIG d   1       9.260   5.259  -4.861  0.00  0.00    -0.059 A 
ATOM     56  C   LIG d   1       9.690   6.334  -4.106  0.00  0.00    -0.061 A 
ATOM     57  H   LIG d   1       8.879   5.418  -5.859  0.00  0.00     0.062 H 
ATOM     58  C   LIG d   1      10.183   6.131  -2.831  0.00  0.00    -0.062 A 
ATOM     59  H   LIG d   1       9.643   7.334  -4.513  0.00  0.00     0.062 H 
ATOM     60  C   LIG d   1      10.241   4.852  -2.309  0.00  0.00    -0.061 A 
ATOM     61  H   LIG d   1      10.520   6.970  -2.241  0.00  0.00     0.062 H 
ATOM     62  C   LIG d   1       9.808   3.777  -3.062  0.00  0.00    -0.059 A 
ATOM     63  H   LIG d   1      10.626   4.692  -1.313  0.00  0.00     0.062 H 
ATOM     64  H   LIG d   1       9.855   2.778  -2.655  0.00  0.00     0.062 H 
ENDBRANCH  51  54
ENDBRANCH  48  51
ENDBRANCH  42  48
ENDBRANCH   1  42
TORSDOF 9
ENDMDL
MODEL 8
REMARK VINA RESULT:      -6.3      2.852      4.934
REMARK  9 active torsions:
REMARK  status: ('A' for Active; 'I' for Inactive)
REMARK    1  A    between atoms: C_1  and  C_2 
REMARK    2  A    between atoms: C_2  and  C_4 
REMARK    3  A    between atoms: C_2  and  N_12 
REMARK    4  A    between atoms: C_4  and  C_5 
REMARK    5  A    between atoms: C_5  and  C_6 
REMARK    6  A    between atoms: C_15  and  C_22 
REMARK    7  A    between atoms: C_29  and  O_30 
REMARK    8  A    between atoms: O_30  and  C_31 
REMARK    9  A    between atoms: N_37  and  C_38 
ROOT
ATOM      1  N   LIG d   1       6.083  -1.970  -5.413  0.00  0.00    -0.258 N 
ATOM      2  C   LIG d   1       7.131  -1.189  -5.082  0.00  0.00     0.265 A 
ATOM      3  O   LIG d   1       7.842  -1.484  -4.137  0.00  0.00    -0.267 OA
ATOM      4  C   LIG d   1       7.399  -0.032  -5.834  0.00  0.00     0.078 A 
ATOM      5  C   LIG d   1       6.589   0.277  -6.886  0.00  0.00    -0.020 A 
ATOM      6  N   LIG d   1       5.532  -0.546  -7.189  0.00  0.00    -0.320 N 
ATOM      7  H   LIG d   1       4.954  -0.331  -7.937  0.00  0.00     0.169 HD
ATOM      8  C   LIG d   1       5.298  -1.652  -6.458  0.00  0.00     0.329 A 
ATOM      9  O   LIG d   1       4.360  -2.371  -6.744  0.00  0.00    -0.246 OA
ATOM     10  O   LIG d   1       6.824   1.381  -7.624  0.00  0.00    -0.861 OA
ENDROOT
BRANCH   4  11
ATOM     11  C   LIG d   1       8.565   0.856  -5.482  0.00  0.00     0.041 C 
ATOM     12  H   LIG d   1       9.124   0.407  -4.662  0.00  0.00     0.096 H 
ATOM     13  N   LIG d   1       8.062   2.168  -5.063  0.00  0.00     0.242 N 
ATOM     14  C   LIG d   1       9.203   3.072  -4.852  0.00  0.00    -0.027 C 
ATOM     15  H   LIG d   1       7.460   2.544  -5.781  0.00  0.00     0.204 HD
ATOM     16  C   LIG d   1       9.786   3.446  -6.215  0.00  0.00     0.013 C 
ATOM     17  H   LIG d   1       9.964   2.568  -4.255  0.00  0.00     0.082 H 
ATOM     18  H   LIG d   1       8.867   3.971  -4.338  0.00  0.00     0.082 H 
ATOM     19  C   LIG d   1      10.040   2.199  -7.023  0.00  0.00    -0.026 A 
ATOM     20  H   LIG d   1      10.724   3.984  -6.073  0.00  0.00     0.036 H 
ATOM     21  H   LIG d   1       9.082   4.085  -6.748  0.00  0.00     0.036 H 
ATOM     22  C   LIG d   1       9.465   0.993  -6.681  0.00  0.00     0.054 A 
ATOM     23  C   LIG d   1      10.869   2.284  -8.131  0.00  0.00    -0.012 A 
ATOM     24  C   LIG d   1       9.715  -0.135  -7.455  0.00  0.00     0.174 A 
ATOM     25  C   LIG d   1      10.542  -0.054  -8.567  0.00  0.00     0.208 A 
ATOM     26  C   LIG d   1      11.122   1.164  -8.905  0.00  0.00     0.170 A 
ATOM     27  O   LIG d   1      10.940  -0.994  -9.474  0.00  0.00    -0.449 OA
ATOM     28  O   LIG d   1      11.886   0.988 -10.024  0.00  0.00    -0.453 OA
ATOM     29  C   LIG d   1      11.441  -0.253 -10.602  0.00  0.00     0.233 C 
ATOM     30  H   LIG d   1      12.274  -0.779 -11.067  0.00  0.00     0.117 H 
ATOM     31  H   LIG d   1      10.646  -0.075 -11.326  0.00  0.00     0.117 H 
ATOM     32  H   LIG d   1      11.319   3.229  -8.392  0.00  0.00     0.066 H 
BRANCH  13  33
ATOM     33  C   LIG d   1       7.308   2.028  -3.810  0.00  0.00    -0.042 C 
ATOM     34  H   LIG d   1       7.267   2.992  -3.301  0.00  0.00     0.078 H 
ATOM     35  H   LIG d   1       6.295   1.692  -4.031  0.00  0.00     0.078 H 
ATOM     36  H   LIG d   1       7.801   1.298  -3.169  0.00  0.00     0.078 H 
ENDBRANCH  13  33
BRANCH  24  37
ATOM     37  O   LIG d   1       9.147  -1.325  -7.120  0.00  0.00    -0.491 OA
BRANCH  37  38
ATOM     38  C   LIG d   1      10.031  -2.386  -6.755  0.00  0.00     0.079 C 
ATOM     39  H   LIG d   1      10.218  -3.019  -7.623  0.00  0.00     0.066 H 
ATOM     40  H   LIG d   1      10.974  -1.968  -6.400  0.00  0.00     0.066 H 
ATOM     41  H   LIG d   1       9.577  -2.981  -5.962  0.00  0.00     0.066 H 
ENDBRANCH  37  38
ENDBRANCH  24  37
ENDBRANCH   4  11
BRANCH   1  42
ATOM     42  C   LIG d   1       5.800  -3.177  -4.632  0.00  0.00     0.040 C 
ATOM     43  H   LIG d   1       6.436  -3.195  -3.748  0.00  0.00     0.053 H 
BRANCH  42  44
ATOM     44  C   LIG d   1       6.081  -4.415  -5.487  0.00  0.00    -0.044 C 
ATOM     45  H   LIG d   1       5.139  -4.830  -5.845  0.00  0.00     0.025 H 
ATOM     46  H   LIG d   1       6.702  -4.135  -6.338  0.00  0.00     0.025 H 
ATOM     47  H   LIG d   1       6.603  -5.160  -4.886  0.00  0.00     0.025 H 
ENDBRANCH  42  44
BRANCH  42  48
ATOM     48  C   LIG d   1       4.331  -3.175  -4.204  0.00  0.00    -0.028 C 
ATOM     49  H   LIG d   1       3.763  -2.513  -4.858  0.00  0.00     0.029 H 
ATOM     50  H   LIG d   1       3.931  -4.187  -4.274  0.00  0.00     0.029 H 
BRANCH  48  51
ATOM     51  C   LIG d   1       4.222  -2.683  -2.760  0.00  0.00    -0.026 C 
ATOM     52  H   LIG d   1       3.376  -3.169  -2.272  0.00  0.00     0.031 H 
ATOM     53  H   LIG d   1       5.140  -2.925  -2.222  0.00  0.00     0.031 H 
BRANCH  51  54
ATOM     54  C   LIG d   1       4.015  -1.190  -2.752  0.00  0.00    -0.047 A 
ATOM     55  C   LIG d   1       4.602  -0.417  -1.768  0.00  0.00    -0.059 A 
ATOM     56  C   LIG d   1       4.416   0.953  -1.763  0.00  0.00    -0.061 A 
ATOM     57  H   LIG d   1       5.209  -0.882  -1.006  0.00  0.00     0.062 H 
ATOM     58  C   LIG d   1       3.635   1.548  -2.735  0.00  0.00    -0.062 A 
ATOM     59  H   LIG d   1       4.879   1.558  -0.997  0.00  0.00     0.062 H 
ATOM     60  C   LIG d   1       3.044   0.774  -3.717  0.00  0.00    -0.061 A 
ATOM     61  H   LIG d   1       3.488   2.618  -2.730  0.00  0.00     0.062 H 
ATOM     62  C   LIG d   1       3.234  -0.595  -3.724  0.00  0.00    -0.059 A 
ATOM     63  H   LIG d   1       2.434   1.239  -4.477  0.00  0.00     0.062 H 
ATOM     64  H   LIG d   1       2.771  -1.200  -4.491  0.00  0.00     0.062 H 
ENDBRANCH  51  54
ENDBRANCH  48  51
ENDBRANCH  42  48
ENDBRANCH   1  42
TORSDOF 9
ENDMDL
MODEL 9
REMARK VINA RESULT:      -6.3      2.589      7.344
REMARK  9 active torsions:
REMARK  status: ('A' for Active; 'I' for Inactive)
REMARK    1  A    between atoms: C_1  and  C_2 
REMARK    2  A    between atoms: C_2  and  C_4 
REMARK    3  A    between atoms: C_2  and  N_12 
REMARK    4  A    between atoms: C_4  and  C_5 
REMARK    5  A    between atoms: C_5  and  C_6 
REMARK    6  A    between atoms: C_15  and  C_22 
REMARK    7  A    between atoms: C_29  and  O_30 
REMARK    8  A    between atoms: O_30  and  C_31 
REMARK    9  A    between atoms: N_37  and  C_38 
ROOT
ATOM      1  N   LIG d   1       3.932  -1.322  -7.644  0.00  0.00    -0.258 N 
ATOM      2  C   LIG d   1       4.316  -0.825  -6.451  0.00  0.00     0.265 A 
ATOM      3  O   LIG d   1       4.406   0.380  -6.289  0.00  0.00    -0.267 OA
ATOM      4  C   LIG d   1       4.612  -1.704  -5.395  0.00  0.00     0.078 A 
ATOM      5  C   LIG d   1       4.504  -3.048  -5.602  0.00  0.00    -0.020 A 
ATOM      6  N   LIG d   1       4.109  -3.512  -6.832  0.00  0.00    -0.320 N 
ATOM      7  H   LIG d   1       4.030  -4.466  -6.984  0.00  0.00     0.169 HD
ATOM      8  C   LIG d   1       3.826  -2.651  -7.827  0.00  0.00     0.329 A 
ATOM      9  O   LIG d   1       3.474  -3.080  -8.908  0.00  0.00    -0.246 OA
ATOM     10  O   LIG d   1       4.782  -3.914  -4.605  0.00  0.00    -0.861 OA
ENDROOT
BRANCH   4  11
ATOM     11  C   LIG d   1       5.044  -1.171  -4.053  0.00  0.00     0.041 C 
ATOM     12  H   LIG d   1       5.217  -2.004  -3.374  0.00  0.00     0.096 H 
ATOM     13  N   LIG d   1       3.984  -0.316  -3.511  0.00  0.00     0.242 N 
ATOM     14  C   LIG d   1       4.464   0.310  -2.269  0.00  0.00    -0.027 C 
ATOM     15  H   LIG d   1       3.750   0.400  -4.182  0.00  0.00     0.204 HD
ATOM     16  C   LIG d   1       5.493   1.381  -2.630  0.00  0.00     0.013 C 
ATOM     17  H   LIG d   1       4.929  -0.446  -1.634  0.00  0.00     0.082 H 
ATOM     18  H   LIG d   1       3.627   0.768  -1.743  0.00  0.00     0.082 H 
ATOM     19  C   LIG d   1       6.536   0.798  -3.551  0.00  0.00    -0.026 A 
ATOM     20  H   LIG d   1       5.975   1.742  -1.720  0.00  0.00     0.036 H 
ATOM     21  H   LIG d   1       4.993   2.211  -3.128  0.00  0.00     0.036 H 
ATOM     22  C   LIG d   1       6.321  -0.390  -4.218  0.00  0.00     0.054 A 
ATOM     23  C   LIG d   1       7.727   1.486  -3.723  0.00  0.00    -0.012 A 
ATOM     24  C   LIG d   1       7.301  -0.892  -5.067  0.00  0.00     0.174 A 
ATOM     25  C   LIG d   1       8.495  -0.206  -5.244  0.00  0.00     0.208 A 
ATOM     26  C   LIG d   1       8.708   0.990  -4.566  0.00  0.00     0.170 A 
ATOM     27  O   LIG d   1       9.596  -0.479  -6.004  0.00  0.00    -0.449 OA
ATOM     28  O   LIG d   1       9.942   1.468  -4.900  0.00  0.00    -0.453 OA
ATOM     29  C   LIG d   1      10.314   0.765  -6.100  0.00  0.00     0.233 C 
ATOM     30  H   LIG d   1      11.389   0.586  -6.122  0.00  0.00     0.117 H 
ATOM     31  H   LIG d   1      10.000   1.322  -6.983  0.00  0.00     0.117 H 
ATOM     32  H   LIG d   1       7.891   2.414  -3.196  0.00  0.00     0.066 H 
BRANCH  13  33
ATOM     33  C   LIG d   1       2.795  -1.131  -3.222  0.00  0.00    -0.042 C 
ATOM     34  H   LIG d   1       2.068  -0.530  -2.675  0.00  0.00     0.078 H 
ATOM     35  H   LIG d   1       2.353  -1.472  -4.158  0.00  0.00     0.078 H 
ATOM     36  H   LIG d   1       3.083  -1.992  -2.621  0.00  0.00     0.078 H 
ENDBRANCH  13  33
BRANCH  24  37
ATOM     37  O   LIG d   1       7.090  -2.063  -5.726  0.00  0.00    -0.491 OA
BRANCH  37  38
ATOM     38  C   LIG d   1       8.029  -3.116  -5.496  0.00  0.00     0.079 C 
ATOM     39  H   LIG d   1       9.039  -2.750  -5.684  0.00  0.00     0.066 H 
ATOM     40  H   LIG d   1       7.951  -3.452  -4.461  0.00  0.00     0.066 H 
ATOM     41  H   LIG d   1       7.812  -3.948  -6.166  0.00  0.00     0.066 H 
ENDBRANCH  37  38
ENDBRANCH  24  37
ENDBRANCH   4  11
BRANCH   1  42
ATOM     42  C   LIG d   1       3.622  -0.409  -8.747  0.00  0.00     0.040 C 
ATOM     43  H   LIG d   1       3.978   0.591  -8.502  0.00  0.00     0.053 H 
BRANCH  42  44
ATOM     44  C   LIG d   1       2.109  -0.372  -8.969  0.00  0.00    -0.044 C 
ATOM     45  H   LIG d   1       1.802  -1.257  -9.526  0.00  0.00     0.025 H 
ATOM     46  H   LIG d   1       1.601  -0.355  -8.004  0.00  0.00     0.025 H 
ATOM     47  H   LIG d   1       1.847   0.522  -9.534  0.00  0.00     0.025 H 
ENDBRANCH  42  44
BRANCH  42  48
ATOM     48  C   LIG d   1       4.313  -0.898 -10.022  0.00  0.00    -0.028 C 
ATOM     49  H   LIG d   1       5.383  -1.000  -9.840  0.00  0.00     0.029 H 
ATOM     50  H   LIG d   1       3.900  -1.864 -10.312  0.00  0.00     0.029 H 
BRANCH  48  51
ATOM     51  C   LIG d   1       4.081   0.114 -11.147  0.00  0.00    -0.026 C 
ATOM     52  H   LIG d   1       3.300   0.814 -10.851  0.00  0.00     0.031 H 
ATOM     53  H   LIG d   1       5.006   0.660 -11.341  0.00  0.00     0.031 H 
BRANCH  51  54
ATOM     54  C   LIG d   1       3.657  -0.613 -12.397  0.00  0.00    -0.047 A 
ATOM     55  C   LIG d   1       2.517  -1.395 -12.387  0.00  0.00    -0.059 A 
ATOM     56  C   LIG d   1       2.125  -2.059 -13.535  0.00  0.00    -0.061 A 
ATOM     57  H   LIG d   1       1.931  -1.485 -11.485  0.00  0.00     0.062 H 
ATOM     58  C   LIG d   1       2.878  -1.949 -14.689  0.00  0.00    -0.062 A 
ATOM     59  H   LIG d   1       1.232  -2.667 -13.529  0.00  0.00     0.062 H 
ATOM     60  C   LIG d   1       4.020  -1.170 -14.697  0.00  0.00    -0.061 A 
ATOM     61  H   LIG d   1       2.573  -2.469 -15.584  0.00  0.00     0.062 H 
ATOM     62  C   LIG d   1       4.410  -0.503 -13.550  0.00  0.00    -0.059 A 
ATOM     63  H   LIG d   1       4.608  -1.084 -15.598  0.00  0.00     0.062 H 
ATOM     64  H   LIG d   1       5.303   0.104 -13.556  0.00  0.00     0.062 H 
ENDBRANCH  51  54
ENDBRANCH  48  51
ENDBRANCH  42  48
ENDBRANCH   1  42
TORSDOF 9
ENDMDL
