MODEL 1
REMARK VINA RESULT:      -6.2      0.000      0.000
REMARK  6 active torsions:
REMARK  status: ('A' for Active; 'I' for Inactive)
REMARK    1  A    between atoms: C_1  and  C_2 
REMARK    2  A    between atoms: C_2  and  C_3 
REMARK    3  A    between atoms: C_3  and  C_5 
REMARK    4  A    between atoms: C_3  and  C_7 
REMARK    5  A    between atoms: C_7  and  O_19 
REMARK    6  A    between atoms: C_10  and  C_13 
ROOT
ATOM      1  C   LIG d   1       3.732  -0.796  -3.963  0.00  0.00     0.074 C 
ATOM      2  C   LIG d   1       4.334  -1.747  -5.000  0.00  0.00    -0.023 C 
ATOM      3  C   LIG d   1       4.568  -0.991  -6.309  0.00  0.00    -0.044 C 
ATOM      4  C   LIG d   1       3.236  -0.446  -6.829  0.00  0.00    -0.016 C 
ATOM      5  C   LIG d   1       2.635   0.506  -5.792  0.00  0.00    -0.044 C 
ATOM      6  C   LIG d   1       2.400  -0.251  -4.482  0.00  0.00    -0.023 C 
ATOM      7  H   LIG d   1       3.647  -2.574  -5.175  0.00  0.00     0.029 H 
ATOM      8  H   LIG d   1       5.282  -2.135  -4.629  0.00  0.00     0.029 H 
ATOM      9  H   LIG d   1       4.997  -1.669  -7.048  0.00  0.00     0.027 H 
ATOM     10  H   LIG d   1       5.256  -0.164  -6.133  0.00  0.00     0.027 H 
ATOM     11  H   LIG d   1       2.549  -1.273  -7.006  0.00  0.00     0.035 H 
ATOM     12  H   LIG d   1       3.322   1.333  -5.616  0.00  0.00     0.027 H 
ATOM     13  H   LIG d   1       1.686   0.894  -6.162  0.00  0.00     0.027 H 
ATOM     14  H   LIG d   1       1.972   0.427  -3.744  0.00  0.00     0.029 H 
ATOM     15  H   LIG d   1       1.713  -1.077  -4.659  0.00  0.00     0.029 H 
ENDROOT
BRANCH   1  16
ATOM     16  C   LIG d   1       4.697   0.366  -3.716  0.00  0.00     0.027 C 
ATOM     17  H   LIG d   1       4.941   0.843  -4.664  0.00  0.00     0.039 H 
BRANCH  16  18
ATOM     18  C   LIG d   1       5.978  -0.164  -3.067  0.00  0.00    -0.045 C 
ATOM     19  H   LIG d   1       5.969   0.068  -2.003  0.00  0.00     0.027 H 
ATOM     20  H   LIG d   1       6.033  -1.245  -3.203  0.00  0.00     0.027 H 
BRANCH  18  21
ATOM     21  C   LIG d   1       7.192   0.496  -3.723  0.00  0.00    -0.065 C 
ATOM     22  H   LIG d   1       6.987   0.666  -4.781  0.00  0.00     0.023 H 
ATOM     23  H   LIG d   1       7.395   1.448  -3.235  0.00  0.00     0.023 H 
ATOM     24  H   LIG d   1       8.059  -0.157  -3.622  0.00  0.00     0.023 H 
ENDBRANCH  18  21
ENDBRANCH  16  18
BRANCH  16  25
ATOM     25  C   LIG d   1       4.049   1.371  -2.798  0.00  0.00     0.048 C 
ATOM     26  O   LIG d   1       3.918   1.120  -1.624  0.00  0.00    -0.549 OA
ATOM     27  O   LIG d   1       3.615   2.543  -3.288  0.00  0.00    -0.549 OA
ENDBRANCH  16  25
ENDBRANCH   1  16
BRANCH   1  28
ATOM     28  O   LIG d   1       3.512  -1.502  -2.740  0.00  0.00    -0.388 OA
ATOM     29  H   LIG d   1       2.611  -1.428  -2.400  0.00  0.00     0.210 HD
ENDBRANCH   1  28
BRANCH   4  30
ATOM     30  C   LIG d   1       3.468   0.299  -8.118  0.00  0.00    -0.044 A 
ATOM     31  C   LIG d   1       4.074  -0.340  -9.185  0.00  0.00    -0.058 A 
ATOM     32  C   LIG d   1       4.287   0.342 -10.369  0.00  0.00    -0.061 A 
ATOM     33  H   LIG d   1       4.382  -1.371  -9.093  0.00  0.00     0.062 H 
ATOM     34  C   LIG d   1       3.893   1.662 -10.485  0.00  0.00    -0.062 A 
ATOM     35  H   LIG d   1       4.762  -0.156 -11.201  0.00  0.00     0.062 H 
ATOM     36  C   LIG d   1       3.286   2.300  -9.420  0.00  0.00    -0.061 A 
ATOM     37  H   LIG d   1       4.060   2.195 -11.411  0.00  0.00     0.062 H 
ATOM     38  C   LIG d   1       3.070   1.617  -8.239  0.00  0.00    -0.058 A 
ATOM     39  H   LIG d   1       2.979   3.331  -9.512  0.00  0.00     0.062 H 
ATOM     40  H   LIG d   1       2.592   2.113  -7.407  0.00  0.00     0.062 H 
ENDBRANCH   4  30
TORSDOF 6
ENDMDL
MODEL 2
REMARK VINA RESULT:      -5.8      3.210      5.180
REMARK  6 active torsions:
REMARK  status: ('A' for Active; 'I' for Inactive)
REMARK    1  A    between atoms: C_1  and  C_2 
REMARK    2  A    between atoms: C_2  and  C_3 
REMARK    3  A    between atoms: C_3  and  C_5 
REMARK    4  A    between atoms: C_3  and  C_7 
REMARK    5  A    between atoms: C_7  and  O_19 
REMARK    6  A    between atoms: C_10  and  C_13 
ROOT
ATOM      1  C   LIG d   1       5.063  -0.966  -2.718  0.00  0.00     0.074 C 
ATOM      2  C   LIG d   1       5.138   0.470  -2.195  0.00  0.00    -0.023 C 
ATOM      3  C   LIG d   1       5.872   1.345  -3.213  0.00  0.00    -0.044 C 
ATOM      4  C   LIG d   1       7.288   0.805  -3.424  0.00  0.00    -0.016 C 
ATOM      5  C   LIG d   1       7.212  -0.631  -3.948  0.00  0.00    -0.044 C 
ATOM      6  C   LIG d   1       6.479  -1.507  -2.929  0.00  0.00    -0.023 C 
ATOM      7  H   LIG d   1       5.677   0.484  -1.249  0.00  0.00     0.029 H 
ATOM      8  H   LIG d   1       4.129   0.855  -2.045  0.00  0.00     0.029 H 
ATOM      9  H   LIG d   1       5.925   2.368  -2.841  0.00  0.00     0.027 H 
ATOM     10  H   LIG d   1       5.333   1.332  -4.161  0.00  0.00     0.027 H 
ATOM     11  H   LIG d   1       7.827   0.820  -2.477  0.00  0.00     0.035 H 
ATOM     12  H   LIG d   1       6.673  -0.645  -4.894  0.00  0.00     0.027 H 
ATOM     13  H   LIG d   1       8.221  -1.016  -4.097  0.00  0.00     0.027 H 
ATOM     14  H   LIG d   1       6.425  -2.530  -3.302  0.00  0.00     0.029 H 
ATOM     15  H   LIG d   1       7.018  -1.493  -1.983  0.00  0.00     0.029 H 
ENDROOT
BRANCH   1  16
ATOM     16  C   LIG d   1       4.306  -0.986  -4.048  0.00  0.00     0.027 C 
ATOM     17  H   LIG d   1       4.748  -0.258  -4.728  0.00  0.00     0.039 H 
BRANCH  16  18
ATOM     18  C   LIG d   1       2.838  -0.631  -3.804  0.00  0.00    -0.045 C 
ATOM     19  H   LIG d   1       2.222  -1.519  -3.940  0.00  0.00     0.027 H 
ATOM     20  H   LIG d   1       2.718  -0.258  -2.787  0.00  0.00     0.027 H 
BRANCH  18  21
ATOM     21  C   LIG d   1       2.403   0.449  -4.797  0.00  0.00    -0.065 C 
ATOM     22  H   LIG d   1       2.555   0.089  -5.816  0.00  0.00     0.023 H 
ATOM     23  H   LIG d   1       1.348   0.676  -4.646  0.00  0.00     0.023 H 
ATOM     24  H   LIG d   1       2.996   1.349  -4.638  0.00  0.00     0.023 H 
ENDBRANCH  18  21
ENDBRANCH  16  18
BRANCH  16  25
ATOM     25  C   LIG d   1       4.396  -2.362  -4.656  0.00  0.00     0.048 C 
ATOM     26  O   LIG d   1       4.687  -2.490  -5.821  0.00  0.00    -0.549 OA
ATOM     27  O   LIG d   1       4.150  -3.445  -3.902  0.00  0.00    -0.549 OA
ENDBRANCH  16  25
ENDBRANCH   1  16
BRANCH   1  28
ATOM     28  O   LIG d   1       4.378  -1.784  -1.768  0.00  0.00    -0.388 OA
ATOM     29  H   LIG d   1       4.964  -2.299  -1.198  0.00  0.00     0.210 HD
ENDBRANCH   1  28
BRANCH   4  30
ATOM     30  C   LIG d   1       8.009   1.668  -4.427  0.00  0.00    -0.044 A 
ATOM     31  C   LIG d   1       8.705   2.785  -4.003  0.00  0.00    -0.058 A 
ATOM     32  C   LIG d   1       9.368   3.577  -4.922  0.00  0.00    -0.061 A 
ATOM     33  H   LIG d   1       8.731   3.039  -2.953  0.00  0.00     0.062 H 
ATOM     34  C   LIG d   1       9.336   3.251  -6.264  0.00  0.00    -0.062 A 
ATOM     35  H   LIG d   1       9.911   4.450  -4.591  0.00  0.00     0.062 H 
ATOM     36  C   LIG d   1       8.641   2.134  -6.689  0.00  0.00    -0.061 A 
ATOM     37  H   LIG d   1       9.854   3.870  -6.983  0.00  0.00     0.062 H 
ATOM     38  C   LIG d   1       7.982   1.340  -5.770  0.00  0.00    -0.058 A 
ATOM     39  H   LIG d   1       8.616   1.879  -7.738  0.00  0.00     0.062 H 
ATOM     40  H   LIG d   1       7.443   0.465  -6.100  0.00  0.00     0.062 H 
ENDBRANCH   4  30
TORSDOF 6
ENDMDL
MODEL 3
REMARK VINA RESULT:      -5.7      3.184      6.036
REMARK  6 active torsions:
REMARK  status: ('A' for Active; 'I' for Inactive)
REMARK    1  A    between atoms: C_1  and  C_2 
REMARK    2  A    between atoms: C_2  and  C_3 
REMARK    3  A    between atoms: C_3  and  C_5 
REMARK    4  A    between atoms: C_3  and  C_7 
REMARK    5  A    between atoms: C_7  and  O_19 
REMARK    6  A    between atoms: C_10  and  C_13 
ROOT
ATOM      1  C   LIG d   1       3.882  -0.649  -8.778  0.00  0.00     0.074 C 
ATOM      2  C   LIG d   1       2.592  -0.359  -8.009  0.00  0.00    -0.023 C 
ATOM      3  C   LIG d   1       2.935   0.265  -6.655  0.00  0.00    -0.044 C 
ATOM      4  C   LIG d   1       3.803  -0.706  -5.850  0.00  0.00    -0.016 C 
ATOM      5  C   LIG d   1       5.093  -0.995  -6.621  0.00  0.00    -0.044 C 
ATOM      6  C   LIG d   1       4.749  -1.620  -7.975  0.00  0.00    -0.023 C 
ATOM      7  H   LIG d   1       2.046  -1.289  -7.853  0.00  0.00     0.029 H 
ATOM      8  H   LIG d   1       1.975   0.332  -8.582  0.00  0.00     0.029 H 
ATOM      9  H   LIG d   1       2.016   0.471  -6.106  0.00  0.00     0.027 H 
ATOM     10  H   LIG d   1       3.482   1.195  -6.811  0.00  0.00     0.027 H 
ATOM     11  H   LIG d   1       3.256  -1.636  -5.693  0.00  0.00     0.035 H 
ATOM     12  H   LIG d   1       5.639  -0.066  -6.777  0.00  0.00     0.027 H 
ATOM     13  H   LIG d   1       5.710  -1.688  -6.048  0.00  0.00     0.027 H 
ATOM     14  H   LIG d   1       5.668  -1.826  -8.523  0.00  0.00     0.029 H 
ATOM     15  H   LIG d   1       4.203  -2.550  -7.818  0.00  0.00     0.029 H 
ENDROOT
BRANCH   1  16
ATOM     16  C   LIG d   1       4.650   0.657  -8.998  0.00  0.00     0.027 C 
ATOM     17  H   LIG d   1       4.914   1.089  -8.034  0.00  0.00     0.039 H 
BRANCH  16  18
ATOM     18  C   LIG d   1       3.770   1.641  -9.774  0.00  0.00    -0.045 C 
ATOM     19  H   LIG d   1       4.055   1.632 -10.825  0.00  0.00     0.027 H 
ATOM     20  H   LIG d   1       2.724   1.346  -9.679  0.00  0.00     0.027 H 
BRANCH  18  21
ATOM     21  C   LIG d   1       3.957   3.049  -9.205  0.00  0.00    -0.065 C 
ATOM     22  H   LIG d   1       2.981   3.490  -8.999  0.00  0.00     0.023 H 
ATOM     23  H   LIG d   1       4.533   2.994  -8.283  0.00  0.00     0.023 H 
ATOM     24  H   LIG d   1       4.488   3.665  -9.930  0.00  0.00     0.023 H 
ENDBRANCH  18  21
ENDBRANCH  16  18
BRANCH  16  25
ATOM     25  C   LIG d   1       5.903   0.376  -9.786  0.00  0.00     0.048 C 
ATOM     26  O   LIG d   1       5.826   0.006 -10.933  0.00  0.00    -0.549 OA
ATOM     27  O   LIG d   1       7.106   0.537  -9.211  0.00  0.00    -0.549 OA
ENDBRANCH  16  25
ENDBRANCH   1  16
BRANCH   1  28
ATOM     28  O   LIG d   1       3.562  -1.232 -10.043  0.00  0.00    -0.388 OA
ATOM     29  H   LIG d   1       4.262  -1.790 -10.407  0.00  0.00     0.210 HD
ENDBRANCH   1  28
BRANCH   4  30
ATOM     30  C   LIG d   1       4.140  -0.091  -4.517  0.00  0.00    -0.044 A 
ATOM     31  C   LIG d   1       5.450  -0.078  -4.075  0.00  0.00    -0.058 A 
ATOM     32  C   LIG d   1       5.761   0.487  -2.851  0.00  0.00    -0.061 A 
ATOM     33  H   LIG d   1       6.231  -0.510  -4.684  0.00  0.00     0.062 H 
ATOM     34  C   LIG d   1       4.762   1.040  -2.073  0.00  0.00    -0.062 A 
ATOM     35  H   LIG d   1       6.784   0.496  -2.505  0.00  0.00     0.062 H 
ATOM     36  C   LIG d   1       3.453   1.028  -2.515  0.00  0.00    -0.061 A 
ATOM     37  H   LIG d   1       5.005   1.481  -1.117  0.00  0.00     0.062 H 
ATOM     38  C   LIG d   1       3.143   0.466  -3.739  0.00  0.00    -0.058 A 
ATOM     39  H   LIG d   1       2.672   1.459  -1.906  0.00  0.00     0.062 H 
ATOM     40  H   LIG d   1       2.121   0.461  -4.088  0.00  0.00     0.062 H 
ENDBRANCH   4  30
TORSDOF 6
ENDMDL
MODEL 4
REMARK VINA RESULT:      -5.7      2.939      4.965
REMARK  6 active torsions:
REMARK  status: ('A' for Active; 'I' for Inactive)
REMARK    1  A    between atoms: C_1  and  C_2 
REMARK    2  A    between atoms: C_2  and  C_3 
REMARK    3  A    between atoms: C_3  and  C_5 
REMARK    4  A    between atoms: C_3  and  C_7 
REMARK    5  A    between atoms: C_7  and  O_19 
REMARK    6  A    between atoms: C_10  and  C_13 
ROOT
ATOM      1  C   LIG d   1       4.682  -1.391  -4.405  0.00  0.00     0.074 C 
ATOM      2  C   LIG d   1       5.779  -1.925  -3.481  0.00  0.00    -0.023 C 
ATOM      3  C   LIG d   1       6.908  -0.898  -3.385  0.00  0.00    -0.044 C 
ATOM      4  C   LIG d   1       7.491  -0.647  -4.777  0.00  0.00    -0.016 C 
ATOM      5  C   LIG d   1       6.394  -0.113  -5.700  0.00  0.00    -0.044 C 
ATOM      6  C   LIG d   1       5.264  -1.141  -5.797  0.00  0.00    -0.023 C 
ATOM      7  H   LIG d   1       6.170  -2.859  -3.884  0.00  0.00     0.029 H 
ATOM      8  H   LIG d   1       5.363  -2.104  -2.490  0.00  0.00     0.029 H 
ATOM      9  H   LIG d   1       7.690  -1.278  -2.727  0.00  0.00     0.027 H 
ATOM     10  H   LIG d   1       6.517   0.036  -2.981  0.00  0.00     0.027 H 
ATOM     11  H   LIG d   1       7.883  -1.581  -5.180  0.00  0.00     0.035 H 
ATOM     12  H   LIG d   1       6.002   0.820  -5.297  0.00  0.00     0.027 H 
ATOM     13  H   LIG d   1       6.809   0.064  -6.693  0.00  0.00     0.027 H 
ATOM     14  H   LIG d   1       4.483  -0.760  -6.455  0.00  0.00     0.029 H 
ATOM     15  H   LIG d   1       5.656  -2.074  -6.201  0.00  0.00     0.029 H 
ENDROOT
BRANCH   1  16
ATOM     16  C   LIG d   1       4.132  -0.080  -3.839  0.00  0.00     0.027 C 
ATOM     17  H   LIG d   1       4.853   0.719  -4.009  0.00  0.00     0.039 H 
BRANCH  16  18
ATOM     18  C   LIG d   1       3.888  -0.236  -2.336  0.00  0.00    -0.045 C 
ATOM     19  H   LIG d   1       2.818  -0.309  -2.148  0.00  0.00     0.027 H 
ATOM     20  H   LIG d   1       4.382  -1.140  -1.980  0.00  0.00     0.027 H 
BRANCH  18  21
ATOM     21  C   LIG d   1       4.455   0.980  -1.599  0.00  0.00    -0.065 C 
ATOM     22  H   LIG d   1       5.529   0.853  -1.461  0.00  0.00     0.023 H 
ATOM     23  H   LIG d   1       4.267   1.879  -2.185  0.00  0.00     0.023 H 
ATOM     24  H   LIG d   1       3.972   1.072  -0.626  0.00  0.00     0.023 H 
ENDBRANCH  18  21
ENDBRANCH  16  18
BRANCH  16  25
ATOM     25  C   LIG d   1       2.834   0.258  -4.526  0.00  0.00     0.048 C 
ATOM     26  O   LIG d   1       1.819  -0.320  -4.218  0.00  0.00    -0.549 OA
ATOM     27  O   LIG d   1       2.807   1.201  -5.481  0.00  0.00    -0.549 OA
ENDBRANCH  16  25
ENDBRANCH   1  16
BRANCH   1  28
ATOM     28  O   LIG d   1       3.626  -2.351  -4.496  0.00  0.00    -0.388 OA
ATOM     29  H   LIG d   1       3.913  -3.223  -4.798  0.00  0.00     0.210 HD
ENDBRANCH   1  28
BRANCH   4  30
ATOM     30  C   LIG d   1       8.603   0.364  -4.681  0.00  0.00    -0.044 A 
ATOM     31  C   LIG d   1       9.800   0.139  -5.336  0.00  0.00    -0.058 A 
ATOM     32  C   LIG d   1      10.821   1.068  -5.249  0.00  0.00    -0.061 A 
ATOM     33  H   LIG d   1       9.938  -0.761  -5.916  0.00  0.00     0.062 H 
ATOM     34  C   LIG d   1      10.644   2.221  -4.507  0.00  0.00    -0.062 A 
ATOM     35  H   LIG d   1      11.757   0.892  -5.760  0.00  0.00     0.062 H 
ATOM     36  C   LIG d   1       9.448   2.446  -3.853  0.00  0.00    -0.061 A 
ATOM     37  H   LIG d   1      11.442   2.946  -4.438  0.00  0.00     0.062 H 
ATOM     38  C   LIG d   1       8.426   1.520  -3.944  0.00  0.00    -0.058 A 
ATOM     39  H   LIG d   1       9.310   3.347  -3.273  0.00  0.00     0.062 H 
ATOM     40  H   LIG d   1       7.490   1.697  -3.436  0.00  0.00     0.062 H 
ENDBRANCH   4  30
TORSDOF 6
ENDMDL
MODEL 5
REMARK VINA RESULT:      -5.2      3.460      6.287
REMARK  6 active torsions:
REMARK  status: ('A' for Active; 'I' for Inactive)
REMARK    1  A    between atoms: C_1  and  C_2 
REMARK    2  A    between atoms: C_2  and  C_3 
REMARK    3  A    between atoms: C_3  and  C_5 
REMARK    4  A    between atoms: C_3  and  C_7 
REMARK    5  A    between atoms: C_7  and  O_19 
REMARK    6  A    between atoms: C_10  and  C_13 
ROOT
ATOM      1  C   LIG d   1       4.058   0.388  -9.182  0.00  0.00     0.074 C 
ATOM      2  C   LIG d   1       5.378   0.326  -8.409  0.00  0.00    -0.023 C 
ATOM      3  C   LIG d   1       5.173  -0.460  -7.113  0.00  0.00    -0.044 C 
ATOM      4  C   LIG d   1       4.112   0.236  -6.256  0.00  0.00    -0.016 C 
ATOM      5  C   LIG d   1       2.793   0.297  -7.029  0.00  0.00    -0.044 C 
ATOM      6  C   LIG d   1       2.998   1.084  -8.326  0.00  0.00    -0.023 C 
ATOM      7  H   LIG d   1       5.708   1.337  -8.173  0.00  0.00     0.029 H 
ATOM      8  H   LIG d   1       6.133  -0.169  -9.019  0.00  0.00     0.029 H 
ATOM      9  H   LIG d   1       6.113  -0.504  -6.563  0.00  0.00     0.027 H 
ATOM     10  H   LIG d   1       4.842  -1.472  -7.349  0.00  0.00     0.027 H 
ATOM     11  H   LIG d   1       4.443   1.247  -6.020  0.00  0.00     0.035 H 
ATOM     12  H   LIG d   1       2.463  -0.714  -7.265  0.00  0.00     0.027 H 
ATOM     13  H   LIG d   1       2.038   0.794  -6.419  0.00  0.00     0.027 H 
ATOM     14  H   LIG d   1       2.058   1.127  -8.876  0.00  0.00     0.029 H 
ATOM     15  H   LIG d   1       3.328   2.095  -8.089  0.00  0.00     0.029 H 
ENDROOT
BRANCH   1  16
ATOM     16  C   LIG d   1       3.594  -1.032  -9.514  0.00  0.00     0.027 C 
ATOM     17  H   LIG d   1       3.396  -1.575  -8.590  0.00  0.00     0.039 H 
BRANCH  16  18
ATOM     18  C   LIG d   1       4.687  -1.754 -10.304  0.00  0.00    -0.045 C 
ATOM     19  H   LIG d   1       4.657  -1.431 -11.344  0.00  0.00     0.027 H 
ATOM     20  H   LIG d   1       5.662  -1.515  -9.879  0.00  0.00     0.027 H 
BRANCH  18  21
ATOM     21  C   LIG d   1       4.455  -3.265 -10.232  0.00  0.00    -0.065 C 
ATOM     22  H   LIG d   1       3.584  -3.469  -9.609  0.00  0.00     0.023 H 
ATOM     23  H   LIG d   1       4.284  -3.653 -11.236  0.00  0.00     0.023 H 
ATOM     24  H   LIG d   1       5.333  -3.746  -9.801  0.00  0.00     0.023 H 
ENDBRANCH  18  21
ENDBRANCH  16  18
BRANCH  16  25
ATOM     25  C   LIG d   1       2.335  -0.968 -10.340  0.00  0.00     0.048 C 
ATOM     26  O   LIG d   1       1.293  -1.376  -9.886  0.00  0.00    -0.549 OA
ATOM     27  O   LIG d   1       2.374  -0.460 -11.582  0.00  0.00    -0.549 OA
ENDBRANCH  16  25
ENDBRANCH   1  16
BRANCH   1  28
ATOM     28  O   LIG d   1       4.249   1.122 -10.393  0.00  0.00    -0.388 OA
ATOM     29  H   LIG d   1       3.790   1.972 -10.414  0.00  0.00     0.210 HD
ENDBRANCH   1  28
BRANCH   4  30
ATOM     30  C   LIG d   1       3.911  -0.539  -4.980  0.00  0.00    -0.044 A 
ATOM     31  C   LIG d   1       4.664  -1.672  -4.734  0.00  0.00    -0.058 A 
ATOM     32  C   LIG d   1       4.481  -2.383  -3.562  0.00  0.00    -0.061 A 
ATOM     33  H   LIG d   1       5.396  -2.002  -5.457  0.00  0.00     0.062 H 
ATOM     34  C   LIG d   1       3.545  -1.960  -2.637  0.00  0.00    -0.062 A 
ATOM     35  H   LIG d   1       5.068  -3.270  -3.371  0.00  0.00     0.062 H 
ATOM     36  C   LIG d   1       2.793  -0.827  -2.882  0.00  0.00    -0.061 A 
ATOM     37  H   LIG d   1       3.401  -2.516  -1.722  0.00  0.00     0.062 H 
ATOM     38  C   LIG d   1       2.979  -0.114  -4.051  0.00  0.00    -0.058 A 
ATOM     39  H   LIG d   1       2.061  -0.497  -2.159  0.00  0.00     0.062 H 
ATOM     40  H   LIG d   1       2.395   0.774  -4.242  0.00  0.00     0.062 H 
ENDBRANCH   4  30
TORSDOF 6
ENDMDL
MODEL 6
REMARK VINA RESULT:      -5.1      4.072      6.319
REMARK  6 active torsions:
REMARK  status: ('A' for Active; 'I' for Inactive)
REMARK    1  A    between atoms: C_1  and  C_2 
REMARK    2  A    between atoms: C_2  and  C_3 
REMARK    3  A    between atoms: C_3  and  C_5 
REMARK    4  A    between atoms: C_3  and  C_7 
REMARK    5  A    between atoms: C_7  and  O_19 
REMARK    6  A    between atoms: C_10  and  C_13 
ROOT
ATOM      1  C   LIG d   1       7.221  -3.975  -5.465  0.00  0.00     0.074 C 
ATOM      2  C   LIG d   1       5.739  -4.263  -5.218  0.00  0.00    -0.023 C 
ATOM      3  C   LIG d   1       5.032  -2.973  -4.796  0.00  0.00    -0.044 C 
ATOM      4  C   LIG d   1       5.670  -2.438  -3.512  0.00  0.00    -0.016 C 
ATOM      5  C   LIG d   1       7.152  -2.150  -3.761  0.00  0.00    -0.044 C 
ATOM      6  C   LIG d   1       7.859  -3.440  -4.182  0.00  0.00    -0.023 C 
ATOM      7  H   LIG d   1       5.641  -5.006  -4.427  0.00  0.00     0.029 H 
ATOM      8  H   LIG d   1       5.285  -4.644  -6.132  0.00  0.00     0.029 H 
ATOM      9  H   LIG d   1       3.976  -3.178  -4.620  0.00  0.00     0.027 H 
ATOM     10  H   LIG d   1       5.130  -2.230  -5.588  0.00  0.00     0.027 H 
ATOM     11  H   LIG d   1       5.571  -3.181  -2.721  0.00  0.00     0.035 H 
ATOM     12  H   LIG d   1       7.250  -1.407  -4.551  0.00  0.00     0.027 H 
ATOM     13  H   LIG d   1       7.606  -1.769  -2.846  0.00  0.00     0.027 H 
ATOM     14  H   LIG d   1       8.914  -3.235  -4.359  0.00  0.00     0.029 H 
ATOM     15  H   LIG d   1       7.760  -4.183  -3.390  0.00  0.00     0.029 H 
ENDROOT
BRANCH   1  16
ATOM     16  C   LIG d   1       7.359  -2.931  -6.576  0.00  0.00     0.027 C 
ATOM     17  H   LIG d   1       6.887  -2.001  -6.261  0.00  0.00     0.039 H 
BRANCH  16  18
ATOM     18  C   LIG d   1       6.676  -3.445  -7.846  0.00  0.00    -0.045 C 
ATOM     19  H   LIG d   1       7.432  -3.785  -8.553  0.00  0.00     0.027 H 
ATOM     20  H   LIG d   1       6.016  -4.275  -7.593  0.00  0.00     0.027 H 
BRANCH  18  21
ATOM     21  C   LIG d   1       5.859  -2.316  -8.478  0.00  0.00    -0.065 C 
ATOM     22  H   LIG d   1       4.815  -2.410  -8.175  0.00  0.00     0.023 H 
ATOM     23  H   LIG d   1       6.249  -1.355  -8.143  0.00  0.00     0.023 H 
ATOM     24  H   LIG d   1       5.929  -2.380  -9.563  0.00  0.00     0.023 H 
ENDBRANCH  18  21
ENDBRANCH  16  18
BRANCH  16  25
ATOM     25  C   LIG d   1       8.820  -2.685  -6.856  0.00  0.00     0.048 C 
ATOM     26  O   LIG d   1       9.499  -3.563  -7.330  0.00  0.00    -0.549 OA
ATOM     27  O   LIG d   1       9.364  -1.491  -6.575  0.00  0.00    -0.549 OA
ENDBRANCH  16  25
ENDBRANCH   1  16
BRANCH   1  28
ATOM     28  O   LIG d   1       7.881  -5.180  -5.859  0.00  0.00    -0.388 OA
ATOM     29  H   LIG d   1       8.838  -5.088  -5.960  0.00  0.00     0.210 HD
ENDBRANCH   1  28
BRANCH   4  30
ATOM     30  C   LIG d   1       4.974  -1.168  -3.098  0.00  0.00    -0.044 A 
ATOM     31  C   LIG d   1       5.715  -0.043  -2.790  0.00  0.00    -0.058 A 
ATOM     32  C   LIG d   1       5.077   1.124  -2.410  0.00  0.00    -0.061 A 
ATOM     33  H   LIG d   1       6.794  -0.074  -2.845  0.00  0.00     0.062 H 
ATOM     34  C   LIG d   1       3.698   1.164  -2.340  0.00  0.00    -0.062 A 
ATOM     35  H   LIG d   1       5.657   2.003  -2.168  0.00  0.00     0.062 H 
ATOM     36  C   LIG d   1       2.955   0.040  -2.649  0.00  0.00    -0.061 A 
ATOM     37  H   LIG d   1       3.199   2.076  -2.043  0.00  0.00     0.062 H 
ATOM     38  C   LIG d   1       3.593  -1.124  -3.032  0.00  0.00    -0.058 A 
ATOM     39  H   LIG d   1       1.877   0.072  -2.593  0.00  0.00     0.062 H 
ATOM     40  H   LIG d   1       3.015  -2.002  -3.278  0.00  0.00     0.062 H 
ENDBRANCH   4  30
TORSDOF 6
ENDMDL
MODEL 7
REMARK VINA RESULT:      -4.9      8.092      9.179
REMARK  6 active torsions:
REMARK  status: ('A' for Active; 'I' for Inactive)
REMARK    1  A    between atoms: C_1  and  C_2 
REMARK    2  A    between atoms: C_2  and  C_3 
REMARK    3  A    between atoms: C_3  and  C_5 
REMARK    4  A    between atoms: C_3  and  C_7 
REMARK    5  A    between atoms: C_7  and  O_19 
REMARK    6  A    between atoms: C_10  and  C_13 
ROOT
ATOM      1  C   LIG d   1      11.143   5.205  -2.334  0.00  0.00     0.074 C 
ATOM      2  C   LIG d   1      12.143   5.058  -3.483  0.00  0.00    -0.023 C 
ATOM      3  C   LIG d   1      11.714   5.952  -4.648  0.00  0.00    -0.044 C 
ATOM      4  C   LIG d   1      10.322   5.534  -5.127  0.00  0.00    -0.016 C 
ATOM      5  C   LIG d   1       9.323   5.681  -3.977  0.00  0.00    -0.044 C 
ATOM      6  C   LIG d   1       9.751   4.786  -2.812  0.00  0.00    -0.023 C 
ATOM      7  H   LIG d   1      12.169   4.020  -3.811  0.00  0.00     0.029 H 
ATOM      8  H   LIG d   1      13.134   5.356  -3.142  0.00  0.00     0.029 H 
ATOM      9  H   LIG d   1      12.426   5.848  -5.467  0.00  0.00     0.027 H 
ATOM     10  H   LIG d   1      11.688   6.991  -4.319  0.00  0.00     0.027 H 
ATOM     11  H   LIG d   1      10.349   4.496  -5.456  0.00  0.00     0.035 H 
ATOM     12  H   LIG d   1       9.297   6.719  -3.648  0.00  0.00     0.027 H 
ATOM     13  H   LIG d   1       8.331   5.382  -4.318  0.00  0.00     0.027 H 
ATOM     14  H   LIG d   1       9.039   4.891  -1.993  0.00  0.00     0.029 H 
ATOM     15  H   LIG d   1       9.777   3.748  -3.141  0.00  0.00     0.029 H 
ENDROOT
BRANCH   1  16
ATOM     16  C   LIG d   1      11.106   6.663  -1.872  0.00  0.00     0.027 C 
ATOM     17  H   LIG d   1      10.773   7.296  -2.693  0.00  0.00     0.039 H 
BRANCH  16  18
ATOM     18  C   LIG d   1      12.508   7.094  -1.433  0.00  0.00    -0.045 C 
ATOM     19  H   LIG d   1      12.636   6.889  -0.371  0.00  0.00     0.027 H 
ATOM     20  H   LIG d   1      13.254   6.539  -2.002  0.00  0.00     0.027 H 
BRANCH  18  21
ATOM     21  C   LIG d   1      12.684   8.593  -1.688  0.00  0.00    -0.065 C 
ATOM     22  H   LIG d   1      12.105   9.156  -0.955  0.00  0.00     0.023 H 
ATOM     23  H   LIG d   1      13.737   8.854  -1.598  0.00  0.00     0.023 H 
ATOM     24  H   LIG d   1      12.333   8.834  -2.691  0.00  0.00     0.023 H 
ENDBRANCH  18  21
ENDBRANCH  16  18
BRANCH  16  25
ATOM     25  C   LIG d   1      10.154   6.799  -0.712  0.00  0.00     0.048 C 
ATOM     26  O   LIG d   1      10.400   6.256   0.338  0.00  0.00    -0.549 OA
ATOM     27  O   LIG d   1       9.031   7.522  -0.848  0.00  0.00    -0.549 OA
ENDBRANCH  16  25
ENDBRANCH   1  16
BRANCH   1  28
ATOM     28  O   LIG d   1      11.543   4.370  -1.245  0.00  0.00    -0.388 OA
ATOM     29  H   LIG d   1      12.215   3.716  -1.478  0.00  0.00     0.210 HD
ENDBRANCH   1  28
BRANCH   4  30
ATOM     30  C   LIG d   1       9.901   6.415  -6.274  0.00  0.00    -0.044 A 
ATOM     31  C   LIG d   1       9.877   5.909  -7.561  0.00  0.00    -0.058 A 
ATOM     32  C   LIG d   1       9.490   6.716  -8.614  0.00  0.00    -0.061 A 
ATOM     33  H   LIG d   1      10.161   4.882  -7.743  0.00  0.00     0.062 H 
ATOM     34  C   LIG d   1       9.126   8.029  -8.381  0.00  0.00    -0.062 A 
ATOM     35  H   LIG d   1       9.473   6.321  -9.620  0.00  0.00     0.062 H 
ATOM     36  C   LIG d   1       9.149   8.535  -7.095  0.00  0.00    -0.061 A 
ATOM     37  H   LIG d   1       8.824   8.660  -9.204  0.00  0.00     0.062 H 
ATOM     38  C   LIG d   1       9.532   7.727  -6.041  0.00  0.00    -0.058 A 
ATOM     39  H   LIG d   1       8.865   9.561  -6.912  0.00  0.00     0.062 H 
ATOM     40  H   LIG d   1       9.546   8.120  -5.036  0.00  0.00     0.062 H 
ENDBRANCH   4  30
TORSDOF 6
ENDMDL
MODEL 8
REMARK VINA RESULT:      -4.9      8.378      9.700
REMARK  6 active torsions:
REMARK  status: ('A' for Active; 'I' for Inactive)
REMARK    1  A    between atoms: C_1  and  C_2 
REMARK    2  A    between atoms: C_2  and  C_3 
REMARK    3  A    between atoms: C_3  and  C_5 
REMARK    4  A    between atoms: C_3  and  C_7 
REMARK    5  A    between atoms: C_7  and  O_19 
REMARK    6  A    between atoms: C_10  and  C_13 
ROOT
ATOM      1  C   LIG d   1      10.587   5.987  -1.225  0.00  0.00     0.074 C 
ATOM      2  C   LIG d   1      10.285   4.778  -2.114  0.00  0.00    -0.023 C 
ATOM      3  C   LIG d   1      10.388   5.189  -3.584  0.00  0.00    -0.044 C 
ATOM      4  C   LIG d   1       9.378   6.302  -3.875  0.00  0.00    -0.016 C 
ATOM      5  C   LIG d   1       9.681   7.509  -2.985  0.00  0.00    -0.044 C 
ATOM      6  C   LIG d   1       9.577   7.098  -1.515  0.00  0.00    -0.023 C 
ATOM      7  H   LIG d   1       9.279   4.417  -1.906  0.00  0.00     0.029 H 
ATOM      8  H   LIG d   1      11.005   3.986  -1.907  0.00  0.00     0.029 H 
ATOM      9  H   LIG d   1      10.173   4.328  -4.217  0.00  0.00     0.027 H 
ATOM     10  H   LIG d   1      11.395   5.550  -3.792  0.00  0.00     0.027 H 
ATOM     11  H   LIG d   1       8.371   5.940  -3.668  0.00  0.00     0.035 H 
ATOM     12  H   LIG d   1      10.687   7.870  -3.193  0.00  0.00     0.027 H 
ATOM     13  H   LIG d   1       8.960   8.302  -3.192  0.00  0.00     0.027 H 
ATOM     14  H   LIG d   1       9.793   7.959  -0.882  0.00  0.00     0.029 H 
ATOM     15  H   LIG d   1       8.570   6.738  -1.308  0.00  0.00     0.029 H 
ENDROOT
BRANCH   1  16
ATOM     16  C   LIG d   1      12.002   6.493  -1.516  0.00  0.00     0.027 C 
ATOM     17  H   LIG d   1      12.062   6.828  -2.551  0.00  0.00     0.039 H 
BRANCH  16  18
ATOM     18  C   LIG d   1      13.006   5.361  -1.287  0.00  0.00    -0.045 C 
ATOM     19  H   LIG d   1      13.523   5.520  -0.341  0.00  0.00     0.027 H 
ATOM     20  H   LIG d   1      12.478   4.408  -1.257  0.00  0.00     0.027 H 
BRANCH  18  21
ATOM     21  C   LIG d   1      14.024   5.345  -2.429  0.00  0.00    -0.065 C 
ATOM     22  H   LIG d   1      14.273   6.369  -2.709  0.00  0.00     0.023 H 
ATOM     23  H   LIG d   1      14.926   4.828  -2.103  0.00  0.00     0.023 H 
ATOM     24  H   LIG d   1      13.598   4.827  -3.288  0.00  0.00     0.023 H 
ENDBRANCH  18  21
ENDBRANCH  16  18
BRANCH  16  25
ATOM     25  C   LIG d   1      12.323   7.643  -0.595  0.00  0.00     0.048 C 
ATOM     26  O   LIG d   1      12.459   7.448   0.589  0.00  0.00    -0.549 OA
ATOM     27  O   LIG d   1      12.455   8.883  -1.092  0.00  0.00    -0.549 OA
ENDBRANCH  16  25
ENDBRANCH   1  16
BRANCH   1  28
ATOM     28  O   LIG d   1      10.491   5.603   0.149  0.00  0.00    -0.388 OA
ATOM     29  H   LIG d   1      10.032   4.766   0.292  0.00  0.00     0.210 HD
ENDBRANCH   1  28
BRANCH   4  30
ATOM     30  C   LIG d   1       9.479   6.705  -5.322  0.00  0.00    -0.044 A 
ATOM     31  C   LIG d   1       9.211   8.009  -5.696  0.00  0.00    -0.058 A 
ATOM     32  C   LIG d   1       9.305   8.381  -7.025  0.00  0.00    -0.061 A 
ATOM     33  H   LIG d   1       8.928   8.738  -4.951  0.00  0.00     0.062 H 
ATOM     34  C   LIG d   1       9.668   7.449  -7.978  0.00  0.00    -0.062 A 
ATOM     35  H   LIG d   1       9.094   9.399  -7.317  0.00  0.00     0.062 H 
ATOM     36  C   LIG d   1       9.936   6.145  -7.605  0.00  0.00    -0.061 A 
ATOM     37  H   LIG d   1       9.740   7.739  -9.017  0.00  0.00     0.062 H 
ATOM     38  C   LIG d   1       9.847   5.775  -6.277  0.00  0.00    -0.058 A 
ATOM     39  H   LIG d   1      10.219   5.417  -8.351  0.00  0.00     0.062 H 
ATOM     40  H   LIG d   1      10.061   4.758  -5.984  0.00  0.00     0.062 H 
ENDBRANCH   4  30
TORSDOF 6
ENDMDL
MODEL 9
REMARK VINA RESULT:      -4.9      3.030      5.556
REMARK  6 active torsions:
REMARK  status: ('A' for Active; 'I' for Inactive)
REMARK    1  A    between atoms: C_1  and  C_2 
REMARK    2  A    between atoms: C_2  and  C_3 
REMARK    3  A    between atoms: C_3  and  C_5 
REMARK    4  A    between atoms: C_3  and  C_7 
REMARK    5  A    between atoms: C_7  and  O_19 
REMARK    6  A    between atoms: C_10  and  C_13 
ROOT
ATOM      1  C   LIG d   1       5.275  -0.433  -4.594  0.00  0.00     0.074 C 
ATOM      2  C   LIG d   1       6.447  -0.811  -5.501  0.00  0.00    -0.023 C 
ATOM      3  C   LIG d   1       6.277  -2.254  -5.980  0.00  0.00    -0.044 C 
ATOM      4  C   LIG d   1       6.243  -3.192  -4.771  0.00  0.00    -0.016 C 
ATOM      5  C   LIG d   1       5.070  -2.813  -3.864  0.00  0.00    -0.044 C 
ATOM      6  C   LIG d   1       5.241  -1.370  -3.385  0.00  0.00    -0.023 C 
ATOM      7  H   LIG d   1       7.380  -0.720  -4.946  0.00  0.00     0.029 H 
ATOM      8  H   LIG d   1       6.471  -0.143  -6.362  0.00  0.00     0.029 H 
ATOM      9  H   LIG d   1       7.112  -2.523  -6.626  0.00  0.00     0.027 H 
ATOM     10  H   LIG d   1       5.343  -2.345  -6.536  0.00  0.00     0.027 H 
ATOM     11  H   LIG d   1       7.177  -3.102  -4.216  0.00  0.00     0.035 H 
ATOM     12  H   LIG d   1       4.137  -2.904  -4.420  0.00  0.00     0.027 H 
ATOM     13  H   LIG d   1       5.047  -3.481  -3.003  0.00  0.00     0.027 H 
ATOM     14  H   LIG d   1       4.405  -1.101  -2.740  0.00  0.00     0.029 H 
ATOM     15  H   LIG d   1       6.174  -1.280  -2.829  0.00  0.00     0.029 H 
ENDROOT
BRANCH   1  16
ATOM     16  C   LIG d   1       3.964  -0.560  -5.374  0.00  0.00     0.027 C 
ATOM     17  H   LIG d   1       3.696  -1.612  -5.464  0.00  0.00     0.039 H 
BRANCH  16  18
ATOM     18  C   LIG d   1       4.141   0.042  -6.770  0.00  0.00    -0.045 C 
ATOM     19  H   LIG d   1       3.886   1.101  -6.744  0.00  0.00     0.027 H 
ATOM     20  H   LIG d   1       5.178  -0.074  -7.087  0.00  0.00     0.027 H 
BRANCH  18  21
ATOM     21  C   LIG d   1       3.223  -0.681  -7.757  0.00  0.00    -0.065 C 
ATOM     22  H   LIG d   1       3.181  -1.741  -7.506  0.00  0.00     0.023 H 
ATOM     23  H   LIG d   1       2.222  -0.254  -7.699  0.00  0.00     0.023 H 
ATOM     24  H   LIG d   1       3.611  -0.562  -8.769  0.00  0.00     0.023 H 
ENDBRANCH  18  21
ENDBRANCH  16  18
BRANCH  16  25
ATOM     25  C   LIG d   1       2.871   0.178  -4.644  0.00  0.00     0.048 C 
ATOM     26  O   LIG d   1       2.683   1.351  -4.865  0.00  0.00    -0.549 OA
ATOM     27  O   LIG d   1       2.109  -0.468  -3.748  0.00  0.00    -0.549 OA
ENDBRANCH  16  25
ENDBRANCH   1  16
BRANCH   1  28
ATOM     28  O   LIG d   1       5.434   0.915  -4.146  0.00  0.00    -0.388 OA
ATOM     29  H   LIG d   1       4.910   1.134  -3.364  0.00  0.00     0.210 HD
ENDBRANCH   1  28
BRANCH   4  30
ATOM     30  C   LIG d   1       6.075  -4.613  -5.243  0.00  0.00    -0.044 A 
ATOM     31  C   LIG d   1       4.811  -5.110  -5.501  0.00  0.00    -0.058 A 
ATOM     32  C   LIG d   1       4.655  -6.414  -5.935  0.00  0.00    -0.061 A 
ATOM     33  H   LIG d   1       3.944  -4.480  -5.363  0.00  0.00     0.062 H 
ATOM     34  C   LIG d   1       5.764  -7.219  -6.112  0.00  0.00    -0.062 A 
ATOM     35  H   LIG d   1       3.667  -6.802  -6.135  0.00  0.00     0.062 H 
ATOM     36  C   LIG d   1       7.028  -6.722  -5.855  0.00  0.00    -0.061 A 
ATOM     37  H   LIG d   1       5.643  -8.238  -6.451  0.00  0.00     0.062 H 
ATOM     38  C   LIG d   1       7.184  -5.418  -5.425  0.00  0.00    -0.058 A 
ATOM     39  H   LIG d   1       7.895  -7.352  -5.993  0.00  0.00     0.062 H 
ATOM     40  H   LIG d   1       8.171  -5.028  -5.229  0.00  0.00     0.062 H 
ENDBRANCH   4  30
TORSDOF 6
ENDMDL
MODEL 10
REMARK VINA RESULT:      -4.7      4.685      6.537
REMARK  6 active torsions:
REMARK  status: ('A' for Active; 'I' for Inactive)
REMARK    1  A    between atoms: C_1  and  C_2 
REMARK    2  A    between atoms: C_2  and  C_3 
REMARK    3  A    between atoms: C_3  and  C_5 
REMARK    4  A    between atoms: C_3  and  C_7 
REMARK    5  A    between atoms: C_7  and  O_19 
REMARK    6  A    between atoms: C_10  and  C_13 
ROOT
ATOM      1  C   LIG d   1       8.959  -2.113  -5.438  0.00  0.00     0.074 C 
ATOM      2  C   LIG d   1       8.524  -2.934  -4.222  0.00  0.00    -0.023 C 
ATOM      3  C   LIG d   1       7.108  -2.525  -3.812  0.00  0.00    -0.044 C 
ATOM      4  C   LIG d   1       7.089  -1.036  -3.456  0.00  0.00    -0.016 C 
ATOM      5  C   LIG d   1       7.524  -0.216  -4.673  0.00  0.00    -0.044 C 
ATOM      6  C   LIG d   1       8.941  -0.625  -5.082  0.00  0.00    -0.023 C 
ATOM      7  H   LIG d   1       9.209  -2.750  -3.396  0.00  0.00     0.029 H 
ATOM      8  H   LIG d   1       8.537  -3.994  -4.476  0.00  0.00     0.029 H 
ATOM      9  H   LIG d   1       6.797  -3.109  -2.946  0.00  0.00     0.027 H 
ATOM     10  H   LIG d   1       6.422  -2.709  -4.639  0.00  0.00     0.027 H 
ATOM     11  H   LIG d   1       7.774  -0.853  -2.629  0.00  0.00     0.035 H 
ATOM     12  H   LIG d   1       6.839  -0.400  -5.499  0.00  0.00     0.027 H 
ATOM     13  H   LIG d   1       7.512   0.844  -4.419  0.00  0.00     0.027 H 
ATOM     14  H   LIG d   1       9.251  -0.041  -5.949  0.00  0.00     0.029 H 
ATOM     15  H   LIG d   1       9.626  -0.440  -4.255  0.00  0.00     0.029 H 
ENDROOT
BRANCH   1  16
ATOM     16  C   LIG d   1       7.997  -2.371  -6.600  0.00  0.00     0.027 C 
ATOM     17  H   LIG d   1       6.996  -2.042  -6.322  0.00  0.00     0.039 H 
BRANCH  16  18
ATOM     18  C   LIG d   1       7.972  -3.868  -6.917  0.00  0.00    -0.045 C 
ATOM     19  H   LIG d   1       8.535  -4.055  -7.831  0.00  0.00     0.027 H 
ATOM     20  H   LIG d   1       8.422  -4.422  -6.093  0.00  0.00     0.027 H 
BRANCH  18  21
ATOM     21  C   LIG d   1       6.524  -4.324  -7.107  0.00  0.00    -0.065 C 
ATOM     22  H   LIG d   1       6.512  -5.324  -7.543  0.00  0.00     0.023 H 
ATOM     23  H   LIG d   1       6.020  -4.343  -6.142  0.00  0.00     0.023 H 
ATOM     24  H   LIG d   1       6.009  -3.632  -7.773  0.00  0.00     0.023 H 
ENDBRANCH  18  21
ENDBRANCH  16  18
BRANCH  16  25
ATOM     25  C   LIG d   1       8.460  -1.608  -7.814  0.00  0.00     0.048 C 
ATOM     26  O   LIG d   1       9.499  -1.903  -8.353  0.00  0.00    -0.549 OA
ATOM     27  O   LIG d   1       7.716  -0.600  -8.295  0.00  0.00    -0.549 OA
ENDBRANCH  16  25
ENDBRANCH   1  16
BRANCH   1  28
ATOM     28  O   LIG d   1      10.283  -2.494  -5.821  0.00  0.00    -0.388 OA
ATOM     29  H   LIG d   1      10.494  -2.304  -6.744  0.00  0.00     0.210 HD
ENDBRANCH   1  28
BRANCH   4  30
ATOM     30  C   LIG d   1       5.694  -0.635  -3.053  0.00  0.00    -0.044 A 
ATOM     31  C   LIG d   1       5.432   0.671  -2.681  0.00  0.00    -0.058 A 
ATOM     32  C   LIG d   1       4.152   1.040  -2.311  0.00  0.00    -0.061 A 
ATOM     33  H   LIG d   1       6.227   1.402  -2.679  0.00  0.00     0.062 H 
ATOM     34  C   LIG d   1       3.135   0.104  -2.314  0.00  0.00    -0.062 A 
ATOM     35  H   LIG d   1       3.947   2.060  -2.019  0.00  0.00     0.062 H 
ATOM     36  C   LIG d   1       3.397  -1.201  -2.686  0.00  0.00    -0.061 A 
ATOM     37  H   LIG d   1       2.135   0.393  -2.024  0.00  0.00     0.062 H 
ATOM     38  C   LIG d   1       4.675  -1.569  -3.060  0.00  0.00    -0.058 A 
ATOM     39  H   LIG d   1       2.602  -1.932  -2.688  0.00  0.00     0.062 H 
ATOM     40  H   LIG d   1       4.880  -2.587  -3.355  0.00  0.00     0.062 H 
ENDBRANCH   4  30
TORSDOF 6
ENDMDL
