MODEL 1
REMARK VINA RESULT:      -5.8      0.000      0.000
REMARK  6 active torsions:
REMARK  status: ('A' for Active; 'I' for Inactive)
REMARK    1  A    between atoms: C_1  and  C_2 
REMARK    2  A    between atoms: C_2  and  O_4 
REMARK    3  A    between atoms: O_4  and  C_5 
REMARK    4  A    between atoms: C_7  and  C_16 
REMARK    5  A    between atoms: C_13  and  C_14 
REMARK    6  A    between atoms: C_13  and  C_15 
ROOT
ATOM      1  C   LIG d   1       4.746  -0.329  -4.250  0.00  0.00     0.114 C 
ATOM      2  H   LIG d   1       5.438   0.448  -4.573  0.00  0.00     0.074 H 
ATOM      3  C   LIG d   1       3.755   0.234  -3.185  0.00  0.00     0.006 C 
ATOM      4  C   LIG d   1       2.696  -0.896  -3.002  0.00  0.00    -0.044 C 
ATOM      5  C   LIG d   1       3.455  -2.028  -2.272  0.00  0.00    -0.049 C 
ATOM      6  C   LIG d   1       4.900  -1.476  -2.082  0.00  0.00    -0.032 C 
ATOM      7  H   LIG d   1       5.497  -1.958  -1.309  0.00  0.00     0.031 H 
ATOM      8  C   LIG d   1       4.603   0.051  -1.877  0.00  0.00    -0.041 C 
ATOM      9  C   LIG d   1       5.506  -1.460  -3.522  0.00  0.00     0.005 C 
ATOM     10  H   LIG d   1       1.864  -0.541  -2.394  0.00  0.00     0.027 H 
ATOM     11  H   LIG d   1       2.339  -1.242  -3.972  0.00  0.00     0.027 H 
ATOM     12  H   LIG d   1       2.995  -2.231  -1.305  0.00  0.00     0.027 H 
ATOM     13  H   LIG d   1       3.469  -2.931  -2.882  0.00  0.00     0.027 H 
ATOM     14  H   LIG d   1       5.513   0.651  -1.893  0.00  0.00     0.028 H 
ATOM     15  H   LIG d   1       4.013   0.236  -0.979  0.00  0.00     0.028 H 
ENDROOT
BRANCH   1  16
ATOM     16  O   LIG d   1       4.029  -0.852  -5.370  0.00  0.00    -0.460 OA
BRANCH  16  17
ATOM     17  C   LIG d   1       4.109  -0.165  -6.521  0.00  0.00     0.304 C 
ATOM     18  O   LIG d   1       5.170   0.290  -6.879  0.00  0.00    -0.251 OA
BRANCH  17  19
ATOM     19  C   LIG d   1       2.878   0.038  -7.365  0.00  0.00     0.033 C 
ATOM     20  H   LIG d   1       2.039   0.309  -6.724  0.00  0.00     0.034 H 
ATOM     21  H   LIG d   1       3.058   0.836  -8.085  0.00  0.00     0.034 H 
ATOM     22  H   LIG d   1       2.646  -0.885  -7.897  0.00  0.00     0.034 H 
ENDBRANCH  17  19
ENDBRANCH  16  17
ENDBRANCH   1  16
BRANCH   9  23
ATOM     23  C   LIG d   1       7.003  -1.149  -3.469  0.00  0.00    -0.056 C 
ATOM     24  H   LIG d   1       7.455  -1.681  -2.631  0.00  0.00     0.024 H 
ATOM     25  H   LIG d   1       7.474  -1.470  -4.398  0.00  0.00     0.024 H 
ATOM     26  H   LIG d   1       7.147  -0.077  -3.339  0.00  0.00     0.024 H 
ENDBRANCH   9  23
BRANCH   9  27
ATOM     27  C   LIG d   1       5.263  -2.801  -4.219  0.00  0.00    -0.056 C 
ATOM     28  H   LIG d   1       4.359  -3.260  -3.819  0.00  0.00     0.024 H 
ATOM     29  H   LIG d   1       5.144  -2.636  -5.291  0.00  0.00     0.024 H 
ATOM     30  H   LIG d   1       6.114  -3.459  -4.045  0.00  0.00     0.024 H 
ENDBRANCH   9  27
BRANCH   3  31
ATOM     31  C   LIG d   1       3.216   1.640  -3.451  0.00  0.00    -0.056 C 
ATOM     32  H   LIG d   1       3.311   2.243  -2.548  0.00  0.00     0.024 H 
ATOM     33  H   LIG d   1       3.787   2.101  -4.257  0.00  0.00     0.024 H 
ATOM     34  H   LIG d   1       2.165   1.579  -3.737  0.00  0.00     0.024 H 
ENDBRANCH   3  31
TORSDOF 6
ENDMDL
MODEL 2
REMARK VINA RESULT:      -5.3      1.801      3.520
REMARK  6 active torsions:
REMARK  status: ('A' for Active; 'I' for Inactive)
REMARK    1  A    between atoms: C_1  and  C_2 
REMARK    2  A    between atoms: C_2  and  O_4 
REMARK    3  A    between atoms: O_4  and  C_5 
REMARK    4  A    between atoms: C_7  and  C_16 
REMARK    5  A    between atoms: C_13  and  C_14 
REMARK    6  A    between atoms: C_13  and  C_15 
ROOT
ATOM      1  C   LIG d   1       5.058   0.089  -3.893  0.00  0.00     0.114 C 
ATOM      2  H   LIG d   1       5.135   0.863  -4.655  0.00  0.00     0.074 H 
ATOM      3  C   LIG d   1       4.452  -1.214  -4.501  0.00  0.00     0.006 C 
ATOM      4  C   LIG d   1       4.625  -2.285  -3.380  0.00  0.00    -0.044 C 
ATOM      5  C   LIG d   1       3.623  -1.864  -2.280  0.00  0.00    -0.049 C 
ATOM      6  C   LIG d   1       2.940  -0.579  -2.839  0.00  0.00    -0.032 C 
ATOM      7  H   LIG d   1       1.984  -0.313  -2.390  0.00  0.00     0.031 H 
ATOM      8  C   LIG d   1       2.919  -0.906  -4.374  0.00  0.00    -0.041 C 
ATOM      9  C   LIG d   1       4.058   0.511  -2.793  0.00  0.00     0.005 C 
ATOM     10  H   LIG d   1       4.378  -3.276  -3.761  0.00  0.00     0.027 H 
ATOM     11  H   LIG d   1       5.643  -2.268  -2.993  0.00  0.00     0.027 H 
ATOM     12  H   LIG d   1       2.884  -2.648  -2.119  0.00  0.00     0.027 H 
ATOM     13  H   LIG d   1       4.150  -1.641  -1.352  0.00  0.00     0.027 H 
ATOM     14  H   LIG d   1       2.624  -0.044  -4.972  0.00  0.00     0.028 H 
ATOM     15  H   LIG d   1       2.307  -1.780  -4.597  0.00  0.00     0.028 H 
ENDROOT
BRANCH   1  16
ATOM     16  O   LIG d   1       6.341  -0.178  -3.323  0.00  0.00    -0.460 OA
BRANCH  16  17
ATOM     17  C   LIG d   1       7.409   0.326  -3.962  0.00  0.00     0.304 C 
ATOM     18  O   LIG d   1       8.119  -0.401  -4.616  0.00  0.00    -0.251 OA
BRANCH  17  19
ATOM     19  C   LIG d   1       7.721   1.797  -3.864  0.00  0.00     0.033 C 
ATOM     20  H   LIG d   1       7.481   2.282  -4.811  0.00  0.00     0.034 H 
ATOM     21  H   LIG d   1       7.127   2.242  -3.067  0.00  0.00     0.034 H 
ATOM     22  H   LIG d   1       8.780   1.930  -3.646  0.00  0.00     0.034 H 
ENDBRANCH  17  19
ENDBRANCH  16  17
ENDBRANCH   1  16
BRANCH   9  23
ATOM     23  C   LIG d   1       3.473   1.890  -3.105  0.00  0.00    -0.056 C 
ATOM     24  H   LIG d   1       2.532   2.016  -2.568  0.00  0.00     0.024 H 
ATOM     25  H   LIG d   1       4.176   2.662  -2.793  0.00  0.00     0.024 H 
ATOM     26  H   LIG d   1       3.294   1.975  -4.177  0.00  0.00     0.024 H 
ENDBRANCH   9  23
BRANCH   9  27
ATOM     27  C   LIG d   1       4.742   0.519  -1.424  0.00  0.00    -0.056 C 
ATOM     28  H   LIG d   1       4.241  -0.189  -0.764  0.00  0.00     0.024 H 
ATOM     29  H   LIG d   1       5.788   0.231  -1.539  0.00  0.00     0.024 H 
ATOM     30  H   LIG d   1       4.685   1.520  -0.996  0.00  0.00     0.024 H 
ENDBRANCH   9  27
BRANCH   3  31
ATOM     31  C   LIG d   1       4.952  -1.596  -5.894  0.00  0.00    -0.056 C 
ATOM     32  H   LIG d   1       5.070  -2.678  -5.955  0.00  0.00     0.024 H 
ATOM     33  H   LIG d   1       4.230  -1.267  -6.642  0.00  0.00     0.024 H 
ATOM     34  H   LIG d   1       5.914  -1.116  -6.081  0.00  0.00     0.024 H 
ENDBRANCH   3  31
TORSDOF 6
ENDMDL
MODEL 3
REMARK VINA RESULT:      -5.3      1.290      2.416
REMARK  6 active torsions:
REMARK  status: ('A' for Active; 'I' for Inactive)
REMARK    1  A    between atoms: C_1  and  C_2 
REMARK    2  A    between atoms: C_2  and  O_4 
REMARK    3  A    between atoms: O_4  and  C_5 
REMARK    4  A    between atoms: C_7  and  C_16 
REMARK    5  A    between atoms: C_13  and  C_14 
REMARK    6  A    between atoms: C_13  and  C_15 
ROOT
ATOM      1  C   LIG d   1       4.718  -0.633  -4.482  0.00  0.00     0.114 C 
ATOM      2  H   LIG d   1       5.078  -1.348  -5.221  0.00  0.00     0.074 H 
ATOM      3  C   LIG d   1       5.914   0.144  -3.850  0.00  0.00     0.006 C 
ATOM      4  C   LIG d   1       5.245   1.275  -3.010  0.00  0.00    -0.044 C 
ATOM      5  C   LIG d   1       4.585   0.539  -1.821  0.00  0.00    -0.049 C 
ATOM      6  C   LIG d   1       4.917  -0.966  -2.055  0.00  0.00    -0.032 C 
ATOM      7  H   LIG d   1       4.843  -1.612  -1.181  0.00  0.00     0.031 H 
ATOM      8  C   LIG d   1       6.337  -0.851  -2.713  0.00  0.00    -0.041 C 
ATOM      9  C   LIG d   1       4.058  -1.370  -3.295  0.00  0.00     0.005 C 
ATOM     10  H   LIG d   1       5.997   1.978  -2.653  0.00  0.00     0.027 H 
ATOM     11  H   LIG d   1       4.490   1.792  -3.602  0.00  0.00     0.027 H 
ATOM     12  H   LIG d   1       5.012   0.881  -0.879  0.00  0.00     0.027 H 
ATOM     13  H   LIG d   1       3.506   0.696  -1.829  0.00  0.00     0.027 H 
ATOM     14  H   LIG d   1       6.682  -1.805  -3.112  0.00  0.00     0.028 H 
ATOM     15  H   LIG d   1       7.067  -0.409  -2.034  0.00  0.00     0.028 H 
ENDROOT
BRANCH   1  16
ATOM     16  O   LIG d   1       3.793   0.277  -5.079  0.00  0.00    -0.460 OA
BRANCH  16  17
ATOM     17  C   LIG d   1       3.593   0.163  -6.402  0.00  0.00     0.304 C 
ATOM     18  O   LIG d   1       3.050   1.056  -7.010  0.00  0.00    -0.251 OA
BRANCH  17  19
ATOM     19  C   LIG d   1       4.048  -1.076  -7.129  0.00  0.00     0.033 C 
ATOM     20  H   LIG d   1       5.128  -1.036  -7.274  0.00  0.00     0.034 H 
ATOM     21  H   LIG d   1       3.792  -1.957  -6.540  0.00  0.00     0.034 H 
ATOM     22  H   LIG d   1       3.553  -1.131  -8.098  0.00  0.00     0.034 H 
ENDBRANCH  17  19
ENDBRANCH  16  17
ENDBRANCH   1  16
BRANCH   9  23
ATOM     23  C   LIG d   1       4.108  -2.883  -3.512  0.00  0.00    -0.056 C 
ATOM     24  H   LIG d   1       4.939  -3.128  -4.174  0.00  0.00     0.024 H 
ATOM     25  H   LIG d   1       4.249  -3.383  -2.553  0.00  0.00     0.024 H 
ATOM     26  H   LIG d   1       3.174  -3.217  -3.962  0.00  0.00     0.024 H 
ENDBRANCH   9  23
BRANCH   9  27
ATOM     27  C   LIG d   1       2.611  -0.904  -3.117  0.00  0.00    -0.056 C 
ATOM     28  H   LIG d   1       2.408  -0.077  -3.797  0.00  0.00     0.024 H 
ATOM     29  H   LIG d   1       1.934  -1.731  -3.337  0.00  0.00     0.024 H 
ATOM     30  H   LIG d   1       2.459  -0.576  -2.089  0.00  0.00     0.024 H 
ENDBRANCH   9  27
BRANCH   3  31
ATOM     31  C   LIG d   1       7.017   0.574  -4.818  0.00  0.00    -0.056 C 
ATOM     32  H   LIG d   1       7.306   1.604  -4.607  0.00  0.00     0.024 H 
ATOM     33  H   LIG d   1       7.883  -0.078  -4.695  0.00  0.00     0.024 H 
ATOM     34  H   LIG d   1       6.651   0.503  -5.843  0.00  0.00     0.024 H 
ENDBRANCH   3  31
TORSDOF 6
ENDMDL
MODEL 4
REMARK VINA RESULT:      -5.1      1.764      3.034
REMARK  6 active torsions:
REMARK  status: ('A' for Active; 'I' for Inactive)
REMARK    1  A    between atoms: C_1  and  C_2 
REMARK    2  A    between atoms: C_2  and  O_4 
REMARK    3  A    between atoms: O_4  and  C_5 
REMARK    4  A    between atoms: C_7  and  C_16 
REMARK    5  A    between atoms: C_13  and  C_14 
REMARK    6  A    between atoms: C_13  and  C_15 
ROOT
ATOM      1  C   LIG d   1       5.193  -0.441  -3.597  0.00  0.00     0.114 C 
ATOM      2  H   LIG d   1       5.896  -1.001  -2.981  0.00  0.00     0.074 H 
ATOM      3  C   LIG d   1       4.158   0.304  -2.699  0.00  0.00     0.006 C 
ATOM      4  C   LIG d   1       3.386   1.236  -3.683  0.00  0.00    -0.044 C 
ATOM      5  C   LIG d   1       2.535   0.274  -4.545  0.00  0.00    -0.049 C 
ATOM      6  C   LIG d   1       2.873  -1.147  -4.000  0.00  0.00    -0.032 C 
ATOM      7  H   LIG d   1       2.150  -1.929  -4.228  0.00  0.00     0.031 H 
ATOM      8  C   LIG d   1       3.096  -0.830  -2.479  0.00  0.00    -0.041 C 
ATOM      9  C   LIG d   1       4.344  -1.403  -4.458  0.00  0.00     0.005 C 
ATOM     10  H   LIG d   1       2.744   1.922  -3.132  0.00  0.00     0.027 H 
ATOM     11  H   LIG d   1       4.085   1.789  -4.310  0.00  0.00     0.027 H 
ATOM     12  H   LIG d   1       1.475   0.488  -4.417  0.00  0.00     0.027 H 
ATOM     13  H   LIG d   1       2.816   0.356  -5.595  0.00  0.00     0.027 H 
ATOM     14  H   LIG d   1       3.512  -1.680  -1.940  0.00  0.00     0.028 H 
ATOM     15  H   LIG d   1       2.189  -0.454  -2.004  0.00  0.00     0.028 H 
ENDROOT
BRANCH   1  16
ATOM     16  O   LIG d   1       5.890   0.488  -4.429  0.00  0.00    -0.460 OA
BRANCH  16  17
ATOM     17  C   LIG d   1       7.222   0.562  -4.277  0.00  0.00     0.304 C 
ATOM     18  O   LIG d   1       7.908  -0.410  -4.487  0.00  0.00    -0.251 OA
BRANCH  17  19
ATOM     19  C   LIG d   1       7.860   1.857  -3.846  0.00  0.00     0.033 C 
ATOM     20  H   LIG d   1       8.432   2.273  -4.676  0.00  0.00     0.034 H 
ATOM     21  H   LIG d   1       7.086   2.563  -3.548  0.00  0.00     0.034 H 
ATOM     22  H   LIG d   1       8.526   1.671  -3.003  0.00  0.00     0.034 H 
ENDBRANCH  17  19
ENDBRANCH  16  17
ENDBRANCH   1  16
BRANCH   9  23
ATOM     23  C   LIG d   1       4.744  -2.855  -4.187  0.00  0.00    -0.056 C 
ATOM     24  H   LIG d   1       5.188  -3.283  -5.087  0.00  0.00     0.024 H 
ATOM     25  H   LIG d   1       5.469  -2.887  -3.374  0.00  0.00     0.024 H 
ATOM     26  H   LIG d   1       3.861  -3.430  -3.910  0.00  0.00     0.024 H 
ENDBRANCH   9  23
BRANCH   9  27
ATOM     27  C   LIG d   1       4.507  -1.073  -5.944  0.00  0.00    -0.056 C 
ATOM     28  H   LIG d   1       4.413  -1.987  -6.532  0.00  0.00     0.024 H 
ATOM     29  H   LIG d   1       3.733  -0.366  -6.245  0.00  0.00     0.024 H 
ATOM     30  H   LIG d   1       5.489  -0.631  -6.112  0.00  0.00     0.024 H 
ENDBRANCH   9  27
BRANCH   3  31
ATOM     31  C   LIG d   1       4.719   0.960  -1.436  0.00  0.00    -0.056 C 
ATOM     32  H   LIG d   1       3.979   1.646  -1.022  0.00  0.00     0.024 H 
ATOM     33  H   LIG d   1       4.951   0.190  -0.700  0.00  0.00     0.024 H 
ATOM     34  H   LIG d   1       5.626   1.511  -1.684  0.00  0.00     0.024 H 
ENDBRANCH   3  31
TORSDOF 6
ENDMDL
MODEL 5
REMARK VINA RESULT:      -4.7      1.017      2.953
REMARK  6 active torsions:
REMARK  status: ('A' for Active; 'I' for Inactive)
REMARK    1  A    between atoms: C_1  and  C_2 
REMARK    2  A    between atoms: C_2  and  O_4 
REMARK    3  A    between atoms: O_4  and  C_5 
REMARK    4  A    between atoms: C_7  and  C_16 
REMARK    5  A    between atoms: C_13  and  C_14 
REMARK    6  A    between atoms: C_13  and  C_15 
ROOT
ATOM      1  C   LIG d   1       4.104  -1.024  -4.844  0.00  0.00     0.114 C 
ATOM      2  H   LIG d   1       3.116  -1.193  -5.272  0.00  0.00     0.074 H 
ATOM      3  C   LIG d   1       4.901  -2.363  -4.769  0.00  0.00     0.006 C 
ATOM      4  C   LIG d   1       6.347  -1.934  -4.374  0.00  0.00    -0.044 C 
ATOM      5  C   LIG d   1       6.228  -1.467  -2.905  0.00  0.00    -0.049 C 
ATOM      6  C   LIG d   1       4.722  -1.657  -2.551  0.00  0.00    -0.032 C 
ATOM      7  H   LIG d   1       4.485  -1.710  -1.489  0.00  0.00     0.031 H 
ATOM      8  C   LIG d   1       4.383  -2.931  -3.402  0.00  0.00    -0.041 C 
ATOM      9  C   LIG d   1       3.983  -0.556  -3.376  0.00  0.00     0.005 C 
ATOM     10  H   LIG d   1       7.029  -2.781  -4.450  0.00  0.00     0.027 H 
ATOM     11  H   LIG d   1       6.687  -1.114  -5.007  0.00  0.00     0.027 H 
ATOM     12  H   LIG d   1       6.852  -2.084  -2.258  0.00  0.00     0.027 H 
ATOM     13  H   LIG d   1       6.510  -0.418  -2.816  0.00  0.00     0.027 H 
ATOM     14  H   LIG d   1       3.313  -3.137  -3.424  0.00  0.00     0.028 H 
ATOM     15  H   LIG d   1       4.955  -3.802  -3.079  0.00  0.00     0.028 H 
ENDROOT
BRANCH   1  16
ATOM     16  O   LIG d   1       4.822  -0.059  -5.616  0.00  0.00    -0.460 OA
BRANCH  16  17
ATOM     17  C   LIG d   1       4.342   0.222  -6.839  0.00  0.00     0.304 C 
ATOM     18  O   LIG d   1       5.075   0.678  -7.684  0.00  0.00    -0.251 OA
BRANCH  17  19
ATOM     19  C   LIG d   1       2.891  -0.031  -7.155  0.00  0.00     0.033 C 
ATOM     20  H   LIG d   1       2.560   0.668  -7.924  0.00  0.00     0.034 H 
ATOM     21  H   LIG d   1       2.770  -1.052  -7.516  0.00  0.00     0.034 H 
ATOM     22  H   LIG d   1       2.293   0.109  -6.255  0.00  0.00     0.034 H 
ENDBRANCH  17  19
ENDBRANCH  16  17
ENDBRANCH   1  16
BRANCH   9  23
ATOM     23  C   LIG d   1       2.513  -0.473  -2.962  0.00  0.00    -0.056 C 
ATOM     24  H   LIG d   1       1.922  -1.147  -3.583  0.00  0.00     0.024 H 
ATOM     25  H   LIG d   1       2.413  -0.761  -1.916  0.00  0.00     0.024 H 
ATOM     26  H   LIG d   1       2.155   0.548  -3.093  0.00  0.00     0.024 H 
ENDBRANCH   9  23
BRANCH   9  27
ATOM     27  C   LIG d   1       4.667   0.800  -3.191  0.00  0.00    -0.056 C 
ATOM     28  H   LIG d   1       5.181   1.077  -4.111  0.00  0.00     0.024 H 
ATOM     29  H   LIG d   1       3.917   1.556  -2.952  0.00  0.00     0.024 H 
ATOM     30  H   LIG d   1       5.388   0.734  -2.376  0.00  0.00     0.024 H 
ENDBRANCH   9  27
BRANCH   3  31
ATOM     31  C   LIG d   1       4.769  -3.287  -5.980  0.00  0.00    -0.056 C 
ATOM     32  H   LIG d   1       5.752  -3.672  -6.253  0.00  0.00     0.024 H 
ATOM     33  H   LIG d   1       4.110  -4.119  -5.732  0.00  0.00     0.024 H 
ATOM     34  H   LIG d   1       4.353  -2.730  -6.820  0.00  0.00     0.024 H 
ENDBRANCH   3  31
TORSDOF 6
ENDMDL
MODEL 6
REMARK VINA RESULT:      -4.4      1.618      2.993
REMARK  6 active torsions:
REMARK  status: ('A' for Active; 'I' for Inactive)
REMARK    1  A    between atoms: C_1  and  C_2 
REMARK    2  A    between atoms: C_2  and  O_4 
REMARK    3  A    between atoms: O_4  and  C_5 
REMARK    4  A    between atoms: C_7  and  C_16 
REMARK    5  A    between atoms: C_13  and  C_14 
REMARK    6  A    between atoms: C_13  and  C_15 
ROOT
ATOM      1  C   LIG d   1       5.492  -0.164  -3.937  0.00  0.00     0.114 C 
ATOM      2  H   LIG d   1       5.510   0.609  -3.168  0.00  0.00     0.074 H 
ATOM      3  C   LIG d   1       5.359  -1.575  -3.285  0.00  0.00     0.006 C 
ATOM      4  C   LIG d   1       5.106  -2.537  -4.487  0.00  0.00    -0.044 C 
ATOM      5  C   LIG d   1       6.454  -2.580  -5.243  0.00  0.00    -0.049 C 
ATOM      6  C   LIG d   1       7.394  -1.641  -4.427  0.00  0.00    -0.032 C 
ATOM      7  H   LIG d   1       8.463  -1.784  -4.582  0.00  0.00     0.031 H 
ATOM      8  C   LIG d   1       6.864  -1.891  -2.972  0.00  0.00    -0.041 C 
ATOM      9  C   LIG d   1       6.839  -0.205  -4.692  0.00  0.00     0.005 C 
ATOM     10  H   LIG d   1       4.839  -3.531  -4.128  0.00  0.00     0.027 H 
ATOM     11  H   LIG d   1       4.322  -2.141  -5.132  0.00  0.00     0.027 H 
ATOM     12  H   LIG d   1       6.850  -3.595  -5.256  0.00  0.00     0.027 H 
ATOM     13  H   LIG d   1       6.332  -2.206  -6.259  0.00  0.00     0.027 H 
ATOM     14  H   LIG d   1       7.288  -1.189  -2.255  0.00  0.00     0.028 H 
ATOM     15  H   LIG d   1       7.007  -2.926  -2.658  0.00  0.00     0.028 H 
ENDROOT
BRANCH   1  16
ATOM     16  O   LIG d   1       4.416   0.067  -4.849  0.00  0.00    -0.460 OA
BRANCH  16  17
ATOM     17  C   LIG d   1       3.320   0.668  -4.360  0.00  0.00     0.304 C 
ATOM     18  O   LIG d   1       3.429   1.662  -3.682  0.00  0.00    -0.251 OA
BRANCH  17  19
ATOM     19  C   LIG d   1       1.955   0.104  -4.657  0.00  0.00     0.033 C 
ATOM     20  H   LIG d   1       1.794  -0.791  -4.055  0.00  0.00     0.034 H 
ATOM     21  H   LIG d   1       1.195   0.846  -4.417  0.00  0.00     0.034 H 
ATOM     22  H   LIG d   1       1.890  -0.153  -5.715  0.00  0.00     0.034 H 
ENDBRANCH  17  19
ENDBRANCH  16  17
ENDBRANCH   1  16
BRANCH   9  23
ATOM     23  C   LIG d   1       7.796   0.850  -4.133  0.00  0.00    -0.056 C 
ATOM     24  H   LIG d   1       8.655   0.950  -4.798  0.00  0.00     0.024 H 
ATOM     25  H   LIG d   1       7.280   1.807  -4.061  0.00  0.00     0.024 H 
ATOM     26  H   LIG d   1       8.137   0.545  -3.144  0.00  0.00     0.024 H 
ENDBRANCH   9  23
BRANCH   9  27
ATOM     27  C   LIG d   1       6.618   0.015  -6.190  0.00  0.00    -0.056 C 
ATOM     28  H   LIG d   1       5.706   0.593  -6.342  0.00  0.00     0.024 H 
ATOM     29  H   LIG d   1       7.467   0.559  -6.606  0.00  0.00     0.024 H 
ATOM     30  H   LIG d   1       6.525  -0.949  -6.688  0.00  0.00     0.024 H 
ENDBRANCH   9  27
BRANCH   3  31
ATOM     31  C   LIG d   1       4.386  -1.680  -2.110  0.00  0.00    -0.056 C 
ATOM     32  H   LIG d   1       4.644  -0.936  -1.356  0.00  0.00     0.024 H 
ATOM     33  H   LIG d   1       3.370  -1.502  -2.463  0.00  0.00     0.024 H 
ATOM     34  H   LIG d   1       4.451  -2.677  -1.672  0.00  0.00     0.024 H 
ENDBRANCH   3  31
TORSDOF 6
ENDMDL
MODEL 7
REMARK VINA RESULT:      -4.3      1.643      3.671
REMARK  6 active torsions:
REMARK  status: ('A' for Active; 'I' for Inactive)
REMARK    1  A    between atoms: C_1  and  C_2 
REMARK    2  A    between atoms: C_2  and  O_4 
REMARK    3  A    between atoms: O_4  and  C_5 
REMARK    4  A    between atoms: C_7  and  C_16 
REMARK    5  A    between atoms: C_13  and  C_14 
REMARK    6  A    between atoms: C_13  and  C_15 
ROOT
ATOM      1  C   LIG d   1       4.808  -1.517  -3.946  0.00  0.00     0.114 C 
ATOM      2  H   LIG d   1       4.462  -2.340  -4.570  0.00  0.00     0.074 H 
ATOM      3  C   LIG d   1       3.924  -1.395  -2.666  0.00  0.00     0.006 C 
ATOM      4  C   LIG d   1       4.670  -0.357  -1.773  0.00  0.00    -0.044 C 
ATOM      5  C   LIG d   1       4.485   0.992  -2.506  0.00  0.00    -0.049 C 
ATOM      6  C   LIG d   1       3.646   0.642  -3.772  0.00  0.00    -0.032 C 
ATOM      7  H   LIG d   1       3.124   1.474  -4.243  0.00  0.00     0.031 H 
ATOM      8  C   LIG d   1       2.745  -0.515  -3.213  0.00  0.00    -0.041 C 
ATOM      9  C   LIG d   1       4.624  -0.169  -4.680  0.00  0.00     0.005 C 
ATOM     10  H   LIG d   1       4.219  -0.316  -0.782  0.00  0.00     0.027 H 
ATOM     11  H   LIG d   1       5.728  -0.609  -1.702  0.00  0.00     0.027 H 
ATOM     12  H   LIG d   1       3.945   1.696  -1.874  0.00  0.00     0.027 H 
ATOM     13  H   LIG d   1       5.453   1.404  -2.793  0.00  0.00     0.027 H 
ATOM     14  H   LIG d   1       2.190  -1.020  -4.002  0.00  0.00     0.028 H 
ATOM     15  H   LIG d   1       2.088  -0.171  -2.413  0.00  0.00     0.028 H 
ENDROOT
BRANCH   1  16
ATOM     16  O   LIG d   1       6.179  -1.706  -3.587  0.00  0.00    -0.460 OA
BRANCH  16  17
ATOM     17  C   LIG d   1       6.790  -2.798  -4.072  0.00  0.00     0.304 C 
ATOM     18  O   LIG d   1       6.183  -3.565  -4.781  0.00  0.00    -0.251 OA
BRANCH  17  19
ATOM     19  C   LIG d   1       8.233  -3.067  -3.731  0.00  0.00     0.033 C 
ATOM     20  H   LIG d   1       8.285  -3.780  -2.908  0.00  0.00     0.034 H 
ATOM     21  H   LIG d   1       8.741  -3.480  -4.602  0.00  0.00     0.034 H 
ATOM     22  H   LIG d   1       8.717  -2.136  -3.436  0.00  0.00     0.034 H 
ENDBRANCH  17  19
ENDBRANCH  16  17
ENDBRANCH   1  16
BRANCH   9  23
ATOM     23  C   LIG d   1       4.010  -0.395  -6.063  0.00  0.00    -0.056 C 
ATOM     24  H   LIG d   1       2.955  -0.119  -6.040  0.00  0.00     0.024 H 
ATOM     25  H   LIG d   1       4.531   0.220  -6.796  0.00  0.00     0.024 H 
ATOM     26  H   LIG d   1       4.105  -1.445  -6.336  0.00  0.00     0.024 H 
ENDBRANCH   9  23
BRANCH   9  27
ATOM     27  C   LIG d   1       5.965   0.557  -4.804  0.00  0.00    -0.056 C 
ATOM     28  H   LIG d   1       6.433   0.628  -3.822  0.00  0.00     0.024 H 
ATOM     29  H   LIG d   1       6.618   0.002  -5.479  0.00  0.00     0.024 H 
ATOM     30  H   LIG d   1       5.800   1.559  -5.201  0.00  0.00     0.024 H 
ENDBRANCH   9  27
BRANCH   3  31
ATOM     31  C   LIG d   1       3.530  -2.713  -1.999  0.00  0.00    -0.056 C 
ATOM     32  H   LIG d   1       3.369  -3.475  -2.762  0.00  0.00     0.024 H 
ATOM     33  H   LIG d   1       4.329  -3.034  -1.329  0.00  0.00     0.024 H 
ATOM     34  H   LIG d   1       2.612  -2.572  -1.428  0.00  0.00     0.024 H 
ENDBRANCH   3  31
TORSDOF 6
ENDMDL
MODEL 8
REMARK VINA RESULT:      -4.3      2.847      5.951
REMARK  6 active torsions:
REMARK  status: ('A' for Active; 'I' for Inactive)
REMARK    1  A    between atoms: C_1  and  C_2 
REMARK    2  A    between atoms: C_2  and  O_4 
REMARK    3  A    between atoms: O_4  and  C_5 
REMARK    4  A    between atoms: C_7  and  C_16 
REMARK    5  A    between atoms: C_13  and  C_14 
REMARK    6  A    between atoms: C_13  and  C_15 
ROOT
ATOM      1  C   LIG d   1       3.939   0.015  -8.011  0.00  0.00     0.114 C 
ATOM      2  H   LIG d   1       4.921  -0.002  -7.539  0.00  0.00     0.074 H 
ATOM      3  C   LIG d   1       3.700  -1.298  -8.818  0.00  0.00     0.006 C 
ATOM      4  C   LIG d   1       2.196  -1.237  -9.225  0.00  0.00    -0.044 C 
ATOM      5  C   LIG d   1       2.122  -0.110 -10.281  0.00  0.00    -0.049 C 
ATOM      6  C   LIG d   1       3.588   0.404 -10.412  0.00  0.00    -0.032 C 
ATOM      7  H   LIG d   1       3.821   0.953 -11.324  0.00  0.00     0.031 H 
ATOM      8  C   LIG d   1       4.385  -0.928 -10.181  0.00  0.00    -0.041 C 
ATOM      9  C   LIG d   1       3.867   1.143  -9.065  0.00  0.00     0.005 C 
ATOM     10  H   LIG d   1       1.881  -2.186  -9.659  0.00  0.00     0.027 H 
ATOM     11  H   LIG d   1       1.578  -0.989  -8.362  0.00  0.00     0.027 H 
ATOM     12  H   LIG d   1       1.771  -0.504 -11.234  0.00  0.00     0.027 H 
ATOM     13  H   LIG d   1       1.468   0.691  -9.937  0.00  0.00     0.027 H 
ATOM     14  H   LIG d   1       5.454  -0.752 -10.066  0.00  0.00     0.028 H 
ATOM     15  H   LIG d   1       4.178  -1.667 -10.956  0.00  0.00     0.028 H 
ENDROOT
BRANCH   1  16
ATOM     16  O   LIG d   1       2.917   0.188  -7.027  0.00  0.00    -0.460 OA
BRANCH  16  17
ATOM     17  C   LIG d   1       3.298   0.148  -5.739  0.00  0.00     0.304 C 
ATOM     18  O   LIG d   1       4.468   0.040  -5.460  0.00  0.00    -0.251 OA
BRANCH  17  19
ATOM     19  C   LIG d   1       2.266   0.239  -4.645  0.00  0.00     0.033 C 
ATOM     20  H   LIG d   1       2.688  -0.144  -3.716  0.00  0.00     0.034 H 
ATOM     21  H   LIG d   1       1.971   1.279  -4.510  0.00  0.00     0.034 H 
ATOM     22  H   LIG d   1       1.393  -0.354  -4.919  0.00  0.00     0.034 H 
ENDBRANCH  17  19
ENDBRANCH  16  17
ENDBRANCH   1  16
BRANCH   9  23
ATOM     23  C   LIG d   1       5.197   1.896  -9.132  0.00  0.00    -0.056 C 
ATOM     24  H   LIG d   1       5.566   1.890 -10.158  0.00  0.00     0.024 H 
ATOM     25  H   LIG d   1       5.049   2.925  -8.805  0.00  0.00     0.024 H 
ATOM     26  H   LIG d   1       5.923   1.410  -8.482  0.00  0.00     0.024 H 
ENDBRANCH   9  23
BRANCH   9  27
ATOM     27  C   LIG d   1       2.724   2.107  -8.737  0.00  0.00    -0.056 C 
ATOM     28  H   LIG d   1       1.773   1.577  -8.797  0.00  0.00     0.024 H 
ATOM     29  H   LIG d   1       2.859   2.500  -7.729  0.00  0.00     0.024 H 
ATOM     30  H   LIG d   1       2.728   2.930  -9.451  0.00  0.00     0.024 H 
ENDBRANCH   9  27
BRANCH   3  31
ATOM     31  C   LIG d   1       4.175  -2.589  -8.151  0.00  0.00    -0.056 C 
ATOM     32  H   LIG d   1       4.880  -3.100  -8.806  0.00  0.00     0.024 H 
ATOM     33  H   LIG d   1       4.665  -2.350  -7.206  0.00  0.00     0.024 H 
ATOM     34  H   LIG d   1       3.319  -3.238  -7.963  0.00  0.00     0.024 H 
ENDBRANCH   3  31
TORSDOF 6
ENDMDL
MODEL 9
REMARK VINA RESULT:      -4.2      3.215      6.143
REMARK  6 active torsions:
REMARK  status: ('A' for Active; 'I' for Inactive)
REMARK    1  A    between atoms: C_1  and  C_2 
REMARK    2  A    between atoms: C_2  and  O_4 
REMARK    3  A    between atoms: O_4  and  C_5 
REMARK    4  A    between atoms: C_7  and  C_16 
REMARK    5  A    between atoms: C_13  and  C_14 
REMARK    6  A    between atoms: C_13  and  C_15 
ROOT
ATOM      1  C   LIG d   1       4.454  -0.005  -8.673  0.00  0.00     0.114 C 
ATOM      2  H   LIG d   1       4.707  -1.064  -8.701  0.00  0.00     0.074 H 
ATOM      3  C   LIG d   1       3.001   0.222  -9.193  0.00  0.00     0.006 C 
ATOM      4  C   LIG d   1       2.701   1.718  -8.872  0.00  0.00    -0.044 C 
ATOM      5  C   LIG d   1       3.595   2.514  -9.851  0.00  0.00    -0.049 C 
ATOM      6  C   LIG d   1       4.351   1.424 -10.670  0.00  0.00    -0.032 C 
ATOM      7  H   LIG d   1       4.770   1.748 -11.622  0.00  0.00     0.031 H 
ATOM      8  C   LIG d   1       3.257   0.301 -10.739  0.00  0.00    -0.041 C 
ATOM      9  C   LIG d   1       5.350   0.789  -9.650  0.00  0.00     0.005 C 
ATOM     10  H   LIG d   1       1.649   1.941  -9.051  0.00  0.00     0.027 H 
ATOM     11  H   LIG d   1       2.970   1.947  -7.841  0.00  0.00     0.027 H 
ATOM     12  H   LIG d   1       2.983   3.129 -10.511  0.00  0.00     0.027 H 
ATOM     13  H   LIG d   1       4.302   3.134  -9.301  0.00  0.00     0.027 H 
ATOM     14  H   LIG d   1       3.652  -0.633 -11.136  0.00  0.00     0.028 H 
ATOM     15  H   LIG d   1       2.370   0.628 -11.283  0.00  0.00     0.028 H 
ENDROOT
BRANCH   1  16
ATOM     16  O   LIG d   1       4.593   0.505  -7.345  0.00  0.00    -0.460 OA
BRANCH  16  17
ATOM     17  C   LIG d   1       4.783  -0.392  -6.364  0.00  0.00     0.304 C 
ATOM     18  O   LIG d   1       4.809  -0.030  -5.212  0.00  0.00    -0.251 OA
BRANCH  17  19
ATOM     19  C   LIG d   1       4.962  -1.850  -6.701  0.00  0.00     0.033 C 
ATOM     20  H   LIG d   1       4.470  -2.460  -5.943  0.00  0.00     0.034 H 
ATOM     21  H   LIG d   1       4.521  -2.055  -7.676  0.00  0.00     0.034 H 
ATOM     22  H   LIG d   1       6.025  -2.089  -6.726  0.00  0.00     0.034 H 
ENDBRANCH  17  19
ENDBRANCH  16  17
ENDBRANCH   1  16
BRANCH   9  23
ATOM     23  C   LIG d   1       6.322  -0.150 -10.367  0.00  0.00    -0.056 C 
ATOM     24  H   LIG d   1       6.897   0.414 -11.102  0.00  0.00     0.024 H 
ATOM     25  H   LIG d   1       7.000  -0.596  -9.639  0.00  0.00     0.024 H 
ATOM     26  H   LIG d   1       5.761  -0.937 -10.871  0.00  0.00     0.024 H 
ENDBRANCH   9  23
BRANCH   9  27
ATOM     27  C   LIG d   1       6.117   1.882  -8.903  0.00  0.00    -0.056 C 
ATOM     28  H   LIG d   1       5.436   2.417  -8.241  0.00  0.00     0.024 H 
ATOM     29  H   LIG d   1       6.915   1.427  -8.314  0.00  0.00     0.024 H 
ATOM     30  H   LIG d   1       6.549   2.578  -9.622  0.00  0.00     0.024 H 
ENDBRANCH   9  27
BRANCH   3  31
ATOM     31  C   LIG d   1       1.960  -0.798  -8.731  0.00  0.00    -0.056 C 
ATOM     32  H   LIG d   1       0.969  -0.479  -9.055  0.00  0.00     0.024 H 
ATOM     33  H   LIG d   1       2.187  -1.772  -9.165  0.00  0.00     0.024 H 
ATOM     34  H   LIG d   1       1.979  -0.871  -7.643  0.00  0.00     0.024 H 
ENDBRANCH   3  31
TORSDOF 6
ENDMDL
MODEL 10
REMARK VINA RESULT:      -3.9     10.481     11.877
REMARK  6 active torsions:
REMARK  status: ('A' for Active; 'I' for Inactive)
REMARK    1  A    between atoms: C_1  and  C_2 
REMARK    2  A    between atoms: C_2  and  O_4 
REMARK    3  A    between atoms: O_4  and  C_5 
REMARK    4  A    between atoms: C_7  and  C_16 
REMARK    5  A    between atoms: C_13  and  C_14 
REMARK    6  A    between atoms: C_13  and  C_15 
ROOT
ATOM      1  C   LIG d   1      10.946   7.792  -0.726  0.00  0.00     0.114 C 
ATOM      2  H   LIG d   1      11.771   7.213  -1.140  0.00  0.00     0.074 H 
ATOM      3  C   LIG d   1       9.786   7.902  -1.763  0.00  0.00     0.006 C 
ATOM      4  C   LIG d   1       8.606   8.533  -0.962  0.00  0.00    -0.044 C 
ATOM      5  C   LIG d   1       9.043   9.994  -0.708  0.00  0.00    -0.049 C 
ATOM      6  C   LIG d   1      10.446  10.108  -1.379  0.00  0.00    -0.032 C 
ATOM      7  H   LIG d   1      10.783  11.118  -1.611  0.00  0.00     0.031 H 
ATOM      8  C   LIG d   1      10.263   9.140  -2.600  0.00  0.00    -0.041 C 
ATOM      9  C   LIG d   1      11.386   9.252  -0.472  0.00  0.00     0.005 C 
ATOM     10  H   LIG d   1       7.690   8.507  -1.552  0.00  0.00     0.027 H 
ATOM     11  H   LIG d   1       8.465   8.009  -0.017  0.00  0.00     0.027 H 
ATOM     12  H   LIG d   1       8.342  10.687  -1.173  0.00  0.00     0.027 H 
ATOM     13  H   LIG d   1       9.117  10.188   0.362  0.00  0.00     0.027 H 
ATOM     14  H   LIG d   1      11.204   8.947  -3.115  0.00  0.00     0.028 H 
ATOM     15  H   LIG d   1       9.492   9.490  -3.287  0.00  0.00     0.028 H 
ENDROOT
BRANCH   1  16
ATOM     16  O   LIG d   1      10.477   7.195   0.485  0.00  0.00    -0.460 OA
BRANCH  16  17
ATOM     17  C   LIG d   1      11.028   6.024   0.840  0.00  0.00     0.304 C 
ATOM     18  O   LIG d   1      10.747   5.522   1.903  0.00  0.00    -0.251 OA
BRANCH  17  19
ATOM     19  C   LIG d   1      11.996   5.334  -0.086  0.00  0.00     0.033 C 
ATOM     20  H   LIG d   1      12.517   4.544   0.456  0.00  0.00     0.034 H 
ATOM     21  H   LIG d   1      11.451   4.902  -0.925  0.00  0.00     0.034 H 
ATOM     22  H   LIG d   1      12.721   6.058  -0.458  0.00  0.00     0.034 H 
ENDBRANCH  17  19
ENDBRANCH  16  17
ENDBRANCH   1  16
BRANCH   9  23
ATOM     23  C   LIG d   1      12.847   9.448  -0.879  0.00  0.00    -0.056 C 
ATOM     24  H   LIG d   1      12.993   9.081  -1.896  0.00  0.00     0.024 H 
ATOM     25  H   LIG d   1      13.098  10.507  -0.835  0.00  0.00     0.024 H 
ATOM     26  H   LIG d   1      13.492   8.893  -0.197  0.00  0.00     0.024 H 
ENDBRANCH   9  23
BRANCH   9  27
ATOM     27  C   LIG d   1      11.188   9.619   1.001  0.00  0.00    -0.056 C 
ATOM     28  H   LIG d   1      10.705   8.792   1.521  0.00  0.00     0.024 H 
ATOM     29  H   LIG d   1      12.158   9.821   1.458  0.00  0.00     0.024 H 
ATOM     30  H   LIG d   1      10.562  10.508   1.071  0.00  0.00     0.024 H 
ENDBRANCH   9  27
BRANCH   3  31
ATOM     31  C   LIG d   1       9.473   6.631  -2.553  0.00  0.00    -0.056 C 
ATOM     32  H   LIG d   1      10.292   6.419  -3.241  0.00  0.00     0.024 H 
ATOM     33  H   LIG d   1       9.353   5.795  -1.863  0.00  0.00     0.024 H 
ATOM     34  H   LIG d   1       8.551   6.771  -3.118  0.00  0.00     0.024 H 
ENDBRANCH   3  31
TORSDOF 6
ENDMDL
