MODEL 1
REMARK VINA RESULT:      -6.4      0.000      0.000
REMARK  9 active torsions:
REMARK  status: ('A' for Active; 'I' for Inactive)
REMARK    1  A    between atoms: C_1  and  C_2 
REMARK    2  A    between atoms: C_2  and  C_3 
REMARK    3  A    between atoms: N_6  and  S_21 
REMARK    4  A    between atoms: C_9  and  C_11 
REMARK    5  A    between atoms: C_11  and  C_12 
REMARK       I    between atoms: C_12  and  N_14 
REMARK    6  A    between atoms: C_17  and  O_20 
REMARK    7  A    between atoms: S_21  and  C_24 
REMARK    8  A    between atoms: C_25  and  C_30 
REMARK    9  A    between atoms: C_28  and  C_29 
ROOT
ATOM      1  C   LIG d   1       4.638  -2.243  -6.953  0.00  0.00    -0.024 C 
ATOM      2  H   LIG d   1       3.893  -2.644  -6.267  0.00  0.00     0.032 H 
ATOM      3  C   LIG d   1       4.151  -2.417  -8.395  0.00  0.00     0.024 C 
ATOM      4  N   LIG d   1       5.219  -1.991  -9.310  0.00  0.00    -0.176 N 
ATOM      5  C   LIG d   1       6.555  -2.584  -9.162  0.00  0.00     0.021 C 
ATOM      6  C   LIG d   1       7.015  -2.408  -7.711  0.00  0.00    -0.035 C 
ATOM      7  C   LIG d   1       5.959  -2.993  -6.771  0.00  0.00    -0.028 C 
ATOM      8  H   LIG d   1       5.811  -4.048  -7.002  0.00  0.00     0.031 H 
ATOM      9  H   LIG d   1       3.265  -1.805  -8.558  0.00  0.00     0.045 H 
ATOM     10  H   LIG d   1       3.910  -3.464  -8.578  0.00  0.00     0.045 H 
ATOM     11  H   LIG d   1       7.254  -2.082  -9.831  0.00  0.00     0.044 H 
ATOM     12  H   LIG d   1       6.515  -3.645  -9.406  0.00  0.00     0.044 H 
ATOM     13  H   LIG d   1       7.145  -1.347  -7.497  0.00  0.00     0.028 H 
ATOM     14  H   LIG d   1       7.961  -2.928  -7.564  0.00  0.00     0.028 H 
ENDROOT
BRANCH   7  15
ATOM     15  C   LIG d   1       6.431  -2.850  -5.323  0.00  0.00     0.027 C 
ATOM     16  H   LIG d   1       6.895  -1.873  -5.186  0.00  0.00     0.036 H 
ATOM     17  H   LIG d   1       7.157  -3.632  -5.098  0.00  0.00     0.036 H 
BRANCH  15  18
ATOM     18  C   LIG d   1       5.251  -2.980  -4.395  0.00  0.00     0.216 C 
ATOM     19  O   LIG d   1       4.441  -3.868  -4.563  0.00  0.00    -0.276 OA
ATOM     20  N   LIG d   1       5.095  -2.110  -3.377  0.00  0.00    -0.301 N 
ATOM     21  C   LIG d   1       6.064  -1.024  -3.159  0.00  0.00     0.017 C 
ATOM     22  C   LIG d   1       3.949  -2.223  -2.465  0.00  0.00     0.017 C 
ATOM     23  C   LIG d   1       5.310   0.308  -3.101  0.00  0.00    -0.011 C 
ATOM     24  H   LIG d   1       6.780  -1.003  -3.980  0.00  0.00     0.046 H 
ATOM     25  H   LIG d   1       6.591  -1.187  -2.219  0.00  0.00     0.046 H 
ATOM     26  C   LIG d   1       4.213   0.224  -2.038  0.00  0.00     0.058 C 
ATOM     27  H   LIG d   1       4.861   0.515  -4.072  0.00  0.00     0.030 H 
ATOM     28  H   LIG d   1       6.004   1.109  -2.843  0.00  0.00     0.030 H 
ATOM     29  C   LIG d   1       3.219  -0.878  -2.415  0.00  0.00    -0.011 C 
ATOM     30  H   LIG d   1       4.661  -0.006  -1.071  0.00  0.00     0.059 H 
ATOM     31  H   LIG d   1       2.789  -0.661  -3.392  0.00  0.00     0.030 H 
ATOM     32  H   LIG d   1       2.425  -0.921  -1.669  0.00  0.00     0.030 H 
ATOM     33  H   LIG d   1       4.301  -2.485  -1.467  0.00  0.00     0.046 H 
ATOM     34  H   LIG d   1       3.269  -2.994  -2.825  0.00  0.00     0.046 H 
BRANCH  26  35
ATOM     35  O   LIG d   1       3.528   1.476  -1.959  0.00  0.00    -0.392 OA
ATOM     36  H   LIG d   1       3.461   1.940  -2.805  0.00  0.00     0.210 HD
ENDBRANCH  26  35
ENDBRANCH  15  18
ENDBRANCH   7  15
BRANCH   1  37
ATOM     37  C   LIG d   1       4.852  -0.756  -6.662  0.00  0.00    -0.052 C 
ATOM     38  H   LIG d   1       5.658  -0.639  -5.939  0.00  0.00     0.027 H 
ATOM     39  H   LIG d   1       5.114  -0.239  -7.586  0.00  0.00     0.027 H 
BRANCH  37  40
ATOM     40  C   LIG d   1       3.564  -0.158  -6.091  0.00  0.00    -0.065 C 
ATOM     41  H   LIG d   1       2.786  -0.921  -6.075  0.00  0.00     0.023 H 
ATOM     42  H   LIG d   1       3.747   0.197  -5.078  0.00  0.00     0.023 H 
ATOM     43  H   LIG d   1       3.243   0.675  -6.716  0.00  0.00     0.023 H 
ENDBRANCH  37  40
ENDBRANCH   1  37
BRANCH   4  44
ATOM     44  S   LIG d   1       4.923  -0.861 -10.485  0.00  0.00     0.066 S 
ATOM     45  O   LIG d   1       6.187  -0.347 -10.881  0.00  0.00    -0.153 OA
ATOM     46  O   LIG d   1       4.021  -1.459 -11.405  0.00  0.00    -0.153 OA
BRANCH  44  47
ATOM     47  C   LIG d   1       4.055   0.469  -9.720  0.00  0.00     0.170 A 
ATOM     48  C   LIG d   1       2.718   0.606  -9.554  0.00  0.00     0.161 A 
ATOM     49  O   LIG d   1       2.532   1.773  -8.921  0.00  0.00    -0.358 OA
ATOM     50  N   LIG d   1       3.582   2.330  -8.697  0.00  0.00    -0.081 NA
ATOM     51  C   LIG d   1       4.595   1.636  -9.131  0.00  0.00     0.107 A 
BRANCH  48  52
ATOM     52  C   LIG d   1       1.650  -0.361  -9.995  0.00  0.00    -0.002 C 
ATOM     53  H   LIG d   1       1.361  -0.142 -11.022  0.00  0.00     0.031 H 
ATOM     54  H   LIG d   1       2.035  -1.380  -9.935  0.00  0.00     0.031 H 
ATOM     55  H   LIG d   1       0.781  -0.263  -9.344  0.00  0.00     0.031 H 
ENDBRANCH  48  52
BRANCH  51  56
ATOM     56  C   LIG d   1       6.052   2.004  -9.027  0.00  0.00    -0.017 C 
ATOM     57  H   LIG d   1       6.295   2.241  -7.992  0.00  0.00     0.029 H 
ATOM     58  H   LIG d   1       6.664   1.166  -9.361  0.00  0.00     0.029 H 
ATOM     59  H   LIG d   1       6.253   2.872  -9.656  0.00  0.00     0.029 H 
ENDBRANCH  51  56
ENDBRANCH  44  47
ENDBRANCH   4  44
TORSDOF 9
ENDMDL
MODEL 2
REMARK VINA RESULT:      -6.2      3.903      6.137
REMARK  9 active torsions:
REMARK  status: ('A' for Active; 'I' for Inactive)
REMARK    1  A    between atoms: C_1  and  C_2 
REMARK    2  A    between atoms: C_2  and  C_3 
REMARK    3  A    between atoms: N_6  and  S_21 
REMARK    4  A    between atoms: C_9  and  C_11 
REMARK    5  A    between atoms: C_11  and  C_12 
REMARK       I    between atoms: C_12  and  N_14 
REMARK    6  A    between atoms: C_17  and  O_20 
REMARK    7  A    between atoms: S_21  and  C_24 
REMARK    8  A    between atoms: C_25  and  C_30 
REMARK    9  A    between atoms: C_28  and  C_29 
ROOT
ATOM      1  C   LIG d   1       7.314  -3.389  -4.602  0.00  0.00    -0.024 C 
ATOM      2  H   LIG d   1       7.956  -3.766  -3.806  0.00  0.00     0.032 H 
ATOM      3  C   LIG d   1       6.191  -2.541  -3.994  0.00  0.00     0.024 C 
ATOM      4  N   LIG d   1       5.264  -2.148  -5.064  0.00  0.00    -0.176 N 
ATOM      5  C   LIG d   1       4.688  -3.195  -5.920  0.00  0.00     0.021 C 
ATOM      6  C   LIG d   1       5.828  -4.035  -6.506  0.00  0.00    -0.035 C 
ATOM      7  C   LIG d   1       6.703  -4.564  -5.368  0.00  0.00    -0.028 C 
ATOM      8  H   LIG d   1       6.094  -5.161  -4.688  0.00  0.00     0.031 H 
ATOM      9  H   LIG d   1       6.615  -1.650  -3.533  0.00  0.00     0.045 H 
ATOM     10  H   LIG d   1       5.658  -3.122  -3.243  0.00  0.00     0.045 H 
ATOM     11  H   LIG d   1       4.121  -2.734  -6.729  0.00  0.00     0.044 H 
ATOM     12  H   LIG d   1       4.031  -3.832  -5.329  0.00  0.00     0.044 H 
ATOM     13  H   LIG d   1       6.431  -3.416  -7.171  0.00  0.00     0.028 H 
ATOM     14  H   LIG d   1       5.412  -4.872  -7.065  0.00  0.00     0.028 H 
ENDROOT
BRANCH   7  15
ATOM     15  C   LIG d   1       7.822  -5.432  -5.946  0.00  0.00     0.027 C 
ATOM     16  H   LIG d   1       8.770  -4.899  -5.874  0.00  0.00     0.036 H 
ATOM     17  H   LIG d   1       7.607  -5.652  -6.992  0.00  0.00     0.036 H 
BRANCH  15  18
ATOM     18  C   LIG d   1       7.911  -6.721  -5.170  0.00  0.00     0.216 C 
ATOM     19  O   LIG d   1       7.086  -7.593  -5.345  0.00  0.00    -0.276 OA
ATOM     20  N   LIG d   1       8.908  -6.905  -4.282  0.00  0.00    -0.301 N 
ATOM     21  C   LIG d   1       9.917  -5.857  -4.053  0.00  0.00     0.017 C 
ATOM     22  C   LIG d   1       9.007  -8.155  -3.517  0.00  0.00     0.017 C 
ATOM     23  C   LIG d   1       9.977  -5.549  -2.553  0.00  0.00    -0.011 C 
ATOM     24  H   LIG d   1       9.638  -4.958  -4.600  0.00  0.00     0.046 H 
ATOM     25  H   LIG d   1      10.891  -6.206  -4.394  0.00  0.00     0.046 H 
ATOM     26  C   LIG d   1      10.231  -6.843  -1.779  0.00  0.00     0.058 C 
ATOM     27  H   LIG d   1       9.032  -5.112  -2.233  0.00  0.00     0.030 H 
ATOM     28  H   LIG d   1      10.788  -4.845  -2.360  0.00  0.00     0.030 H 
ATOM     29  C   LIG d   1       9.079  -7.821  -2.025  0.00  0.00    -0.011 C 
ATOM     30  H   LIG d   1      11.166  -7.293  -2.117  0.00  0.00     0.059 H 
ATOM     31  H   LIG d   1       8.141  -7.364  -1.709  0.00  0.00     0.030 H 
ATOM     32  H   LIG d   1       9.248  -8.734  -1.454  0.00  0.00     0.030 H 
ATOM     33  H   LIG d   1       9.907  -8.694  -3.814  0.00  0.00     0.046 H 
ATOM     34  H   LIG d   1       8.131  -8.774  -3.711  0.00  0.00     0.046 H 
BRANCH  26  35
ATOM     35  O   LIG d   1      10.320  -6.554  -0.382  0.00  0.00    -0.392 OA
ATOM     36  H   LIG d   1      10.973  -5.876  -0.163  0.00  0.00     0.210 HD
ENDBRANCH  26  35
ENDBRANCH  15  18
ENDBRANCH   7  15
BRANCH   1  37
ATOM     37  C   LIG d   1       8.141  -2.530  -5.561  0.00  0.00    -0.052 C 
ATOM     38  H   LIG d   1       8.318  -3.082  -6.483  0.00  0.00     0.027 H 
ATOM     39  H   LIG d   1       7.598  -1.611  -5.786  0.00  0.00     0.027 H 
BRANCH  37  40
ATOM     40  C   LIG d   1       9.481  -2.183  -4.908  0.00  0.00    -0.065 C 
ATOM     41  H   LIG d   1      10.038  -3.100  -4.713  0.00  0.00     0.023 H 
ATOM     42  H   LIG d   1      10.056  -1.543  -5.576  0.00  0.00     0.023 H 
ATOM     43  H   LIG d   1       9.302  -1.660  -3.968  0.00  0.00     0.023 H 
ENDBRANCH  37  40
ENDBRANCH   1  37
BRANCH   4  44
ATOM     44  S   LIG d   1       4.876  -0.555  -5.301  0.00  0.00     0.066 S 
ATOM     45  O   LIG d   1       6.005   0.050  -5.915  0.00  0.00    -0.153 OA
ATOM     46  O   LIG d   1       3.585  -0.536  -5.894  0.00  0.00    -0.153 OA
BRANCH  44  47
ATOM     47  C   LIG d   1       4.711   0.182  -3.710  0.00  0.00     0.170 A 
ATOM     48  C   LIG d   1       3.661   0.101  -2.857  0.00  0.00     0.161 A 
ATOM     49  O   LIG d   1       3.995   0.821  -1.776  0.00  0.00    -0.358 OA
ATOM     50  N   LIG d   1       5.096   1.307  -1.887  0.00  0.00    -0.081 NA
ATOM     51  C   LIG d   1       5.648   0.990  -3.023  0.00  0.00     0.107 A 
BRANCH  48  52
ATOM     52  C   LIG d   1       2.374  -0.649  -3.080  0.00  0.00    -0.002 C 
ATOM     53  H   LIG d   1       1.575   0.057  -3.304  0.00  0.00     0.031 H 
ATOM     54  H   LIG d   1       2.495  -1.338  -3.917  0.00  0.00     0.031 H 
ATOM     55  H   LIG d   1       2.121  -1.211  -2.180  0.00  0.00     0.031 H 
ENDBRANCH  48  52
BRANCH  51  56
ATOM     56  C   LIG d   1       7.012   1.404  -3.511  0.00  0.00    -0.017 C 
ATOM     57  H   LIG d   1       7.679   0.542  -3.502  0.00  0.00     0.029 H 
ATOM     58  H   LIG d   1       6.933   1.791  -4.528  0.00  0.00     0.029 H 
ATOM     59  H   LIG d   1       7.412   2.180  -2.858  0.00  0.00     0.029 H 
ENDBRANCH  51  56
ENDBRANCH  44  47
ENDBRANCH   4  44
TORSDOF 9
ENDMDL
MODEL 3
REMARK VINA RESULT:      -6.1      2.588      7.420
REMARK  9 active torsions:
REMARK  status: ('A' for Active; 'I' for Inactive)
REMARK    1  A    between atoms: C_1  and  C_2 
REMARK    2  A    between atoms: C_2  and  C_3 
REMARK    3  A    between atoms: N_6  and  S_21 
REMARK    4  A    between atoms: C_9  and  C_11 
REMARK    5  A    between atoms: C_11  and  C_12 
REMARK       I    between atoms: C_12  and  N_14 
REMARK    6  A    between atoms: C_17  and  O_20 
REMARK    7  A    between atoms: S_21  and  C_24 
REMARK    8  A    between atoms: C_25  and  C_30 
REMARK    9  A    between atoms: C_28  and  C_29 
ROOT
ATOM      1  C   LIG d   1       4.102  -1.374  -8.314  0.00  0.00    -0.024 C 
ATOM      2  H   LIG d   1       3.907  -2.059  -9.139  0.00  0.00     0.032 H 
ATOM      3  C   LIG d   1       4.369  -2.177  -7.036  0.00  0.00     0.024 C 
ATOM      4  N   LIG d   1       4.502  -1.242  -5.910  0.00  0.00    -0.176 N 
ATOM      5  C   LIG d   1       3.430  -0.267  -5.670  0.00  0.00     0.021 C 
ATOM      6  C   LIG d   1       3.175   0.514  -6.963  0.00  0.00    -0.035 C 
ATOM      7  C   LIG d   1       2.887  -0.469  -8.100  0.00  0.00    -0.028 C 
ATOM      8  H   LIG d   1       2.022  -1.081  -7.842  0.00  0.00     0.031 H 
ATOM      9  H   LIG d   1       5.290  -2.748  -7.148  0.00  0.00     0.045 H 
ATOM     10  H   LIG d   1       3.538  -2.857  -6.849  0.00  0.00     0.045 H 
ATOM     11  H   LIG d   1       3.732   0.422  -4.881  0.00  0.00     0.044 H 
ATOM     12  H   LIG d   1       2.521  -0.787  -5.371  0.00  0.00     0.044 H 
ATOM     13  H   LIG d   1       4.055   1.108  -7.210  0.00  0.00     0.028 H 
ATOM     14  H   LIG d   1       2.318   1.173  -6.827  0.00  0.00     0.028 H 
ENDROOT
BRANCH   7  15
ATOM     15  C   LIG d   1       2.597   0.308  -9.385  0.00  0.00     0.027 C 
ATOM     16  H   LIG d   1       3.505   0.812  -9.717  0.00  0.00     0.036 H 
ATOM     17  H   LIG d   1       1.819   1.046  -9.196  0.00  0.00     0.036 H 
BRANCH  15  18
ATOM     18  C   LIG d   1       2.135  -0.647 -10.456  0.00  0.00     0.216 C 
ATOM     19  O   LIG d   1       1.204  -1.395 -10.240  0.00  0.00    -0.276 OA
ATOM     20  N   LIG d   1       2.753  -0.668 -11.653  0.00  0.00    -0.301 N 
ATOM     21  C   LIG d   1       3.886   0.230 -11.932  0.00  0.00     0.017 C 
ATOM     22  C   LIG d   1       2.313  -1.594 -12.706  0.00  0.00     0.017 C 
ATOM     23  C   LIG d   1       5.072  -0.608 -12.420  0.00  0.00    -0.011 C 
ATOM     24  H   LIG d   1       4.162   0.761 -11.023  0.00  0.00     0.046 H 
ATOM     25  H   LIG d   1       3.603   0.947 -12.703  0.00  0.00     0.046 H 
ATOM     26  C   LIG d   1       4.636  -1.458 -13.615  0.00  0.00     0.058 C 
ATOM     27  H   LIG d   1       5.413  -1.259 -11.615  0.00  0.00     0.030 H 
ATOM     28  H   LIG d   1       5.885   0.054 -12.722  0.00  0.00     0.030 H 
ATOM     29  C   LIG d   1       3.517  -2.410 -13.184  0.00  0.00    -0.011 C 
ATOM     30  H   LIG d   1       4.272  -0.807 -14.411  0.00  0.00     0.059 H 
ATOM     31  H   LIG d   1       3.872  -3.044 -12.373  0.00  0.00     0.030 H 
ATOM     32  H   LIG d   1       3.223  -3.031 -14.031  0.00  0.00     0.030 H 
ATOM     33  H   LIG d   1       1.901  -1.027 -13.541  0.00  0.00     0.046 H 
ATOM     34  H   LIG d   1       1.552  -2.265 -12.309  0.00  0.00     0.046 H 
BRANCH  26  35
ATOM     35  O   LIG d   1       5.749  -2.216 -14.092  0.00  0.00    -0.392 OA
ATOM     36  H   LIG d   1       6.515  -2.204 -13.501  0.00  0.00     0.210 HD
ENDBRANCH  26  35
ENDBRANCH  15  18
ENDBRANCH   7  15
BRANCH   1  37
ATOM     37  C   LIG d   1       5.326  -0.516  -8.642  0.00  0.00    -0.052 C 
ATOM     38  H   LIG d   1       5.088   0.155  -9.467  0.00  0.00     0.027 H 
ATOM     39  H   LIG d   1       5.605   0.069  -7.766  0.00  0.00     0.027 H 
BRANCH  37  40
ATOM     40  C   LIG d   1       6.492  -1.423  -9.042  0.00  0.00    -0.065 C 
ATOM     41  H   LIG d   1       6.190  -2.054  -9.878  0.00  0.00     0.023 H 
ATOM     42  H   LIG d   1       7.343  -0.810  -9.338  0.00  0.00     0.023 H 
ATOM     43  H   LIG d   1       6.771  -2.050  -8.196  0.00  0.00     0.023 H 
ENDBRANCH  37  40
ENDBRANCH   1  37
BRANCH   4  44
ATOM     44  S   LIG d   1       5.838  -1.286  -4.931  0.00  0.00     0.066 S 
ATOM     45  O   LIG d   1       6.003  -2.638  -4.530  0.00  0.00    -0.153 OA
ATOM     46  O   LIG d   1       6.858  -0.560  -5.604  0.00  0.00    -0.153 OA
BRANCH  44  47
ATOM     47  C   LIG d   1       5.446  -0.373  -3.476  0.00  0.00     0.170 A 
ATOM     48  C   LIG d   1       5.968   0.808  -3.066  0.00  0.00     0.161 A 
ATOM     49  O   LIG d   1       5.362   1.109  -1.908  0.00  0.00    -0.358 OA
ATOM     50  N   LIG d   1       4.560   0.261  -1.592  0.00  0.00    -0.081 NA
ATOM     51  C   LIG d   1       4.509  -0.700  -2.469  0.00  0.00     0.107 A 
BRANCH  48  52
ATOM     52  C   LIG d   1       7.020   1.623  -3.772  0.00  0.00    -0.002 C 
ATOM     53  H   LIG d   1       6.595   2.063  -4.674  0.00  0.00     0.031 H 
ATOM     54  H   LIG d   1       7.370   2.417  -3.112  0.00  0.00     0.031 H 
ATOM     55  H   LIG d   1       7.858   0.979  -4.042  0.00  0.00     0.031 H 
ENDBRANCH  48  52
BRANCH  51  56
ATOM     56  C   LIG d   1       3.627  -1.922  -2.418  0.00  0.00    -0.017 C 
ATOM     57  H   LIG d   1       4.105  -2.690  -1.811  0.00  0.00     0.029 H 
ATOM     58  H   LIG d   1       2.665  -1.658  -1.980  0.00  0.00     0.029 H 
ATOM     59  H   LIG d   1       3.474  -2.301  -3.429  0.00  0.00     0.029 H 
ENDBRANCH  51  56
ENDBRANCH  44  47
ENDBRANCH   4  44
TORSDOF 9
ENDMDL
MODEL 4
REMARK VINA RESULT:      -6.0      4.143      5.810
REMARK  9 active torsions:
REMARK  status: ('A' for Active; 'I' for Inactive)
REMARK    1  A    between atoms: C_1  and  C_2 
REMARK    2  A    between atoms: C_2  and  C_3 
REMARK    3  A    between atoms: N_6  and  S_21 
REMARK    4  A    between atoms: C_9  and  C_11 
REMARK    5  A    between atoms: C_11  and  C_12 
REMARK       I    between atoms: C_12  and  N_14 
REMARK    6  A    between atoms: C_17  and  O_20 
REMARK    7  A    between atoms: S_21  and  C_24 
REMARK    8  A    between atoms: C_25  and  C_30 
REMARK    9  A    between atoms: C_28  and  C_29 
ROOT
ATOM      1  C   LIG d   1       7.967  -0.654  -4.329  0.00  0.00    -0.024 C 
ATOM      2  H   LIG d   1       8.701  -0.283  -3.613  0.00  0.00     0.032 H 
ATOM      3  C   LIG d   1       7.155  -1.784  -3.687  0.00  0.00     0.024 C 
ATOM      4  N   LIG d   1       6.262  -2.359  -4.702  0.00  0.00    -0.176 N 
ATOM      5  C   LIG d   1       6.839  -2.821  -5.972  0.00  0.00     0.021 C 
ATOM      6  C   LIG d   1       7.654  -1.679  -6.587  0.00  0.00    -0.035 C 
ATOM      7  C   LIG d   1       8.686  -1.188  -5.569  0.00  0.00    -0.028 C 
ATOM      8  H   LIG d   1       9.336  -2.015  -5.283  0.00  0.00     0.031 H 
ATOM      9  H   LIG d   1       6.563  -1.387  -2.863  0.00  0.00     0.045 H 
ATOM     10  H   LIG d   1       7.829  -2.555  -3.315  0.00  0.00     0.045 H 
ATOM     11  H   LIG d   1       6.039  -3.108  -6.654  0.00  0.00     0.044 H 
ATOM     12  H   LIG d   1       7.488  -3.677  -5.790  0.00  0.00     0.044 H 
ATOM     13  H   LIG d   1       6.988  -0.859  -6.855  0.00  0.00     0.028 H 
ATOM     14  H   LIG d   1       8.166  -2.038  -7.480  0.00  0.00     0.028 H 
ENDROOT
BRANCH   7  15
ATOM     15  C   LIG d   1       9.526  -0.072  -6.192  0.00  0.00     0.027 C 
ATOM     16  H   LIG d   1       8.885   0.781  -6.418  0.00  0.00     0.036 H 
ATOM     17  H   LIG d   1       9.987  -0.433  -7.111  0.00  0.00     0.036 H 
BRANCH  15  18
ATOM     18  C   LIG d   1      10.599   0.350  -5.222  0.00  0.00     0.216 C 
ATOM     19  O   LIG d   1      11.320  -0.483  -4.715  0.00  0.00    -0.276 OA
ATOM     20  N   LIG d   1      10.760   1.654  -4.920  0.00  0.00    -0.301 N 
ATOM     21  C   LIG d   1       9.894   2.680  -5.523  0.00  0.00     0.017 C 
ATOM     22  C   LIG d   1      11.802   2.080  -3.976  0.00  0.00     0.017 C 
ATOM     23  C   LIG d   1       9.271   3.522  -4.405  0.00  0.00    -0.011 C 
ATOM     24  H   LIG d   1       9.105   2.198  -6.100  0.00  0.00     0.046 H 
ATOM     25  H   LIG d   1      10.485   3.321  -6.177  0.00  0.00     0.046 H 
ATOM     26  C   LIG d   1      10.382   4.083  -3.515  0.00  0.00     0.058 C 
ATOM     27  H   LIG d   1       8.606   2.899  -3.808  0.00  0.00     0.030 H 
ATOM     28  H   LIG d   1       8.705   4.345  -4.841  0.00  0.00     0.030 H 
ATOM     29  C   LIG d   1      11.158   2.929  -2.876  0.00  0.00    -0.011 C 
ATOM     30  H   LIG d   1      11.061   4.687  -4.118  0.00  0.00     0.059 H 
ATOM     31  H   LIG d   1      10.476   2.311  -2.293  0.00  0.00     0.030 H 
ATOM     32  H   LIG d   1      11.935   3.330  -2.224  0.00  0.00     0.030 H 
ATOM     33  H   LIG d   1      12.551   2.672  -4.503  0.00  0.00     0.046 H 
ATOM     34  H   LIG d   1      12.275   1.204  -3.533  0.00  0.00     0.046 H 
BRANCH  26  35
ATOM     35  O   LIG d   1       9.807   4.895  -2.489  0.00  0.00    -0.392 OA
ATOM     36  H   LIG d   1       8.933   5.246  -2.710  0.00  0.00     0.210 HD
ENDBRANCH  26  35
ENDBRANCH  15  18
ENDBRANCH   7  15
BRANCH   1  37
ATOM     37  C   LIG d   1       7.028   0.484  -4.734  0.00  0.00    -0.052 C 
ATOM     38  H   LIG d   1       7.532   1.135  -5.447  0.00  0.00     0.027 H 
ATOM     39  H   LIG d   1       6.130   0.068  -5.191  0.00  0.00     0.027 H 
BRANCH  37  40
ATOM     40  C   LIG d   1       6.640   1.291  -3.492  0.00  0.00    -0.065 C 
ATOM     41  H   LIG d   1       7.276   0.999  -2.657  0.00  0.00     0.023 H 
ATOM     42  H   LIG d   1       6.769   2.353  -3.695  0.00  0.00     0.023 H 
ATOM     43  H   LIG d   1       5.598   1.092  -3.242  0.00  0.00     0.023 H 
ENDBRANCH  37  40
ENDBRANCH   1  37
BRANCH   4  44
ATOM     44  S   LIG d   1       4.634  -2.482  -4.421  0.00  0.00     0.066 S 
ATOM     45  O   LIG d   1       4.144  -3.481  -5.305  0.00  0.00    -0.153 OA
ATOM     46  O   LIG d   1       4.470  -2.564  -3.012  0.00  0.00    -0.153 OA
BRANCH  44  47
ATOM     47  C   LIG d   1       3.903  -0.960  -4.926  0.00  0.00     0.170 A 
ATOM     48  C   LIG d   1       3.369   0.008  -4.143  0.00  0.00     0.161 A 
ATOM     49  O   LIG d   1       2.940   0.971  -4.972  0.00  0.00    -0.358 OA
ATOM     50  N   LIG d   1       3.153   0.691  -6.129  0.00  0.00    -0.081 NA
ATOM     51  C   LIG d   1       3.744  -0.465  -6.241  0.00  0.00     0.107 A 
BRANCH  48  52
ATOM     52  C   LIG d   1       3.276   0.005  -2.640  0.00  0.00    -0.002 C 
ATOM     53  H   LIG d   1       2.240  -0.154  -2.340  0.00  0.00     0.031 H 
ATOM     54  H   LIG d   1       3.897  -0.797  -2.239  0.00  0.00     0.031 H 
ATOM     55  H   LIG d   1       3.624   0.963  -2.252  0.00  0.00     0.031 H 
ENDBRANCH  48  52
BRANCH  51  56
ATOM     56  C   LIG d   1       4.171  -1.140  -7.518  0.00  0.00    -0.017 C 
ATOM     57  H   LIG d   1       3.523  -1.996  -7.711  0.00  0.00     0.029 H 
ATOM     58  H   LIG d   1       4.096  -0.435  -8.346  0.00  0.00     0.029 H 
ATOM     59  H   LIG d   1       5.203  -1.480  -7.422  0.00  0.00     0.029 H 
ENDBRANCH  51  56
ENDBRANCH  44  47
ENDBRANCH   4  44
TORSDOF 9
ENDMDL
MODEL 5
REMARK VINA RESULT:      -5.9      6.508      8.400
REMARK  9 active torsions:
REMARK  status: ('A' for Active; 'I' for Inactive)
REMARK    1  A    between atoms: C_1  and  C_2 
REMARK    2  A    between atoms: C_2  and  C_3 
REMARK    3  A    between atoms: N_6  and  S_21 
REMARK    4  A    between atoms: C_9  and  C_11 
REMARK    5  A    between atoms: C_11  and  C_12 
REMARK       I    between atoms: C_12  and  N_14 
REMARK    6  A    between atoms: C_17  and  O_20 
REMARK    7  A    between atoms: S_21  and  C_24 
REMARK    8  A    between atoms: C_25  and  C_30 
REMARK    9  A    between atoms: C_28  and  C_29 
ROOT
ATOM      1  C   LIG d   1      10.468   2.421  -5.667  0.00  0.00    -0.024 C 
ATOM      2  H   LIG d   1      10.680   1.825  -6.554  0.00  0.00     0.032 H 
ATOM      3  C   LIG d   1      11.784   2.905  -5.049  0.00  0.00     0.024 C 
ATOM      4  N   LIG d   1      11.487   3.595  -3.787  0.00  0.00    -0.176 N 
ATOM      5  C   LIG d   1      10.689   2.897  -2.770  0.00  0.00     0.021 C 
ATOM      6  C   LIG d   1       9.385   2.414  -3.413  0.00  0.00    -0.035 C 
ATOM      7  C   LIG d   1       9.713   1.567  -4.646  0.00  0.00    -0.028 C 
ATOM      8  H   LIG d   1      10.334   0.722  -4.351  0.00  0.00     0.031 H 
ATOM      9  H   LIG d   1      12.278   3.593  -5.735  0.00  0.00     0.045 H 
ATOM     10  H   LIG d   1      12.434   2.052  -4.856  0.00  0.00     0.045 H 
ATOM     11  H   LIG d   1      10.461   3.581  -1.952  0.00  0.00     0.044 H 
ATOM     12  H   LIG d   1      11.247   2.043  -2.387  0.00  0.00     0.044 H 
ATOM     13  H   LIG d   1       8.785   3.274  -3.711  0.00  0.00     0.028 H 
ATOM     14  H   LIG d   1       8.828   1.812  -2.697  0.00  0.00     0.028 H 
ENDROOT
BRANCH   7  15
ATOM     15  C   LIG d   1       8.415   1.054  -5.271  0.00  0.00     0.027 C 
ATOM     16  H   LIG d   1       8.488   1.110  -6.357  0.00  0.00     0.036 H 
ATOM     17  H   LIG d   1       7.580   1.667  -4.931  0.00  0.00     0.036 H 
BRANCH  15  18
ATOM     18  C   LIG d   1       8.189  -0.377  -4.856  0.00  0.00     0.216 C 
ATOM     19  O   LIG d   1       8.948  -1.245  -5.234  0.00  0.00    -0.276 OA
ATOM     20  N   LIG d   1       7.146  -0.693  -4.063  0.00  0.00    -0.301 N 
ATOM     21  C   LIG d   1       6.213   0.346  -3.596  0.00  0.00     0.017 C 
ATOM     22  C   LIG d   1       6.913  -2.083  -3.650  0.00  0.00     0.017 C 
ATOM     23  C   LIG d   1       4.785  -0.073  -3.958  0.00  0.00    -0.011 C 
ATOM     24  H   LIG d   1       6.450   1.293  -4.080  0.00  0.00     0.046 H 
ATOM     25  H   LIG d   1       6.299   0.456  -2.515  0.00  0.00     0.046 H 
ATOM     26  C   LIG d   1       4.507  -1.467  -3.391  0.00  0.00     0.058 C 
ATOM     27  H   LIG d   1       4.675  -0.092  -5.041  0.00  0.00     0.030 H 
ATOM     28  H   LIG d   1       4.078   0.640  -3.532  0.00  0.00     0.030 H 
ATOM     29  C   LIG d   1       5.477  -2.475  -4.011  0.00  0.00    -0.011 C 
ATOM     30  H   LIG d   1       4.640  -1.453  -2.309  0.00  0.00     0.059 H 
ATOM     31  H   LIG d   1       5.361  -2.472  -5.094  0.00  0.00     0.030 H 
ATOM     32  H   LIG d   1       5.263  -3.471  -3.625  0.00  0.00     0.030 H 
ATOM     33  H   LIG d   1       7.057  -2.174  -2.573  0.00  0.00     0.046 H 
ATOM     34  H   LIG d   1       7.612  -2.741  -4.168  0.00  0.00     0.046 H 
BRANCH  26  35
ATOM     35  O   LIG d   1       3.164  -1.847  -3.699  0.00  0.00    -0.392 OA
ATOM     36  H   LIG d   1       2.529  -1.650  -2.997  0.00  0.00     0.210 HD
ENDBRANCH  26  35
ENDBRANCH  15  18
ENDBRANCH   7  15
BRANCH   1  37
ATOM     37  C   LIG d   1       9.611   3.628  -6.055  0.00  0.00    -0.052 C 
ATOM     38  H   LIG d   1       8.577   3.312  -6.187  0.00  0.00     0.027 H 
ATOM     39  H   LIG d   1       9.665   4.380  -5.268  0.00  0.00     0.027 H 
BRANCH  37  40
ATOM     40  C   LIG d   1      10.134   4.223  -7.365  0.00  0.00    -0.065 C 
ATOM     41  H   LIG d   1      11.076   3.743  -7.632  0.00  0.00     0.023 H 
ATOM     42  H   LIG d   1       9.404   4.056  -8.157  0.00  0.00     0.023 H 
ATOM     43  H   LIG d   1      10.295   5.294  -7.239  0.00  0.00     0.023 H 
ENDBRANCH  37  40
ENDBRANCH   1  37
BRANCH   4  44
ATOM     44  S   LIG d   1      12.042   5.133  -3.515  0.00  0.00     0.066 S 
ATOM     45  O   LIG d   1      13.216   5.007  -2.725  0.00  0.00    -0.153 OA
ATOM     46  O   LIG d   1      12.037   5.794  -4.773  0.00  0.00    -0.153 OA
BRANCH  44  47
ATOM     47  C   LIG d   1      10.844   5.948  -2.513  0.00  0.00     0.170 A 
ATOM     48  C   LIG d   1       9.686   6.532  -2.904  0.00  0.00     0.161 A 
ATOM     49  O   LIG d   1       9.111   7.016  -1.794  0.00  0.00    -0.358 OA
ATOM     50  N   LIG d   1       9.780   6.791  -0.812  0.00  0.00    -0.081 NA
ATOM     51  C   LIG d   1      10.866   6.138  -1.111  0.00  0.00     0.107 A 
BRANCH  48  52
ATOM     52  C   LIG d   1       9.151   6.619  -4.310  0.00  0.00    -0.002 C 
ATOM     53  H   LIG d   1       9.757   7.317  -4.887  0.00  0.00     0.031 H 
ATOM     54  H   LIG d   1       9.188   5.634  -4.775  0.00  0.00     0.031 H 
ATOM     55  H   LIG d   1       8.118   6.970  -4.283  0.00  0.00     0.031 H 
ENDBRANCH  48  52
BRANCH  51  56
ATOM     56  C   LIG d   1      11.936   5.679  -0.154  0.00  0.00    -0.017 C 
ATOM     57  H   LIG d   1      12.916   5.950  -0.547  0.00  0.00     0.029 H 
ATOM     58  H   LIG d   1      11.788   6.157   0.814  0.00  0.00     0.029 H 
ATOM     59  H   LIG d   1      11.879   4.596  -0.037  0.00  0.00     0.029 H 
ENDBRANCH  51  56
ENDBRANCH  44  47
ENDBRANCH   4  44
TORSDOF 9
ENDMDL
MODEL 6
REMARK VINA RESULT:      -5.9      2.580      6.931
REMARK  9 active torsions:
REMARK  status: ('A' for Active; 'I' for Inactive)
REMARK    1  A    between atoms: C_1  and  C_2 
REMARK    2  A    between atoms: C_2  and  C_3 
REMARK    3  A    between atoms: N_6  and  S_21 
REMARK    4  A    between atoms: C_9  and  C_11 
REMARK    5  A    between atoms: C_11  and  C_12 
REMARK       I    between atoms: C_12  and  N_14 
REMARK    6  A    between atoms: C_17  and  O_20 
REMARK    7  A    between atoms: S_21  and  C_24 
REMARK    8  A    between atoms: C_25  and  C_30 
REMARK    9  A    between atoms: C_28  and  C_29 
ROOT
ATOM      1  C   LIG d   1       4.512  -1.812  -7.930  0.00  0.00    -0.024 C 
ATOM      2  H   LIG d   1       3.517  -1.869  -8.371  0.00  0.00     0.032 H 
ATOM      3  C   LIG d   1       4.413  -1.211  -6.524  0.00  0.00     0.024 C 
ATOM      4  N   LIG d   1       5.771  -1.022  -5.995  0.00  0.00    -0.176 N 
ATOM      5  C   LIG d   1       6.741  -0.260  -6.794  0.00  0.00     0.021 C 
ATOM      6  C   LIG d   1       6.813  -0.872  -8.197  0.00  0.00    -0.035 C 
ATOM      7  C   LIG d   1       5.407  -0.926  -8.798  0.00  0.00    -0.028 C 
ATOM      8  H   LIG d   1       4.990   0.081  -8.838  0.00  0.00     0.031 H 
ATOM      9  H   LIG d   1       3.859  -1.889  -5.875  0.00  0.00     0.045 H 
ATOM     10  H   LIG d   1       3.902  -0.250  -6.570  0.00  0.00     0.045 H 
ATOM     11  H   LIG d   1       7.722  -0.311  -6.322  0.00  0.00     0.044 H 
ATOM     12  H   LIG d   1       6.423   0.779  -6.864  0.00  0.00     0.044 H 
ATOM     13  H   LIG d   1       7.220  -1.882  -8.133  0.00  0.00     0.028 H 
ATOM     14  H   LIG d   1       7.455  -0.260  -8.828  0.00  0.00     0.028 H 
ENDROOT
BRANCH   7  15
ATOM     15  C   LIG d   1       5.479  -1.504 -10.213  0.00  0.00     0.027 C 
ATOM     16  H   LIG d   1       5.397  -2.590 -10.166  0.00  0.00     0.036 H 
ATOM     17  H   LIG d   1       6.430  -1.231 -10.669  0.00  0.00     0.036 H 
BRANCH  15  18
ATOM     18  C   LIG d   1       4.348  -0.950 -11.040  0.00  0.00     0.216 C 
ATOM     19  O   LIG d   1       4.318   0.231 -11.314  0.00  0.00    -0.276 OA
ATOM     20  N   LIG d   1       3.369  -1.768 -11.476  0.00  0.00    -0.301 N 
ATOM     21  C   LIG d   1       3.385  -3.204 -11.151  0.00  0.00     0.017 C 
ATOM     22  C   LIG d   1       2.259  -1.243 -12.284  0.00  0.00     0.017 C 
ATOM     23  C   LIG d   1       2.047  -3.580 -10.506  0.00  0.00    -0.011 C 
ATOM     24  H   LIG d   1       4.197  -3.411 -10.455  0.00  0.00     0.046 H 
ATOM     25  H   LIG d   1       3.528  -3.784 -12.063  0.00  0.00     0.046 H 
ATOM     26  C   LIG d   1       0.903  -3.159 -11.431  0.00  0.00     0.058 C 
ATOM     27  H   LIG d   1       1.948  -3.069  -9.549  0.00  0.00     0.030 H 
ATOM     28  H   LIG d   1       2.010  -4.658 -10.350  0.00  0.00     0.030 H 
ATOM     29  C   LIG d   1       0.935  -1.641 -11.626  0.00  0.00    -0.011 C 
ATOM     30  H   LIG d   1       1.016  -3.652 -12.397  0.00  0.00     0.059 H 
ATOM     31  H   LIG d   1       0.846  -1.148 -10.659  0.00  0.00     0.030 H 
ATOM     32  H   LIG d   1       0.105  -1.340 -12.266  0.00  0.00     0.030 H 
ATOM     33  H   LIG d   1       2.309  -1.662 -13.289  0.00  0.00     0.046 H 
ATOM     34  H   LIG d   1       2.328  -0.156 -12.337  0.00  0.00     0.046 H 
BRANCH  26  35
ATOM     35  O   LIG d   1      -0.345  -3.538 -10.847  0.00  0.00    -0.392 OA
ATOM     36  H   LIG d   1      -0.526  -4.487 -10.888  0.00  0.00     0.210 HD
ENDBRANCH  26  35
ENDBRANCH  15  18
ENDBRANCH   7  15
BRANCH   1  37
ATOM     37  C   LIG d   1       5.113  -3.216  -7.844  0.00  0.00    -0.052 C 
ATOM     38  H   LIG d   1       5.476  -3.517  -8.827  0.00  0.00     0.027 H 
ATOM     39  H   LIG d   1       5.942  -3.214  -7.136  0.00  0.00     0.027 H 
BRANCH  37  40
ATOM     40  C   LIG d   1       4.042  -4.202  -7.373  0.00  0.00    -0.065 C 
ATOM     41  H   LIG d   1       3.427  -4.503  -8.221  0.00  0.00     0.023 H 
ATOM     42  H   LIG d   1       4.521  -5.080  -6.941  0.00  0.00     0.023 H 
ATOM     43  H   LIG d   1       3.414  -3.724  -6.621  0.00  0.00     0.023 H 
ENDBRANCH  37  40
ENDBRANCH   1  37
BRANCH   4  44
ATOM     44  S   LIG d   1       6.200  -1.656  -4.526  0.00  0.00     0.066 S 
ATOM     45  O   LIG d   1       5.502  -2.886  -4.396  0.00  0.00    -0.153 OA
ATOM     46  O   LIG d   1       7.617  -1.572  -4.446  0.00  0.00    -0.153 OA
BRANCH  44  47
ATOM     47  C   LIG d   1       5.560  -0.579  -3.287  0.00  0.00     0.170 A 
ATOM     48  C   LIG d   1       4.566  -0.826  -2.400  0.00  0.00     0.161 A 
ATOM     49  O   LIG d   1       4.433   0.286  -1.661  0.00  0.00    -0.358 OA
ATOM     50  N   LIG d   1       5.216   1.142  -2.002  0.00  0.00    -0.081 NA
ATOM     51  C   LIG d   1       5.969   0.741  -2.985  0.00  0.00     0.107 A 
BRANCH  48  52
ATOM     52  C   LIG d   1       3.770  -2.097  -2.269  0.00  0.00    -0.002 C 
ATOM     53  H   LIG d   1       2.707  -1.859  -2.235  0.00  0.00     0.031 H 
ATOM     54  H   LIG d   1       3.970  -2.743  -3.124  0.00  0.00     0.031 H 
ATOM     55  H   LIG d   1       4.056  -2.612  -1.351  0.00  0.00     0.031 H 
ENDBRANCH  48  52
BRANCH  51  56
ATOM     56  C   LIG d   1       7.058   1.527  -3.668  0.00  0.00    -0.017 C 
ATOM     57  H   LIG d   1       7.216   2.466  -3.137  0.00  0.00     0.029 H 
ATOM     58  H   LIG d   1       7.981   0.948  -3.666  0.00  0.00     0.029 H 
ATOM     59  H   LIG d   1       6.764   1.738  -4.697  0.00  0.00     0.029 H 
ENDBRANCH  51  56
ENDBRANCH  44  47
ENDBRANCH   4  44
TORSDOF 9
ENDMDL
MODEL 7
REMARK VINA RESULT:      -5.8      4.352      6.370
REMARK  9 active torsions:
REMARK  status: ('A' for Active; 'I' for Inactive)
REMARK    1  A    between atoms: C_1  and  C_2 
REMARK    2  A    between atoms: C_2  and  C_3 
REMARK    3  A    between atoms: N_6  and  S_21 
REMARK    4  A    between atoms: C_9  and  C_11 
REMARK    5  A    between atoms: C_11  and  C_12 
REMARK       I    between atoms: C_12  and  N_14 
REMARK    6  A    between atoms: C_17  and  O_20 
REMARK    7  A    between atoms: S_21  and  C_24 
REMARK    8  A    between atoms: C_25  and  C_30 
REMARK    9  A    between atoms: C_28  and  C_29 
ROOT
ATOM      1  C   LIG d   1       8.361  -3.514  -4.543  0.00  0.00    -0.024 C 
ATOM      2  H   LIG d   1       9.199  -3.775  -3.897  0.00  0.00     0.032 H 
ATOM      3  C   LIG d   1       7.436  -2.537  -3.810  0.00  0.00     0.024 C 
ATOM      4  N   LIG d   1       6.248  -2.297  -4.641  0.00  0.00    -0.176 N 
ATOM      5  C   LIG d   1       5.474  -3.450  -5.118  0.00  0.00     0.021 C 
ATOM      6  C   LIG d   1       6.421  -4.417  -5.837  0.00  0.00    -0.035 C 
ATOM      7  C   LIG d   1       7.579  -4.779  -4.903  0.00  0.00    -0.028 C 
ATOM      8  H   LIG d   1       7.184  -5.231  -3.993  0.00  0.00     0.031 H 
ATOM      9  H   LIG d   1       7.959  -1.596  -3.639  0.00  0.00     0.045 H 
ATOM     10  H   LIG d   1       7.132  -2.965  -2.854  0.00  0.00     0.045 H 
ATOM     11  H   LIG d   1       4.703  -3.112  -5.810  0.00  0.00     0.044 H 
ATOM     12  H   LIG d   1       5.009  -3.956  -4.272  0.00  0.00     0.044 H 
ATOM     13  H   LIG d   1       6.814  -3.941  -6.735  0.00  0.00     0.028 H 
ATOM     14  H   LIG d   1       5.879  -5.321  -6.111  0.00  0.00     0.028 H 
ENDROOT
BRANCH   7  15
ATOM     15  C   LIG d   1       8.508  -5.771  -5.604  0.00  0.00     0.027 C 
ATOM     16  H   LIG d   1       9.521  -5.368  -5.624  0.00  0.00     0.036 H 
ATOM     17  H   LIG d   1       8.162  -5.935  -6.624  0.00  0.00     0.036 H 
BRANCH  15  18
ATOM     18  C   LIG d   1       8.503  -7.079  -4.856  0.00  0.00     0.216 C 
ATOM     19  O   LIG d   1       7.644  -7.904  -5.082  0.00  0.00    -0.276 OA
ATOM     20  N   LIG d   1       9.455  -7.332  -3.936  0.00  0.00    -0.301 N 
ATOM     21  C   LIG d   1      10.505  -6.342  -3.645  0.00  0.00     0.017 C 
ATOM     22  C   LIG d   1       9.464  -8.603  -3.198  0.00  0.00     0.017 C 
ATOM     23  C   LIG d   1      10.524  -6.070  -2.137  0.00  0.00    -0.011 C 
ATOM     24  H   LIG d   1      10.293  -5.418  -4.181  0.00  0.00     0.046 H 
ATOM     25  H   LIG d   1      11.474  -6.732  -3.958  0.00  0.00     0.046 H 
ATOM     26  C   LIG d   1      10.683  -7.392  -1.385  0.00  0.00     0.058 C 
ATOM     27  H   LIG d   1       9.589  -5.593  -1.842  0.00  0.00     0.030 H 
ATOM     28  H   LIG d   1      11.360  -5.412  -1.897  0.00  0.00     0.030 H 
ATOM     29  C   LIG d   1       9.494  -8.305  -1.696  0.00  0.00    -0.011 C 
ATOM     30  H   LIG d   1      11.607  -7.880  -1.699  0.00  0.00     0.059 H 
ATOM     31  H   LIG d   1       8.569  -7.808  -1.405  0.00  0.00     0.030 H 
ATOM     32  H   LIG d   1       9.597  -9.238  -1.142  0.00  0.00     0.030 H 
ATOM     33  H   LIG d   1      10.347  -9.180  -3.474  0.00  0.00     0.046 H 
ATOM     34  H   LIG d   1       8.566  -9.172  -3.439  0.00  0.00     0.046 H 
BRANCH  26  35
ATOM     35  O   LIG d   1      10.733  -7.138   0.020  0.00  0.00    -0.392 OA
ATOM     36  H   LIG d   1      10.030  -7.572   0.523  0.00  0.00     0.210 HD
ENDBRANCH  26  35
ENDBRANCH  15  18
ENDBRANCH   7  15
BRANCH   1  37
ATOM     37  C   LIG d   1       8.886  -2.858  -5.821  0.00  0.00    -0.052 C 
ATOM     38  H   LIG d   1       9.531  -3.558  -6.350  0.00  0.00     0.027 H 
ATOM     39  H   LIG d   1       8.047  -2.582  -6.459  0.00  0.00     0.027 H 
BRANCH  37  40
ATOM     40  C   LIG d   1       9.685  -1.603  -5.459  0.00  0.00    -0.065 C 
ATOM     41  H   LIG d   1       9.018  -0.741  -5.442  0.00  0.00     0.023 H 
ATOM     42  H   LIG d   1      10.138  -1.732  -4.477  0.00  0.00     0.023 H 
ATOM     43  H   LIG d   1      10.466  -1.443  -6.202  0.00  0.00     0.023 H 
ENDBRANCH  37  40
ENDBRANCH   1  37
BRANCH   4  44
ATOM     44  S   LIG d   1       5.792  -0.753  -5.034  0.00  0.00     0.066 S 
ATOM     45  O   LIG d   1       6.604   0.119  -4.261  0.00  0.00    -0.153 OA
ATOM     46  O   LIG d   1       5.744  -0.693  -6.453  0.00  0.00    -0.153 OA
BRANCH  44  47
ATOM     47  C   LIG d   1       4.139  -0.539  -4.464  0.00  0.00     0.170 A 
ATOM     48  C   LIG d   1       3.064  -0.104  -5.165  0.00  0.00     0.161 A 
ATOM     49  O   LIG d   1       2.028  -0.108  -4.313  0.00  0.00    -0.358 OA
ATOM     50  N   LIG d   1       2.358  -0.487  -3.213  0.00  0.00    -0.081 NA
ATOM     51  C   LIG d   1       3.625  -0.788  -3.170  0.00  0.00     0.107 A 
BRANCH  48  52
ATOM     52  C   LIG d   1       3.038   0.304  -6.615  0.00  0.00    -0.002 C 
ATOM     53  H   LIG d   1       4.028   0.650  -6.914  0.00  0.00     0.031 H 
ATOM     54  H   LIG d   1       2.752  -0.551  -7.228  0.00  0.00     0.031 H 
ATOM     55  H   LIG d   1       2.315   1.108  -6.753  0.00  0.00     0.031 H 
ENDBRANCH  48  52
BRANCH  51  56
ATOM     56  C   LIG d   1       4.391  -1.298  -1.977  0.00  0.00    -0.017 C 
ATOM     57  H   LIG d   1       4.890  -2.232  -2.237  0.00  0.00     0.029 H 
ATOM     58  H   LIG d   1       5.135  -0.559  -1.679  0.00  0.00     0.029 H 
ATOM     59  H   LIG d   1       3.701  -1.473  -1.150  0.00  0.00     0.029 H 
ENDBRANCH  51  56
ENDBRANCH  44  47
ENDBRANCH   4  44
TORSDOF 9
ENDMDL
MODEL 8
REMARK VINA RESULT:      -5.7      3.014      7.284
REMARK  9 active torsions:
REMARK  status: ('A' for Active; 'I' for Inactive)
REMARK    1  A    between atoms: C_1  and  C_2 
REMARK    2  A    between atoms: C_2  and  C_3 
REMARK    3  A    between atoms: N_6  and  S_21 
REMARK    4  A    between atoms: C_9  and  C_11 
REMARK    5  A    between atoms: C_11  and  C_12 
REMARK       I    between atoms: C_12  and  N_14 
REMARK    6  A    between atoms: C_17  and  O_20 
REMARK    7  A    between atoms: S_21  and  C_24 
REMARK    8  A    between atoms: C_25  and  C_30 
REMARK    9  A    between atoms: C_28  and  C_29 
ROOT
ATOM      1  C   LIG d   1       4.855  -3.666  -7.320  0.00  0.00    -0.024 C 
ATOM      2  H   LIG d   1       4.537  -4.688  -7.523  0.00  0.00     0.032 H 
ATOM      3  C   LIG d   1       4.868  -3.426  -5.807  0.00  0.00     0.024 C 
ATOM      4  N   LIG d   1       5.173  -2.010  -5.556  0.00  0.00    -0.176 N 
ATOM      5  C   LIG d   1       4.355  -0.983  -6.215  0.00  0.00     0.021 C 
ATOM      6  C   LIG d   1       4.348  -1.251  -7.724  0.00  0.00    -0.035 C 
ATOM      7  C   LIG d   1       3.883  -2.686  -7.981  0.00  0.00    -0.028 C 
ATOM      8  H   LIG d   1       2.887  -2.826  -7.560  0.00  0.00     0.031 H 
ATOM      9  H   LIG d   1       5.630  -4.052  -5.344  0.00  0.00     0.045 H 
ATOM     10  H   LIG d   1       3.892  -3.669  -5.388  0.00  0.00     0.045 H 
ATOM     11  H   LIG d   1       4.779   0.002  -6.021  0.00  0.00     0.044 H 
ATOM     12  H   LIG d   1       3.336  -1.024  -5.832  0.00  0.00     0.044 H 
ATOM     13  H   LIG d   1       5.354  -1.118  -8.121  0.00  0.00     0.028 H 
ATOM     14  H   LIG d   1       3.668  -0.555  -8.213  0.00  0.00     0.028 H 
ENDROOT
BRANCH   7  15
ATOM     15  C   LIG d   1       3.841  -2.946  -9.487  0.00  0.00     0.027 C 
ATOM     16  H   LIG d   1       4.736  -3.491  -9.786  0.00  0.00     0.036 H 
ATOM     17  H   LIG d   1       3.799  -1.996 -10.019  0.00  0.00     0.036 H 
BRANCH  15  18
ATOM     18  C   LIG d   1       2.620  -3.764  -9.822  0.00  0.00     0.216 C 
ATOM     19  O   LIG d   1       2.576  -4.939  -9.523  0.00  0.00    -0.276 OA
ATOM     20  N   LIG d   1       1.577  -3.190 -10.453  0.00  0.00    -0.301 N 
ATOM     21  C   LIG d   1       1.612  -1.767 -10.827  0.00  0.00     0.017 C 
ATOM     22  C   LIG d   1       0.380  -3.974 -10.786  0.00  0.00     0.017 C 
ATOM     23  C   LIG d   1       1.306  -1.640 -12.322  0.00  0.00    -0.011 C 
ATOM     24  H   LIG d   1       2.602  -1.360 -10.620  0.00  0.00     0.046 H 
ATOM     25  H   LIG d   1       0.865  -1.218 -10.253  0.00  0.00     0.046 H 
ATOM     26  C   LIG d   1      -0.022  -2.336 -12.628  0.00  0.00     0.058 C 
ATOM     27  H   LIG d   1       2.104  -2.109 -12.898  0.00  0.00     0.030 H 
ATOM     28  H   LIG d   1       1.234  -0.586 -12.591  0.00  0.00     0.030 H 
ATOM     29  C   LIG d   1       0.088  -3.823 -12.282  0.00  0.00    -0.011 C 
ATOM     30  H   LIG d   1      -0.816  -1.882 -12.034  0.00  0.00     0.059 H 
ATOM     31  H   LIG d   1       0.897  -4.272 -12.858  0.00  0.00     0.030 H 
ATOM     32  H   LIG d   1      -0.851  -4.322 -12.522  0.00  0.00     0.030 H 
ATOM     33  H   LIG d   1      -0.469  -3.608 -10.209  0.00  0.00     0.046 H 
ATOM     34  H   LIG d   1       0.554  -5.025 -10.553  0.00  0.00     0.046 H 
BRANCH  26  35
ATOM     35  O   LIG d   1      -0.326  -2.192 -14.017  0.00  0.00    -0.392 OA
ATOM     36  H   LIG d   1       0.184  -2.777 -14.594  0.00  0.00     0.210 HD
ENDBRANCH  26  35
ENDBRANCH  15  18
ENDBRANCH   7  15
BRANCH   1  37
ATOM     37  C   LIG d   1       6.260  -3.447  -7.884  0.00  0.00    -0.052 C 
ATOM     38  H   LIG d   1       6.251  -3.619  -8.960  0.00  0.00     0.027 H 
ATOM     39  H   LIG d   1       6.578  -2.425  -7.681  0.00  0.00     0.027 H 
BRANCH  37  40
ATOM     40  C   LIG d   1       7.234  -4.425  -7.220  0.00  0.00    -0.065 C 
ATOM     41  H   LIG d   1       7.146  -4.344  -6.137  0.00  0.00     0.023 H 
ATOM     42  H   LIG d   1       6.995  -5.441  -7.530  0.00  0.00     0.023 H 
ATOM     43  H   LIG d   1       8.253  -4.182  -7.521  0.00  0.00     0.023 H 
ENDBRANCH  37  40
ENDBRANCH   1  37
BRANCH   4  44
ATOM     44  S   LIG d   1       6.417  -1.581  -4.550  0.00  0.00     0.066 S 
ATOM     45  O   LIG d   1       6.801  -2.759  -3.854  0.00  0.00    -0.153 OA
ATOM     46  O   LIG d   1       7.331  -0.827  -5.334  0.00  0.00    -0.153 OA
BRANCH  44  47
ATOM     47  C   LIG d   1       5.755  -0.478  -3.346  0.00  0.00     0.170 A 
ATOM     48  C   LIG d   1       6.145   0.790  -3.073  0.00  0.00     0.161 A 
ATOM     49  O   LIG d   1       5.350   1.227  -2.085  0.00  0.00    -0.358 OA
ATOM     50  N   LIG d   1       4.552   0.383  -1.750  0.00  0.00    -0.081 NA
ATOM     51  C   LIG d   1       4.689  -0.709  -2.446  0.00  0.00     0.107 A 
BRANCH  48  52
ATOM     52  C   LIG d   1       7.252   1.558  -3.746  0.00  0.00    -0.002 C 
ATOM     53  H   LIG d   1       7.594   1.010  -4.624  0.00  0.00     0.031 H 
ATOM     54  H   LIG d   1       6.883   2.538  -4.051  0.00  0.00     0.031 H 
ATOM     55  H   LIG d   1       8.082   1.684  -3.050  0.00  0.00     0.031 H 
ENDBRANCH  48  52
BRANCH  51  56
ATOM     56  C   LIG d   1       3.873  -1.970  -2.317  0.00  0.00    -0.017 C 
ATOM     57  H   LIG d   1       4.456  -2.727  -1.792  0.00  0.00     0.029 H 
ATOM     58  H   LIG d   1       2.963  -1.758  -1.756  0.00  0.00     0.029 H 
ATOM     59  H   LIG d   1       3.611  -2.336  -3.310  0.00  0.00     0.029 H 
ENDBRANCH  51  56
ENDBRANCH  44  47
ENDBRANCH   4  44
TORSDOF 9
ENDMDL
MODEL 9
REMARK VINA RESULT:      -5.7      5.361      7.194
REMARK  9 active torsions:
REMARK  status: ('A' for Active; 'I' for Inactive)
REMARK    1  A    between atoms: C_1  and  C_2 
REMARK    2  A    between atoms: C_2  and  C_3 
REMARK    3  A    between atoms: N_6  and  S_21 
REMARK    4  A    between atoms: C_9  and  C_11 
REMARK    5  A    between atoms: C_11  and  C_12 
REMARK       I    between atoms: C_12  and  N_14 
REMARK    6  A    between atoms: C_17  and  O_20 
REMARK    7  A    between atoms: S_21  and  C_24 
REMARK    8  A    between atoms: C_25  and  C_30 
REMARK    9  A    between atoms: C_28  and  C_29 
ROOT
ATOM      1  C   LIG d   1       9.191   1.370  -6.172  0.00  0.00    -0.024 C 
ATOM      2  H   LIG d   1       9.521   1.636  -7.176  0.00  0.00     0.032 H 
ATOM      3  C   LIG d   1       7.699   1.023  -6.200  0.00  0.00     0.024 C 
ATOM      4  N   LIG d   1       7.242   0.793  -4.823  0.00  0.00    -0.176 N 
ATOM      5  C   LIG d   1       7.491   1.831  -3.813  0.00  0.00     0.021 C 
ATOM      6  C   LIG d   1       8.986   2.169  -3.812  0.00  0.00    -0.035 C 
ATOM      7  C   LIG d   1       9.418   2.553  -5.228  0.00  0.00    -0.028 C 
ATOM      8  H   LIG d   1       8.831   3.406  -5.569  0.00  0.00     0.031 H 
ATOM      9  H   LIG d   1       7.545   0.121  -6.792  0.00  0.00     0.045 H 
ATOM     10  H   LIG d   1       7.138   1.848  -6.639  0.00  0.00     0.045 H 
ATOM     11  H   LIG d   1       7.200   1.461  -2.830  0.00  0.00     0.044 H 
ATOM     12  H   LIG d   1       6.915   2.723  -4.053  0.00  0.00     0.044 H 
ATOM     13  H   LIG d   1       9.555   1.300  -3.481  0.00  0.00     0.028 H 
ATOM     14  H   LIG d   1       9.169   3.003  -3.136  0.00  0.00     0.028 H 
ENDROOT
BRANCH   7  15
ATOM     15  C   LIG d   1      10.902   2.925  -5.225  0.00  0.00     0.027 C 
ATOM     16  H   LIG d   1      11.068   3.765  -5.900  0.00  0.00     0.036 H 
ATOM     17  H   LIG d   1      11.492   2.070  -5.557  0.00  0.00     0.036 H 
BRANCH  15  18
ATOM     18  C   LIG d   1      11.320   3.311  -3.830  0.00  0.00     0.216 C 
ATOM     19  O   LIG d   1      11.815   2.484  -3.094  0.00  0.00    -0.276 OA
ATOM     20  N   LIG d   1      11.145   4.577  -3.400  0.00  0.00    -0.301 N 
ATOM     21  C   LIG d   1      10.544   5.595  -4.278  0.00  0.00     0.017 C 
ATOM     22  C   LIG d   1      11.547   4.969  -2.043  0.00  0.00     0.017 C 
ATOM     23  C   LIG d   1       9.361   6.239  -3.549  0.00  0.00    -0.011 C 
ATOM     24  H   LIG d   1      10.195   5.124  -5.196  0.00  0.00     0.046 H 
ATOM     25  H   LIG d   1      11.286   6.357  -4.517  0.00  0.00     0.046 H 
ATOM     26  C   LIG d   1       9.831   6.777  -2.196  0.00  0.00     0.058 C 
ATOM     27  H   LIG d   1       8.580   5.496  -3.394  0.00  0.00     0.030 H 
ATOM     28  H   LIG d   1       8.968   7.060  -4.149  0.00  0.00     0.030 H 
ATOM     29  C   LIG d   1      10.353   5.620  -1.340  0.00  0.00    -0.011 C 
ATOM     30  H   LIG d   1      10.629   7.504  -2.351  0.00  0.00     0.059 H 
ATOM     31  H   LIG d   1       9.563   4.882  -1.205  0.00  0.00     0.030 H 
ATOM     32  H   LIG d   1      10.666   6.001  -0.367  0.00  0.00     0.030 H 
ATOM     33  H   LIG d   1      12.372   5.680  -2.097  0.00  0.00     0.046 H 
ATOM     34  H   LIG d   1      11.862   4.087  -1.485  0.00  0.00     0.046 H 
BRANCH  26  35
ATOM     35  O   LIG d   1       8.736   7.407  -1.527  0.00  0.00    -0.392 OA
ATOM     36  H   LIG d   1       8.742   8.372  -1.588  0.00  0.00     0.210 HD
ENDBRANCH  26  35
ENDBRANCH  15  18
ENDBRANCH   7  15
BRANCH   1  37
ATOM     37  C   LIG d   1       9.988   0.162  -5.676  0.00  0.00    -0.052 C 
ATOM     38  H   LIG d   1      11.030   0.447  -5.534  0.00  0.00     0.027 H 
ATOM     39  H   LIG d   1       9.572  -0.183  -4.729  0.00  0.00     0.027 H 
BRANCH  37  40
ATOM     40  C   LIG d   1       9.904  -0.964  -6.710  0.00  0.00    -0.065 C 
ATOM     41  H   LIG d   1       9.880  -0.535  -7.712  0.00  0.00     0.023 H 
ATOM     42  H   LIG d   1      10.773  -1.612  -6.613  0.00  0.00     0.023 H 
ATOM     43  H   LIG d   1       8.996  -1.544  -6.542  0.00  0.00     0.023 H 
ENDBRANCH  37  40
ENDBRANCH   1  37
BRANCH   4  44
ATOM     44  S   LIG d   1       6.460  -0.610  -4.416  0.00  0.00     0.066 S 
ATOM     45  O   LIG d   1       6.599  -1.488  -5.525  0.00  0.00    -0.153 OA
ATOM     46  O   LIG d   1       6.901  -0.956  -3.110  0.00  0.00    -0.153 OA
BRANCH  44  47
ATOM     47  C   LIG d   1       4.744  -0.230  -4.286  0.00  0.00     0.170 A 
ATOM     48  C   LIG d   1       4.060   0.173  -3.189  0.00  0.00     0.161 A 
ATOM     49  O   LIG d   1       2.787   0.340  -3.576  0.00  0.00    -0.358 OA
ATOM     50  N   LIG d   1       2.642   0.087  -4.749  0.00  0.00    -0.081 NA
ATOM     51  C   LIG d   1       3.764  -0.270  -5.305  0.00  0.00     0.107 A 
BRANCH  48  52
ATOM     52  C   LIG d   1       4.619   0.392  -1.807  0.00  0.00    -0.002 C 
ATOM     53  H   LIG d   1       4.640  -0.556  -1.269  0.00  0.00     0.031 H 
ATOM     54  H   LIG d   1       5.632   0.789  -1.883  0.00  0.00     0.031 H 
ATOM     55  H   LIG d   1       3.990   1.101  -1.269  0.00  0.00     0.031 H 
ENDBRANCH  48  52
BRANCH  51  56
ATOM     56  C   LIG d   1       3.976  -0.653  -6.747  0.00  0.00    -0.017 C 
ATOM     57  H   LIG d   1       4.851  -0.132  -7.137  0.00  0.00     0.029 H 
ATOM     58  H   LIG d   1       4.132  -1.729  -6.819  0.00  0.00     0.029 H 
ATOM     59  H   LIG d   1       3.098  -0.373  -7.330  0.00  0.00     0.029 H 
ENDBRANCH  51  56
ENDBRANCH  44  47
ENDBRANCH   4  44
TORSDOF 9
ENDMDL
MODEL 10
REMARK VINA RESULT:      -5.6      4.221      6.899
REMARK  9 active torsions:
REMARK  status: ('A' for Active; 'I' for Inactive)
REMARK    1  A    between atoms: C_1  and  C_2 
REMARK    2  A    between atoms: C_2  and  C_3 
REMARK    3  A    between atoms: N_6  and  S_21 
REMARK    4  A    between atoms: C_9  and  C_11 
REMARK    5  A    between atoms: C_11  and  C_12 
REMARK       I    between atoms: C_12  and  N_14 
REMARK    6  A    between atoms: C_17  and  O_20 
REMARK    7  A    between atoms: S_21  and  C_24 
REMARK    8  A    between atoms: C_25  and  C_30 
REMARK    9  A    between atoms: C_28  and  C_29 
ROOT
ATOM      1  C   LIG d   1       6.950  -3.660  -6.465  0.00  0.00    -0.024 C 
ATOM      2  H   LIG d   1       7.931  -3.954  -6.840  0.00  0.00     0.032 H 
ATOM      3  C   LIG d   1       7.074  -2.349  -5.682  0.00  0.00     0.024 C 
ATOM      4  N   LIG d   1       5.773  -2.035  -5.077  0.00  0.00    -0.176 N 
ATOM      5  C   LIG d   1       5.117  -3.052  -4.242  0.00  0.00     0.021 C 
ATOM      6  C   LIG d   1       5.015  -4.355  -5.043  0.00  0.00    -0.035 C 
ATOM      7  C   LIG d   1       6.406  -4.752  -5.542  0.00  0.00    -0.028 C 
ATOM      8  H   LIG d   1       7.077  -4.874  -4.691  0.00  0.00     0.031 H 
ATOM      9  H   LIG d   1       7.366  -1.545  -6.358  0.00  0.00     0.045 H 
ATOM     10  H   LIG d   1       7.824  -2.458  -4.899  0.00  0.00     0.045 H 
ATOM     11  H   LIG d   1       4.119  -2.712  -3.969  0.00  0.00     0.044 H 
ATOM     12  H   LIG d   1       5.705  -3.221  -3.341  0.00  0.00     0.044 H 
ATOM     13  H   LIG d   1       4.351  -4.208  -5.894  0.00  0.00     0.028 H 
ATOM     14  H   LIG d   1       4.619  -5.143  -4.404  0.00  0.00     0.028 H 
ENDROOT
BRANCH   7  15
ATOM     15  C   LIG d   1       6.314  -6.071  -6.312  0.00  0.00     0.027 C 
ATOM     16  H   LIG d   1       6.721  -5.936  -7.314  0.00  0.00     0.036 H 
ATOM     17  H   LIG d   1       5.271  -6.379  -6.381  0.00  0.00     0.036 H 
BRANCH  15  18
ATOM     18  C   LIG d   1       7.103  -7.131  -5.588  0.00  0.00     0.216 C 
ATOM     19  O   LIG d   1       8.310  -7.042  -5.510  0.00  0.00    -0.276 OA
ATOM     20  N   LIG d   1       6.468  -8.178  -5.026  0.00  0.00    -0.301 N 
ATOM     21  C   LIG d   1       5.004  -8.306  -5.112  0.00  0.00     0.017 C 
ATOM     22  C   LIG d   1       7.224  -9.220  -4.317  0.00  0.00     0.017 C 
ATOM     23  C   LIG d   1       4.661  -9.683  -5.689  0.00  0.00    -0.011 C 
ATOM     24  H   LIG d   1       4.607  -7.528  -5.763  0.00  0.00     0.046 H 
ATOM     25  H   LIG d   1       4.568  -8.208  -4.117  0.00  0.00     0.046 H 
ATOM     26  C   LIG d   1       5.336 -10.768  -4.848  0.00  0.00     0.058 C 
ATOM     27  H   LIG d   1       5.016  -9.746  -6.717  0.00  0.00     0.030 H 
ATOM     28  H   LIG d   1       3.580  -9.828  -5.667  0.00  0.00     0.030 H 
ATOM     29  C   LIG d   1       6.855 -10.586  -4.903  0.00  0.00    -0.011 C 
ATOM     30  H   LIG d   1       4.999 -10.690  -3.814  0.00  0.00     0.059 H 
ATOM     31  H   LIG d   1       7.191 -10.640  -5.938  0.00  0.00     0.030 H 
ATOM     32  H   LIG d   1       7.337 -11.373  -4.323  0.00  0.00     0.030 H 
ATOM     33  H   LIG d   1       6.971  -9.197  -3.257  0.00  0.00     0.046 H 
ATOM     34  H   LIG d   1       8.292  -9.045  -4.442  0.00  0.00     0.046 H 
BRANCH  26  35
ATOM     35  O   LIG d   1       4.992 -12.055  -5.365  0.00  0.00    -0.392 OA
ATOM     36  H   LIG d   1       4.408 -12.566  -4.788  0.00  0.00     0.210 HD
ENDBRANCH  26  35
ENDBRANCH  15  18
ENDBRANCH   7  15
BRANCH   1  37
ATOM     37  C   LIG d   1       5.992  -3.463  -7.642  0.00  0.00    -0.052 C 
ATOM     38  H   LIG d   1       5.872  -4.406  -8.175  0.00  0.00     0.027 H 
ATOM     39  H   LIG d   1       5.024  -3.129  -7.270  0.00  0.00     0.027 H 
BRANCH  37  40
ATOM     40  C   LIG d   1       6.564  -2.409  -8.594  0.00  0.00    -0.065 C 
ATOM     41  H   LIG d   1       7.614  -2.626  -8.787  0.00  0.00     0.023 H 
ATOM     42  H   LIG d   1       6.010  -2.428  -9.531  0.00  0.00     0.023 H 
ATOM     43  H   LIG d   1       6.475  -1.423  -8.138  0.00  0.00     0.023 H 
ENDBRANCH  37  40
ENDBRANCH   1  37
BRANCH   4  44
ATOM     44  S   LIG d   1       5.057  -0.563  -5.331  0.00  0.00     0.066 S 
ATOM     45  O   LIG d   1       5.986   0.218  -6.070  0.00  0.00    -0.153 OA
ATOM     46  O   LIG d   1       3.741  -0.827  -5.799  0.00  0.00    -0.153 OA
BRANCH  44  47
ATOM     47  C   LIG d   1       4.887   0.211  -3.757  0.00  0.00     0.170 A 
ATOM     48  C   LIG d   1       5.785   0.993  -3.111  0.00  0.00     0.161 A 
ATOM     49  O   LIG d   1       5.212   1.351  -1.953  0.00  0.00    -0.358 OA
ATOM     50  N   LIG d   1       4.103   0.881  -1.841  0.00  0.00    -0.081 NA
ATOM     51  C   LIG d   1       3.779   0.166  -2.880  0.00  0.00     0.107 A 
BRANCH  48  52
ATOM     52  C   LIG d   1       7.156   1.384  -3.598  0.00  0.00    -0.002 C 
ATOM     53  H   LIG d   1       7.390   2.392  -3.256  0.00  0.00     0.031 H 
ATOM     54  H   LIG d   1       7.895   0.686  -3.203  0.00  0.00     0.031 H 
ATOM     55  H   LIG d   1       7.176   1.356  -4.688  0.00  0.00     0.031 H 
ENDBRANCH  48  52
BRANCH  51  56
ATOM     56  C   LIG d   1       2.481  -0.567  -3.102  0.00  0.00    -0.017 C 
ATOM     57  H   LIG d   1       1.915  -0.073  -3.892  0.00  0.00     0.029 H 
ATOM     58  H   LIG d   1       2.690  -1.596  -3.392  0.00  0.00     0.029 H 
ATOM     59  H   LIG d   1       1.898  -0.560  -2.180  0.00  0.00     0.029 H 
ENDBRANCH  51  56
ENDBRANCH  44  47
ENDBRANCH   4  44
TORSDOF 9
ENDMDL
