MODEL 1
REMARK VINA RESULT:      -5.1      0.000      0.000
REMARK  8 active torsions:
REMARK  status: ('A' for Active; 'I' for Inactive)
REMARK    1  A    between atoms: C_1  and  N_2 
REMARK    2  A    between atoms: N_2  and  C_3 
REMARK    3  A    between atoms: N_2  and  C_4 
REMARK    4  A    between atoms: C_12  and  N_22 
REMARK    5  A    between atoms: C_13  and  C_20 
REMARK    6  A    between atoms: C_17  and  C_18 
REMARK    7  A    between atoms: N_22  and  C_23 
REMARK    8  A    between atoms: N_22  and  C_24 
ROOT
ATOM      1  C   LIG d   1       4.378  -1.340 -11.057  0.00  0.00     0.042 A 
ATOM      2  C   LIG d   1       3.130  -0.715 -11.145  0.00  0.00    -0.039 A 
ATOM      3  C   LIG d   1       2.488  -0.222 -10.058  0.00  0.00    -0.051 A 
ATOM      4  C   LIG d   1       3.062  -0.322  -8.773  0.00  0.00     0.002 A 
ATOM      5  C   LIG d   1       2.406   0.183  -7.647  0.00  0.00    -0.043 A 
ATOM      6  C   LIG d   1       3.039   0.048  -6.408  0.00  0.00     0.002 A 
ATOM      7  C   LIG d   1       2.441   0.532  -5.224  0.00  0.00    -0.051 A 
ATOM      8  C   LIG d   1       3.061   0.396  -4.028  0.00  0.00    -0.039 A 
ATOM      9  C   LIG d   1       4.308  -0.221  -3.898  0.00  0.00     0.042 A 
ATOM     10  C   LIG d   1       4.981  -0.733  -5.017  0.00  0.00     0.061 A 
ATOM     11  C   LIG d   1       4.346  -0.608  -6.333  0.00  0.00     0.084 A 
ATOM     12  N   LIG d   1       4.936  -1.075  -7.426  0.00  0.00    -0.245 NA
ATOM     13  C   LIG d   1       4.368  -0.965  -8.619  0.00  0.00     0.084 A 
ATOM     14  C   LIG d   1       5.026  -1.489  -9.821  0.00  0.00     0.061 A 
ATOM     15  H   LIG d   1       2.662  -0.623 -12.113  0.00  0.00     0.064 H 
ATOM     16  H   LIG d   1       1.525   0.251 -10.177  0.00  0.00     0.062 H 
ATOM     17  H   LIG d   1       1.442   0.663  -7.731  0.00  0.00     0.063 H 
ATOM     18  H   LIG d   1       1.476   1.016  -5.274  0.00  0.00     0.062 H 
ATOM     19  H   LIG d   1       2.574   0.778  -3.143  0.00  0.00     0.064 H 
ENDROOT
BRANCH   1  20
ATOM     20  N   LIG d   1       4.979  -1.821 -12.201  0.00  0.00    -0.335 NA
BRANCH  20  21
ATOM     21  C   LIG d   1       4.271  -3.002 -12.711  0.00  0.00     0.000 C 
ATOM     22  H   LIG d   1       3.270  -3.040 -12.280  0.00  0.00     0.043 H 
ATOM     23  H   LIG d   1       4.820  -3.903 -12.435  0.00  0.00     0.043 H 
ATOM     24  H   LIG d   1       4.197  -2.941 -13.797  0.00  0.00     0.043 H 
ENDBRANCH  20  21
BRANCH  20  25
ATOM     25  C   LIG d   1       5.069  -0.775 -13.228  0.00  0.00     0.000 C 
ATOM     26  H   LIG d   1       5.488   0.131 -12.789  0.00  0.00     0.043 H 
ATOM     27  H   LIG d   1       5.711  -1.117 -14.040  0.00  0.00     0.043 H 
ATOM     28  H   LIG d   1       4.073  -0.562 -13.618  0.00  0.00     0.043 H 
ENDBRANCH  20  25
ENDBRANCH   1  20
BRANCH  14  29
ATOM     29  C   LIG d   1       6.286  -2.128  -9.737  0.00  0.00     0.154 C 
ATOM     30  O   LIG d   1       6.348  -3.321  -9.522  0.00  0.00    -0.296 OA
ATOM     31  H   LIG d   1       7.192  -1.554  -9.863  0.00  0.00     0.108 H 
ENDBRANCH  14  29
BRANCH  10  32
ATOM     32  C   LIG d   1       6.244  -1.357  -4.880  0.00  0.00     0.154 C 
ATOM     33  O   LIG d   1       6.314  -2.560  -4.730  0.00  0.00    -0.296 OA
ATOM     34  H   LIG d   1       7.146  -0.762  -4.907  0.00  0.00     0.108 H 
ENDBRANCH  10  32
BRANCH   9  35
ATOM     35  N   LIG d   1       4.887  -0.328  -2.650  0.00  0.00    -0.335 NA
BRANCH  35  36
ATOM     36  C   LIG d   1       4.715   0.913  -1.882  0.00  0.00     0.000 C 
ATOM     37  H   LIG d   1       5.155   0.792  -0.892  0.00  0.00     0.043 H 
ATOM     38  H   LIG d   1       5.210   1.733  -2.403  0.00  0.00     0.043 H 
ATOM     39  H   LIG d   1       3.652   1.135  -1.783  0.00  0.00     0.043 H 
ENDBRANCH  35  36
BRANCH  35  40
ATOM     40  C   LIG d   1       4.346  -1.480  -1.915  0.00  0.00     0.000 C 
ATOM     41  H   LIG d   1       5.000  -1.713  -1.075  0.00  0.00     0.043 H 
ATOM     42  H   LIG d   1       3.350  -1.239  -1.544  0.00  0.00     0.043 H 
ATOM     43  H   LIG d   1       4.289  -2.341  -2.582  0.00  0.00     0.043 H 
ENDBRANCH  35  40
ENDBRANCH   9  35
TORSDOF 8
ENDMDL
MODEL 2
REMARK VINA RESULT:      -5.1      0.063      6.869
REMARK  8 active torsions:
REMARK  status: ('A' for Active; 'I' for Inactive)
REMARK    1  A    between atoms: C_1  and  N_2 
REMARK    2  A    between atoms: N_2  and  C_3 
REMARK    3  A    between atoms: N_2  and  C_4 
REMARK    4  A    between atoms: C_12  and  N_22 
REMARK    5  A    between atoms: C_13  and  C_20 
REMARK    6  A    between atoms: C_17  and  C_18 
REMARK    7  A    between atoms: N_22  and  C_23 
REMARK    8  A    between atoms: N_22  and  C_24 
ROOT
ATOM      1  C   LIG d   1       4.315  -0.223  -3.892  0.00  0.00     0.042 A 
ATOM      2  C   LIG d   1       3.069   0.395  -4.037  0.00  0.00    -0.039 A 
ATOM      3  C   LIG d   1       2.462   0.528  -5.241  0.00  0.00    -0.051 A 
ATOM      4  C   LIG d   1       3.073   0.043  -6.416  0.00  0.00     0.002 A 
ATOM      5  C   LIG d   1       2.455   0.177  -7.662  0.00  0.00    -0.043 A 
ATOM      6  C   LIG d   1       3.122  -0.330  -8.781  0.00  0.00     0.002 A 
ATOM      7  C   LIG d   1       2.562  -0.232 -10.073  0.00  0.00    -0.051 A 
ATOM      8  C   LIG d   1       3.216  -0.726 -11.152  0.00  0.00    -0.039 A 
ATOM      9  C   LIG d   1       4.462  -1.351 -11.049  0.00  0.00     0.042 A 
ATOM     10  C   LIG d   1       5.099  -1.495  -9.806  0.00  0.00     0.061 A 
ATOM     11  C   LIG d   1       4.425  -0.974  -8.611  0.00  0.00     0.084 A 
ATOM     12  N   LIG d   1       4.981  -1.083  -7.411  0.00  0.00    -0.245 NA
ATOM     13  C   LIG d   1       4.378  -0.614  -6.327  0.00  0.00     0.084 A 
ATOM     14  C   LIG d   1       5.002  -0.733  -5.005  0.00  0.00     0.061 A 
ATOM     15  H   LIG d   1       2.573   0.779  -3.158  0.00  0.00     0.064 H 
ATOM     16  H   LIG d   1       1.499   1.014  -5.302  0.00  0.00     0.062 H 
ATOM     17  H   LIG d   1       1.492   0.657  -7.758  0.00  0.00     0.063 H 
ATOM     18  H   LIG d   1       1.600   0.243 -10.203  0.00  0.00     0.062 H 
ATOM     19  H   LIG d   1       2.759  -0.634 -12.125  0.00  0.00     0.064 H 
ENDROOT
BRANCH   1  20
ATOM     20  N   LIG d   1       4.880  -0.327  -2.639  0.00  0.00    -0.335 NA
BRANCH  20  21
ATOM     21  C   LIG d   1       4.700   0.915  -1.875  0.00  0.00     0.000 C 
ATOM     22  H   LIG d   1       3.672   0.977  -1.519  0.00  0.00     0.043 H 
ATOM     23  H   LIG d   1       4.915   1.770  -2.517  0.00  0.00     0.043 H 
ATOM     24  H   LIG d   1       5.381   0.920  -1.024  0.00  0.00     0.043 H 
ENDBRANCH  20  21
BRANCH  20  25
ATOM     25  C   LIG d   1       4.332  -1.479  -1.908  0.00  0.00     0.000 C 
ATOM     26  H   LIG d   1       4.941  -1.671  -1.025  0.00  0.00     0.043 H 
ATOM     27  H   LIG d   1       3.308  -1.262  -1.605  0.00  0.00     0.043 H 
ATOM     28  H   LIG d   1       4.342  -2.357  -2.555  0.00  0.00     0.043 H 
ENDBRANCH  20  25
ENDBRANCH   1  20
BRANCH  14  29
ATOM     29  C   LIG d   1       6.266  -1.352  -4.853  0.00  0.00     0.154 C 
ATOM     30  O   LIG d   1       6.338  -2.554  -4.696  0.00  0.00    -0.296 OA
ATOM     31  H   LIG d   1       7.166  -0.755  -4.877  0.00  0.00     0.108 H 
ENDBRANCH  14  29
BRANCH  10  32
ATOM     32  C   LIG d   1       6.360  -2.129  -9.708  0.00  0.00     0.154 C 
ATOM     33  O   LIG d   1       6.425  -3.323  -9.496  0.00  0.00    -0.296 OA
ATOM     34  H   LIG d   1       7.265  -1.551  -9.821  0.00  0.00     0.108 H 
ENDBRANCH  10  32
BRANCH   9  35
ATOM     35  N   LIG d   1       5.077  -1.833 -12.186  0.00  0.00    -0.335 NA
BRANCH  35  36
ATOM     36  C   LIG d   1       4.357  -2.996 -12.720  0.00  0.00     0.000 C 
ATOM     37  H   LIG d   1       3.742  -2.687 -13.566  0.00  0.00     0.043 H 
ATOM     38  H   LIG d   1       5.074  -3.749 -13.048  0.00  0.00     0.043 H 
ATOM     39  H   LIG d   1       3.719  -3.418 -11.943  0.00  0.00     0.043 H 
ENDBRANCH  35  36
BRANCH  35  40
ATOM     40  C   LIG d   1       5.204  -0.780 -13.203  0.00  0.00     0.000 C 
ATOM     41  H   LIG d   1       4.953  -1.190 -14.182  0.00  0.00     0.043 H 
ATOM     42  H   LIG d   1       4.524   0.038 -12.966  0.00  0.00     0.043 H 
ATOM     43  H   LIG d   1       6.229  -0.410 -13.216  0.00  0.00     0.043 H 
ENDBRANCH  35  40
ENDBRANCH   9  35
TORSDOF 8
ENDMDL
MODEL 3
REMARK VINA RESULT:      -4.6      9.539     10.517
REMARK  8 active torsions:
REMARK  status: ('A' for Active; 'I' for Inactive)
REMARK    1  A    between atoms: C_1  and  N_2 
REMARK    2  A    between atoms: N_2  and  C_3 
REMARK    3  A    between atoms: N_2  and  C_4 
REMARK    4  A    between atoms: C_12  and  N_22 
REMARK    5  A    between atoms: C_13  and  C_20 
REMARK    6  A    between atoms: C_17  and  C_18 
REMARK    7  A    between atoms: N_22  and  C_23 
REMARK    8  A    between atoms: N_22  and  C_24 
ROOT
ATOM      1  C   LIG d   1      10.036   6.152  -8.890  0.00  0.00     0.042 A 
ATOM      2  C   LIG d   1       9.859   4.837  -8.449  0.00  0.00    -0.039 A 
ATOM      3  C   LIG d   1       9.760   4.520  -7.135  0.00  0.00    -0.051 A 
ATOM      4  C   LIG d   1       9.833   5.520  -6.143  0.00  0.00     0.002 A 
ATOM      5  C   LIG d   1       9.733   5.203  -4.786  0.00  0.00    -0.043 A 
ATOM      6  C   LIG d   1       9.812   6.249  -3.863  0.00  0.00     0.002 A 
ATOM      7  C   LIG d   1       9.720   6.008  -2.475  0.00  0.00    -0.051 A 
ATOM      8  C   LIG d   1       9.800   7.029  -1.587  0.00  0.00    -0.039 A 
ATOM      9  C   LIG d   1       9.975   8.356  -1.987  0.00  0.00     0.042 A 
ATOM     10  C   LIG d   1      10.078   8.694  -3.345  0.00  0.00     0.061 A 
ATOM     11  C   LIG d   1       9.997   7.620  -4.341  0.00  0.00     0.084 A 
ATOM     12  N   LIG d   1      10.088   7.882  -5.639  0.00  0.00    -0.245 NA
ATOM     13  C   LIG d   1      10.016   6.917  -6.545  0.00  0.00     0.084 A 
ATOM     14  C   LIG d   1      10.124   7.214  -7.977  0.00  0.00     0.061 A 
ATOM     15  H   LIG d   1       9.800   4.045  -9.181  0.00  0.00     0.064 H 
ATOM     16  H   LIG d   1       9.625   3.489  -6.844  0.00  0.00     0.062 H 
ATOM     17  H   LIG d   1       9.596   4.182  -4.461  0.00  0.00     0.063 H 
ATOM     18  H   LIG d   1       9.585   4.998  -2.116  0.00  0.00     0.062 H 
ATOM     19  H   LIG d   1       9.725   6.809  -0.533  0.00  0.00     0.064 H 
ENDROOT
BRANCH   1  20
ATOM     20  N   LIG d   1      10.130   6.408 -10.241  0.00  0.00    -0.335 NA
BRANCH  20  21
ATOM     21  C   LIG d   1      11.271   5.697 -10.834  0.00  0.00     0.000 C 
ATOM     22  H   LIG d   1      12.088   6.399 -11.004  0.00  0.00     0.043 H 
ATOM     23  H   LIG d   1      10.970   5.254 -11.783  0.00  0.00     0.043 H 
ATOM     24  H   LIG d   1      11.602   4.912 -10.155  0.00  0.00     0.043 H 
ENDBRANCH  20  21
BRANCH  20  25
ATOM     25  C   LIG d   1       8.879   6.064 -10.931  0.00  0.00     0.000 C 
ATOM     26  H   LIG d   1       8.035   6.483 -10.383  0.00  0.00     0.043 H 
ATOM     27  H   LIG d   1       8.897   6.473 -11.941  0.00  0.00     0.043 H 
ATOM     28  H   LIG d   1       8.778   4.979 -10.980  0.00  0.00     0.043 H 
ENDBRANCH  20  25
ENDBRANCH   1  20
BRANCH  14  29
ATOM     29  C   LIG d   1      10.309   8.543  -8.429  0.00  0.00     0.154 C 
ATOM     30  O   LIG d   1       9.346   9.242  -8.666  0.00  0.00    -0.296 OA
ATOM     31  H   LIG d   1      11.307   8.934  -8.562  0.00  0.00     0.108 H 
ENDBRANCH  14  29
BRANCH  10  32
ATOM     32  C   LIG d   1      10.255  10.040  -3.745  0.00  0.00     0.154 C 
ATOM     33  O   LIG d   1       9.290  10.721  -4.029  0.00  0.00    -0.296 OA
ATOM     34  H   LIG d   1      11.248  10.462  -3.797  0.00  0.00     0.108 H 
ENDBRANCH  10  32
BRANCH   9  35
ATOM     35  N   LIG d   1      10.049   9.350  -1.033  0.00  0.00    -0.335 NA
BRANCH  35  36
ATOM     36  C   LIG d   1       8.716   9.675  -0.508  0.00  0.00     0.000 C 
ATOM     37  H   LIG d   1       8.039   8.840  -0.691  0.00  0.00     0.043 H 
ATOM     38  H   LIG d   1       8.783   9.861   0.564  0.00  0.00     0.043 H 
ATOM     39  H   LIG d   1       8.335  10.566  -1.008  0.00  0.00     0.043 H 
ENDBRANCH  35  36
BRANCH  35  40
ATOM     40  C   LIG d   1      10.963   8.971   0.053  0.00  0.00     0.000 C 
ATOM     41  H   LIG d   1      11.912   9.494  -0.074  0.00  0.00     0.043 H 
ATOM     42  H   LIG d   1      10.523   9.245   1.011  0.00  0.00     0.043 H 
ATOM     43  H   LIG d   1      11.134   7.895   0.024  0.00  0.00     0.043 H 
ENDBRANCH  35  40
ENDBRANCH   9  35
TORSDOF 8
ENDMDL
MODEL 4
REMARK VINA RESULT:      -4.6      9.569     12.513
REMARK  8 active torsions:
REMARK  status: ('A' for Active; 'I' for Inactive)
REMARK    1  A    between atoms: C_1  and  N_2 
REMARK    2  A    between atoms: N_2  and  C_3 
REMARK    3  A    between atoms: N_2  and  C_4 
REMARK    4  A    between atoms: C_12  and  N_22 
REMARK    5  A    between atoms: C_13  and  C_20 
REMARK    6  A    between atoms: C_17  and  C_18 
REMARK    7  A    between atoms: N_22  and  C_23 
REMARK    8  A    between atoms: N_22  and  C_24 
ROOT
ATOM      1  C   LIG d   1       9.950   8.408  -2.040  0.00  0.00     0.042 A 
ATOM      2  C   LIG d   1       9.769   7.082  -1.633  0.00  0.00    -0.039 A 
ATOM      3  C   LIG d   1       9.698   6.057  -2.515  0.00  0.00    -0.051 A 
ATOM      4  C   LIG d   1       9.804   6.289  -3.903  0.00  0.00     0.002 A 
ATOM      5  C   LIG d   1       9.730   5.237  -4.820  0.00  0.00    -0.043 A 
ATOM      6  C   LIG d   1       9.845   5.546  -6.179  0.00  0.00     0.002 A 
ATOM      7  C   LIG d   1       9.780   4.539  -7.166  0.00  0.00    -0.051 A 
ATOM      8  C   LIG d   1       9.891   4.848  -8.480  0.00  0.00    -0.039 A 
ATOM      9  C   LIG d   1      10.074   6.159  -8.927  0.00  0.00     0.042 A 
ATOM     10  C   LIG d   1      10.150   7.228  -8.021  0.00  0.00     0.061 A 
ATOM     11  C   LIG d   1      10.034   6.939  -6.588  0.00  0.00     0.084 A 
ATOM     12  N   LIG d   1      10.099   7.910  -5.686  0.00  0.00    -0.245 NA
ATOM     13  C   LIG d   1       9.995   7.657  -4.389  0.00  0.00     0.084 A 
ATOM     14  C   LIG d   1      10.062   8.737  -3.399  0.00  0.00     0.061 A 
ATOM     15  H   LIG d   1       9.683   6.869  -0.578  0.00  0.00     0.064 H 
ATOM     16  H   LIG d   1       9.556   5.049  -2.152  0.00  0.00     0.062 H 
ATOM     17  H   LIG d   1       9.589   4.218  -4.490  0.00  0.00     0.063 H 
ATOM     18  H   LIG d   1       9.639   3.509  -6.869  0.00  0.00     0.062 H 
ATOM     19  H   LIG d   1       9.837   4.052  -9.208  0.00  0.00     0.064 H 
ENDROOT
BRANCH   1  20
ATOM     20  N   LIG d   1      10.015   9.407  -1.091  0.00  0.00    -0.335 NA
BRANCH  20  21
ATOM     21  C   LIG d   1       8.679   9.723  -0.568  0.00  0.00     0.000 C 
ATOM     22  H   LIG d   1       7.952   9.685  -1.379  0.00  0.00     0.043 H 
ATOM     23  H   LIG d   1       8.686  10.723  -0.134  0.00  0.00     0.043 H 
ATOM     24  H   LIG d   1       8.407   8.997   0.198  0.00  0.00     0.043 H 
ENDBRANCH  20  21
BRANCH  20  25
ATOM     25  C   LIG d   1      10.934   9.043  -0.005  0.00  0.00     0.000 C 
ATOM     26  H   LIG d   1      11.929   8.871  -0.414  0.00  0.00     0.043 H 
ATOM     27  H   LIG d   1      10.974   9.853   0.724  0.00  0.00     0.043 H 
ATOM     28  H   LIG d   1      10.579   8.134   0.482  0.00  0.00     0.043 H 
ENDBRANCH  20  25
ENDBRANCH   1  20
BRANCH  14  29
ATOM     29  C   LIG d   1      10.238  10.082  -3.806  0.00  0.00     0.154 C 
ATOM     30  O   LIG d   1       9.274  10.759  -4.096  0.00  0.00    -0.296 OA
ATOM     31  H   LIG d   1      11.231  10.504  -3.858  0.00  0.00     0.108 H 
ENDBRANCH  14  29
BRANCH  10  32
ATOM     32  C   LIG d   1      10.335   8.554  -8.480  0.00  0.00     0.154 C 
ATOM     33  O   LIG d   1       9.372   9.251  -8.724  0.00  0.00    -0.296 OA
ATOM     34  H   LIG d   1      11.333   8.945  -8.612  0.00  0.00     0.108 H 
ENDBRANCH  10  32
BRANCH   9  35
ATOM     35  N   LIG d   1      10.180   6.408 -10.280  0.00  0.00    -0.335 NA
BRANCH  35  36
ATOM     36  C   LIG d   1      11.321   5.686 -10.859  0.00  0.00     0.000 C 
ATOM     37  H   LIG d   1      11.263   5.727 -11.947  0.00  0.00     0.043 H 
ATOM     38  H   LIG d   1      12.250   6.149 -10.526  0.00  0.00     0.043 H 
ATOM     39  H   LIG d   1      11.297   4.646 -10.534  0.00  0.00     0.043 H 
ENDBRANCH  35  36
BRANCH  35  40
ATOM     40  C   LIG d   1       8.933   6.067 -10.978  0.00  0.00     0.000 C 
ATOM     41  H   LIG d   1       9.149   5.364 -11.783  0.00  0.00     0.043 H 
ATOM     42  H   LIG d   1       8.236   5.611 -10.275  0.00  0.00     0.043 H 
ATOM     43  H   LIG d   1       8.491   6.972 -11.394  0.00  0.00     0.043 H 
ENDBRANCH  35  40
ENDBRANCH   9  35
TORSDOF 8
ENDMDL
MODEL 5
REMARK VINA RESULT:      -4.6     10.036     12.514
REMARK  8 active torsions:
REMARK  status: ('A' for Active; 'I' for Inactive)
REMARK    1  A    between atoms: C_1  and  N_2 
REMARK    2  A    between atoms: N_2  and  C_3 
REMARK    3  A    between atoms: N_2  and  C_4 
REMARK    4  A    between atoms: C_12  and  N_22 
REMARK    5  A    between atoms: C_13  and  C_20 
REMARK    6  A    between atoms: C_17  and  C_18 
REMARK    7  A    between atoms: N_22  and  C_23 
REMARK    8  A    between atoms: N_22  and  C_24 
ROOT
ATOM      1  C   LIG d   1       9.907  11.608  -3.592  0.00  0.00     0.042 A 
ATOM      2  C   LIG d   1       9.688  11.622  -4.973  0.00  0.00    -0.039 A 
ATOM      3  C   LIG d   1       9.583  10.485  -5.703  0.00  0.00    -0.051 A 
ATOM      4  C   LIG d   1       9.692   9.220  -5.088  0.00  0.00     0.002 A 
ATOM      5  C   LIG d   1       9.586   8.042  -5.832  0.00  0.00    -0.043 A 
ATOM      6  C   LIG d   1       9.704   6.827  -5.152  0.00  0.00     0.002 A 
ATOM      7  C   LIG d   1       9.609   5.594  -5.834  0.00  0.00    -0.051 A 
ATOM      8  C   LIG d   1       9.726   4.421  -5.166  0.00  0.00    -0.039 A 
ATOM      9  C   LIG d   1       9.944   4.364  -3.787  0.00  0.00     0.042 A 
ATOM     10  C   LIG d   1      10.053   5.536  -3.023  0.00  0.00     0.061 A 
ATOM     11  C   LIG d   1       9.933   6.829  -3.706  0.00  0.00     0.084 A 
ATOM     12  N   LIG d   1      10.029   7.969  -3.034  0.00  0.00    -0.245 NA
ATOM     13  C   LIG d   1       9.921   9.141  -3.644  0.00  0.00     0.084 A 
ATOM     14  C   LIG d   1      10.034  10.397  -2.894  0.00  0.00     0.061 A 
ATOM     15  H   LIG d   1       9.600  12.574  -5.477  0.00  0.00     0.064 H 
ATOM     16  H   LIG d   1       9.414  10.548  -6.768  0.00  0.00     0.062 H 
ATOM     17  H   LIG d   1       9.417   8.069  -6.899  0.00  0.00     0.063 H 
ATOM     18  H   LIG d   1       9.441   5.587  -6.901  0.00  0.00     0.062 H 
ATOM     19  H   LIG d   1       9.647   3.497  -5.719  0.00  0.00     0.064 H 
ENDROOT
BRANCH   1  20
ATOM     20  N   LIG d   1      10.005  12.801  -2.908  0.00  0.00    -0.335 NA
BRANCH  20  21
ATOM     21  C   LIG d   1      11.162  13.579  -3.370  0.00  0.00     0.000 C 
ATOM     22  H   LIG d   1      11.898  13.647  -2.569  0.00  0.00     0.043 H 
ATOM     23  H   LIG d   1      10.837  14.582  -3.649  0.00  0.00     0.043 H 
ATOM     24  H   LIG d   1      11.609  13.089  -4.234  0.00  0.00     0.043 H 
ENDBRANCH  20  21
BRANCH  20  25
ATOM     25  C   LIG d   1       8.765  13.579  -3.026  0.00  0.00     0.000 C 
ATOM     26  H   LIG d   1       8.616  14.164  -2.118  0.00  0.00     0.043 H 
ATOM     27  H   LIG d   1       8.836  14.248  -3.883  0.00  0.00     0.043 H 
ATOM     28  H   LIG d   1       7.922  12.901  -3.164  0.00  0.00     0.043 H 
ENDBRANCH  20  25
ENDBRANCH   1  20
BRANCH  14  29
ATOM     29  C   LIG d   1      10.262  10.389  -1.497  0.00  0.00     0.154 C 
ATOM     30  O   LIG d   1       9.325  10.290  -0.731  0.00  0.00    -0.296 OA
ATOM     31  H   LIG d   1      11.268  10.469  -1.113  0.00  0.00     0.108 H 
ENDBRANCH  14  29
BRANCH  10  32
ATOM     32  C   LIG d   1      10.274   5.472  -1.627  0.00  0.00     0.154 C 
ATOM     33  O   LIG d   1      11.408   5.469  -1.191  0.00  0.00    -0.296 OA
ATOM     34  H   LIG d   1       9.435   5.426  -0.949  0.00  0.00     0.108 H 
ENDBRANCH  10  32
BRANCH   9  35
ATOM     35  N   LIG d   1      10.054   3.137  -3.166  0.00  0.00    -0.335 NA
BRANCH  35  36
ATOM     36  C   LIG d   1       8.981   2.231  -3.598  0.00  0.00     0.000 C 
ATOM     37  H   LIG d   1       8.401   1.914  -2.731  0.00  0.00     0.043 H 
ATOM     38  H   LIG d   1       8.330   2.749  -4.302  0.00  0.00     0.043 H 
ATOM     39  H   LIG d   1       9.416   1.357  -4.083  0.00  0.00     0.043 H 
ENDBRANCH  35  36
BRANCH  35  40
ATOM     40  C   LIG d   1      11.375   2.541  -3.408  0.00  0.00     0.000 C 
ATOM     41  H   LIG d   1      11.933   3.165  -4.106  0.00  0.00     0.043 H 
ATOM     42  H   LIG d   1      11.920   2.471  -2.467  0.00  0.00     0.043 H 
ATOM     43  H   LIG d   1      11.251   1.544  -3.831  0.00  0.00     0.043 H 
ENDBRANCH  35  40
ENDBRANCH   9  35
TORSDOF 8
ENDMDL
MODEL 6
REMARK VINA RESULT:      -4.6     10.060     12.192
REMARK  8 active torsions:
REMARK  status: ('A' for Active; 'I' for Inactive)
REMARK    1  A    between atoms: C_1  and  N_2 
REMARK    2  A    between atoms: N_2  and  C_3 
REMARK    3  A    between atoms: N_2  and  C_4 
REMARK    4  A    between atoms: C_12  and  N_22 
REMARK    5  A    between atoms: C_13  and  C_20 
REMARK    6  A    between atoms: C_17  and  C_18 
REMARK    7  A    between atoms: N_22  and  C_23 
REMARK    8  A    between atoms: N_22  and  C_24 
ROOT
ATOM      1  C   LIG d   1       9.961   4.382  -3.772  0.00  0.00     0.042 A 
ATOM      2  C   LIG d   1       9.732   4.436  -5.150  0.00  0.00    -0.039 A 
ATOM      3  C   LIG d   1       9.610   5.607  -5.820  0.00  0.00    -0.051 A 
ATOM      4  C   LIG d   1       9.712   6.840  -5.142  0.00  0.00     0.002 A 
ATOM      5  C   LIG d   1       9.586   8.054  -5.824  0.00  0.00    -0.043 A 
ATOM      6  C   LIG d   1       9.700   9.234  -5.084  0.00  0.00     0.002 A 
ATOM      7  C   LIG d   1       9.585  10.498  -5.702  0.00  0.00    -0.051 A 
ATOM      8  C   LIG d   1       9.696  11.637  -4.976  0.00  0.00    -0.039 A 
ATOM      9  C   LIG d   1       9.927  11.626  -3.598  0.00  0.00     0.042 A 
ATOM     10  C   LIG d   1      10.055  10.418  -2.896  0.00  0.00     0.061 A 
ATOM     11  C   LIG d   1       9.942   9.160  -3.642  0.00  0.00     0.084 A 
ATOM     12  N   LIG d   1      10.055   7.988  -3.030  0.00  0.00    -0.245 NA
ATOM     13  C   LIG d   1       9.953   6.847  -3.698  0.00  0.00     0.084 A 
ATOM     14  C   LIG d   1      10.073   5.556  -3.012  0.00  0.00     0.061 A 
ATOM     15  H   LIG d   1       9.648   3.510  -5.701  0.00  0.00     0.064 H 
ATOM     16  H   LIG d   1       9.432   5.597  -6.885  0.00  0.00     0.062 H 
ATOM     17  H   LIG d   1       9.409   8.079  -6.890  0.00  0.00     0.063 H 
ATOM     18  H   LIG d   1       9.406  10.558  -6.766  0.00  0.00     0.062 H 
ATOM     19  H   LIG d   1       9.603  12.587  -5.481  0.00  0.00     0.064 H 
ENDROOT
BRANCH   1  20
ATOM     20  N   LIG d   1      10.076   3.157  -3.150  0.00  0.00    -0.335 NA
BRANCH  20  21
ATOM     21  C   LIG d   1       9.013   2.242  -3.589  0.00  0.00     0.000 C 
ATOM     22  H   LIG d   1       9.214   1.241  -3.207  0.00  0.00     0.043 H 
ATOM     23  H   LIG d   1       8.985   2.215  -4.679  0.00  0.00     0.043 H 
ATOM     24  H   LIG d   1       8.053   2.591  -3.209  0.00  0.00     0.043 H 
ENDBRANCH  20  21
BRANCH  20  25
ATOM     25  C   LIG d   1      11.403   2.571  -3.379  0.00  0.00     0.000 C 
ATOM     26  H   LIG d   1      11.472   1.614  -2.861  0.00  0.00     0.043 H 
ATOM     27  H   LIG d   1      11.554   2.418  -4.448  0.00  0.00     0.043 H 
ATOM     28  H   LIG d   1      12.169   3.247  -2.998  0.00  0.00     0.043 H 
ENDBRANCH  20  25
ENDBRANCH   1  20
BRANCH  14  29
ATOM     29  C   LIG d   1      10.300   5.496  -1.616  0.00  0.00     0.154 C 
ATOM     30  O   LIG d   1      11.435   5.496  -1.186  0.00  0.00    -0.296 OA
ATOM     31  H   LIG d   1       9.464   5.450  -0.935  0.00  0.00     0.108 H 
ENDBRANCH  14  29
BRANCH  10  32
ATOM     32  C   LIG d   1      10.289  10.413  -1.500  0.00  0.00     0.154 C 
ATOM     33  O   LIG d   1       9.356  10.317  -0.729  0.00  0.00    -0.296 OA
ATOM     34  H   LIG d   1      11.297  10.495  -1.122  0.00  0.00     0.108 H 
ENDBRANCH  10  32
BRANCH   9  35
ATOM     35  N   LIG d   1      10.029  12.821  -2.916  0.00  0.00    -0.335 NA
BRANCH  35  36
ATOM     36  C   LIG d   1      11.192  13.591  -3.378  0.00  0.00     0.000 C 
ATOM     37  H   LIG d   1      10.931  14.137  -4.285  0.00  0.00     0.043 H 
ATOM     38  H   LIG d   1      11.491  14.297  -2.602  0.00  0.00     0.043 H 
ATOM     39  H   LIG d   1      12.018  12.912  -3.588  0.00  0.00     0.043 H 
ENDBRANCH  35  36
BRANCH  35  40
ATOM     40  C   LIG d   1       8.794  13.607  -3.042  0.00  0.00     0.000 C 
ATOM     41  H   LIG d   1       8.059  13.244  -2.323  0.00  0.00     0.043 H 
ATOM     42  H   LIG d   1       9.010  14.656  -2.842  0.00  0.00     0.043 H 
ATOM     43  H   LIG d   1       8.399  13.502  -4.052  0.00  0.00     0.043 H 
ENDBRANCH  35  40
ENDBRANCH   9  35
TORSDOF 8
ENDMDL
MODEL 7
REMARK VINA RESULT:      -4.4      8.386      9.997
REMARK  8 active torsions:
REMARK  status: ('A' for Active; 'I' for Inactive)
REMARK    1  A    between atoms: C_1  and  N_2 
REMARK    2  A    between atoms: N_2  and  C_3 
REMARK    3  A    between atoms: N_2  and  C_4 
REMARK    4  A    between atoms: C_12  and  N_22 
REMARK    5  A    between atoms: C_13  and  C_20 
REMARK    6  A    between atoms: C_17  and  C_18 
REMARK    7  A    between atoms: N_22  and  C_23 
REMARK    8  A    between atoms: N_22  and  C_24 
ROOT
ATOM      1  C   LIG d   1       9.385   2.559  -5.876  0.00  0.00     0.042 A 
ATOM      2  C   LIG d   1       9.474   3.073  -7.173  0.00  0.00    -0.039 A 
ATOM      3  C   LIG d   1       9.646   4.394  -7.420  0.00  0.00    -0.051 A 
ATOM      4  C   LIG d   1       9.744   5.319  -6.359  0.00  0.00     0.002 A 
ATOM      5  C   LIG d   1       9.920   6.684  -6.604  0.00  0.00    -0.043 A 
ATOM      6  C   LIG d   1      10.010   7.539  -5.502  0.00  0.00     0.002 A 
ATOM      7  C   LIG d   1      10.188   8.930  -5.667  0.00  0.00    -0.051 A 
ATOM      8  C   LIG d   1      10.272   9.751  -4.593  0.00  0.00    -0.039 A 
ATOM      9  C   LIG d   1      10.190   9.277  -3.281  0.00  0.00     0.042 A 
ATOM     10  C   LIG d   1      10.013   7.910  -3.016  0.00  0.00     0.061 A 
ATOM     11  C   LIG d   1       9.916   6.985  -4.150  0.00  0.00     0.084 A 
ATOM     12  N   LIG d   1       9.748   5.683  -3.959  0.00  0.00    -0.245 NA
ATOM     13  C   LIG d   1       9.659   4.840  -4.978  0.00  0.00     0.084 A 
ATOM     14  C   LIG d   1       9.467   3.403  -4.758  0.00  0.00     0.061 A 
ATOM     15  H   LIG d   1       9.402   2.392  -8.009  0.00  0.00     0.064 H 
ATOM     16  H   LIG d   1       9.707   4.743  -8.440  0.00  0.00     0.062 H 
ATOM     17  H   LIG d   1       9.986   7.066  -7.612  0.00  0.00     0.063 H 
ATOM     18  H   LIG d   1      10.257   9.344  -6.663  0.00  0.00     0.062 H 
ATOM     19  H   LIG d   1      10.409  10.809  -4.757  0.00  0.00     0.064 H 
ENDROOT
BRANCH   1  20
ATOM     20  N   LIG d   1       9.210   1.203  -5.693  0.00  0.00    -0.335 NA
BRANCH  20  21
ATOM     21  C   LIG d   1       7.923   0.760  -6.245  0.00  0.00     0.000 C 
ATOM     22  H   LIG d   1       7.454   0.058  -5.555  0.00  0.00     0.043 H 
ATOM     23  H   LIG d   1       8.089   0.269  -7.204  0.00  0.00     0.043 H 
ATOM     24  H   LIG d   1       7.271   1.621  -6.386  0.00  0.00     0.043 H 
ENDBRANCH  20  21
BRANCH  20  25
ATOM     25  C   LIG d   1      10.324   0.444  -6.276  0.00  0.00     0.000 C 
ATOM     26  H   LIG d   1      11.265   0.803  -5.860  0.00  0.00     0.043 H 
ATOM     27  H   LIG d   1      10.204  -0.614  -6.045  0.00  0.00     0.043 H 
ATOM     28  H   LIG d   1      10.329   0.581  -7.358  0.00  0.00     0.043 H 
ENDBRANCH  20  25
ENDBRANCH   1  20
BRANCH  14  29
ATOM     29  C   LIG d   1       9.371   2.878  -3.446  0.00  0.00     0.154 C 
ATOM     30  O   LIG d   1      10.378   2.575  -2.840  0.00  0.00    -0.296 OA
ATOM     31  H   LIG d   1       8.403   2.747  -2.987  0.00  0.00     0.108 H 
ENDBRANCH  14  29
BRANCH  10  32
ATOM     32  C   LIG d   1       9.930   7.436  -1.686  0.00  0.00     0.154 C 
ATOM     33  O   LIG d   1       8.859   7.415  -1.114  0.00  0.00    -0.296 OA
ATOM     34  H   LIG d   1      10.820   7.093  -1.178  0.00  0.00     0.108 H 
ENDBRANCH  10  32
BRANCH   9  35
ATOM     35  N   LIG d   1      10.283  10.165  -2.230  0.00  0.00    -0.335 NA
BRANCH  35  36
ATOM     36  C   LIG d   1      11.631  10.745  -2.150  0.00  0.00     0.000 C 
ATOM     37  H   LIG d   1      12.144  10.608  -3.102  0.00  0.00     0.043 H 
ATOM     38  H   LIG d   1      11.556  11.809  -1.927  0.00  0.00     0.043 H 
ATOM     39  H   LIG d   1      12.194  10.248  -1.360  0.00  0.00     0.043 H 
ENDBRANCH  35  36
BRANCH  35  40
ATOM     40  C   LIG d   1       9.264  11.218  -2.337  0.00  0.00     0.000 C 
ATOM     41  H   LIG d   1       9.572  11.946  -3.088  0.00  0.00     0.043 H 
ATOM     42  H   LIG d   1       8.313  10.774  -2.630  0.00  0.00     0.043 H 
ATOM     43  H   LIG d   1       9.153  11.714  -1.373  0.00  0.00     0.043 H 
ENDBRANCH  35  40
ENDBRANCH   9  35
TORSDOF 8
ENDMDL
MODEL 8
REMARK VINA RESULT:      -4.3      8.990     10.452
REMARK  8 active torsions:
REMARK  status: ('A' for Active; 'I' for Inactive)
REMARK    1  A    between atoms: C_1  and  N_2 
REMARK    2  A    between atoms: N_2  and  C_3 
REMARK    3  A    between atoms: N_2  and  C_4 
REMARK    4  A    between atoms: C_12  and  N_22 
REMARK    5  A    between atoms: C_13  and  C_20 
REMARK    6  A    between atoms: C_17  and  C_18 
REMARK    7  A    between atoms: N_22  and  C_23 
REMARK    8  A    between atoms: N_22  and  C_24 
ROOT
ATOM      1  C   LIG d   1       9.789   4.540  -7.287  0.00  0.00     0.042 A 
ATOM      2  C   LIG d   1       9.621   3.423  -6.463  0.00  0.00    -0.039 A 
ATOM      3  C   LIG d   1       9.647   3.509  -5.111  0.00  0.00    -0.051 A 
ATOM      4  C   LIG d   1       9.848   4.749  -4.470  0.00  0.00     0.002 A 
ATOM      5  C   LIG d   1       9.878   4.848  -3.076  0.00  0.00    -0.043 A 
ATOM      6  C   LIG d   1      10.080   6.112  -2.515  0.00  0.00     0.002 A 
ATOM      7  C   LIG d   1      10.123   6.292  -1.115  0.00  0.00    -0.051 A 
ATOM      8  C   LIG d   1      10.321   7.520  -0.580  0.00  0.00    -0.039 A 
ATOM      9  C   LIG d   1      10.492   8.661  -1.369  0.00  0.00     0.042 A 
ATOM     10  C   LIG d   1      10.465   8.582  -2.770  0.00  0.00     0.061 A 
ATOM     11  C   LIG d   1      10.253   7.271  -3.392  0.00  0.00     0.084 A 
ATOM     12  N   LIG d   1      10.220   7.137  -4.711  0.00  0.00    -0.245 NA
ATOM     13  C   LIG d   1      10.029   5.955  -5.281  0.00  0.00     0.084 A 
ATOM     14  C   LIG d   1       9.999   5.815  -6.741  0.00  0.00     0.061 A 
ATOM     15  H   LIG d   1       9.466   2.457  -6.920  0.00  0.00     0.064 H 
ATOM     16  H   LIG d   1       9.513   2.617  -4.517  0.00  0.00     0.062 H 
ATOM     17  H   LIG d   1       9.747   3.975  -2.453  0.00  0.00     0.063 H 
ATOM     18  H   LIG d   1       9.996   5.440  -0.463  0.00  0.00     0.062 H 
ATOM     19  H   LIG d   1      10.348   7.622   0.495  0.00  0.00     0.064 H 
ENDROOT
BRANCH   1  20
ATOM     20  N   LIG d   1       9.752   4.385  -8.657  0.00  0.00    -0.335 NA
BRANCH  20  21
ATOM     21  C   LIG d   1      10.938   3.663  -9.137  0.00  0.00     0.000 C 
ATOM     22  H   LIG d   1      11.678   4.378  -9.495  0.00  0.00     0.043 H 
ATOM     23  H   LIG d   1      10.653   2.997  -9.952  0.00  0.00     0.043 H 
ATOM     24  H   LIG d   1      11.363   3.078  -8.322  0.00  0.00     0.043 H 
ENDBRANCH  20  21
BRANCH  20  25
ATOM     25  C   LIG d   1       8.517   3.709  -9.078  0.00  0.00     0.000 C 
ATOM     26  H   LIG d   1       7.946   3.415  -8.197  0.00  0.00     0.043 H 
ATOM     27  H   LIG d   1       7.921   4.387  -9.688  0.00  0.00     0.043 H 
ATOM     28  H   LIG d   1       8.769   2.822  -9.660  0.00  0.00     0.043 H 
ENDBRANCH  20  25
ENDBRANCH   1  20
BRANCH  14  29
ATOM     29  C   LIG d   1      10.174   6.942  -7.580  0.00  0.00     0.154 C 
ATOM     30  O   LIG d   1       9.217   7.621  -7.891  0.00  0.00    -0.296 OA
ATOM     31  H   LIG d   1      11.158   7.196  -7.944  0.00  0.00     0.108 H 
ENDBRANCH  14  29
BRANCH  10  32
ATOM     32  C   LIG d   1      10.638   9.741  -3.563  0.00  0.00     0.154 C 
ATOM     33  O   LIG d   1       9.672  10.390  -3.909  0.00  0.00    -0.296 OA
ATOM     34  H   LIG d   1      11.630  10.047  -3.862  0.00  0.00     0.108 H 
ENDBRANCH  10  32
BRANCH   9  35
ATOM     35  N   LIG d   1      10.690   9.884  -0.762  0.00  0.00    -0.335 NA
BRANCH  35  36
ATOM     36  C   LIG d   1       9.477  10.325  -0.059  0.00  0.00     0.000 C 
ATOM     37  H   LIG d   1       8.671  10.469  -0.778  0.00  0.00     0.043 H 
ATOM     38  H   LIG d   1       9.184   9.568   0.669  0.00  0.00     0.043 H 
ATOM     39  H   LIG d   1       9.677  11.265   0.456  0.00  0.00     0.043 H 
ENDBRANCH  35  36
BRANCH  35  40
ATOM     40  C   LIG d   1      11.840   9.840   0.151  0.00  0.00     0.000 C 
ATOM     41  H   LIG d   1      11.487   9.698   1.173  0.00  0.00     0.043 H 
ATOM     42  H   LIG d   1      12.492   9.012  -0.126  0.00  0.00     0.043 H 
ATOM     43  H   LIG d   1      12.393  10.777   0.084  0.00  0.00     0.043 H 
ENDBRANCH  35  40
ENDBRANCH   9  35
TORSDOF 8
ENDMDL
MODEL 9
REMARK VINA RESULT:      -4.3     11.387     11.864
REMARK  8 active torsions:
REMARK  status: ('A' for Active; 'I' for Inactive)
REMARK    1  A    between atoms: C_1  and  N_2 
REMARK    2  A    between atoms: N_2  and  C_3 
REMARK    3  A    between atoms: N_2  and  C_4 
REMARK    4  A    between atoms: C_12  and  N_22 
REMARK    5  A    between atoms: C_13  and  C_20 
REMARK    6  A    between atoms: C_17  and  C_18 
REMARK    7  A    between atoms: N_22  and  C_23 
REMARK    8  A    between atoms: N_22  and  C_24 
ROOT
ATOM      1  C   LIG d   1       9.883   6.619 -11.584  0.00  0.00     0.042 A 
ATOM      2  C   LIG d   1       9.255   5.678 -10.762  0.00  0.00    -0.039 A 
ATOM      3  C   LIG d   1       9.007   5.911  -9.451  0.00  0.00    -0.051 A 
ATOM      4  C   LIG d   1       9.379   7.133  -8.852  0.00  0.00     0.002 A 
ATOM      5  C   LIG d   1       9.129   7.382  -7.500  0.00  0.00    -0.043 A 
ATOM      6  C   LIG d   1       9.525   8.617  -6.979  0.00  0.00     0.002 A 
ATOM      7  C   LIG d   1       9.306   8.943  -5.622  0.00  0.00    -0.051 A 
ATOM      8  C   LIG d   1       9.696  10.141  -5.126  0.00  0.00    -0.039 A 
ATOM      9  C   LIG d   1      10.325  11.109  -5.914  0.00  0.00     0.042 A 
ATOM     10  C   LIG d   1      10.584  10.877  -7.273  0.00  0.00     0.061 A 
ATOM     11  C   LIG d   1      10.180   9.591  -7.853  0.00  0.00     0.084 A 
ATOM     12  N   LIG d   1      10.402   9.318  -9.132  0.00  0.00    -0.245 NA
ATOM     13  C   LIG d   1      10.039   8.158  -9.663  0.00  0.00     0.084 A 
ATOM     14  C   LIG d   1      10.293   7.861 -11.077  0.00  0.00     0.061 A 
ATOM     15  H   LIG d   1       8.958   4.731 -11.188  0.00  0.00     0.064 H 
ATOM     16  H   LIG d   1       8.520   5.152  -8.857  0.00  0.00     0.062 H 
ATOM     17  H   LIG d   1       8.643   6.645  -6.878  0.00  0.00     0.063 H 
ATOM     18  H   LIG d   1       8.824   8.227  -4.973  0.00  0.00     0.062 H 
ATOM     19  H   LIG d   1       9.513  10.357  -4.084  0.00  0.00     0.064 H 
ENDROOT
BRANCH   1  20
ATOM     20  N   LIG d   1      10.107   6.320 -12.912  0.00  0.00    -0.335 NA
BRANCH  20  21
ATOM     21  C   LIG d   1      11.068   5.217 -13.048  0.00  0.00     0.000 C 
ATOM     22  H   LIG d   1      10.888   4.692 -13.986  0.00  0.00     0.043 H 
ATOM     23  H   LIG d   1      10.946   4.524 -12.215  0.00  0.00     0.043 H 
ATOM     24  H   LIG d   1      12.082   5.616 -13.043  0.00  0.00     0.043 H 
ENDBRANCH  20  21
BRANCH  20  25
ATOM     25  C   LIG d   1       8.848   6.009 -13.601  0.00  0.00     0.000 C 
ATOM     26  H   LIG d   1       8.994   5.149 -14.254  0.00  0.00     0.043 H 
ATOM     27  H   LIG d   1       8.077   5.781 -12.865  0.00  0.00     0.043 H 
ATOM     28  H   LIG d   1       8.538   6.869 -14.196  0.00  0.00     0.043 H 
ENDBRANCH  20  25
ENDBRANCH   1  20
BRANCH  14  29
ATOM     29  C   LIG d   1      10.934   8.808 -11.912  0.00  0.00     0.154 C 
ATOM     30  O   LIG d   1      10.273   9.627 -12.517  0.00  0.00    -0.296 OA
ATOM     31  H   LIG d   1      12.009   8.802 -12.010  0.00  0.00     0.108 H 
ENDBRANCH  14  29
BRANCH  10  32
ATOM     32  C   LIG d   1      11.222  11.860  -8.066  0.00  0.00     0.154 C 
ATOM     33  O   LIG d   1      10.556  12.665  -8.686  0.00  0.00    -0.296 OA
ATOM     34  H   LIG d   1      12.299  11.895  -8.121  0.00  0.00     0.108 H 
ENDBRANCH  10  32
BRANCH   9  35
ATOM     35  N   LIG d   1      10.696  12.311  -5.347  0.00  0.00    -0.335 NA
BRANCH  35  36
ATOM     36  C   LIG d   1       9.545  12.976  -4.723  0.00  0.00     0.000 C 
ATOM     37  H   LIG d   1       8.842  13.289  -5.496  0.00  0.00     0.043 H 
ATOM     38  H   LIG d   1       9.051  12.284  -4.041  0.00  0.00     0.043 H 
ATOM     39  H   LIG d   1       9.886  13.851  -4.169  0.00  0.00     0.043 H 
ENDBRANCH  35  36
BRANCH  35  40
ATOM     40  C   LIG d   1      11.784  12.123  -4.378  0.00  0.00     0.000 C 
ATOM     41  H   LIG d   1      11.401  12.281  -3.369  0.00  0.00     0.043 H 
ATOM     42  H   LIG d   1      12.175  11.109  -4.463  0.00  0.00     0.043 H 
ATOM     43  H   LIG d   1      12.579  12.839  -4.582  0.00  0.00     0.043 H 
ENDBRANCH  35  40
ENDBRANCH   9  35
TORSDOF 8
ENDMDL
MODEL 10
REMARK VINA RESULT:      -4.3     11.459     13.501
REMARK  8 active torsions:
REMARK  status: ('A' for Active; 'I' for Inactive)
REMARK    1  A    between atoms: C_1  and  N_2 
REMARK    2  A    between atoms: N_2  and  C_3 
REMARK    3  A    between atoms: N_2  and  C_4 
REMARK    4  A    between atoms: C_12  and  N_22 
REMARK    5  A    between atoms: C_13  and  C_20 
REMARK    6  A    between atoms: C_17  and  C_18 
REMARK    7  A    between atoms: N_22  and  C_23 
REMARK    8  A    between atoms: N_22  and  C_24 
ROOT
ATOM      1  C   LIG d   1      10.413  11.197  -5.938  0.00  0.00     0.042 A 
ATOM      2  C   LIG d   1       9.741  10.263  -5.144  0.00  0.00    -0.039 A 
ATOM      3  C   LIG d   1       9.313   9.072  -5.629  0.00  0.00    -0.051 A 
ATOM      4  C   LIG d   1       9.532   8.722  -6.978  0.00  0.00     0.002 A 
ATOM      5  C   LIG d   1       9.093   7.497  -7.488  0.00  0.00    -0.043 A 
ATOM      6  C   LIG d   1       9.348   7.221  -8.834  0.00  0.00     0.002 A 
ATOM      7  C   LIG d   1       8.936   6.006  -9.423  0.00  0.00    -0.051 A 
ATOM      8  C   LIG d   1       9.186   5.747 -10.729  0.00  0.00    -0.039 A 
ATOM      9  C   LIG d   1       9.856   6.654 -11.555  0.00  0.00     0.042 A 
ATOM     10  C   LIG d   1      10.304   7.888 -11.061  0.00  0.00     0.061 A 
ATOM     11  C   LIG d   1      10.053   8.210  -9.652  0.00  0.00     0.084 A 
ATOM     12  N   LIG d   1      10.454   9.362  -9.131  0.00  0.00    -0.245 NA
ATOM     13  C   LIG d   1      10.231   9.660  -7.859  0.00  0.00     0.084 A 
ATOM     14  C   LIG d   1      10.672  10.939  -7.293  0.00  0.00     0.061 A 
ATOM     15  H   LIG d   1       9.556  10.499  -4.106  0.00  0.00     0.064 H 
ATOM     16  H   LIG d   1       8.797   8.384  -4.976  0.00  0.00     0.062 H 
ATOM     17  H   LIG d   1       8.575   6.786  -6.862  0.00  0.00     0.063 H 
ATOM     18  H   LIG d   1       8.414   5.273  -8.824  0.00  0.00     0.062 H 
ATOM     19  H   LIG d   1       8.857   4.807 -11.146  0.00  0.00     0.064 H 
ENDROOT
BRANCH   1  20
ATOM     20  N   LIG d   1      10.823  12.391  -5.383  0.00  0.00    -0.335 NA
BRANCH  20  21
ATOM     21  C   LIG d   1       9.669  13.214  -4.994  0.00  0.00     0.000 C 
ATOM     22  H   LIG d   1       8.827  12.566  -4.748  0.00  0.00     0.043 H 
ATOM     23  H   LIG d   1       9.395  13.868  -5.821  0.00  0.00     0.043 H 
ATOM     24  H   LIG d   1       9.930  13.817  -4.124  0.00  0.00     0.043 H 
ENDBRANCH  20  21
BRANCH  20  25
ATOM     25  C   LIG d   1      11.716  12.161  -4.239  0.00  0.00     0.000 C 
ATOM     26  H   LIG d   1      12.237  11.213  -4.371  0.00  0.00     0.043 H 
ATOM     27  H   LIG d   1      12.443  12.971  -4.178  0.00  0.00     0.043 H 
ATOM     28  H   LIG d   1      11.130  12.130  -3.321  0.00  0.00     0.043 H 
ENDBRANCH  20  25
ENDBRANCH   1  20
BRANCH  14  29
ATOM     29  C   LIG d   1      11.348  11.891  -8.094  0.00  0.00     0.154 C 
ATOM     30  O   LIG d   1      10.714  12.716  -8.720  0.00  0.00    -0.296 OA
ATOM     31  H   LIG d   1      12.426  11.883  -8.147  0.00  0.00     0.108 H 
ENDBRANCH  14  29
BRANCH  10  32
ATOM     32  C   LIG d   1      10.981   8.802 -11.903  0.00  0.00     0.154 C 
ATOM     33  O   LIG d   1      10.352   9.626 -12.535  0.00  0.00    -0.296 OA
ATOM     34  H   LIG d   1      12.057   8.766 -11.984  0.00  0.00     0.108 H 
ENDBRANCH  10  32
BRANCH   9  35
ATOM     35  N   LIG d   1      10.080   6.330 -12.878  0.00  0.00    -0.335 NA
BRANCH  35  36
ATOM     36  C   LIG d   1      10.992   5.185 -12.992  0.00  0.00     0.000 C 
ATOM     37  H   LIG d   1      11.575   5.091 -12.075  0.00  0.00     0.043 H 
ATOM     38  H   LIG d   1      10.415   4.274 -13.151  0.00  0.00     0.043 H 
ATOM     39  H   LIG d   1      11.666   5.339 -13.835  0.00  0.00     0.043 H 
ENDBRANCH  35  36
BRANCH  35  40
ATOM     40  C   LIG d   1       8.815   6.067 -13.578  0.00  0.00     0.000 C 
ATOM     41  H   LIG d   1       9.019   5.859 -14.628  0.00  0.00     0.043 H 
ATOM     42  H   LIG d   1       8.323   5.206 -13.126  0.00  0.00     0.043 H 
ATOM     43  H   LIG d   1       8.168   6.940 -13.498  0.00  0.00     0.043 H 
ENDBRANCH  35  40
ENDBRANCH   9  35
TORSDOF 8
ENDMDL
