MODEL 1
REMARK VINA RESULT:      -6.7      0.000      0.000
REMARK  12 active torsions:
REMARK  status: ('A' for Active; 'I' for Inactive)
REMARK    1  A    between atoms: C_1  and  C_2 
REMARK    2  A    between atoms: C_2  and  C_3 
REMARK    3  A    between atoms: C_3  and  O_4 
REMARK    4  A    between atoms: O_4  and  C_5 
REMARK    5  A    between atoms: C_5  and  C_7 
REMARK    6  A    between atoms: C_10  and  O_13 
REMARK    7  A    between atoms: O_13  and  C_14 
REMARK    8  A    between atoms: C_15  and  C_35 
REMARK    9  A    between atoms: C_19  and  O_25 
REMARK   10  A    between atoms: O_25  and  C_26 
REMARK   11  A    between atoms: C_26  and  C_27 
REMARK   12  A    between atoms: C_30  and  C_33 
ROOT
ATOM      1  C   LIG d   1       6.032  -0.430  -4.578  0.00  0.00     0.213 A 
ATOM      2  C   LIG d   1       5.832   0.404  -3.538  0.00  0.00     0.148 A 
ATOM      3  O   LIG d   1       6.701   1.367  -3.205  0.00  0.00    -0.456 OA
ATOM      4  C   LIG d   1       7.840   1.583  -3.894  0.00  0.00     0.142 A 
ATOM      5  C   LIG d   1       8.717   2.594  -3.525  0.00  0.00     0.023 A 
ATOM      6  C   LIG d   1       9.880   2.793  -4.250  0.00  0.00     0.124 A 
ATOM      7  C   LIG d   1      10.177   1.987  -5.348  0.00  0.00    -0.019 A 
ATOM      8  C   LIG d   1       9.325   0.988  -5.724  0.00  0.00    -0.044 A 
ATOM      9  C   LIG d   1       8.149   0.775  -5.002  0.00  0.00     0.068 A 
ATOM     10  C   LIG d   1       7.203  -0.291  -5.375  0.00  0.00     0.235 A 
ATOM     11  O   LIG d   1       7.415  -1.025  -6.326  0.00  0.00    -0.283 OA
ATOM     12  H   LIG d   1       8.493   3.223  -2.676  0.00  0.00     0.069 H 
ATOM     13  H   LIG d   1      11.087   2.155  -5.905  0.00  0.00     0.065 H 
ATOM     14  H   LIG d   1       9.560   0.367  -6.574  0.00  0.00     0.063 H 
ENDROOT
BRANCH   1  15
ATOM     15  O   LIG d   1       5.116  -1.395  -4.867  0.00  0.00    -0.449 OA
BRANCH  15  16
ATOM     16  C   LIG d   1       4.398  -1.270  -6.012  0.00  0.00     0.129 A 
ATOM     17  C   LIG d   1       4.507  -2.234  -7.008  0.00  0.00    -0.019 A 
ATOM     18  C   LIG d   1       3.776  -2.114  -8.168  0.00  0.00    -0.044 A 
ATOM     19  H   LIG d   1       5.166  -3.078  -6.871  0.00  0.00     0.065 H 
ATOM     20  C   LIG d   1       2.923  -1.020  -8.345  0.00  0.00     0.059 A 
ATOM     21  H   LIG d   1       3.862  -2.863  -8.941  0.00  0.00     0.063 H 
ATOM     22  C   LIG d   1       2.816  -0.053  -7.341  0.00  0.00    -0.044 A 
ATOM     23  C   LIG d   1       3.550  -0.180  -6.183  0.00  0.00    -0.019 A 
ATOM     24  H   LIG d   1       2.159   0.795  -7.473  0.00  0.00     0.063 H 
ATOM     25  H   LIG d   1       3.469   0.567  -5.407  0.00  0.00     0.065 H 
BRANCH  20  26
ATOM     26  C   LIG d   1       2.140  -0.886  -9.586  0.00  0.00     0.339 C 
ATOM     27  O   LIG d   1       1.350  -1.754  -9.902  0.00  0.00    -0.245 OA
BRANCH  26  28
ATOM     28  O   LIG d   1       2.297   0.199 -10.369  0.00  0.00    -0.461 OA
BRANCH  28  29
ATOM     29  C   LIG d   1       3.533   0.292 -11.125  0.00  0.00     0.092 C 
ATOM     30  H   LIG d   1       4.024  -0.681 -11.141  0.00  0.00     0.070 H 
ATOM     31  H   LIG d   1       3.312   0.605 -12.146  0.00  0.00     0.070 H 
BRANCH  29  32
ATOM     32  C   LIG d   1       4.458   1.319 -10.467  0.00  0.00    -0.021 C 
ATOM     33  H   LIG d   1       5.042   0.832  -9.686  0.00  0.00     0.029 H 
ATOM     34  H   LIG d   1       5.130   1.735 -11.218  0.00  0.00     0.029 H 
BRANCH  32  35
ATOM     35  C   LIG d   1       3.619   2.442  -9.854  0.00  0.00    -0.062 C 
ATOM     36  H   LIG d   1       3.632   2.353  -8.767  0.00  0.00     0.023 H 
ATOM     37  H   LIG d   1       4.034   3.406 -10.145  0.00  0.00     0.023 H 
ATOM     38  H   LIG d   1       2.592   2.364 -10.211  0.00  0.00     0.023 H 
ENDBRANCH  32  35
ENDBRANCH  29  32
ENDBRANCH  28  29
ENDBRANCH  26  28
ENDBRANCH  20  26
ENDBRANCH  15  16
ENDBRANCH   1  15
BRANCH   2  39
ATOM     39  C   LIG d   1       4.581   0.244  -2.713  0.00  0.00    -0.003 C 
ATOM     40  H   LIG d   1       3.762   0.787  -3.185  0.00  0.00     0.031 H 
ATOM     41  H   LIG d   1       4.324  -0.812  -2.644  0.00  0.00     0.031 H 
ATOM     42  H   LIG d   1       4.753   0.642  -1.712  0.00  0.00     0.031 H 
ENDBRANCH   2  39
BRANCH   6  43
ATOM     43  O   LIG d   1      10.737   3.781  -3.888  0.00  0.00    -0.487 OA
BRANCH  43  44
ATOM     44  C   LIG d   1      11.129   3.829  -2.515  0.00  0.00     0.115 C 
ATOM     45  H   LIG d   1      10.611   3.045  -1.962  0.00  0.00     0.075 H 
ATOM     46  H   LIG d   1      12.205   3.676  -2.439  0.00  0.00     0.075 H 
BRANCH  44  47
ATOM     47  C   LIG d   1      10.769   5.172  -1.936  0.00  0.00    -0.010 A 
ATOM     48  C   LIG d   1      11.315   5.571  -0.728  0.00  0.00    -0.055 A 
ATOM     49  C   LIG d   1      10.990   6.800  -0.193  0.00  0.00    -0.054 A 
ATOM     50  H   LIG d   1      11.998   4.918  -0.204  0.00  0.00     0.062 H 
ATOM     51  C   LIG d   1      10.107   7.642  -0.872  0.00  0.00    -0.026 A 
ATOM     52  H   LIG d   1      11.415   7.110   0.750  0.00  0.00     0.062 H 
ATOM     53  C   LIG d   1       9.560   7.234  -2.088  0.00  0.00    -0.054 A 
ATOM     54  C   LIG d   1       9.898   6.005  -2.617  0.00  0.00    -0.055 A 
ATOM     55  H   LIG d   1       8.877   7.881  -2.619  0.00  0.00     0.062 H 
ATOM     56  H   LIG d   1       9.479   5.690  -3.561  0.00  0.00     0.062 H 
BRANCH  51  57
ATOM     57  C   LIG d   1       9.753   8.960  -0.303  0.00  0.00    -0.062 C 
ATOM     58  C   LIG d   1       8.691   9.612  -0.754  0.00  0.00    -0.098 C 
ATOM     59  H   LIG d   1       8.432  10.575  -0.338  0.00  0.00     0.053 H 
ATOM     60  H   LIG d   1       8.083   9.180  -1.535  0.00  0.00     0.053 H 
ATOM     61  H   LIG d   1      10.360   9.392   0.479  0.00  0.00     0.062 H 
ENDBRANCH  51  57
ENDBRANCH  44  47
ENDBRANCH  43  44
ENDBRANCH   6  43
TORSDOF 12
ENDMDL
MODEL 2
REMARK VINA RESULT:      -6.7      5.149     11.781
REMARK  12 active torsions:
REMARK  status: ('A' for Active; 'I' for Inactive)
REMARK    1  A    between atoms: C_1  and  C_2 
REMARK    2  A    between atoms: C_2  and  C_3 
REMARK    3  A    between atoms: C_3  and  O_4 
REMARK    4  A    between atoms: O_4  and  C_5 
REMARK    5  A    between atoms: C_5  and  C_7 
REMARK    6  A    between atoms: C_10  and  O_13 
REMARK    7  A    between atoms: O_13  and  C_14 
REMARK    8  A    between atoms: C_15  and  C_35 
REMARK    9  A    between atoms: C_19  and  O_25 
REMARK   10  A    between atoms: O_25  and  C_26 
REMARK   11  A    between atoms: C_26  and  C_27 
REMARK   12  A    between atoms: C_30  and  C_33 
ROOT
ATOM      1  C   LIG d   1       3.197   0.809  -9.300  0.00  0.00     0.213 A 
ATOM      2  C   LIG d   1       4.248   1.365  -9.934  0.00  0.00     0.148 A 
ATOM      3  O   LIG d   1       4.618   1.012 -11.171  0.00  0.00    -0.456 OA
ATOM      4  C   LIG d   1       3.957   0.077 -11.884  0.00  0.00     0.142 A 
ATOM      5  C   LIG d   1       4.364  -0.261 -13.167  0.00  0.00     0.023 A 
ATOM      6  C   LIG d   1       3.667  -1.226 -13.876  0.00  0.00     0.124 A 
ATOM      7  C   LIG d   1       2.560  -1.858 -13.313  0.00  0.00    -0.019 A 
ATOM      8  C   LIG d   1       2.148  -1.537 -12.051  0.00  0.00    -0.044 A 
ATOM      9  C   LIG d   1       2.840  -0.567 -11.324  0.00  0.00     0.068 A 
ATOM     10  C   LIG d   1       2.428  -0.190  -9.961  0.00  0.00     0.235 A 
ATOM     11  O   LIG d   1       1.468  -0.714  -9.420  0.00  0.00    -0.283 OA
ATOM     12  H   LIG d   1       5.220   0.225 -13.611  0.00  0.00     0.069 H 
ATOM     13  H   LIG d   1       2.027  -2.608 -13.878  0.00  0.00     0.065 H 
ATOM     14  H   LIG d   1       1.291  -2.030 -11.620  0.00  0.00     0.063 H 
ENDROOT
BRANCH   1  15
ATOM     15  O   LIG d   1       2.870   1.203  -8.039  0.00  0.00    -0.449 OA
BRANCH  15  16
ATOM     16  C   LIG d   1       3.256   0.414  -7.004  0.00  0.00     0.129 A 
ATOM     17  C   LIG d   1       4.404  -0.362  -7.114  0.00  0.00    -0.019 A 
ATOM     18  C   LIG d   1       4.802  -1.159  -6.065  0.00  0.00    -0.044 A 
ATOM     19  H   LIG d   1       4.985  -0.339  -8.024  0.00  0.00     0.065 H 
ATOM     20  C   LIG d   1       4.048  -1.188  -4.886  0.00  0.00     0.059 A 
ATOM     21  H   LIG d   1       5.693  -1.762  -6.151  0.00  0.00     0.063 H 
ATOM     22  C   LIG d   1       2.894  -0.406  -4.781  0.00  0.00    -0.044 A 
ATOM     23  C   LIG d   1       2.503   0.389  -5.834  0.00  0.00    -0.019 A 
ATOM     24  H   LIG d   1       2.309  -0.426  -3.873  0.00  0.00     0.063 H 
ATOM     25  H   LIG d   1       1.612   0.993  -5.753  0.00  0.00     0.065 H 
BRANCH  20  26
ATOM     26  C   LIG d   1       4.469  -2.041  -3.761  0.00  0.00     0.339 C 
ATOM     27  O   LIG d   1       4.187  -3.223  -3.755  0.00  0.00    -0.245 OA
BRANCH  26  28
ATOM     28  O   LIG d   1       5.169  -1.511  -2.738  0.00  0.00    -0.461 OA
BRANCH  28  29
ATOM     29  C   LIG d   1       4.410  -0.837  -1.700  0.00  0.00     0.092 C 
ATOM     30  H   LIG d   1       3.344  -0.928  -1.911  0.00  0.00     0.070 H 
ATOM     31  H   LIG d   1       4.630  -1.292  -0.735  0.00  0.00     0.070 H 
BRANCH  29  32
ATOM     32  C   LIG d   1       4.797   0.644  -1.665  0.00  0.00    -0.021 C 
ATOM     33  H   LIG d   1       4.985   0.945  -0.634  0.00  0.00     0.029 H 
ATOM     34  H   LIG d   1       5.698   0.797  -2.258  0.00  0.00     0.029 H 
BRANCH  32  35
ATOM     35  C   LIG d   1       3.656   1.483  -2.242  0.00  0.00    -0.062 C 
ATOM     36  H   LIG d   1       4.068   2.305  -2.826  0.00  0.00     0.023 H 
ATOM     37  H   LIG d   1       3.033   0.858  -2.883  0.00  0.00     0.023 H 
ATOM     38  H   LIG d   1       3.052   1.884  -1.428  0.00  0.00     0.023 H 
ENDBRANCH  32  35
ENDBRANCH  29  32
ENDBRANCH  28  29
ENDBRANCH  26  28
ENDBRANCH  20  26
ENDBRANCH  15  16
ENDBRANCH   1  15
BRANCH   2  39
ATOM     39  C   LIG d   1       5.044   2.426  -9.218  0.00  0.00    -0.003 C 
ATOM     40  H   LIG d   1       6.019   2.025  -8.942  0.00  0.00     0.031 H 
ATOM     41  H   LIG d   1       5.177   3.286  -9.874  0.00  0.00     0.031 H 
ATOM     42  H   LIG d   1       4.511   2.736  -8.318  0.00  0.00     0.031 H 
ENDBRANCH   2  39
BRANCH   6  43
ATOM     43  O   LIG d   1       4.066  -1.556 -15.131  0.00  0.00    -0.487 OA
BRANCH  43  44
ATOM     44  C   LIG d   1       4.701  -0.532 -15.900  0.00  0.00     0.115 C 
ATOM     45  H   LIG d   1       5.205   0.165 -15.230  0.00  0.00     0.075 H 
ATOM     46  H   LIG d   1       5.432  -0.982 -16.571  0.00  0.00     0.075 H 
BRANCH  44  47
ATOM     47  C   LIG d   1       3.665   0.207 -16.706  0.00  0.00    -0.010 A 
ATOM     48  C   LIG d   1       3.780   1.573 -16.890  0.00  0.00    -0.055 A 
ATOM     49  C   LIG d   1       2.834   2.255 -17.627  0.00  0.00    -0.054 A 
ATOM     50  H   LIG d   1       4.612   2.107 -16.455  0.00  0.00     0.062 H 
ATOM     51  C   LIG d   1       1.759   1.564 -18.188  0.00  0.00    -0.026 A 
ATOM     52  H   LIG d   1       2.924   3.322 -17.770  0.00  0.00     0.062 H 
ATOM     53  C   LIG d   1       1.649   0.186 -17.999  0.00  0.00    -0.054 A 
ATOM     54  C   LIG d   1       2.604  -0.486 -17.264  0.00  0.00    -0.055 A 
ATOM     55  H   LIG d   1       0.819  -0.355 -18.430  0.00  0.00     0.062 H 
ATOM     56  H   LIG d   1       2.522  -1.553 -17.121  0.00  0.00     0.062 H 
BRANCH  51  57
ATOM     57  C   LIG d   1       0.741   2.289 -18.978  0.00  0.00    -0.062 C 
ATOM     58  C   LIG d   1       1.117   3.143 -19.918  0.00  0.00    -0.098 C 
ATOM     59  H   LIG d   1       0.373   3.673 -20.496  0.00  0.00     0.053 H 
ATOM     60  H   LIG d   1       2.167   3.310 -20.108  0.00  0.00     0.053 H 
ATOM     61  H   LIG d   1      -0.309   2.122 -18.788  0.00  0.00     0.062 H 
ENDBRANCH  51  57
ENDBRANCH  44  47
ENDBRANCH  43  44
ENDBRANCH   6  43
TORSDOF 12
ENDMDL
MODEL 3
REMARK VINA RESULT:      -6.5      4.412     10.754
REMARK  12 active torsions:
REMARK  status: ('A' for Active; 'I' for Inactive)
REMARK    1  A    between atoms: C_1  and  C_2 
REMARK    2  A    between atoms: C_2  and  C_3 
REMARK    3  A    between atoms: C_3  and  O_4 
REMARK    4  A    between atoms: O_4  and  C_5 
REMARK    5  A    between atoms: C_5  and  C_7 
REMARK    6  A    between atoms: C_10  and  O_13 
REMARK    7  A    between atoms: O_13  and  C_14 
REMARK    8  A    between atoms: C_15  and  C_35 
REMARK    9  A    between atoms: C_19  and  O_25 
REMARK   10  A    between atoms: O_25  and  C_26 
REMARK   11  A    between atoms: C_26  and  C_27 
REMARK   12  A    between atoms: C_30  and  C_33 
ROOT
ATOM      1  C   LIG d   1      11.026   7.799  -3.063  0.00  0.00     0.213 A 
ATOM      2  C   LIG d   1      10.094   7.339  -2.205  0.00  0.00     0.148 A 
ATOM      3  O   LIG d   1       9.666   6.071  -2.213  0.00  0.00    -0.456 OA
ATOM      4  C   LIG d   1      10.143   5.152  -3.077  0.00  0.00     0.142 A 
ATOM      5  C   LIG d   1       9.681   3.843  -3.055  0.00  0.00     0.023 A 
ATOM      6  C   LIG d   1      10.189   2.920  -3.954  0.00  0.00     0.124 A 
ATOM      7  C   LIG d   1      11.162   3.294  -4.880  0.00  0.00    -0.019 A 
ATOM      8  C   LIG d   1      11.627   4.577  -4.914  0.00  0.00    -0.044 A 
ATOM      9  C   LIG d   1      11.124   5.520  -4.015  0.00  0.00     0.068 A 
ATOM     10  C   LIG d   1      11.599   6.914  -4.019  0.00  0.00     0.235 A 
ATOM     11  O   LIG d   1      12.447   7.294  -4.808  0.00  0.00    -0.283 OA
ATOM     12  H   LIG d   1       8.928   3.545  -2.340  0.00  0.00     0.069 H 
ATOM     13  H   LIG d   1      11.550   2.563  -5.573  0.00  0.00     0.065 H 
ATOM     14  H   LIG d   1      12.379   4.862  -5.633  0.00  0.00     0.063 H 
ENDROOT
BRANCH   1  15
ATOM     15  O   LIG d   1      11.420   9.102  -3.013  0.00  0.00    -0.449 OA
BRANCH  15  16
ATOM     16  C   LIG d   1      11.064   9.915  -4.039  0.00  0.00     0.129 A 
ATOM     17  C   LIG d   1      12.042  10.600  -4.752  0.00  0.00    -0.019 A 
ATOM     18  C   LIG d   1      11.685  11.421  -5.798  0.00  0.00    -0.044 A 
ATOM     19  H   LIG d   1      13.082  10.487  -4.486  0.00  0.00     0.065 H 
ATOM     20  C   LIG d   1      10.338  11.568  -6.142  0.00  0.00     0.059 A 
ATOM     21  H   LIG d   1      12.445  11.954  -6.350  0.00  0.00     0.063 H 
ATOM     22  C   LIG d   1       9.358  10.876  -5.423  0.00  0.00    -0.044 A 
ATOM     23  C   LIG d   1       9.722  10.056  -4.379  0.00  0.00    -0.019 A 
ATOM     24  H   LIG d   1       8.316  10.986  -5.686  0.00  0.00     0.063 H 
ATOM     25  H   LIG d   1       8.966   9.522  -3.823  0.00  0.00     0.065 H 
BRANCH  20  26
ATOM     26  C   LIG d   1       9.952  12.447  -7.260  0.00  0.00     0.339 C 
ATOM     27  O   LIG d   1      10.302  12.180  -8.393  0.00  0.00    -0.245 OA
BRANCH  26  28
ATOM     28  O   LIG d   1       9.210  13.547  -7.027  0.00  0.00    -0.461 OA
BRANCH  28  29
ATOM     29  C   LIG d   1       9.857  14.643  -6.329  0.00  0.00     0.092 C 
ATOM     30  H   LIG d   1      10.909  14.403  -6.171  0.00  0.00     0.070 H 
ATOM     31  H   LIG d   1       9.777  15.552  -6.925  0.00  0.00     0.070 H 
BRANCH  29  32
ATOM     32  C   LIG d   1       9.175  14.861  -4.976  0.00  0.00    -0.021 C 
ATOM     33  H   LIG d   1       8.918  15.915  -4.865  0.00  0.00     0.029 H 
ATOM     34  H   LIG d   1       8.268  14.258  -4.926  0.00  0.00     0.029 H 
BRANCH  32  35
ATOM     35  C   LIG d   1      10.127  14.446  -3.853  0.00  0.00    -0.062 C 
ATOM     36  H   LIG d   1      10.314  13.374  -3.912  0.00  0.00     0.023 H 
ATOM     37  H   LIG d   1      11.068  14.986  -3.957  0.00  0.00     0.023 H 
ATOM     38  H   LIG d   1       9.676  14.683  -2.889  0.00  0.00     0.023 H 
ENDBRANCH  32  35
ENDBRANCH  29  32
ENDBRANCH  28  29
ENDBRANCH  26  28
ENDBRANCH  20  26
ENDBRANCH  15  16
ENDBRANCH   1  15
BRANCH   2  39
ATOM     39  C   LIG d   1       9.506   8.293  -1.197  0.00  0.00    -0.003 C 
ATOM     40  H   LIG d   1      10.308   8.854  -0.717  0.00  0.00     0.031 H 
ATOM     41  H   LIG d   1       8.832   8.984  -1.701  0.00  0.00     0.031 H 
ATOM     42  H   LIG d   1       8.953   7.731  -0.444  0.00  0.00     0.031 H 
ENDBRANCH   2  39
BRANCH   6  43
ATOM     43  O   LIG d   1       9.737   1.641  -3.931  0.00  0.00    -0.487 OA
BRANCH  43  44
ATOM     44  C   LIG d   1       8.692   1.306  -4.847  0.00  0.00     0.115 C 
ATOM     45  H   LIG d   1       8.355   2.208  -5.358  0.00  0.00     0.075 H 
ATOM     46  H   LIG d   1       9.065   0.592  -5.580  0.00  0.00     0.075 H 
BRANCH  44  47
ATOM     47  C   LIG d   1       7.539   0.697  -4.093  0.00  0.00    -0.010 A 
ATOM     48  C   LIG d   1       7.406  -0.679  -4.033  0.00  0.00    -0.055 A 
ATOM     49  C   LIG d   1       6.352  -1.244  -3.343  0.00  0.00    -0.054 A 
ATOM     50  H   LIG d   1       8.128  -1.313  -4.526  0.00  0.00     0.062 H 
ATOM     51  C   LIG d   1       5.419  -0.423  -2.707  0.00  0.00    -0.026 A 
ATOM     52  H   LIG d   1       6.247  -2.317  -3.297  0.00  0.00     0.062 H 
ATOM     53  C   LIG d   1       5.559   0.963  -2.772  0.00  0.00    -0.054 A 
ATOM     54  C   LIG d   1       6.621   1.516  -3.459  0.00  0.00    -0.055 A 
ATOM     55  H   LIG d   1       4.841   1.604  -2.282  0.00  0.00     0.062 H 
ATOM     56  H   LIG d   1       6.733   2.588  -3.506  0.00  0.00     0.062 H 
BRANCH  51  57
ATOM     57  C   LIG d   1       4.286  -1.021  -1.968  0.00  0.00    -0.062 C 
ATOM     58  C   LIG d   1       3.796  -2.193  -2.343  0.00  0.00    -0.098 C 
ATOM     59  H   LIG d   1       2.968  -2.630  -1.803  0.00  0.00     0.053 H 
ATOM     60  H   LIG d   1       4.224  -2.713  -3.187  0.00  0.00     0.053 H 
ATOM     61  H   LIG d   1       3.858  -0.501  -1.124  0.00  0.00     0.062 H 
ENDBRANCH  51  57
ENDBRANCH  44  47
ENDBRANCH  43  44
ENDBRANCH   6  43
TORSDOF 12
ENDMDL
MODEL 4
REMARK VINA RESULT:      -6.4      2.968      4.748
REMARK  12 active torsions:
REMARK  status: ('A' for Active; 'I' for Inactive)
REMARK    1  A    between atoms: C_1  and  C_2 
REMARK    2  A    between atoms: C_2  and  C_3 
REMARK    3  A    between atoms: C_3  and  O_4 
REMARK    4  A    between atoms: O_4  and  C_5 
REMARK    5  A    between atoms: C_5  and  C_7 
REMARK    6  A    between atoms: C_10  and  O_13 
REMARK    7  A    between atoms: O_13  and  C_14 
REMARK    8  A    between atoms: C_15  and  C_35 
REMARK    9  A    between atoms: C_19  and  O_25 
REMARK   10  A    between atoms: O_25  and  C_26 
REMARK   11  A    between atoms: C_26  and  C_27 
REMARK   12  A    between atoms: C_30  and  C_33 
ROOT
ATOM      1  C   LIG d   1       9.697   0.914  -5.187  0.00  0.00     0.213 A 
ATOM      2  C   LIG d   1      10.892   0.655  -4.620  0.00  0.00     0.148 A 
ATOM      3  O   LIG d   1      11.500   1.511  -3.789  0.00  0.00    -0.456 OA
ATOM      4  C   LIG d   1      10.956   2.696  -3.446  0.00  0.00     0.142 A 
ATOM      5  C   LIG d   1      11.612   3.558  -2.577  0.00  0.00     0.023 A 
ATOM      6  C   LIG d   1      11.030   4.769  -2.243  0.00  0.00     0.124 A 
ATOM      7  C   LIG d   1       9.791   5.130  -2.771  0.00  0.00    -0.019 A 
ATOM      8  C   LIG d   1       9.134   4.294  -3.627  0.00  0.00    -0.044 A 
ATOM      9  C   LIG d   1       9.708   3.069  -3.974  0.00  0.00     0.068 A 
ATOM     10  C   LIG d   1       9.032   2.138  -4.894  0.00  0.00     0.235 A 
ATOM     11  O   LIG d   1       7.948   2.405  -5.385  0.00  0.00    -0.283 OA
ATOM     12  H   LIG d   1      12.571   3.285  -2.163  0.00  0.00     0.069 H 
ATOM     13  H   LIG d   1       9.349   6.077  -2.500  0.00  0.00     0.065 H 
ATOM     14  H   LIG d   1       8.176   4.578  -4.034  0.00  0.00     0.063 H 
ENDROOT
BRANCH   1  15
ATOM     15  O   LIG d   1       9.128   0.009  -6.029  0.00  0.00    -0.449 OA
BRANCH  15  16
ATOM     16  C   LIG d   1       8.028  -0.658  -5.599  0.00  0.00     0.129 A 
ATOM     17  C   LIG d   1       6.811  -0.480  -6.247  0.00  0.00    -0.019 A 
ATOM     18  C   LIG d   1       5.693  -1.159  -5.817  0.00  0.00    -0.044 A 
ATOM     19  H   LIG d   1       6.741   0.193  -7.089  0.00  0.00     0.065 H 
ATOM     20  C   LIG d   1       5.783  -2.030  -4.726  0.00  0.00     0.059 A 
ATOM     21  H   LIG d   1       4.748  -1.019  -6.320  0.00  0.00     0.063 H 
ATOM     22  C   LIG d   1       7.009  -2.207  -4.078  0.00  0.00    -0.044 A 
ATOM     23  C   LIG d   1       8.122  -1.524  -4.514  0.00  0.00    -0.019 A 
ATOM     24  H   LIG d   1       7.084  -2.879  -3.235  0.00  0.00     0.063 H 
ATOM     25  H   LIG d   1       9.070  -1.660  -4.013  0.00  0.00     0.065 H 
BRANCH  20  26
ATOM     26  C   LIG d   1       4.590  -2.759  -4.262  0.00  0.00     0.339 C 
ATOM     27  O   LIG d   1       4.520  -3.964  -4.404  0.00  0.00    -0.245 OA
BRANCH  26  28
ATOM     28  O   LIG d   1       3.576  -2.090  -3.678  0.00  0.00    -0.461 OA
BRANCH  28  29
ATOM     29  C   LIG d   1       3.847  -1.472  -2.393  0.00  0.00     0.092 C 
ATOM     30  H   LIG d   1       3.223  -1.935  -1.627  0.00  0.00     0.070 H 
ATOM     31  H   LIG d   1       4.897  -1.610  -2.137  0.00  0.00     0.070 H 
BRANCH  29  32
ATOM     32  C   LIG d   1       3.534   0.024  -2.469  0.00  0.00    -0.021 C 
ATOM     33  H   LIG d   1       3.435   0.321  -3.514  0.00  0.00     0.029 H 
ATOM     34  H   LIG d   1       2.601   0.226  -1.944  0.00  0.00     0.029 H 
BRANCH  32  35
ATOM     35  C   LIG d   1       4.669   0.816  -1.818  0.00  0.00    -0.062 C 
ATOM     36  H   LIG d   1       5.440   1.023  -2.561  0.00  0.00     0.023 H 
ATOM     37  H   LIG d   1       4.279   1.756  -1.428  0.00  0.00     0.023 H 
ATOM     38  H   LIG d   1       5.098   0.234  -1.004  0.00  0.00     0.023 H 
ENDBRANCH  32  35
ENDBRANCH  29  32
ENDBRANCH  28  29
ENDBRANCH  26  28
ENDBRANCH  20  26
ENDBRANCH  15  16
ENDBRANCH   1  15
BRANCH   2  39
ATOM     39  C   LIG d   1      11.575  -0.650  -4.939  0.00  0.00    -0.003 C 
ATOM     40  H   LIG d   1      11.918  -0.637  -5.974  0.00  0.00     0.031 H 
ATOM     41  H   LIG d   1      12.428  -0.786  -4.275  0.00  0.00     0.031 H 
ATOM     42  H   LIG d   1      10.872  -1.472  -4.799  0.00  0.00     0.031 H 
ENDBRANCH   2  39
BRANCH   6  43
ATOM     43  O   LIG d   1      11.671   5.611  -1.393  0.00  0.00    -0.487 OA
BRANCH  43  44
ATOM     44  C   LIG d   1      11.047   5.857  -0.131  0.00  0.00     0.115 C 
ATOM     45  H   LIG d   1      10.081   5.353  -0.100  0.00  0.00     0.075 H 
ATOM     46  H   LIG d   1      11.681   5.476   0.669  0.00  0.00     0.075 H 
BRANCH  44  47
ATOM     47  C   LIG d   1      10.846   7.339   0.049  0.00  0.00    -0.010 A 
ATOM     48  C   LIG d   1      11.623   8.034   0.960  0.00  0.00    -0.055 A 
ATOM     49  C   LIG d   1      11.444   9.391   1.130  0.00  0.00    -0.054 A 
ATOM     50  H   LIG d   1      12.370   7.512   1.540  0.00  0.00     0.062 H 
ATOM     51  C   LIG d   1      10.476  10.064   0.381  0.00  0.00    -0.026 A 
ATOM     52  H   LIG d   1      12.049   9.933   1.842  0.00  0.00     0.062 H 
ATOM     53  C   LIG d   1       9.697   9.357  -0.535  0.00  0.00    -0.054 A 
ATOM     54  C   LIG d   1       9.890   8.001  -0.701  0.00  0.00    -0.055 A 
ATOM     55  H   LIG d   1       8.947   9.872  -1.118  0.00  0.00     0.062 H 
ATOM     56  H   LIG d   1       9.291   7.455  -1.413  0.00  0.00     0.062 H 
BRANCH  51  57
ATOM     57  C   LIG d   1      10.278  11.518   0.559  0.00  0.00    -0.062 C 
ATOM     58  C   LIG d   1      11.297  12.287   0.914  0.00  0.00    -0.098 C 
ATOM     59  H   LIG d   1      11.152  13.350   1.044  0.00  0.00     0.053 H 
ATOM     60  H   LIG d   1      12.273  11.851   1.073  0.00  0.00     0.053 H 
ATOM     61  H   LIG d   1       9.303  11.954   0.400  0.00  0.00     0.062 H 
ENDBRANCH  51  57
ENDBRANCH  44  47
ENDBRANCH  43  44
ENDBRANCH   6  43
TORSDOF 12
ENDMDL
MODEL 5
REMARK VINA RESULT:      -6.4      4.072     11.037
REMARK  12 active torsions:
REMARK  status: ('A' for Active; 'I' for Inactive)
REMARK    1  A    between atoms: C_1  and  C_2 
REMARK    2  A    between atoms: C_2  and  C_3 
REMARK    3  A    between atoms: C_3  and  O_4 
REMARK    4  A    between atoms: O_4  and  C_5 
REMARK    5  A    between atoms: C_5  and  C_7 
REMARK    6  A    between atoms: C_10  and  O_13 
REMARK    7  A    between atoms: O_13  and  C_14 
REMARK    8  A    between atoms: C_15  and  C_35 
REMARK    9  A    between atoms: C_19  and  O_25 
REMARK   10  A    between atoms: O_25  and  C_26 
REMARK   11  A    between atoms: C_26  and  C_27 
REMARK   12  A    between atoms: C_30  and  C_33 
ROOT
ATOM      1  C   LIG d   1      11.404   6.879  -2.211  0.00  0.00     0.213 A 
ATOM      2  C   LIG d   1      10.898   5.964  -1.361  0.00  0.00     0.148 A 
ATOM      3  O   LIG d   1      10.227   4.883  -1.777  0.00  0.00    -0.456 OA
ATOM      4  C   LIG d   1      10.014   4.622  -3.082  0.00  0.00     0.142 A 
ATOM      5  C   LIG d   1       9.318   3.488  -3.480  0.00  0.00     0.023 A 
ATOM      6  C   LIG d   1       9.113   3.245  -4.828  0.00  0.00     0.124 A 
ATOM      7  C   LIG d   1       9.602   4.128  -5.789  0.00  0.00    -0.019 A 
ATOM      8  C   LIG d   1      10.289   5.247  -5.415  0.00  0.00    -0.044 A 
ATOM      9  C   LIG d   1      10.502   5.507  -4.059  0.00  0.00     0.068 A 
ATOM     10  C   LIG d   1      11.238   6.702  -3.614  0.00  0.00     0.235 A 
ATOM     11  O   LIG d   1      11.686   7.507  -4.413  0.00  0.00    -0.283 OA
ATOM     12  H   LIG d   1       8.936   2.799  -2.741  0.00  0.00     0.069 H 
ATOM     13  H   LIG d   1       9.436   3.924  -6.837  0.00  0.00     0.065 H 
ATOM     14  H   LIG d   1      10.665   5.928  -6.163  0.00  0.00     0.063 H 
ENDROOT
BRANCH   1  15
ATOM     15  O   LIG d   1      12.074   7.963  -1.732  0.00  0.00    -0.449 OA
BRANCH  15  16
ATOM     16  C   LIG d   1      11.494   9.182  -1.867  0.00  0.00     0.129 A 
ATOM     17  C   LIG d   1      10.161   9.359  -1.516  0.00  0.00    -0.019 A 
ATOM     18  C   LIG d   1       9.571  10.595  -1.647  0.00  0.00    -0.044 A 
ATOM     19  H   LIG d   1       9.587   8.525  -1.141  0.00  0.00     0.065 H 
ATOM     20  C   LIG d   1      10.314  11.676  -2.133  0.00  0.00     0.059 A 
ATOM     21  H   LIG d   1       8.534  10.731  -1.375  0.00  0.00     0.063 H 
ATOM     22  C   LIG d   1      11.655  11.493  -2.484  0.00  0.00    -0.044 A 
ATOM     23  C   LIG d   1      12.238  10.254  -2.351  0.00  0.00    -0.019 A 
ATOM     24  H   LIG d   1      12.234  12.325  -2.860  0.00  0.00     0.063 H 
ATOM     25  H   LIG d   1      13.274  10.112  -2.622  0.00  0.00     0.065 H 
BRANCH  20  26
ATOM     26  C   LIG d   1       9.686  13.001  -2.276  0.00  0.00     0.339 C 
ATOM     27  O   LIG d   1       9.939  13.882  -1.478  0.00  0.00    -0.245 OA
BRANCH  26  28
ATOM     28  O   LIG d   1       8.832  13.237  -3.290  0.00  0.00    -0.461 OA
BRANCH  28  29
ATOM     29  C   LIG d   1       9.233  14.226  -4.274  0.00  0.00     0.092 C 
ATOM     30  H   LIG d   1       8.359  14.555  -4.837  0.00  0.00     0.070 H 
ATOM     31  H   LIG d   1       9.681  15.081  -3.768  0.00  0.00     0.070 H 
BRANCH  29  32
ATOM     32  C   LIG d   1      10.254  13.609  -5.232  0.00  0.00    -0.021 C 
ATOM     33  H   LIG d   1      10.563  14.356  -5.964  0.00  0.00     0.029 H 
ATOM     34  H   LIG d   1      11.123  13.272  -4.668  0.00  0.00     0.029 H 
BRANCH  32  35
ATOM     35  C   LIG d   1       9.620  12.419  -5.955  0.00  0.00    -0.062 C 
ATOM     36  H   LIG d   1       9.924  12.426  -7.002  0.00  0.00     0.023 H 
ATOM     37  H   LIG d   1       9.950  11.492  -5.486  0.00  0.00     0.023 H 
ATOM     38  H   LIG d   1       8.535  12.492  -5.892  0.00  0.00     0.023 H 
ENDBRANCH  32  35
ENDBRANCH  29  32
ENDBRANCH  28  29
ENDBRANCH  26  28
ENDBRANCH  20  26
ENDBRANCH  15  16
ENDBRANCH   1  15
BRANCH   2  39
ATOM     39  C   LIG d   1      11.092   6.168   0.119  0.00  0.00    -0.003 C 
ATOM     40  H   LIG d   1      11.542   5.275   0.553  0.00  0.00     0.031 H 
ATOM     41  H   LIG d   1      11.748   7.022   0.286  0.00  0.00     0.031 H 
ATOM     42  H   LIG d   1      10.126   6.355   0.591  0.00  0.00     0.031 H 
ENDBRANCH   2  39
BRANCH   6  43
ATOM     43  O   LIG d   1       8.433   2.136  -5.215  0.00  0.00    -0.487 OA
BRANCH  43  44
ATOM     44  C   LIG d   1       8.765   0.910  -4.559  0.00  0.00     0.115 C 
ATOM     45  H   LIG d   1       9.187   0.214  -5.284  0.00  0.00     0.075 H 
ATOM     46  H   LIG d   1       9.495   1.104  -3.775  0.00  0.00     0.075 H 
BRANCH  44  47
ATOM     47  C   LIG d   1       7.522   0.312  -3.953  0.00  0.00    -0.010 A 
ATOM     48  C   LIG d   1       7.360  -1.062  -3.927  0.00  0.00    -0.055 A 
ATOM     49  C   LIG d   1       6.224  -1.615  -3.374  0.00  0.00    -0.054 A 
ATOM     50  H   LIG d   1       8.125  -1.702  -4.341  0.00  0.00     0.062 H 
ATOM     51  C   LIG d   1       5.236  -0.786  -2.839  0.00  0.00    -0.026 A 
ATOM     52  H   LIG d   1       6.098  -2.687  -3.354  0.00  0.00     0.062 H 
ATOM     53  C   LIG d   1       5.406   0.598  -2.869  0.00  0.00    -0.054 A 
ATOM     54  C   LIG d   1       6.549   1.140  -3.420  0.00  0.00    -0.055 A 
ATOM     55  H   LIG d   1       4.645   1.246  -2.458  0.00  0.00     0.062 H 
ATOM     56  H   LIG d   1       6.683   2.211  -3.439  0.00  0.00     0.062 H 
BRANCH  51  57
ATOM     57  C   LIG d   1       4.016  -1.372  -2.246  0.00  0.00    -0.062 C 
ATOM     58  C   LIG d   1       2.826  -1.073  -2.747  0.00  0.00    -0.098 C 
ATOM     59  H   LIG d   1       1.934  -1.501  -2.313  0.00  0.00     0.053 H 
ATOM     60  H   LIG d   1       2.748  -0.401  -3.589  0.00  0.00     0.053 H 
ATOM     61  H   LIG d   1       4.094  -2.044  -1.404  0.00  0.00     0.062 H 
ENDBRANCH  51  57
ENDBRANCH  44  47
ENDBRANCH  43  44
ENDBRANCH   6  43
TORSDOF 12
ENDMDL
MODEL 6
REMARK VINA RESULT:      -6.2      4.107      6.630
REMARK  12 active torsions:
REMARK  status: ('A' for Active; 'I' for Inactive)
REMARK    1  A    between atoms: C_1  and  C_2 
REMARK    2  A    between atoms: C_2  and  C_3 
REMARK    3  A    between atoms: C_3  and  O_4 
REMARK    4  A    between atoms: O_4  and  C_5 
REMARK    5  A    between atoms: C_5  and  C_7 
REMARK    6  A    between atoms: C_10  and  O_13 
REMARK    7  A    between atoms: O_13  and  C_14 
REMARK    8  A    between atoms: C_15  and  C_35 
REMARK    9  A    between atoms: C_19  and  O_25 
REMARK   10  A    between atoms: O_25  and  C_26 
REMARK   11  A    between atoms: C_26  and  C_27 
REMARK   12  A    between atoms: C_30  and  C_33 
ROOT
ATOM      1  C   LIG d   1       4.799   0.665 -10.315  0.00  0.00     0.213 A 
ATOM      2  C   LIG d   1       4.662   1.636  -9.390  0.00  0.00     0.148 A 
ATOM      3  O   LIG d   1       5.475   1.748  -8.332  0.00  0.00    -0.456 OA
ATOM      4  C   LIG d   1       6.501   0.901  -8.116  0.00  0.00     0.142 A 
ATOM      5  C   LIG d   1       7.329   1.049  -7.011  0.00  0.00     0.023 A 
ATOM      6  C   LIG d   1       8.376   0.164  -6.814  0.00  0.00     0.124 A 
ATOM      7  C   LIG d   1       8.607  -0.873  -7.717  0.00  0.00    -0.019 A 
ATOM      8  C   LIG d   1       7.802  -1.032  -8.808  0.00  0.00    -0.044 A 
ATOM      9  C   LIG d   1       6.742  -0.148  -9.020  0.00  0.00     0.068 A 
ATOM     10  C   LIG d   1       5.851  -0.285 -10.185  0.00  0.00     0.235 A 
ATOM     11  O   LIG d   1       6.008  -1.175 -11.004  0.00  0.00    -0.283 OA
ATOM     12  H   LIG d   1       7.157   1.850  -6.308  0.00  0.00     0.069 H 
ATOM     13  H   LIG d   1       9.428  -1.554  -7.550  0.00  0.00     0.065 H 
ATOM     14  H   LIG d   1       7.985  -1.837  -9.503  0.00  0.00     0.063 H 
ENDROOT
BRANCH   1  15
ATOM     15  O   LIG d   1       3.939   0.596 -11.368  0.00  0.00    -0.449 OA
BRANCH  15  16
ATOM     16  C   LIG d   1       3.057  -0.435 -11.405  0.00  0.00     0.129 A 
ATOM     17  C   LIG d   1       2.944  -1.210 -12.553  0.00  0.00    -0.019 A 
ATOM     18  C   LIG d   1       2.054  -2.260 -12.591  0.00  0.00    -0.044 A 
ATOM     19  H   LIG d   1       3.554  -0.989 -13.415  0.00  0.00     0.065 H 
ATOM     20  C   LIG d   1       1.263  -2.547 -11.474  0.00  0.00     0.059 A 
ATOM     21  H   LIG d   1       1.966  -2.862 -13.484  0.00  0.00     0.063 H 
ATOM     22  C   LIG d   1       1.382  -1.764 -10.321  0.00  0.00    -0.044 A 
ATOM     23  C   LIG d   1       2.273  -0.716 -10.290  0.00  0.00    -0.019 A 
ATOM     24  H   LIG d   1       0.773  -1.981  -9.455  0.00  0.00     0.063 H 
ATOM     25  H   LIG d   1       2.365  -0.111  -9.400  0.00  0.00     0.065 H 
BRANCH  20  26
ATOM     26  C   LIG d   1       0.309  -3.669 -11.511  0.00  0.00     0.339 C 
ATOM     27  O   LIG d   1      -0.065  -4.113 -12.578  0.00  0.00    -0.245 OA
BRANCH  26  28
ATOM     28  O   LIG d   1      -0.148  -4.204 -10.362  0.00  0.00    -0.461 OA
BRANCH  28  29
ATOM     29  C   LIG d   1      -1.378  -4.970 -10.435  0.00  0.00     0.092 C 
ATOM     30  H   LIG d   1      -2.164  -4.450  -9.885  0.00  0.00     0.070 H 
ATOM     31  H   LIG d   1      -1.677  -5.081 -11.477  0.00  0.00     0.070 H 
BRANCH  29  32
ATOM     32  C   LIG d   1      -1.156  -6.353  -9.819  0.00  0.00    -0.021 C 
ATOM     33  H   LIG d   1      -0.943  -7.073 -10.610  0.00  0.00     0.029 H 
ATOM     34  H   LIG d   1      -0.312  -6.312  -9.130  0.00  0.00     0.029 H 
BRANCH  32  35
ATOM     35  C   LIG d   1      -2.414  -6.783  -9.062  0.00  0.00    -0.062 C 
ATOM     36  H   LIG d   1      -2.346  -7.843  -8.816  0.00  0.00     0.023 H 
ATOM     37  H   LIG d   1      -2.502  -6.202  -8.145  0.00  0.00     0.023 H 
ATOM     38  H   LIG d   1      -3.290  -6.612  -9.687  0.00  0.00     0.023 H 
ENDBRANCH  32  35
ENDBRANCH  29  32
ENDBRANCH  28  29
ENDBRANCH  26  28
ENDBRANCH  20  26
ENDBRANCH  15  16
ENDBRANCH   1  15
BRANCH   2  39
ATOM     39  C   LIG d   1       3.545   2.635  -9.551  0.00  0.00    -0.003 C 
ATOM     40  H   LIG d   1       2.754   2.199 -10.163  0.00  0.00     0.031 H 
ATOM     41  H   LIG d   1       3.145   2.894  -8.572  0.00  0.00     0.031 H 
ATOM     42  H   LIG d   1       3.927   3.533 -10.037  0.00  0.00     0.031 H 
ENDBRANCH   2  39
BRANCH   6  43
ATOM     43  O   LIG d   1       9.184   0.310  -5.734  0.00  0.00    -0.487 OA
BRANCH  43  44
ATOM     44  C   LIG d   1       8.719   1.164  -4.687  0.00  0.00     0.115 C 
ATOM     45  H   LIG d   1       9.526   1.338  -3.974  0.00  0.00     0.075 H 
ATOM     46  H   LIG d   1       8.398   2.116  -5.110  0.00  0.00     0.075 H 
BRANCH  44  47
ATOM     47  C   LIG d   1       7.559   0.510  -3.982  0.00  0.00    -0.010 A 
ATOM     48  C   LIG d   1       6.555   1.291  -3.437  0.00  0.00    -0.055 A 
ATOM     49  C   LIG d   1       5.490   0.698  -2.791  0.00  0.00    -0.054 A 
ATOM     50  H   LIG d   1       6.605   2.367  -3.518  0.00  0.00     0.062 H 
ATOM     51  C   LIG d   1       5.427  -0.693  -2.687  0.00  0.00    -0.026 A 
ATOM     52  H   LIG d   1       4.707   1.307  -2.365  0.00  0.00     0.062 H 
ATOM     53  C   LIG d   1       6.443  -1.474  -3.238  0.00  0.00    -0.054 A 
ATOM     54  C   LIG d   1       7.500  -0.869  -3.887  0.00  0.00    -0.055 A 
ATOM     55  H   LIG d   1       6.401  -2.550  -3.161  0.00  0.00     0.062 H 
ATOM     56  H   LIG d   1       8.284  -1.473  -4.319  0.00  0.00     0.062 H 
BRANCH  51  57
ATOM     57  C   LIG d   1       4.290  -1.335  -1.994  0.00  0.00    -0.062 C 
ATOM     58  C   LIG d   1       3.169  -1.585  -2.654  0.00  0.00    -0.098 C 
ATOM     59  H   LIG d   1       2.337  -2.055  -2.147  0.00  0.00     0.053 H 
ATOM     60  H   LIG d   1       3.086  -1.321  -3.698  0.00  0.00     0.053 H 
ATOM     61  H   LIG d   1       4.373  -1.599  -0.950  0.00  0.00     0.062 H 
ENDBRANCH  51  57
ENDBRANCH  44  47
ENDBRANCH  43  44
ENDBRANCH   6  43
TORSDOF 12
ENDMDL
MODEL 7
REMARK VINA RESULT:      -6.2      3.545      5.829
REMARK  12 active torsions:
REMARK  status: ('A' for Active; 'I' for Inactive)
REMARK    1  A    between atoms: C_1  and  C_2 
REMARK    2  A    between atoms: C_2  and  C_3 
REMARK    3  A    between atoms: C_3  and  O_4 
REMARK    4  A    between atoms: O_4  and  C_5 
REMARK    5  A    between atoms: C_5  and  C_7 
REMARK    6  A    between atoms: C_10  and  O_13 
REMARK    7  A    between atoms: O_13  and  C_14 
REMARK    8  A    between atoms: C_15  and  C_35 
REMARK    9  A    between atoms: C_19  and  O_25 
REMARK   10  A    between atoms: O_25  and  C_26 
REMARK   11  A    between atoms: C_26  and  C_27 
REMARK   12  A    between atoms: C_30  and  C_33 
ROOT
ATOM      1  C   LIG d   1       9.878   2.710  -4.864  0.00  0.00     0.213 A 
ATOM      2  C   LIG d   1       9.525   3.686  -5.723  0.00  0.00     0.148 A 
ATOM      3  O   LIG d   1       9.469   4.977  -5.370  0.00  0.00    -0.456 OA
ATOM      4  C   LIG d   1       9.774   5.400  -4.126  0.00  0.00     0.142 A 
ATOM      5  C   LIG d   1       9.712   6.747  -3.795  0.00  0.00     0.023 A 
ATOM      6  C   LIG d   1      10.031   7.153  -2.510  0.00  0.00     0.124 A 
ATOM      7  C   LIG d   1      10.415   6.222  -1.547  0.00  0.00    -0.019 A 
ATOM      8  C   LIG d   1      10.481   4.894  -1.857  0.00  0.00    -0.044 A 
ATOM      9  C   LIG d   1      10.163   4.468  -3.148  0.00  0.00     0.068 A 
ATOM     10  C   LIG d   1      10.222   3.045  -3.524  0.00  0.00     0.235 A 
ATOM     11  O   LIG d   1      10.551   2.189  -2.719  0.00  0.00    -0.283 OA
ATOM     12  H   LIG d   1       9.415   7.475  -4.536  0.00  0.00     0.069 H 
ATOM     13  H   LIG d   1      10.662   6.554  -0.549  0.00  0.00     0.065 H 
ATOM     14  H   LIG d   1      10.779   4.177  -1.108  0.00  0.00     0.063 H 
ENDROOT
BRANCH   1  15
ATOM     15  O   LIG d   1       9.912   1.414  -5.276  0.00  0.00    -0.449 OA
BRANCH  15  16
ATOM     16  C   LIG d   1       8.914   0.589  -4.870  0.00  0.00     0.129 A 
ATOM     17  C   LIG d   1       7.768   1.121  -4.289  0.00  0.00    -0.019 A 
ATOM     18  C   LIG d   1       6.751   0.288  -3.881  0.00  0.00    -0.044 A 
ATOM     19  H   LIG d   1       7.676   2.189  -4.157  0.00  0.00     0.065 H 
ATOM     20  C   LIG d   1       6.870  -1.095  -4.051  0.00  0.00     0.059 A 
ATOM     21  H   LIG d   1       5.862   0.702  -3.429  0.00  0.00     0.063 H 
ATOM     22  C   LIG d   1       8.024  -1.625  -4.637  0.00  0.00    -0.044 A 
ATOM     23  C   LIG d   1       9.037  -0.786  -5.043  0.00  0.00    -0.019 A 
ATOM     24  H   LIG d   1       8.121  -2.693  -4.770  0.00  0.00     0.063 H 
ATOM     25  H   LIG d   1       9.929  -1.195  -5.495  0.00  0.00     0.065 H 
BRANCH  20  26
ATOM     26  C   LIG d   1       5.785  -1.990  -3.615  0.00  0.00     0.339 C 
ATOM     27  O   LIG d   1       5.507  -2.974  -4.272  0.00  0.00    -0.245 OA
BRANCH  26  28
ATOM     28  O   LIG d   1       5.099  -1.719  -2.487  0.00  0.00    -0.461 OA
BRANCH  28  29
ATOM     29  C   LIG d   1       3.656  -1.867  -2.540  0.00  0.00     0.092 C 
ATOM     30  H   LIG d   1       3.401  -2.726  -3.162  0.00  0.00     0.070 H 
ATOM     31  H   LIG d   1       3.269  -2.021  -1.533  0.00  0.00     0.070 H 
BRANCH  29  32
ATOM     32  C   LIG d   1       3.035  -0.603  -3.137  0.00  0.00    -0.021 C 
ATOM     33  H   LIG d   1       3.376  -0.482  -4.166  0.00  0.00     0.029 H 
ATOM     34  H   LIG d   1       1.949  -0.691  -3.123  0.00  0.00     0.029 H 
BRANCH  32  35
ATOM     35  C   LIG d   1       3.460   0.613  -2.312  0.00  0.00    -0.062 C 
ATOM     36  H   LIG d   1       3.760   0.289  -1.315  0.00  0.00     0.023 H 
ATOM     37  H   LIG d   1       4.297   1.109  -2.801  0.00  0.00     0.023 H 
ATOM     38  H   LIG d   1       2.623   1.307  -2.231  0.00  0.00     0.023 H 
ENDBRANCH  32  35
ENDBRANCH  29  32
ENDBRANCH  28  29
ENDBRANCH  26  28
ENDBRANCH  20  26
ENDBRANCH  15  16
ENDBRANCH   1  15
BRANCH   2  39
ATOM     39  C   LIG d   1       9.171   3.310  -7.139  0.00  0.00    -0.003 C 
ATOM     40  H   LIG d   1       8.136   3.587  -7.341  0.00  0.00     0.031 H 
ATOM     41  H   LIG d   1       9.829   3.835  -7.830  0.00  0.00     0.031 H 
ATOM     42  H   LIG d   1       9.292   2.234  -7.270  0.00  0.00     0.031 H 
ENDBRANCH   2  39
BRANCH   6  43
ATOM     43  O   LIG d   1       9.969   8.470  -2.187  0.00  0.00    -0.487 OA
BRANCH  43  44
ATOM     44  C   LIG d   1       9.251   8.814  -1.001  0.00  0.00     0.115 C 
ATOM     45  H   LIG d   1       8.404   9.450  -1.260  0.00  0.00     0.075 H 
ATOM     46  H   LIG d   1       8.887   7.906  -0.520  0.00  0.00     0.075 H 
BRANCH  44  47
ATOM     47  C   LIG d   1      10.163   9.552  -0.056  0.00  0.00    -0.010 A 
ATOM     48  C   LIG d   1      10.078  10.929   0.048  0.00  0.00    -0.055 A 
ATOM     49  C   LIG d   1      10.911  11.611   0.911  0.00  0.00    -0.054 A 
ATOM     50  H   LIG d   1       9.358  11.472  -0.546  0.00  0.00     0.062 H 
ATOM     51  C   LIG d   1      11.842  10.908   1.679  0.00  0.00    -0.026 A 
ATOM     52  H   LIG d   1      10.846  12.685   0.992  0.00  0.00     0.062 H 
ATOM     53  C   LIG d   1      11.922   9.520   1.568  0.00  0.00    -0.054 A 
ATOM     54  C   LIG d   1      11.080   8.849   0.706  0.00  0.00    -0.055 A 
ATOM     55  H   LIG d   1      12.640   8.970   2.159  0.00  0.00     0.062 H 
ATOM     56  H   LIG d   1      11.138   7.774   0.623  0.00  0.00     0.062 H 
BRANCH  51  57
ATOM     57  C   LIG d   1      12.739  11.633   2.604  0.00  0.00    -0.062 C 
ATOM     58  C   LIG d   1      13.039  11.107   3.783  0.00  0.00    -0.098 C 
ATOM     59  H   LIG d   1      13.695  11.636   4.460  0.00  0.00     0.053 H 
ATOM     60  H   LIG d   1      12.629  10.149   4.068  0.00  0.00     0.053 H 
ATOM     61  H   LIG d   1      13.149  12.590   2.320  0.00  0.00     0.062 H 
ENDBRANCH  51  57
ENDBRANCH  44  47
ENDBRANCH  43  44
ENDBRANCH   6  43
TORSDOF 12
ENDMDL
MODEL 8
REMARK VINA RESULT:      -6.2      5.713     13.348
REMARK  12 active torsions:
REMARK  status: ('A' for Active; 'I' for Inactive)
REMARK    1  A    between atoms: C_1  and  C_2 
REMARK    2  A    between atoms: C_2  and  C_3 
REMARK    3  A    between atoms: C_3  and  O_4 
REMARK    4  A    between atoms: O_4  and  C_5 
REMARK    5  A    between atoms: C_5  and  C_7 
REMARK    6  A    between atoms: C_10  and  O_13 
REMARK    7  A    between atoms: O_13  and  C_14 
REMARK    8  A    between atoms: C_15  and  C_35 
REMARK    9  A    between atoms: C_19  and  O_25 
REMARK   10  A    between atoms: O_25  and  C_26 
REMARK   11  A    between atoms: C_26  and  C_27 
REMARK   12  A    between atoms: C_30  and  C_33 
ROOT
ATOM      1  C   LIG d   1       3.136  -2.230  -9.794  0.00  0.00     0.213 A 
ATOM      2  C   LIG d   1       2.826  -3.504  -9.483  0.00  0.00     0.148 A 
ATOM      3  O   LIG d   1       1.828  -4.172 -10.077  0.00  0.00    -0.456 OA
ATOM      4  C   LIG d   1       1.063  -3.622 -11.041  0.00  0.00     0.142 A 
ATOM      5  C   LIG d   1       0.040  -4.345 -11.639  0.00  0.00     0.023 A 
ATOM      6  C   LIG d   1      -0.731  -3.755 -12.628  0.00  0.00     0.124 A 
ATOM      7  C   LIG d   1      -0.487  -2.442 -13.027  0.00  0.00    -0.019 A 
ATOM      8  C   LIG d   1       0.515  -1.718 -12.448  0.00  0.00    -0.044 A 
ATOM      9  C   LIG d   1       1.301  -2.298 -11.450  0.00  0.00     0.068 A 
ATOM     10  C   LIG d   1       2.392  -1.552 -10.801  0.00  0.00     0.235 A 
ATOM     11  O   LIG d   1       2.646  -0.400 -11.111  0.00  0.00    -0.283 OA
ATOM     12  H   LIG d   1      -0.154  -5.363 -11.336  0.00  0.00     0.069 H 
ATOM     13  H   LIG d   1      -1.095  -1.996 -13.799  0.00  0.00     0.065 H 
ATOM     14  H   LIG d   1       0.699  -0.701 -12.760  0.00  0.00     0.063 H 
ENDROOT
BRANCH   1  15
ATOM     15  O   LIG d   1       4.157  -1.597  -9.154  0.00  0.00    -0.449 OA
BRANCH  15  16
ATOM     16  C   LIG d   1       3.899  -1.025  -7.951  0.00  0.00     0.129 A 
ATOM     17  C   LIG d   1       4.739  -1.271  -6.871  0.00  0.00    -0.019 A 
ATOM     18  C   LIG d   1       4.483  -0.688  -5.651  0.00  0.00    -0.044 A 
ATOM     19  H   LIG d   1       5.594  -1.920  -6.990  0.00  0.00     0.065 H 
ATOM     20  C   LIG d   1       3.376   0.153  -5.498  0.00  0.00     0.059 A 
ATOM     21  H   LIG d   1       5.136  -0.880  -4.812  0.00  0.00     0.063 H 
ATOM     22  C   LIG d   1       2.534   0.398  -6.587  0.00  0.00    -0.044 A 
ATOM     23  C   LIG d   1       2.796  -0.189  -7.804  0.00  0.00    -0.019 A 
ATOM     24  H   LIG d   1       1.677   1.046  -6.473  0.00  0.00     0.063 H 
ATOM     25  H   LIG d   1       2.146  -0.001  -8.646  0.00  0.00     0.065 H 
BRANCH  20  26
ATOM     26  C   LIG d   1       3.098   0.779  -4.193  0.00  0.00     0.339 C 
ATOM     27  O   LIG d   1       3.023   1.988  -4.103  0.00  0.00    -0.245 OA
BRANCH  26  28
ATOM     28  O   LIG d   1       2.924   0.010  -3.100  0.00  0.00    -0.461 OA
BRANCH  28  29
ATOM     29  C   LIG d   1       3.906   0.142  -2.038  0.00  0.00     0.092 C 
ATOM     30  H   LIG d   1       4.613   0.933  -2.293  0.00  0.00     0.070 H 
ATOM     31  H   LIG d   1       3.401   0.393  -1.106  0.00  0.00     0.070 H 
BRANCH  29  32
ATOM     32  C   LIG d   1       4.658  -1.180  -1.871  0.00  0.00    -0.021 C 
ATOM     33  H   LIG d   1       5.592  -1.139  -2.432  0.00  0.00     0.029 H 
ATOM     34  H   LIG d   1       4.875  -1.342  -0.816  0.00  0.00     0.029 H 
BRANCH  32  35
ATOM     35  C   LIG d   1       3.796  -2.328  -2.398  0.00  0.00    -0.062 C 
ATOM     36  H   LIG d   1       2.950  -1.922  -2.953  0.00  0.00     0.023 H 
ATOM     37  H   LIG d   1       4.393  -2.959  -3.056  0.00  0.00     0.023 H 
ATOM     38  H   LIG d   1       3.428  -2.920  -1.560  0.00  0.00     0.023 H 
ENDBRANCH  32  35
ENDBRANCH  29  32
ENDBRANCH  28  29
ENDBRANCH  26  28
ENDBRANCH  20  26
ENDBRANCH  15  16
ENDBRANCH   1  15
BRANCH   2  39
ATOM     39  C   LIG d   1       3.631  -4.204  -8.420  0.00  0.00    -0.003 C 
ATOM     40  H   LIG d   1       2.963  -4.568  -7.638  0.00  0.00     0.031 H 
ATOM     41  H   LIG d   1       4.164  -5.045  -8.862  0.00  0.00     0.031 H 
ATOM     42  H   LIG d   1       4.350  -3.506  -7.988  0.00  0.00     0.031 H 
ENDBRANCH   2  39
BRANCH   6  43
ATOM     43  O   LIG d   1      -1.730  -4.463 -13.212  0.00  0.00    -0.487 OA
BRANCH  43  44
ATOM     44  C   LIG d   1      -2.345  -5.487 -12.427  0.00  0.00     0.115 C 
ATOM     45  H   LIG d   1      -2.551  -6.352 -13.056  0.00  0.00     0.075 H 
ATOM     46  H   LIG d   1      -1.674  -5.777 -11.619  0.00  0.00     0.075 H 
BRANCH  44  47
ATOM     47  C   LIG d   1      -3.635  -4.969 -11.847  0.00  0.00    -0.010 A 
ATOM     48  C   LIG d   1      -3.680  -4.553 -10.528  0.00  0.00    -0.055 A 
ATOM     49  C   LIG d   1      -4.859  -4.078  -9.992  0.00  0.00    -0.054 A 
ATOM     50  H   LIG d   1      -2.791  -4.600  -9.917  0.00  0.00     0.062 H 
ATOM     51  C   LIG d   1      -6.009  -4.017 -10.783  0.00  0.00    -0.026 A 
ATOM     52  H   LIG d   1      -4.895  -3.754  -8.962  0.00  0.00     0.062 H 
ATOM     53  C   LIG d   1      -5.956  -4.439 -12.111  0.00  0.00    -0.054 A 
ATOM     54  C   LIG d   1      -4.769  -4.906 -12.638  0.00  0.00    -0.055 A 
ATOM     55  H   LIG d   1      -6.841  -4.395 -12.729  0.00  0.00     0.062 H 
ATOM     56  H   LIG d   1      -4.726  -5.228 -13.668  0.00  0.00     0.062 H 
BRANCH  51  57
ATOM     57  C   LIG d   1      -7.276  -3.511 -10.214  0.00  0.00    -0.062 C 
ATOM     58  C   LIG d   1      -8.380  -4.237 -10.307  0.00  0.00    -0.098 C 
ATOM     59  H   LIG d   1      -9.306  -3.867  -9.891  0.00  0.00     0.053 H 
ATOM     60  H   LIG d   1      -8.355  -5.199 -10.797  0.00  0.00     0.053 H 
ATOM     61  H   LIG d   1      -7.301  -2.549  -9.724  0.00  0.00     0.062 H 
ENDBRANCH  51  57
ENDBRANCH  44  47
ENDBRANCH  43  44
ENDBRANCH   6  43
TORSDOF 12
ENDMDL
MODEL 9
REMARK VINA RESULT:      -6.1      3.629      6.207
REMARK  12 active torsions:
REMARK  status: ('A' for Active; 'I' for Inactive)
REMARK    1  A    between atoms: C_1  and  C_2 
REMARK    2  A    between atoms: C_2  and  C_3 
REMARK    3  A    between atoms: C_3  and  O_4 
REMARK    4  A    between atoms: O_4  and  C_5 
REMARK    5  A    between atoms: C_5  and  C_7 
REMARK    6  A    between atoms: C_10  and  O_13 
REMARK    7  A    between atoms: O_13  and  C_14 
REMARK    8  A    between atoms: C_15  and  C_35 
REMARK    9  A    between atoms: C_19  and  O_25 
REMARK   10  A    between atoms: O_25  and  C_26 
REMARK   11  A    between atoms: C_26  and  C_27 
REMARK   12  A    between atoms: C_30  and  C_33 
ROOT
ATOM      1  C   LIG d   1       9.940   2.867  -4.655  0.00  0.00     0.213 A 
ATOM      2  C   LIG d   1       9.544   3.801  -5.543  0.00  0.00     0.148 A 
ATOM      3  O   LIG d   1       9.438   5.098  -5.230  0.00  0.00    -0.456 OA
ATOM      4  C   LIG d   1       9.730   5.572  -4.002  0.00  0.00     0.142 A 
ATOM      5  C   LIG d   1       9.614   6.924  -3.712  0.00  0.00     0.023 A 
ATOM      6  C   LIG d   1       9.920   7.384  -2.442  0.00  0.00     0.124 A 
ATOM      7  C   LIG d   1      10.345   6.499  -1.452  0.00  0.00    -0.019 A 
ATOM      8  C   LIG d   1      10.464   5.166  -1.721  0.00  0.00    -0.044 A 
ATOM      9  C   LIG d   1      10.158   4.687  -2.997  0.00  0.00     0.068 A 
ATOM     10  C   LIG d   1      10.274   3.257  -3.328  0.00  0.00     0.235 A 
ATOM     11  O   LIG d   1      10.639   2.440  -2.499  0.00  0.00    -0.283 OA
ATOM     12  H   LIG d   1       9.287   7.617  -4.474  0.00  0.00     0.069 H 
ATOM     13  H   LIG d   1      10.581   6.871  -0.466  0.00  0.00     0.065 H 
ATOM     14  H   LIG d   1      10.792   4.485  -0.951  0.00  0.00     0.063 H 
ENDROOT
BRANCH   1  15
ATOM     15  O   LIG d   1      10.024   1.560  -5.028  0.00  0.00    -0.449 OA
BRANCH  15  16
ATOM     16  C   LIG d   1       9.008   0.731  -4.680  0.00  0.00     0.129 A 
ATOM     17  C   LIG d   1       7.927   1.224  -3.958  0.00  0.00    -0.019 A 
ATOM     18  C   LIG d   1       6.891   0.388  -3.609  0.00  0.00    -0.044 A 
ATOM     19  H   LIG d   1       7.899   2.265  -3.672  0.00  0.00     0.065 H 
ATOM     20  C   LIG d   1       6.927  -0.960  -3.979  0.00  0.00     0.059 A 
ATOM     21  H   LIG d   1       6.052   0.771  -3.047  0.00  0.00     0.063 H 
ATOM     22  C   LIG d   1       8.016  -1.452  -4.706  0.00  0.00    -0.044 A 
ATOM     23  C   LIG d   1       9.048  -0.609  -5.052  0.00  0.00    -0.019 A 
ATOM     24  H   LIG d   1       8.049  -2.492  -4.994  0.00  0.00     0.063 H 
ATOM     25  H   LIG d   1       9.890  -0.988  -5.613  0.00  0.00     0.065 H 
BRANCH  20  26
ATOM     26  C   LIG d   1       5.822  -1.860  -3.607  0.00  0.00     0.339 C 
ATOM     27  O   LIG d   1       5.605  -2.861  -4.261  0.00  0.00    -0.245 OA
BRANCH  26  28
ATOM     28  O   LIG d   1       5.050  -1.574  -2.539  0.00  0.00    -0.461 OA
BRANCH  28  29
ATOM     29  C   LIG d   1       3.634  -1.872  -2.650  0.00  0.00     0.092 C 
ATOM     30  H   LIG d   1       3.481  -2.634  -3.414  0.00  0.00     0.070 H 
ATOM     31  H   LIG d   1       3.263  -2.237  -1.693  0.00  0.00     0.070 H 
BRANCH  29  32
ATOM     32  C   LIG d   1       2.874  -0.601  -3.039  0.00  0.00    -0.021 C 
ATOM     33  H   LIG d   1       2.924  -0.466  -4.121  0.00  0.00     0.029 H 
ATOM     34  H   LIG d   1       1.833  -0.693  -2.732  0.00  0.00     0.029 H 
BRANCH  32  35
ATOM     35  C   LIG d   1       3.508   0.605  -2.345  0.00  0.00    -0.062 C 
ATOM     36  H   LIG d   1       3.427   0.486  -1.264  0.00  0.00     0.023 H 
ATOM     37  H   LIG d   1       4.558   0.676  -2.626  0.00  0.00     0.023 H 
ATOM     38  H   LIG d   1       2.988   1.513  -2.649  0.00  0.00     0.023 H 
ENDBRANCH  32  35
ENDBRANCH  29  32
ENDBRANCH  28  29
ENDBRANCH  26  28
ENDBRANCH  20  26
ENDBRANCH  15  16
ENDBRANCH   1  15
BRANCH   2  39
ATOM     39  C   LIG d   1       9.203   3.366  -6.945  0.00  0.00    -0.003 C 
ATOM     40  H   LIG d   1       8.164   3.619  -7.161  0.00  0.00     0.031 H 
ATOM     41  H   LIG d   1       9.855   3.875  -7.653  0.00  0.00     0.031 H 
ATOM     42  H   LIG d   1       9.340   2.288  -7.035  0.00  0.00     0.031 H 
ENDBRANCH   2  39
BRANCH   6  43
ATOM     43  O   LIG d   1       9.807   8.706  -2.160  0.00  0.00    -0.487 OA
BRANCH  43  44
ATOM     44  C   LIG d   1      10.954   9.523  -2.408  0.00  0.00     0.115 C 
ATOM     45  H   LIG d   1      11.040  10.275  -1.624  0.00  0.00     0.075 H 
ATOM     46  H   LIG d   1      11.848   8.900  -2.414  0.00  0.00     0.075 H 
BRANCH  44  47
ATOM     47  C   LIG d   1      10.806  10.204  -3.743  0.00  0.00    -0.010 A 
ATOM     48  C   LIG d   1      11.847  10.168  -4.655  0.00  0.00    -0.055 A 
ATOM     49  C   LIG d   1      11.717  10.791  -5.879  0.00  0.00    -0.054 A 
ATOM     50  H   LIG d   1      12.762   9.652  -4.407  0.00  0.00     0.062 H 
ATOM     51  C   LIG d   1      10.533  11.458  -6.198  0.00  0.00    -0.026 A 
ATOM     52  H   LIG d   1      12.529  10.763  -6.590  0.00  0.00     0.062 H 
ATOM     53  C   LIG d   1       9.488  11.491  -5.274  0.00  0.00    -0.054 A 
ATOM     54  C   LIG d   1       9.627  10.860  -4.055  0.00  0.00    -0.055 A 
ATOM     55  H   LIG d   1       8.569  12.006  -5.514  0.00  0.00     0.062 H 
ATOM     56  H   LIG d   1       8.817  10.880  -3.342  0.00  0.00     0.062 H 
BRANCH  51  57
ATOM     57  C   LIG d   1      10.388  12.129  -7.507  0.00  0.00    -0.062 C 
ATOM     58  C   LIG d   1       9.537  13.135  -7.645  0.00  0.00    -0.098 C 
ATOM     59  H   LIG d   1       9.431  13.625  -8.602  0.00  0.00     0.053 H 
ATOM     60  H   LIG d   1       8.950  13.466  -6.801  0.00  0.00     0.053 H 
ATOM     61  H   LIG d   1      10.974  11.798  -8.351  0.00  0.00     0.062 H 
ENDBRANCH  51  57
ENDBRANCH  44  47
ENDBRANCH  43  44
ENDBRANCH   6  43
TORSDOF 12
ENDMDL
