MODEL 1
REMARK VINA RESULT:      -7.5      0.000      0.000
REMARK  6 active torsions:
REMARK  status: ('A' for Active; 'I' for Inactive)
REMARK    1  A    between atoms: C_1  and  C_2 
REMARK    2  A    between atoms: C_5  and  C_8 
REMARK    3  A    between atoms: C_15  and  C_30 
REMARK    4  A    between atoms: C_16  and  C_23 
REMARK    5  A    between atoms: C_21  and  C_22 
REMARK    6  A    between atoms: C_23  and  C_24 
ROOT
ATOM      1  C   LIG d   1       1.610  -2.638 -10.715  0.00  0.00     0.028 A 
ATOM      2  C   LIG d   1       1.324  -1.733 -11.676  0.00  0.00     0.101 A 
ATOM      3  O   LIG d   1       2.038  -0.611 -11.481  0.00  0.00    -0.462 OA
ATOM      4  C   LIG d   1       2.827  -0.718 -10.391  0.00  0.00     0.142 A 
ATOM      5  C   LIG d   1       2.610  -1.996  -9.839  0.00  0.00     0.029 A 
ATOM      6  C   LIG d   1       3.290  -2.395  -8.699  0.00  0.00    -0.039 A 
ATOM      7  C   LIG d   1       4.194  -1.517  -8.100  0.00  0.00     0.022 A 
ATOM      8  C   LIG d   1       4.930  -1.907  -6.893  0.00  0.00    -0.029 A 
ATOM      9  C   LIG d   1       5.796  -1.012  -6.354  0.00  0.00     0.045 A 
ATOM     10  C   LIG d   1       5.967   0.252  -6.958  0.00  0.00     0.341 A 
ATOM     11  O   LIG d   1       6.748   1.045  -6.464  0.00  0.00    -0.245 OA
ATOM     12  O   LIG d   1       5.291   0.604  -8.062  0.00  0.00    -0.422 OA
ATOM     13  C   LIG d   1       4.412  -0.238  -8.651  0.00  0.00     0.146 A 
ATOM     14  C   LIG d   1       3.727   0.150  -9.790  0.00  0.00     0.035 A 
ATOM     15  H   LIG d   1       0.623  -1.887 -12.483  0.00  0.00     0.104 H 
ATOM     16  H   LIG d   1       3.120  -3.375  -8.279  0.00  0.00     0.063 H 
ENDROOT
BRANCH   1  17
ATOM     17  C   LIG d   1       1.037  -3.998 -10.569  0.00  0.00    -0.014 A 
ATOM     18  C   LIG d   1      -0.345  -4.177 -10.560  0.00  0.00    -0.054 A 
ATOM     19  C   LIG d   1      -0.872  -5.445 -10.425  0.00  0.00    -0.058 A 
ATOM     20  H   LIG d   1      -1.001  -3.327 -10.660  0.00  0.00     0.062 H 
ATOM     21  C   LIG d   1      -0.032  -6.537 -10.298  0.00  0.00    -0.050 A 
ATOM     22  H   LIG d   1      -1.943  -5.586 -10.418  0.00  0.00     0.062 H 
ATOM     23  C   LIG d   1       1.340  -6.365 -10.307  0.00  0.00    -0.058 A 
ATOM     24  C   LIG d   1       1.880  -5.102 -10.447  0.00  0.00    -0.054 A 
ATOM     25  H   LIG d   1       1.992  -7.220 -10.208  0.00  0.00     0.062 H 
ATOM     26  H   LIG d   1       2.951  -4.969 -10.458  0.00  0.00     0.062 H 
BRANCH  21  27
ATOM     27  C   LIG d   1      -0.614  -7.919 -10.151  0.00  0.00    -0.040 C 
ATOM     28  H   LIG d   1      -0.637  -8.409 -11.124  0.00  0.00     0.028 H 
ATOM     29  H   LIG d   1       0.002  -8.502  -9.465  0.00  0.00     0.028 H 
ATOM     30  H   LIG d   1      -1.627  -7.846  -9.756  0.00  0.00     0.028 H 
ENDBRANCH  21  27
ENDBRANCH   1  17
BRANCH  14  31
ATOM     31  C   LIG d   1       3.961   1.517 -10.379  0.00  0.00    -0.033 C 
ATOM     32  H   LIG d   1       4.477   2.143  -9.651  0.00  0.00     0.028 H 
ATOM     33  H   LIG d   1       4.573   1.427 -11.277  0.00  0.00     0.028 H 
ATOM     34  H   LIG d   1       3.004   1.972 -10.636  0.00  0.00     0.028 H 
ENDBRANCH  14  31
BRANCH   8  35
ATOM     35  C   LIG d   1       4.729  -3.263  -6.269  0.00  0.00    -0.038 C 
ATOM     36  H   LIG d   1       3.662  -3.469  -6.183  0.00  0.00     0.028 H 
ATOM     37  H   LIG d   1       5.196  -4.024  -6.895  0.00  0.00     0.028 H 
ATOM     38  H   LIG d   1       5.184  -3.279  -5.279  0.00  0.00     0.028 H 
ENDBRANCH   8  35
BRANCH   9  39
ATOM     39  C   LIG d   1       6.576  -1.368  -5.115  0.00  0.00     0.005 C 
ATOM     40  H   LIG d   1       6.723  -2.447  -5.075  0.00  0.00     0.036 H 
ATOM     41  H   LIG d   1       7.547  -0.871  -5.141  0.00  0.00     0.036 H 
BRANCH  39  42
ATOM     42  C   LIG d   1       5.815  -0.918  -3.895  0.00  0.00    -0.043 A 
ATOM     43  C   LIG d   1       5.058  -1.826  -3.179  0.00  0.00    -0.058 A 
ATOM     44  C   LIG d   1       4.359  -1.414  -2.060  0.00  0.00    -0.061 A 
ATOM     45  H   LIG d   1       5.013  -2.859  -3.494  0.00  0.00     0.062 H 
ATOM     46  C   LIG d   1       4.417  -0.093  -1.656  0.00  0.00    -0.062 A 
ATOM     47  H   LIG d   1       3.768  -2.124  -1.500  0.00  0.00     0.062 H 
ATOM     48  C   LIG d   1       5.174   0.816  -2.372  0.00  0.00    -0.061 A 
ATOM     49  H   LIG d   1       3.872   0.230  -0.782  0.00  0.00     0.062 H 
ATOM     50  C   LIG d   1       5.878   0.402  -3.489  0.00  0.00    -0.058 A 
ATOM     51  H   LIG d   1       5.221   1.847  -2.057  0.00  0.00     0.062 H 
ATOM     52  H   LIG d   1       6.473   1.110  -4.045  0.00  0.00     0.062 H 
ENDBRANCH  39  42
ENDBRANCH   9  39
TORSDOF 6
ENDMDL
MODEL 2
REMARK VINA RESULT:      -7.5      4.224      6.198
REMARK  6 active torsions:
REMARK  status: ('A' for Active; 'I' for Inactive)
REMARK    1  A    between atoms: C_1  and  C_2 
REMARK    2  A    between atoms: C_5  and  C_8 
REMARK    3  A    between atoms: C_15  and  C_30 
REMARK    4  A    between atoms: C_16  and  C_23 
REMARK    5  A    between atoms: C_21  and  C_22 
REMARK    6  A    between atoms: C_23  and  C_24 
ROOT
ATOM      1  C   LIG d   1       4.963  -7.871  -6.057  0.00  0.00     0.028 A 
ATOM      2  C   LIG d   1       4.289  -8.429  -7.087  0.00  0.00     0.101 A 
ATOM      3  O   LIG d   1       3.872  -7.476  -7.937  0.00  0.00    -0.462 OA
ATOM      4  C   LIG d   1       4.247  -6.250  -7.517  0.00  0.00     0.142 A 
ATOM      5  C   LIG d   1       4.955  -6.417  -6.311  0.00  0.00     0.029 A 
ATOM      6  C   LIG d   1       5.468  -5.320  -5.637  0.00  0.00    -0.039 A 
ATOM      7  C   LIG d   1       5.277  -4.042  -6.166  0.00  0.00     0.022 A 
ATOM      8  C   LIG d   1       5.807  -2.860  -5.480  0.00  0.00    -0.029 A 
ATOM      9  C   LIG d   1       5.590  -1.643  -6.041  0.00  0.00     0.045 A 
ATOM     10  C   LIG d   1       4.873  -1.546  -7.252  0.00  0.00     0.341 A 
ATOM     11  O   LIG d   1       4.686  -0.448  -7.744  0.00  0.00    -0.245 OA
ATOM     12  O   LIG d   1       4.390  -2.631  -7.876  0.00  0.00    -0.422 OA
ATOM     13  C   LIG d   1       4.568  -3.873  -7.373  0.00  0.00     0.146 A 
ATOM     14  C   LIG d   1       4.060  -4.977  -8.037  0.00  0.00     0.035 A 
ATOM     15  H   LIG d   1       4.110  -9.488  -7.209  0.00  0.00     0.104 H 
ATOM     16  H   LIG d   1       6.010  -5.452  -4.713  0.00  0.00     0.063 H 
ENDROOT
BRANCH   1  17
ATOM     17  C   LIG d   1       5.582  -8.575  -4.909  0.00  0.00    -0.014 A 
ATOM     18  C   LIG d   1       4.826  -9.456  -4.138  0.00  0.00    -0.054 A 
ATOM     19  C   LIG d   1       5.408 -10.109  -3.070  0.00  0.00    -0.058 A 
ATOM     20  H   LIG d   1       3.788  -9.628  -4.376  0.00  0.00     0.062 H 
ATOM     21  C   LIG d   1       6.740  -9.889  -2.765  0.00  0.00    -0.050 A 
ATOM     22  H   LIG d   1       4.824 -10.792  -2.472  0.00  0.00     0.062 H 
ATOM     23  C   LIG d   1       7.495  -9.016  -3.527  0.00  0.00    -0.058 A 
ATOM     24  C   LIG d   1       6.925  -8.362  -4.600  0.00  0.00    -0.054 A 
ATOM     25  H   LIG d   1       8.534  -8.849  -3.284  0.00  0.00     0.062 H 
ATOM     26  H   LIG d   1       7.517  -7.684  -5.197  0.00  0.00     0.062 H 
BRANCH  21  27
ATOM     27  C   LIG d   1       7.370 -10.605  -1.598  0.00  0.00    -0.040 C 
ATOM     28  H   LIG d   1       7.617  -9.883  -0.820  0.00  0.00     0.028 H 
ATOM     29  H   LIG d   1       6.670 -11.340  -1.202  0.00  0.00     0.028 H 
ATOM     30  H   LIG d   1       8.278 -11.108  -1.928  0.00  0.00     0.028 H 
ENDBRANCH  21  27
ENDBRANCH   1  17
BRANCH  14  31
ATOM     31  C   LIG d   1       3.304  -4.795  -9.327  0.00  0.00    -0.033 C 
ATOM     32  H   LIG d   1       2.265  -5.093  -9.185  0.00  0.00     0.028 H 
ATOM     33  H   LIG d   1       3.342  -3.748  -9.627  0.00  0.00     0.028 H 
ATOM     34  H   LIG d   1       3.756  -5.413 -10.104  0.00  0.00     0.028 H 
ENDBRANCH  14  31
BRANCH   8  35
ATOM     35  C   LIG d   1       6.570  -2.992  -4.187  0.00  0.00    -0.038 C 
ATOM     36  H   LIG d   1       5.892  -3.313  -3.396  0.00  0.00     0.028 H 
ATOM     37  H   LIG d   1       7.362  -3.731  -4.308  0.00  0.00     0.028 H 
ATOM     38  H   LIG d   1       7.008  -2.030  -3.923  0.00  0.00     0.028 H 
ENDBRANCH   8  35
BRANCH   9  39
ATOM     39  C   LIG d   1       6.116  -0.399  -5.373  0.00  0.00     0.005 C 
ATOM     40  H   LIG d   1       7.114  -0.591  -4.979  0.00  0.00     0.036 H 
ATOM     41  H   LIG d   1       6.164   0.411  -6.101  0.00  0.00     0.036 H 
BRANCH  39  42
ATOM     42  C   LIG d   1       5.198  -0.007  -4.244  0.00  0.00    -0.043 A 
ATOM     43  C   LIG d   1       3.832  -0.179  -4.372  0.00  0.00    -0.058 A 
ATOM     44  C   LIG d   1       2.990   0.182  -3.337  0.00  0.00    -0.061 A 
ATOM     45  H   LIG d   1       3.424  -0.596  -5.281  0.00  0.00     0.062 H 
ATOM     46  C   LIG d   1       3.514   0.715  -2.173  0.00  0.00    -0.062 A 
ATOM     47  H   LIG d   1       1.924   0.046  -3.437  0.00  0.00     0.062 H 
ATOM     48  C   LIG d   1       4.879   0.887  -2.045  0.00  0.00    -0.061 A 
ATOM     49  H   LIG d   1       2.856   0.996  -1.364  0.00  0.00     0.062 H 
ATOM     50  C   LIG d   1       5.723   0.521  -3.079  0.00  0.00    -0.058 A 
ATOM     51  H   LIG d   1       5.288   1.303  -1.137  0.00  0.00     0.062 H 
ATOM     52  H   LIG d   1       6.789   0.652  -2.977  0.00  0.00     0.062 H 
ENDBRANCH  39  42
ENDBRANCH   9  39
TORSDOF 6
ENDMDL
MODEL 3
REMARK VINA RESULT:      -7.4      5.133     10.094
REMARK  6 active torsions:
REMARK  status: ('A' for Active; 'I' for Inactive)
REMARK    1  A    between atoms: C_1  and  C_2 
REMARK    2  A    between atoms: C_5  and  C_8 
REMARK    3  A    between atoms: C_15  and  C_30 
REMARK    4  A    between atoms: C_16  and  C_23 
REMARK    5  A    between atoms: C_21  and  C_22 
REMARK    6  A    between atoms: C_23  and  C_24 
ROOT
ATOM      1  C   LIG d   1       9.985   4.784  -4.904  0.00  0.00     0.028 A 
ATOM      2  C   LIG d   1      10.380   5.451  -6.010  0.00  0.00     0.101 A 
ATOM      3  O   LIG d   1       9.984   4.791  -7.112  0.00  0.00    -0.462 OA
ATOM      4  C   LIG d   1       9.313   3.665  -6.792  0.00  0.00     0.142 A 
ATOM      5  C   LIG d   1       9.270   3.586  -5.386  0.00  0.00     0.029 A 
ATOM      6  C   LIG d   1       8.638   2.524  -4.759  0.00  0.00    -0.039 A 
ATOM      7  C   LIG d   1       8.043   1.528  -5.535  0.00  0.00     0.022 A 
ATOM      8  C   LIG d   1       7.366   0.391  -4.905  0.00  0.00    -0.029 A 
ATOM      9  C   LIG d   1       6.805  -0.547  -5.709  0.00  0.00     0.045 A 
ATOM     10  C   LIG d   1       6.883  -0.407  -7.111  0.00  0.00     0.341 A 
ATOM     11  O   LIG d   1       6.375  -1.256  -7.821  0.00  0.00    -0.245 OA
ATOM     12  O   LIG d   1       7.504   0.636  -7.683  0.00  0.00    -0.422 OA
ATOM     13  C   LIG d   1       8.085   1.606  -6.942  0.00  0.00     0.146 A 
ATOM     14  C   LIG d   1       8.719   2.672  -7.557  0.00  0.00     0.035 A 
ATOM     15  H   LIG d   1      10.933   6.378  -6.011  0.00  0.00     0.104 H 
ATOM     16  H   LIG d   1       8.608   2.468  -3.682  0.00  0.00     0.063 H 
ENDROOT
BRANCH   1  17
ATOM     17  C   LIG d   1      10.223   5.175  -3.493  0.00  0.00    -0.014 A 
ATOM     18  C   LIG d   1       9.590   6.296  -2.962  0.00  0.00    -0.054 A 
ATOM     19  C   LIG d   1       9.815   6.655  -1.648  0.00  0.00    -0.058 A 
ATOM     20  H   LIG d   1       8.923   6.883  -3.576  0.00  0.00     0.062 H 
ATOM     21  C   LIG d   1      10.668   5.904  -0.860  0.00  0.00    -0.050 A 
ATOM     22  H   LIG d   1       9.324   7.524  -1.235  0.00  0.00     0.062 H 
ATOM     23  C   LIG d   1      11.299   4.790  -1.382  0.00  0.00    -0.058 A 
ATOM     24  C   LIG d   1      11.078   4.418  -2.693  0.00  0.00    -0.054 A 
ATOM     25  H   LIG d   1      11.964   4.206  -0.762  0.00  0.00     0.062 H 
ATOM     26  H   LIG d   1      11.568   3.545  -3.098  0.00  0.00     0.062 H 
BRANCH  21  27
ATOM     27  C   LIG d   1      10.910   6.301   0.574  0.00  0.00    -0.040 C 
ATOM     28  H   LIG d   1      10.115   6.969   0.904  0.00  0.00     0.028 H 
ATOM     29  H   LIG d   1      10.919   5.410   1.201  0.00  0.00     0.028 H 
ATOM     30  H   LIG d   1      11.870   6.810   0.652  0.00  0.00     0.028 H 
ENDBRANCH  21  27
ENDBRANCH   1  17
BRANCH  14  31
ATOM     31  C   LIG d   1       8.763   2.754  -9.062  0.00  0.00    -0.033 C 
ATOM     32  H   LIG d   1       7.752   2.666  -9.460  0.00  0.00     0.028 H 
ATOM     33  H   LIG d   1       9.190   3.710  -9.362  0.00  0.00     0.028 H 
ATOM     34  H   LIG d   1       9.378   1.942  -9.452  0.00  0.00     0.028 H 
ENDBRANCH  14  31
BRANCH   8  35
ATOM     35  C   LIG d   1       7.296   0.267  -3.404  0.00  0.00    -0.038 C 
ATOM     36  H   LIG d   1       6.584   0.994  -3.013  0.00  0.00     0.028 H 
ATOM     37  H   LIG d   1       6.971  -0.739  -3.138  0.00  0.00     0.028 H 
ATOM     38  H   LIG d   1       8.281   0.456  -2.977  0.00  0.00     0.028 H 
ENDBRANCH   8  35
BRANCH   9  39
ATOM     39  C   LIG d   1       6.097  -1.733  -5.107  0.00  0.00     0.005 C 
ATOM     40  H   LIG d   1       5.893  -2.469  -5.885  0.00  0.00     0.036 H 
ATOM     41  H   LIG d   1       6.730  -2.183  -4.341  0.00  0.00     0.036 H 
BRANCH  39  42
ATOM     42  C   LIG d   1       4.799  -1.284  -4.488  0.00  0.00    -0.043 A 
ATOM     43  C   LIG d   1       3.994  -0.376  -5.150  0.00  0.00    -0.058 A 
ATOM     44  C   LIG d   1       2.804   0.036  -4.581  0.00  0.00    -0.061 A 
ATOM     45  H   LIG d   1       4.297   0.011  -6.112  0.00  0.00     0.062 H 
ATOM     46  C   LIG d   1       2.418  -0.460  -3.350  0.00  0.00    -0.062 A 
ATOM     47  H   LIG d   1       2.176   0.745  -5.099  0.00  0.00     0.062 H 
ATOM     48  C   LIG d   1       3.222  -1.368  -2.687  0.00  0.00    -0.061 A 
ATOM     49  H   LIG d   1       1.487  -0.138  -2.905  0.00  0.00     0.062 H 
ATOM     50  C   LIG d   1       4.411  -1.785  -3.258  0.00  0.00    -0.058 A 
ATOM     51  H   LIG d   1       2.921  -1.757  -1.726  0.00  0.00     0.062 H 
ATOM     52  H   LIG d   1       5.037  -2.497  -2.744  0.00  0.00     0.062 H 
ENDBRANCH  39  42
ENDBRANCH   9  39
TORSDOF 6
ENDMDL
MODEL 4
REMARK VINA RESULT:      -7.0      5.265      8.090
REMARK  6 active torsions:
REMARK  status: ('A' for Active; 'I' for Inactive)
REMARK    1  A    between atoms: C_1  and  C_2 
REMARK    2  A    between atoms: C_5  and  C_8 
REMARK    3  A    between atoms: C_15  and  C_30 
REMARK    4  A    between atoms: C_16  and  C_23 
REMARK    5  A    between atoms: C_21  and  C_22 
REMARK    6  A    between atoms: C_23  and  C_24 
ROOT
ATOM      1  C   LIG d   1       9.519  -6.848  -3.399  0.00  0.00     0.028 A 
ATOM      2  C   LIG d   1      10.861  -6.897  -3.248  0.00  0.00     0.101 A 
ATOM      3  O   LIG d   1      11.403  -5.706  -3.551  0.00  0.00    -0.462 OA
ATOM      4  C   LIG d   1      10.456  -4.816  -3.915  0.00  0.00     0.142 A 
ATOM      5  C   LIG d   1       9.213  -5.474  -3.843  0.00  0.00     0.029 A 
ATOM      6  C   LIG d   1       8.042  -4.804  -4.163  0.00  0.00    -0.039 A 
ATOM      7  C   LIG d   1       8.106  -3.467  -4.559  0.00  0.00     0.022 A 
ATOM      8  C   LIG d   1       6.888  -2.729  -4.904  0.00  0.00    -0.029 A 
ATOM      9  C   LIG d   1       7.011  -1.431  -5.282  0.00  0.00     0.045 A 
ATOM     10  C   LIG d   1       8.287  -0.832  -5.331  0.00  0.00     0.341 A 
ATOM     11  O   LIG d   1       8.383   0.333  -5.672  0.00  0.00    -0.245 OA
ATOM     12  O   LIG d   1       9.399  -1.512  -5.015  0.00  0.00    -0.422 OA
ATOM     13  C   LIG d   1       9.350  -2.808  -4.631  0.00  0.00     0.146 A 
ATOM     14  C   LIG d   1      10.513  -3.487  -4.309  0.00  0.00     0.035 A 
ATOM     15  H   LIG d   1      11.417  -7.767  -2.930  0.00  0.00     0.104 H 
ATOM     16  H   LIG d   1       7.091  -5.312  -4.108  0.00  0.00     0.063 H 
ENDROOT
BRANCH   1  17
ATOM     17  C   LIG d   1       8.553  -7.948  -3.167  0.00  0.00    -0.014 A 
ATOM     18  C   LIG d   1       8.483  -8.566  -1.920  0.00  0.00    -0.054 A 
ATOM     19  C   LIG d   1       7.582  -9.590  -1.710  0.00  0.00    -0.058 A 
ATOM     20  H   LIG d   1       9.131  -8.244  -1.120  0.00  0.00     0.062 H 
ATOM     21  C   LIG d   1       6.749 -10.004  -2.735  0.00  0.00    -0.050 A 
ATOM     22  H   LIG d   1       7.526 -10.070  -0.744  0.00  0.00     0.062 H 
ATOM     23  C   LIG d   1       6.815  -9.394  -3.975  0.00  0.00    -0.058 A 
ATOM     24  C   LIG d   1       7.709  -8.365  -4.195  0.00  0.00    -0.054 A 
ATOM     25  H   LIG d   1       6.162  -9.720  -4.772  0.00  0.00     0.062 H 
ATOM     26  H   LIG d   1       7.755  -7.887  -5.162  0.00  0.00     0.062 H 
BRANCH  21  27
ATOM     27  C   LIG d   1       5.767 -11.122  -2.500  0.00  0.00    -0.040 C 
ATOM     28  H   LIG d   1       4.789 -10.703  -2.269  0.00  0.00     0.028 H 
ATOM     29  H   LIG d   1       5.696 -11.738  -3.396  0.00  0.00     0.028 H 
ATOM     30  H   LIG d   1       6.108 -11.734  -1.665  0.00  0.00     0.028 H 
ENDBRANCH  21  27
ENDBRANCH   1  17
BRANCH  14  31
ATOM     31  C   LIG d   1      11.841  -2.781  -4.385  0.00  0.00    -0.033 C 
ATOM     32  H   LIG d   1      12.391  -2.939  -3.457  0.00  0.00     0.028 H 
ATOM     33  H   LIG d   1      12.418  -3.178  -5.220  0.00  0.00     0.028 H 
ATOM     34  H   LIG d   1      11.677  -1.713  -4.532  0.00  0.00     0.028 H 
ENDBRANCH  14  31
BRANCH   8  35
ATOM     35  C   LIG d   1       5.536  -3.392  -4.842  0.00  0.00    -0.038 C 
ATOM     36  H   LIG d   1       4.843  -2.753  -4.296  0.00  0.00     0.028 H 
ATOM     37  H   LIG d   1       5.163  -3.553  -5.854  0.00  0.00     0.028 H 
ATOM     38  H   LIG d   1       5.625  -4.351  -4.332  0.00  0.00     0.028 H 
ENDBRANCH   8  35
BRANCH   9  39
ATOM     39  C   LIG d   1       5.787  -0.630  -5.645  0.00  0.00     0.005 C 
ATOM     40  H   LIG d   1       6.080   0.230  -6.247  0.00  0.00     0.036 H 
ATOM     41  H   LIG d   1       5.101  -1.256  -6.218  0.00  0.00     0.036 H 
BRANCH  39  42
ATOM     42  C   LIG d   1       5.104  -0.156  -4.389  0.00  0.00    -0.043 A 
ATOM     43  C   LIG d   1       3.750  -0.375  -4.212  0.00  0.00    -0.058 A 
ATOM     44  C   LIG d   1       3.124   0.061  -3.060  0.00  0.00    -0.061 A 
ATOM     45  H   LIG d   1       3.183  -0.887  -4.976  0.00  0.00     0.062 H 
ATOM     46  C   LIG d   1       3.851   0.716  -2.083  0.00  0.00    -0.062 A 
ATOM     47  H   LIG d   1       2.067  -0.111  -2.923  0.00  0.00     0.062 H 
ATOM     48  C   LIG d   1       5.205   0.935  -2.259  0.00  0.00    -0.061 A 
ATOM     49  H   LIG d   1       3.362   1.056  -1.182  0.00  0.00     0.062 H 
ATOM     50  C   LIG d   1       5.833   0.494  -3.410  0.00  0.00    -0.058 A 
ATOM     51  H   LIG d   1       5.773   1.446  -1.497  0.00  0.00     0.062 H 
ATOM     52  H   LIG d   1       6.890   0.661  -3.545  0.00  0.00     0.062 H 
ENDBRANCH  39  42
ENDBRANCH   9  39
TORSDOF 6
ENDMDL
MODEL 5
REMARK VINA RESULT:      -7.0      3.006      7.784
REMARK  6 active torsions:
REMARK  status: ('A' for Active; 'I' for Inactive)
REMARK    1  A    between atoms: C_1  and  C_2 
REMARK    2  A    between atoms: C_5  and  C_8 
REMARK    3  A    between atoms: C_15  and  C_30 
REMARK    4  A    between atoms: C_16  and  C_23 
REMARK    5  A    between atoms: C_21  and  C_22 
REMARK    6  A    between atoms: C_23  and  C_24 
ROOT
ATOM      1  C   LIG d   1       5.920  -2.548  -4.283  0.00  0.00     0.028 A 
ATOM      2  C   LIG d   1       5.222  -2.356  -3.143  0.00  0.00     0.101 A 
ATOM      3  O   LIG d   1       4.246  -1.454  -3.346  0.00  0.00    -0.462 OA
ATOM      4  C   LIG d   1       4.250  -1.008  -4.619  0.00  0.00     0.142 A 
ATOM      5  C   LIG d   1       5.300  -1.665  -5.291  0.00  0.00     0.029 A 
ATOM      6  C   LIG d   1       5.550  -1.406  -6.629  0.00  0.00    -0.039 A 
ATOM      7  C   LIG d   1       4.751  -0.486  -7.309  0.00  0.00     0.022 A 
ATOM      8  C   LIG d   1       4.988  -0.189  -8.724  0.00  0.00    -0.029 A 
ATOM      9  C   LIG d   1       4.179   0.715  -9.334  0.00  0.00     0.045 A 
ATOM     10  C   LIG d   1       3.145   1.336  -8.603  0.00  0.00     0.341 A 
ATOM     11  O   LIG d   1       2.426   2.145  -9.162  0.00  0.00    -0.245 OA
ATOM     12  O   LIG d   1       2.932   1.061  -7.307  0.00  0.00    -0.422 OA
ATOM     13  C   LIG d   1       3.700   0.172  -6.638  0.00  0.00     0.146 A 
ATOM     14  C   LIG d   1       3.459  -0.095  -5.300  0.00  0.00     0.035 A 
ATOM     15  H   LIG d   1       5.418  -2.854  -2.205  0.00  0.00     0.104 H 
ATOM     16  H   LIG d   1       6.357  -1.911  -7.140  0.00  0.00     0.063 H 
ENDROOT
BRANCH   1  17
ATOM     17  C   LIG d   1       7.074  -3.458  -4.482  0.00  0.00    -0.014 A 
ATOM     18  C   LIG d   1       6.957  -4.561  -5.325  0.00  0.00    -0.054 A 
ATOM     19  C   LIG d   1       8.034  -5.405  -5.506  0.00  0.00    -0.058 A 
ATOM     20  H   LIG d   1       6.027  -4.755  -5.837  0.00  0.00     0.062 H 
ATOM     21  C   LIG d   1       9.228  -5.157  -4.851  0.00  0.00    -0.050 A 
ATOM     22  H   LIG d   1       7.946  -6.260  -6.159  0.00  0.00     0.062 H 
ATOM     23  C   LIG d   1       9.349  -4.064  -4.013  0.00  0.00    -0.058 A 
ATOM     24  C   LIG d   1       8.280  -3.210  -3.829  0.00  0.00    -0.054 A 
ATOM     25  H   LIG d   1      10.283  -3.875  -3.505  0.00  0.00     0.062 H 
ATOM     26  H   LIG d   1       8.378  -2.354  -3.178  0.00  0.00     0.062 H 
BRANCH  21  27
ATOM     27  C   LIG d   1      10.400  -6.082  -5.053  0.00  0.00    -0.040 C 
ATOM     28  H   LIG d   1      10.268  -6.974  -4.441  0.00  0.00     0.028 H 
ATOM     29  H   LIG d   1      10.462  -6.368  -6.103  0.00  0.00     0.028 H 
ATOM     30  H   LIG d   1      11.319  -5.573  -4.760  0.00  0.00     0.028 H 
ENDBRANCH  21  27
ENDBRANCH   1  17
BRANCH  14  31
ATOM     31  C   LIG d   1       2.335   0.608  -4.585  0.00  0.00    -0.033 C 
ATOM     32  H   LIG d   1       2.627   1.635  -4.368  0.00  0.00     0.028 H 
ATOM     33  H   LIG d   1       1.446   0.610  -5.216  0.00  0.00     0.028 H 
ATOM     34  H   LIG d   1       2.117   0.089  -3.651  0.00  0.00     0.028 H 
ENDBRANCH  14  31
BRANCH   8  35
ATOM     35  C   LIG d   1       6.100  -0.867  -9.482  0.00  0.00    -0.038 C 
ATOM     36  H   LIG d   1       5.692  -1.348 -10.371  0.00  0.00     0.028 H 
ATOM     37  H   LIG d   1       6.843  -0.126  -9.778  0.00  0.00     0.028 H 
ATOM     38  H   LIG d   1       6.569  -1.617  -8.846  0.00  0.00     0.028 H 
ENDBRANCH   8  35
BRANCH   9  39
ATOM     39  C   LIG d   1       4.383   1.052 -10.788  0.00  0.00     0.005 C 
ATOM     40  H   LIG d   1       3.957   2.033 -10.997  0.00  0.00     0.036 H 
ATOM     41  H   LIG d   1       5.451   1.066 -11.011  0.00  0.00     0.036 H 
BRANCH  39  42
ATOM     42  C   LIG d   1       3.705   0.016 -11.645  0.00  0.00    -0.043 A 
ATOM     43  C   LIG d   1       2.471  -0.487 -11.277  0.00  0.00    -0.058 A 
ATOM     44  C   LIG d   1       1.848  -1.438 -12.063  0.00  0.00    -0.061 A 
ATOM     45  H   LIG d   1       1.993  -0.134 -10.374  0.00  0.00     0.062 H 
ATOM     46  C   LIG d   1       2.461  -1.888 -13.219  0.00  0.00    -0.062 A 
ATOM     47  H   LIG d   1       0.884  -1.829 -11.775  0.00  0.00     0.062 H 
ATOM     48  C   LIG d   1       3.695  -1.386 -13.587  0.00  0.00    -0.061 A 
ATOM     49  H   LIG d   1       1.974  -2.631 -13.833  0.00  0.00     0.062 H 
ATOM     50  C   LIG d   1       4.315  -0.430 -12.804  0.00  0.00    -0.058 A 
ATOM     51  H   LIG d   1       4.172  -1.736 -14.490  0.00  0.00     0.062 H 
ATOM     52  H   LIG d   1       5.276  -0.035 -13.094  0.00  0.00     0.062 H 
ENDBRANCH  39  42
ENDBRANCH   9  39
TORSDOF 6
ENDMDL
MODEL 6
REMARK VINA RESULT:      -6.7      5.623      7.714
REMARK  6 active torsions:
REMARK  status: ('A' for Active; 'I' for Inactive)
REMARK    1  A    between atoms: C_1  and  C_2 
REMARK    2  A    between atoms: C_5  and  C_8 
REMARK    3  A    between atoms: C_15  and  C_30 
REMARK    4  A    between atoms: C_16  and  C_23 
REMARK    5  A    between atoms: C_21  and  C_22 
REMARK    6  A    between atoms: C_23  and  C_24 
ROOT
ATOM      1  C   LIG d   1       7.214  -9.935  -4.871  0.00  0.00     0.028 A 
ATOM      2  C   LIG d   1       8.399 -10.429  -4.451  0.00  0.00     0.101 A 
ATOM      3  O   LIG d   1       9.250  -9.423  -4.184  0.00  0.00    -0.462 OA
ATOM      4  C   LIG d   1       8.674  -8.224  -4.412  0.00  0.00     0.142 A 
ATOM      5  C   LIG d   1       7.360  -8.467  -4.858  0.00  0.00     0.029 A 
ATOM      6  C   LIG d   1       6.518  -7.412  -5.173  0.00  0.00    -0.039 A 
ATOM      7  C   LIG d   1       6.984  -6.103  -5.047  0.00  0.00     0.022 A 
ATOM      8  C   LIG d   1       6.120  -4.964  -5.372  0.00  0.00    -0.029 A 
ATOM      9  C   LIG d   1       6.627  -3.714  -5.229  0.00  0.00     0.045 A 
ATOM     10  C   LIG d   1       7.952  -3.541  -4.776  0.00  0.00     0.341 A 
ATOM     11  O   LIG d   1       8.395  -2.413  -4.653  0.00  0.00    -0.245 OA
ATOM     12  O   LIG d   1       8.739  -4.586  -4.480  0.00  0.00    -0.422 OA
ATOM     13  C   LIG d   1       8.299  -5.859  -4.600  0.00  0.00     0.146 A 
ATOM     14  C   LIG d   1       9.132  -6.920  -4.287  0.00  0.00     0.035 A 
ATOM     15  H   LIG d   1       8.631 -11.479  -4.345  0.00  0.00     0.104 H 
ATOM     16  H   LIG d   1       5.512  -7.602  -5.516  0.00  0.00     0.063 H 
ENDROOT
BRANCH   1  17
ATOM     17  C   LIG d   1       6.013 -10.710  -5.266  0.00  0.00    -0.014 A 
ATOM     18  C   LIG d   1       5.995 -11.406  -6.473  0.00  0.00    -0.054 A 
ATOM     19  C   LIG d   1       4.875 -12.126  -6.834  0.00  0.00    -0.058 A 
ATOM     20  H   LIG d   1       6.856 -11.383  -7.123  0.00  0.00     0.062 H 
ATOM     21  C   LIG d   1       3.770 -12.157  -6.001  0.00  0.00    -0.050 A 
ATOM     22  H   LIG d   1       4.859 -12.666  -7.769  0.00  0.00     0.062 H 
ATOM     23  C   LIG d   1       3.783 -11.469  -4.802  0.00  0.00    -0.058 A 
ATOM     24  C   LIG d   1       4.900 -10.749  -4.427  0.00  0.00    -0.054 A 
ATOM     25  H   LIG d   1       2.919 -11.496  -4.155  0.00  0.00     0.062 H 
ATOM     26  H   LIG d   1       4.910 -10.216  -3.489  0.00  0.00     0.062 H 
BRANCH  21  27
ATOM     27  C   LIG d   1       2.550 -12.945  -6.402  0.00  0.00    -0.040 C 
ATOM     28  H   LIG d   1       2.809 -13.630  -7.208  0.00  0.00     0.028 H 
ATOM     29  H   LIG d   1       2.187 -13.513  -5.545  0.00  0.00     0.028 H 
ATOM     30  H   LIG d   1       1.772 -12.262  -6.740  0.00  0.00     0.028 H 
ENDBRANCH  21  27
ENDBRANCH   1  17
BRANCH  14  31
ATOM     31  C   LIG d   1      10.536  -6.658  -3.810  0.00  0.00    -0.033 C 
ATOM     32  H   LIG d   1      10.888  -5.710  -4.217  0.00  0.00     0.028 H 
ATOM     33  H   LIG d   1      10.548  -6.611  -2.721  0.00  0.00     0.028 H 
ATOM     34  H   LIG d   1      11.191  -7.462  -4.146  0.00  0.00     0.028 H 
ENDBRANCH  14  31
BRANCH   8  35
ATOM     35  C   LIG d   1       4.708  -5.177  -5.852  0.00  0.00    -0.038 C 
ATOM     36  H   LIG d   1       4.036  -4.509  -5.313  0.00  0.00     0.028 H 
ATOM     37  H   LIG d   1       4.651  -4.964  -6.920  0.00  0.00     0.028 H 
ATOM     38  H   LIG d   1       4.414  -6.211  -5.673  0.00  0.00     0.028 H 
ENDBRANCH   8  35
BRANCH   9  39
ATOM     39  C   LIG d   1       5.777  -2.512  -5.550  0.00  0.00     0.005 C 
ATOM     40  H   LIG d   1       6.372  -1.780  -6.096  0.00  0.00     0.036 H 
ATOM     41  H   LIG d   1       4.929  -2.820  -6.164  0.00  0.00     0.036 H 
BRANCH  39  42
ATOM     42  C   LIG d   1       5.272  -1.896  -4.271  0.00  0.00    -0.043 A 
ATOM     43  C   LIG d   1       4.393  -2.595  -3.466  0.00  0.00    -0.058 A 
ATOM     44  C   LIG d   1       3.930  -2.030  -2.293  0.00  0.00    -0.061 A 
ATOM     45  H   LIG d   1       4.068  -3.585  -3.754  0.00  0.00     0.062 H 
ATOM     46  C   LIG d   1       4.346  -0.763  -1.924  0.00  0.00    -0.062 A 
ATOM     47  H   LIG d   1       3.244  -2.577  -1.664  0.00  0.00     0.062 H 
ATOM     48  C   LIG d   1       5.225  -0.063  -2.729  0.00  0.00    -0.061 A 
ATOM     49  H   LIG d   1       3.985  -0.321  -1.008  0.00  0.00     0.062 H 
ATOM     50  C   LIG d   1       5.693  -0.631  -3.900  0.00  0.00    -0.058 A 
ATOM     51  H   LIG d   1       5.551   0.925  -2.442  0.00  0.00     0.062 H 
ATOM     52  H   LIG d   1       6.383  -0.087  -4.526  0.00  0.00     0.062 H 
ENDBRANCH  39  42
ENDBRANCH   9  39
TORSDOF 6
ENDMDL
MODEL 7
REMARK VINA RESULT:      -6.7      5.290      9.116
REMARK  6 active torsions:
REMARK  status: ('A' for Active; 'I' for Inactive)
REMARK    1  A    between atoms: C_1  and  C_2 
REMARK    2  A    between atoms: C_5  and  C_8 
REMARK    3  A    between atoms: C_15  and  C_30 
REMARK    4  A    between atoms: C_16  and  C_23 
REMARK    5  A    between atoms: C_21  and  C_22 
REMARK    6  A    between atoms: C_23  and  C_24 
ROOT
ATOM      1  C   LIG d   1       6.987   1.129  -3.859  0.00  0.00     0.028 A 
ATOM      2  C   LIG d   1       6.080   1.694  -3.033  0.00  0.00     0.101 A 
ATOM      3  O   LIG d   1       5.093   0.823  -2.765  0.00  0.00    -0.462 OA
ATOM      4  C   LIG d   1       5.296  -0.353  -3.395  0.00  0.00     0.142 A 
ATOM      5  C   LIG d   1       6.497  -0.238  -4.122  0.00  0.00     0.029 A 
ATOM      6  C   LIG d   1       6.967  -1.301  -4.877  0.00  0.00    -0.039 A 
ATOM      7  C   LIG d   1       6.238  -2.491  -4.912  0.00  0.00     0.022 A 
ATOM      8  C   LIG d   1       6.707  -3.635  -5.700  0.00  0.00    -0.029 A 
ATOM      9  C   LIG d   1       5.957  -4.766  -5.696  0.00  0.00     0.045 A 
ATOM     10  C   LIG d   1       4.764  -4.814  -4.945  0.00  0.00     0.341 A 
ATOM     11  O   LIG d   1       4.100  -5.835  -4.950  0.00  0.00    -0.245 OA
ATOM     12  O   LIG d   1       4.339  -3.764  -4.225  0.00  0.00    -0.422 OA
ATOM     13  C   LIG d   1       5.036  -2.607  -4.185  0.00  0.00     0.146 A 
ATOM     14  C   LIG d   1       4.576  -1.538  -3.434  0.00  0.00     0.035 A 
ATOM     15  H   LIG d   1       6.139   2.701  -2.644  0.00  0.00     0.104 H 
ATOM     16  H   LIG d   1       7.888  -1.209  -5.434  0.00  0.00     0.063 H 
ENDROOT
BRANCH   1  17
ATOM     17  C   LIG d   1       8.222   1.754  -4.392  0.00  0.00    -0.014 A 
ATOM     18  C   LIG d   1       8.363   1.966  -5.762  0.00  0.00    -0.054 A 
ATOM     19  C   LIG d   1       9.515   2.548  -6.252  0.00  0.00    -0.058 A 
ATOM     20  H   LIG d   1       7.574   1.676  -6.439  0.00  0.00     0.062 H 
ATOM     21  C   LIG d   1      10.527   2.921  -5.386  0.00  0.00    -0.050 A 
ATOM     22  H   LIG d   1       9.626   2.713  -7.314  0.00  0.00     0.062 H 
ATOM     23  C   LIG d   1      10.392   2.712  -4.026  0.00  0.00    -0.058 A 
ATOM     24  C   LIG d   1       9.243   2.136  -3.523  0.00  0.00    -0.054 A 
ATOM     25  H   LIG d   1      11.185   3.006  -3.354  0.00  0.00     0.062 H 
ATOM     26  H   LIG d   1       9.137   1.978  -2.461  0.00  0.00     0.062 H 
BRANCH  21  27
ATOM     27  C   LIG d   1      11.782   3.556  -5.928  0.00  0.00    -0.040 C 
ATOM     28  H   LIG d   1      12.450   2.780  -6.299  0.00  0.00     0.028 H 
ATOM     29  H   LIG d   1      11.524   4.234  -6.741  0.00  0.00     0.028 H 
ATOM     30  H   LIG d   1      12.278   4.113  -5.134  0.00  0.00     0.028 H 
ENDBRANCH  21  27
ENDBRANCH   1  17
BRANCH  14  31
ATOM     31  C   LIG d   1       3.292  -1.664  -2.656  0.00  0.00    -0.033 C 
ATOM     32  H   LIG d   1       3.264  -2.631  -2.154  0.00  0.00     0.028 H 
ATOM     33  H   LIG d   1       3.236  -0.868  -1.914  0.00  0.00     0.028 H 
ATOM     34  H   LIG d   1       2.444  -1.585  -3.338  0.00  0.00     0.028 H 
ENDBRANCH  14  31
BRANCH   8  35
ATOM     35  C   LIG d   1       7.986  -3.556  -6.493  0.00  0.00    -0.038 C 
ATOM     36  H   LIG d   1       7.982  -2.650  -7.098  0.00  0.00     0.028 H 
ATOM     37  H   LIG d   1       8.835  -3.534  -5.810  0.00  0.00     0.028 H 
ATOM     38  H   LIG d   1       8.065  -4.427  -7.143  0.00  0.00     0.028 H 
ENDBRANCH   8  35
BRANCH   9  39
ATOM     39  C   LIG d   1       6.398  -5.968  -6.490  0.00  0.00     0.005 C 
ATOM     40  H   LIG d   1       5.544  -6.385  -7.024  0.00  0.00     0.036 H 
ATOM     41  H   LIG d   1       7.163  -5.669  -7.206  0.00  0.00     0.036 H 
BRANCH  39  42
ATOM     42  C   LIG d   1       6.963  -7.008  -5.557  0.00  0.00    -0.043 A 
ATOM     43  C   LIG d   1       6.312  -8.217  -5.393  0.00  0.00    -0.058 A 
ATOM     44  C   LIG d   1       6.829  -9.170  -4.537  0.00  0.00    -0.061 A 
ATOM     45  H   LIG d   1       5.399  -8.415  -5.936  0.00  0.00     0.062 H 
ATOM     46  C   LIG d   1       7.999  -8.915  -3.844  0.00  0.00    -0.062 A 
ATOM     47  H   LIG d   1       6.321 -10.114  -4.410  0.00  0.00     0.062 H 
ATOM     48  C   LIG d   1       8.649  -7.706  -4.007  0.00  0.00    -0.061 A 
ATOM     49  H   LIG d   1       8.403  -9.660  -3.175  0.00  0.00     0.062 H 
ATOM     50  C   LIG d   1       8.135  -6.754  -4.868  0.00  0.00    -0.058 A 
ATOM     51  H   LIG d   1       9.562  -7.507  -3.466  0.00  0.00     0.062 H 
ATOM     52  H   LIG d   1       8.645  -5.813  -4.999  0.00  0.00     0.062 H 
ENDBRANCH  39  42
ENDBRANCH   9  39
TORSDOF 6
ENDMDL
MODEL 8
REMARK VINA RESULT:      -6.6      9.106     13.248
REMARK  6 active torsions:
REMARK  status: ('A' for Active; 'I' for Inactive)
REMARK    1  A    between atoms: C_1  and  C_2 
REMARK    2  A    between atoms: C_5  and  C_8 
REMARK    3  A    between atoms: C_15  and  C_30 
REMARK    4  A    between atoms: C_16  and  C_23 
REMARK    5  A    between atoms: C_21  and  C_22 
REMARK    6  A    between atoms: C_23  and  C_24 
ROOT
ATOM      1  C   LIG d   1      10.542  -8.699  -0.559  0.00  0.00     0.028 A 
ATOM      2  C   LIG d   1      11.394  -7.766  -1.038  0.00  0.00     0.101 A 
ATOM      3  O   LIG d   1      10.920  -7.255  -2.187  0.00  0.00    -0.462 OA
ATOM      4  C   LIG d   1       9.742  -7.819  -2.523  0.00  0.00     0.142 A 
ATOM      5  C   LIG d   1       9.428  -8.762  -1.524  0.00  0.00     0.029 A 
ATOM      6  C   LIG d   1       8.261  -9.507  -1.601  0.00  0.00    -0.039 A 
ATOM      7  C   LIG d   1       7.397  -9.315  -2.680  0.00  0.00     0.022 A 
ATOM      8  C   LIG d   1       6.155 -10.086  -2.792  0.00  0.00    -0.029 A 
ATOM      9  C   LIG d   1       5.354  -9.857  -3.863  0.00  0.00     0.045 A 
ATOM     10  C   LIG d   1       5.727  -8.897  -4.827  0.00  0.00     0.341 A 
ATOM     11  O   LIG d   1       4.999  -8.701  -5.784  0.00  0.00    -0.245 OA
ATOM     12  O   LIG d   1       6.866  -8.194  -4.720  0.00  0.00    -0.422 OA
ATOM     13  C   LIG d   1       7.711  -8.372  -3.680  0.00  0.00     0.146 A 
ATOM     14  C   LIG d   1       8.879  -7.633  -3.593  0.00  0.00     0.035 A 
ATOM     15  H   LIG d   1      12.321  -7.473  -0.566  0.00  0.00     0.104 H 
ATOM     16  H   LIG d   1       8.024 -10.229  -0.834  0.00  0.00     0.063 H 
ENDROOT
BRANCH   1  17
ATOM     17  C   LIG d   1      10.697  -9.497   0.681  0.00  0.00    -0.014 A 
ATOM     18  C   LIG d   1      10.969  -8.862   1.892  0.00  0.00    -0.054 A 
ATOM     19  C   LIG d   1      11.112  -9.610   3.043  0.00  0.00    -0.058 A 
ATOM     20  H   LIG d   1      11.068  -7.789   1.929  0.00  0.00     0.062 H 
ATOM     21  C   LIG d   1      10.985 -10.987   2.997  0.00  0.00    -0.050 A 
ATOM     22  H   LIG d   1      11.323  -9.120   3.982  0.00  0.00     0.062 H 
ATOM     23  C   LIG d   1      10.715 -11.622   1.798  0.00  0.00    -0.058 A 
ATOM     24  C   LIG d   1      10.565 -10.884   0.641  0.00  0.00    -0.054 A 
ATOM     25  H   LIG d   1      10.616 -12.697   1.767  0.00  0.00     0.062 H 
ATOM     26  H   LIG d   1      10.349 -11.381  -0.293  0.00  0.00     0.062 H 
BRANCH  21  27
ATOM     27  C   LIG d   1      11.142 -11.798   4.257  0.00  0.00    -0.040 C 
ATOM     28  H   LIG d   1      10.212 -12.326   4.467  0.00  0.00     0.028 H 
ATOM     29  H   LIG d   1      11.948 -12.521   4.126  0.00  0.00     0.028 H 
ATOM     30  H   LIG d   1      11.380 -11.135   5.088  0.00  0.00     0.028 H 
ENDBRANCH  21  27
ENDBRANCH   1  17
BRANCH  14  31
ATOM     31  C   LIG d   1       9.212  -6.625  -4.662  0.00  0.00    -0.033 C 
ATOM     32  H   LIG d   1      10.268  -6.702  -4.918  0.00  0.00     0.028 H 
ATOM     33  H   LIG d   1       8.609  -6.822  -5.548  0.00  0.00     0.028 H 
ATOM     34  H   LIG d   1       9.000  -5.621  -4.293  0.00  0.00     0.028 H 
ENDBRANCH  14  31
BRANCH   8  35
ATOM     35  C   LIG d   1       5.779 -11.104  -1.747  0.00  0.00    -0.038 C 
ATOM     36  H   LIG d   1       5.533 -12.048  -2.233  0.00  0.00     0.028 H 
ATOM     37  H   LIG d   1       6.619 -11.254  -1.068  0.00  0.00     0.028 H 
ATOM     38  H   LIG d   1       4.916 -10.748  -1.186  0.00  0.00     0.028 H 
ENDBRANCH   8  35
BRANCH   9  39
ATOM     39  C   LIG d   1       4.066 -10.623  -4.022  0.00  0.00     0.005 C 
ATOM     40  H   LIG d   1       3.803 -11.092  -3.073  0.00  0.00     0.036 H 
ATOM     41  H   LIG d   1       3.271  -9.940  -4.322  0.00  0.00     0.036 H 
BRANCH  39  42
ATOM     42  C   LIG d   1       4.240 -11.686  -5.075  0.00  0.00    -0.043 A 
ATOM     43  C   LIG d   1       5.502 -12.165  -5.374  0.00  0.00    -0.058 A 
ATOM     44  C   LIG d   1       5.661 -13.140  -6.341  0.00  0.00    -0.061 A 
ATOM     45  H   LIG d   1       6.363 -11.778  -4.850  0.00  0.00     0.062 H 
ATOM     46  C   LIG d   1       4.557 -13.636  -7.010  0.00  0.00    -0.062 A 
ATOM     47  H   LIG d   1       6.647 -13.514  -6.573  0.00  0.00     0.062 H 
ATOM     48  C   LIG d   1       3.295 -13.157  -6.713  0.00  0.00    -0.061 A 
ATOM     49  H   LIG d   1       4.682 -14.398  -7.766  0.00  0.00     0.062 H 
ATOM     50  C   LIG d   1       3.135 -12.186  -5.741  0.00  0.00    -0.058 A 
ATOM     51  H   LIG d   1       2.434 -13.545  -7.235  0.00  0.00     0.062 H 
ATOM     52  H   LIG d   1       2.150 -11.815  -5.505  0.00  0.00     0.062 H 
ENDBRANCH  39  42
ENDBRANCH   9  39
TORSDOF 6
ENDMDL
MODEL 9
REMARK VINA RESULT:      -6.6      2.767      8.529
REMARK  6 active torsions:
REMARK  status: ('A' for Active; 'I' for Inactive)
REMARK    1  A    between atoms: C_1  and  C_2 
REMARK    2  A    between atoms: C_5  and  C_8 
REMARK    3  A    between atoms: C_15  and  C_30 
REMARK    4  A    between atoms: C_16  and  C_23 
REMARK    5  A    between atoms: C_21  and  C_22 
REMARK    6  A    between atoms: C_23  and  C_24 
ROOT
ATOM      1  C   LIG d   1       5.320  -3.514  -5.177  0.00  0.00     0.028 A 
ATOM      2  C   LIG d   1       6.031  -4.634  -4.921  0.00  0.00     0.101 A 
ATOM      3  O   LIG d   1       5.991  -5.459  -5.981  0.00  0.00    -0.462 OA
ATOM      4  C   LIG d   1       5.258  -4.930  -6.983  0.00  0.00     0.142 A 
ATOM      5  C   LIG d   1       4.789  -3.676  -6.544  0.00  0.00     0.029 A 
ATOM      6  C   LIG d   1       3.999  -2.892  -7.370  0.00  0.00    -0.039 A 
ATOM      7  C   LIG d   1       3.670  -3.356  -8.644  0.00  0.00     0.022 A 
ATOM      8  C   LIG d   1       2.837  -2.552  -9.543  0.00  0.00    -0.029 A 
ATOM      9  C   LIG d   1       2.550  -3.054 -10.771  0.00  0.00     0.045 A 
ATOM     10  C   LIG d   1       3.052  -4.317 -11.148  0.00  0.00     0.341 A 
ATOM     11  O   LIG d   1       2.786  -4.756 -12.252  0.00  0.00    -0.245 OA
ATOM     12  O   LIG d   1       3.814  -5.050 -10.321  0.00  0.00    -0.422 OA
ATOM     13  C   LIG d   1       4.138  -4.610  -9.084  0.00  0.00     0.146 A 
ATOM     14  C   LIG d   1       4.927  -5.386  -8.250  0.00  0.00     0.035 A 
ATOM     15  H   LIG d   1       6.556  -4.838  -3.998  0.00  0.00     0.104 H 
ATOM     16  H   LIG d   1       3.642  -1.931  -7.029  0.00  0.00     0.063 H 
ENDROOT
BRANCH   1  17
ATOM     17  C   LIG d   1       5.115  -2.360  -4.269  0.00  0.00    -0.014 A 
ATOM     18  C   LIG d   1       5.756  -1.148  -4.522  0.00  0.00    -0.054 A 
ATOM     19  C   LIG d   1       5.562  -0.077  -3.674  0.00  0.00    -0.058 A 
ATOM     20  H   LIG d   1       6.403  -1.048  -5.380  0.00  0.00     0.062 H 
ATOM     21  C   LIG d   1       4.731  -0.204  -2.574  0.00  0.00    -0.050 A 
ATOM     22  H   LIG d   1       6.058   0.862  -3.868  0.00  0.00     0.062 H 
ATOM     23  C   LIG d   1       4.092  -1.404  -2.319  0.00  0.00    -0.058 A 
ATOM     24  C   LIG d   1       4.275  -2.481  -3.163  0.00  0.00    -0.054 A 
ATOM     25  H   LIG d   1       3.445  -1.498  -1.459  0.00  0.00     0.062 H 
ATOM     26  H   LIG d   1       3.772  -3.415  -2.965  0.00  0.00     0.062 H 
BRANCH  21  27
ATOM     27  C   LIG d   1       4.523   0.969  -1.652  0.00  0.00    -0.040 C 
ATOM     28  H   LIG d   1       5.430   1.142  -1.074  0.00  0.00     0.028 H 
ATOM     29  H   LIG d   1       4.292   1.857  -2.240  0.00  0.00     0.028 H 
ATOM     30  H   LIG d   1       3.695   0.756  -0.975  0.00  0.00     0.028 H 
ENDBRANCH  21  27
ENDBRANCH   1  17
BRANCH  14  31
ATOM     31  C   LIG d   1       5.428  -6.726  -8.723  0.00  0.00    -0.033 C 
ATOM     32  H   LIG d   1       4.773  -7.512  -8.346  0.00  0.00     0.028 H 
ATOM     33  H   LIG d   1       5.433  -6.750  -9.812  0.00  0.00     0.028 H 
ATOM     34  H   LIG d   1       6.440  -6.888  -8.351  0.00  0.00     0.028 H 
ENDBRANCH  14  31
BRANCH   8  35
ATOM     35  C   LIG d   1       2.314  -1.205  -9.115  0.00  0.00    -0.038 C 
ATOM     36  H   LIG d   1       2.227  -1.178  -8.029  0.00  0.00     0.028 H 
ATOM     37  H   LIG d   1       3.003  -0.427  -9.444  0.00  0.00     0.028 H 
ATOM     38  H   LIG d   1       1.335  -1.035  -9.563  0.00  0.00     0.028 H 
ENDBRANCH   8  35
BRANCH   9  39
ATOM     39  C   LIG d   1       1.698  -2.263 -11.730  0.00  0.00     0.005 C 
ATOM     40  H   LIG d   1       0.930  -2.911 -12.153  0.00  0.00     0.036 H 
ATOM     41  H   LIG d   1       1.223  -1.438 -11.199  0.00  0.00     0.036 H 
BRANCH  39  42
ATOM     42  C   LIG d   1       2.561  -1.718 -12.838  0.00  0.00    -0.043 A 
ATOM     43  C   LIG d   1       2.286  -2.042 -14.153  0.00  0.00    -0.058 A 
ATOM     44  C   LIG d   1       3.078  -1.542 -15.169  0.00  0.00    -0.061 A 
ATOM     45  H   LIG d   1       1.451  -2.687 -14.386  0.00  0.00     0.062 H 
ATOM     46  C   LIG d   1       4.147  -0.717 -14.870  0.00  0.00    -0.062 A 
ATOM     47  H   LIG d   1       2.862  -1.796 -16.196  0.00  0.00     0.062 H 
ATOM     48  C   LIG d   1       4.423  -0.392 -13.555  0.00  0.00    -0.061 A 
ATOM     49  H   LIG d   1       4.766  -0.326 -15.664  0.00  0.00     0.062 H 
ATOM     50  C   LIG d   1       3.627  -0.888 -12.539  0.00  0.00    -0.058 A 
ATOM     51  H   LIG d   1       5.256   0.253 -13.321  0.00  0.00     0.062 H 
ATOM     52  H   LIG d   1       3.839  -0.631 -11.512  0.00  0.00     0.062 H 
ENDBRANCH  39  42
ENDBRANCH   9  39
TORSDOF 6
ENDMDL
