MODEL 1
REMARK VINA RESULT:      -6.0      0.000      0.000
REMARK  7 active torsions:
REMARK  status: ('A' for Active; 'I' for Inactive)
REMARK    1  A    between atoms: C_1  and  C_2 
REMARK    2  A    between atoms: C_2  and  C_4 
REMARK    3  A    between atoms: C_10  and  C_31 
REMARK    4  A    between atoms: C_20  and  C_30 
REMARK    5  A    between atoms: C_23  and  O_26 
REMARK    6  A    between atoms: O_26  and  C_27 
REMARK    7  A    between atoms: C_27  and  C_29 
ROOT
ATOM      1  C   LIG d   1       3.690  -1.494  -3.862  0.00  0.00     0.023 C 
ATOM      2  H   LIG d   1       3.280  -2.398  -3.987  0.00  0.00     0.038 H 
ATOM      3  C   LIG d   1       2.617  -0.429  -3.524  0.00  0.00    -0.043 C 
ATOM      4  C   LIG d   1       2.418   0.417  -4.811  0.00  0.00    -0.049 C 
ATOM      5  C   LIG d   1       3.089  -0.434  -5.899  0.00  0.00    -0.032 C 
ATOM      6  H   LIG d   1       2.415  -1.271  -6.155  0.00  0.00     0.031 H 
ATOM      7  C   LIG d   1       4.331  -0.970  -5.166  0.00  0.00    -0.019 C 
ATOM      8  C   LIG d   1       5.034  -2.031  -5.976  0.00  0.00    -0.046 C 
ATOM      9  C   LIG d   1       4.759  -1.805  -7.475  0.00  0.00    -0.049 C 
ATOM     10  C   LIG d   1       4.706  -0.311  -7.757  0.00  0.00    -0.029 C 
ATOM     11  H   LIG d   1       5.555   0.129  -7.198  0.00  0.00     0.031 H 
ATOM     12  C   LIG d   1       3.441   0.309  -7.178  0.00  0.00    -0.031 C 
ATOM     13  H   LIG d   1       3.576   1.370  -6.979  0.00  0.00     0.031 H 
ATOM     14  C   LIG d   1       2.258   0.091  -8.132  0.00  0.00    -0.031 C 
ATOM     15  C   LIG d   1       2.603   0.458  -9.539  0.00  0.00    -0.084 C 
ATOM     16  C   LIG d   1       3.812   0.419 -10.010  0.00  0.00    -0.064 C 
ATOM     17  C   LIG d   1       5.010   0.066  -9.184  0.00  0.00    -0.008 C 
ATOM     18  C   LIG d   1       5.821  -1.018  -9.892  0.00  0.00    -0.040 C 
ATOM     19  C   LIG d   1       6.119  -0.621 -11.336  0.00  0.00    -0.015 C 
ATOM     20  C   LIG d   1       4.827  -0.380 -12.113  0.00  0.00     0.107 C 
ATOM     21  H   LIG d   1       5.067  -0.118 -13.145  0.00  0.00     0.074 H 
ATOM     22  C   LIG d   1       4.035   0.764 -11.472  0.00  0.00     0.006 C 
ATOM     23  H   LIG d   1       2.967   0.205  -2.709  0.00  0.00     0.027 H 
ATOM     24  H   LIG d   1       1.681  -0.913  -3.245  0.00  0.00     0.027 H 
ATOM     25  H   LIG d   1       2.897   1.390  -4.716  0.00  0.00     0.027 H 
ATOM     26  H   LIG d   1       1.355   0.546  -5.024  0.00  0.00     0.027 H 
ATOM     27  H   LIG d   1       6.113  -1.986  -5.793  0.00  0.00     0.027 H 
ATOM     28  H   LIG d   1       4.674  -3.023  -5.681  0.00  0.00     0.027 H 
ATOM     29  H   LIG d   1       5.561  -2.266  -8.056  0.00  0.00     0.027 H 
ATOM     30  H   LIG d   1       3.810  -2.269  -7.746  0.00  0.00     0.027 H 
ATOM     31  H   LIG d   1       1.964  -0.962  -8.095  0.00  0.00     0.031 H 
ATOM     32  H   LIG d   1       1.417   0.700  -7.793  0.00  0.00     0.031 H 
ATOM     33  H   LIG d   1       1.807   0.772 -10.200  0.00  0.00     0.057 H 
ATOM     34  H   LIG d   1       5.259  -1.954  -9.887  0.00  0.00     0.028 H 
ATOM     35  H   LIG d   1       6.763  -1.169  -9.358  0.00  0.00     0.028 H 
ATOM     36  H   LIG d   1       6.669  -1.439 -11.818  0.00  0.00     0.030 H 
ATOM     37  H   LIG d   1       6.742   0.269 -11.368  0.00  0.00     0.030 H 
ATOM     38  H   LIG d   1       3.071   0.866 -11.974  0.00  0.00     0.035 H 
ATOM     39  H   LIG d   1       4.586   1.696 -11.563  0.00  0.00     0.035 H 
ENDROOT
BRANCH  20  40
ATOM     40  O   LIG d   1       4.021  -1.589 -12.107  0.00  0.00    -0.461 OA
BRANCH  40  41
ATOM     41  C   LIG d   1       2.960  -1.618 -12.930  0.00  0.00     0.304 C 
ATOM     42  O   LIG d   1       3.116  -1.492 -14.121  0.00  0.00    -0.251 OA
BRANCH  41  43
ATOM     43  C   LIG d   1       1.575  -1.807 -12.366  0.00  0.00     0.033 C 
ATOM     44  H   LIG d   1       1.646  -2.064 -11.309  0.00  0.00     0.034 H 
ATOM     45  H   LIG d   1       1.008  -0.884 -12.479  0.00  0.00     0.034 H 
ATOM     46  H   LIG d   1       1.073  -2.612 -12.902  0.00  0.00     0.034 H 
ENDBRANCH  41  43
ENDBRANCH  40  41
ENDBRANCH  20  40
BRANCH  17  47
ATOM     47  C   LIG d   1       5.895   1.324  -9.114  0.00  0.00    -0.056 C 
ATOM     48  H   LIG d   1       6.370   1.487 -10.081  0.00  0.00     0.024 H 
ATOM     49  H   LIG d   1       5.280   2.187  -8.861  0.00  0.00     0.024 H 
ATOM     50  H   LIG d   1       6.661   1.187  -8.351  0.00  0.00     0.024 H 
ENDBRANCH  17  47
BRANCH   7  51
ATOM     51  C   LIG d   1       5.296   0.147  -4.762  0.00  0.00    -0.059 C 
ATOM     52  H   LIG d   1       5.554   0.739  -5.640  0.00  0.00     0.024 H 
ATOM     53  H   LIG d   1       4.822   0.786  -4.019  0.00  0.00     0.024 H 
ATOM     54  H   LIG d   1       6.201  -0.291  -4.340  0.00  0.00     0.024 H 
ENDBRANCH   7  51
BRANCH   1  55
ATOM     55  C   LIG d   1       4.729  -1.561  -2.779  0.00  0.00     0.134 C 
ATOM     56  O   LIG d   1       5.674  -2.305  -2.894  0.00  0.00    -0.297 OA
BRANCH  55  57
ATOM     57  C   LIG d   1       4.596  -0.699  -1.551  0.00  0.00    -0.006 C 
ATOM     58  H   LIG d   1       4.641   0.265  -1.814  0.00  0.00     0.031 H 
ATOM     59  H   LIG d   1       3.639  -0.899  -1.068  0.00  0.00     0.031 H 
ATOM     60  H   LIG d   1       5.407  -0.925  -0.859  0.00  0.00     0.031 H 
ENDBRANCH  55  57
ENDBRANCH   1  55
TORSDOF 7
ENDMDL
MODEL 2
REMARK VINA RESULT:      -5.7      3.518      5.005
REMARK  7 active torsions:
REMARK  status: ('A' for Active; 'I' for Inactive)
REMARK    1  A    between atoms: C_1  and  C_2 
REMARK    2  A    between atoms: C_2  and  C_4 
REMARK    3  A    between atoms: C_10  and  C_31 
REMARK    4  A    between atoms: C_20  and  C_30 
REMARK    5  A    between atoms: C_23  and  O_26 
REMARK    6  A    between atoms: O_26  and  C_27 
REMARK    7  A    between atoms: C_27  and  C_29 
ROOT
ATOM      1  C   LIG d   1       5.440  -0.504  -2.780  0.00  0.00     0.023 C 
ATOM      2  H   LIG d   1       6.383  -0.671  -2.489  0.00  0.00     0.038 H 
ATOM      3  C   LIG d   1       4.433  -1.312  -1.923  0.00  0.00    -0.043 C 
ATOM      4  C   LIG d   1       3.945  -2.488  -2.812  0.00  0.00    -0.049 C 
ATOM      5  C   LIG d   1       4.965  -2.508  -3.960  0.00  0.00    -0.032 C 
ATOM      6  H   LIG d   1       5.899  -2.966  -3.592  0.00  0.00     0.031 H 
ATOM      7  C   LIG d   1       5.187  -1.008  -4.218  0.00  0.00    -0.019 C 
ATOM      8  C   LIG d   1       6.339  -0.775  -5.164  0.00  0.00    -0.046 C 
ATOM      9  C   LIG d   1       6.508  -1.999  -6.085  0.00  0.00    -0.049 C 
ATOM     10  C   LIG d   1       5.138  -2.569  -6.420  0.00  0.00    -0.029 C 
ATOM     11  H   LIG d   1       4.497  -1.694  -6.645  0.00  0.00     0.031 H 
ATOM     12  C   LIG d   1       4.521  -3.255  -5.209  0.00  0.00    -0.031 C 
ATOM     13  H   LIG d   1       3.435  -3.276  -5.275  0.00  0.00     0.031 H 
ATOM     14  C   LIG d   1       5.075  -4.680  -5.067  0.00  0.00    -0.031 C 
ATOM     15  C   LIG d   1       5.026  -5.428  -6.359  0.00  0.00    -0.084 C 
ATOM     16  C   LIG d   1       5.061  -4.848  -7.519  0.00  0.00    -0.064 C 
ATOM     17  C   LIG d   1       5.088  -3.362  -7.700  0.00  0.00    -0.008 C 
ATOM     18  C   LIG d   1       6.228  -2.979  -8.644  0.00  0.00    -0.040 C 
ATOM     19  C   LIG d   1       6.163  -3.792  -9.935  0.00  0.00    -0.015 C 
ATOM     20  C   LIG d   1       6.242  -5.288  -9.641  0.00  0.00     0.107 C 
ATOM     21  H   LIG d   1       6.214  -5.844 -10.580  0.00  0.00     0.074 H 
ATOM     22  C   LIG d   1       5.059  -5.714  -8.767  0.00  0.00     0.006 C 
ATOM     23  H   LIG d   1       3.591  -0.678  -1.645  0.00  0.00     0.027 H 
ATOM     24  H   LIG d   1       4.923  -1.696  -1.029  0.00  0.00     0.027 H 
ATOM     25  H   LIG d   1       2.936  -2.306  -3.180  0.00  0.00     0.027 H 
ATOM     26  H   LIG d   1       3.974  -3.426  -2.255  0.00  0.00     0.027 H 
ATOM     27  H   LIG d   1       6.148   0.115  -5.773  0.00  0.00     0.027 H 
ATOM     28  H   LIG d   1       7.260  -0.613  -4.594  0.00  0.00     0.027 H 
ATOM     29  H   LIG d   1       7.016  -1.686  -6.999  0.00  0.00     0.027 H 
ATOM     30  H   LIG d   1       7.112  -2.754  -5.581  0.00  0.00     0.027 H 
ATOM     31  H   LIG d   1       6.111  -4.623  -4.720  0.00  0.00     0.031 H 
ATOM     32  H   LIG d   1       4.486  -5.212  -4.315  0.00  0.00     0.031 H 
ATOM     33  H   LIG d   1       4.959  -6.506  -6.329  0.00  0.00     0.057 H 
ATOM     34  H   LIG d   1       7.184  -3.165  -8.152  0.00  0.00     0.028 H 
ATOM     35  H   LIG d   1       6.154  -1.915  -8.883  0.00  0.00     0.028 H 
ATOM     36  H   LIG d   1       7.017  -3.515 -10.566  0.00  0.00     0.030 H 
ATOM     37  H   LIG d   1       5.252  -3.569 -10.483  0.00  0.00     0.030 H 
ATOM     38  H   LIG d   1       5.174  -6.762  -8.483  0.00  0.00     0.035 H 
ATOM     39  H   LIG d   1       4.128  -5.591  -9.313  0.00  0.00     0.035 H 
ENDROOT
BRANCH  20  40
ATOM     40  O   LIG d   1       7.486  -5.586  -8.952  0.00  0.00    -0.461 OA
BRANCH  40  41
ATOM     41  C   LIG d   1       7.818  -6.881  -8.827  0.00  0.00     0.304 C 
ATOM     42  O   LIG d   1       7.913  -7.578  -9.809  0.00  0.00    -0.251 OA
BRANCH  41  43
ATOM     43  C   LIG d   1       8.071  -7.465  -7.461  0.00  0.00     0.033 C 
ATOM     44  H   LIG d   1       7.138  -7.488  -6.897  0.00  0.00     0.034 H 
ATOM     45  H   LIG d   1       8.457  -8.479  -7.565  0.00  0.00     0.034 H 
ATOM     46  H   LIG d   1       8.799  -6.850  -6.933  0.00  0.00     0.034 H 
ENDBRANCH  41  43
ENDBRANCH  40  41
ENDBRANCH  20  40
BRANCH  17  47
ATOM     47  C   LIG d   1       3.772  -2.968  -8.395  0.00  0.00    -0.056 C 
ATOM     48  H   LIG d   1       3.554  -3.682  -9.190  0.00  0.00     0.024 H 
ATOM     49  H   LIG d   1       2.960  -2.977  -7.667  0.00  0.00     0.024 H 
ATOM     50  H   LIG d   1       3.869  -1.970  -8.820  0.00  0.00     0.024 H 
ENDBRANCH  17  47
BRANCH   7  51
ATOM     51  C   LIG d   1       3.918  -0.307  -4.711  0.00  0.00    -0.059 C 
ATOM     52  H   LIG d   1       3.319   0.005  -3.855  0.00  0.00     0.024 H 
ATOM     53  H   LIG d   1       4.192   0.567  -5.301  0.00  0.00     0.024 H 
ATOM     54  H   LIG d   1       3.340  -0.995  -5.327  0.00  0.00     0.024 H 
ENDBRANCH   7  51
BRANCH   1  55
ATOM     55  C   LIG d   1       5.144   0.967  -2.699  0.00  0.00     0.134 C 
ATOM     56  O   LIG d   1       5.968   1.770  -3.070  0.00  0.00    -0.297 OA
BRANCH  55  57
ATOM     57  C   LIG d   1       3.821   1.441  -2.159  0.00  0.00    -0.006 C 
ATOM     58  H   LIG d   1       3.431   0.737  -1.566  0.00  0.00     0.031 H 
ATOM     59  H   LIG d   1       3.967   2.357  -1.587  0.00  0.00     0.031 H 
ATOM     60  H   LIG d   1       3.139   1.635  -2.987  0.00  0.00     0.031 H 
ENDBRANCH  55  57
ENDBRANCH   1  55
TORSDOF 7
ENDMDL
MODEL 3
REMARK VINA RESULT:      -5.6      4.448      7.676
REMARK  7 active torsions:
REMARK  status: ('A' for Active; 'I' for Inactive)
REMARK    1  A    between atoms: C_1  and  C_2 
REMARK    2  A    between atoms: C_2  and  C_4 
REMARK    3  A    between atoms: C_10  and  C_31 
REMARK    4  A    between atoms: C_20  and  C_30 
REMARK    5  A    between atoms: C_23  and  O_26 
REMARK    6  A    between atoms: O_26  and  C_27 
REMARK    7  A    between atoms: C_27  and  C_29 
ROOT
ATOM      1  C   LIG d   1      11.105  -4.718  -4.436  0.00  0.00     0.023 C 
ATOM      2  H   LIG d   1      11.580  -3.982  -3.952  0.00  0.00     0.038 H 
ATOM      3  C   LIG d   1      11.490  -4.748  -5.936  0.00  0.00    -0.043 C 
ATOM      4  C   LIG d   1      10.278  -4.165  -6.712  0.00  0.00    -0.049 C 
ATOM      5  C   LIG d   1       9.444  -3.495  -5.610  0.00  0.00    -0.032 C 
ATOM      6  H   LIG d   1       9.928  -2.541  -5.335  0.00  0.00     0.031 H 
ATOM      7  C   LIG d   1       9.576  -4.499  -4.452  0.00  0.00    -0.019 C 
ATOM      8  C   LIG d   1       9.020  -3.936  -3.168  0.00  0.00    -0.046 C 
ATOM      9  C   LIG d   1       7.932  -2.893  -3.487  0.00  0.00    -0.049 C 
ATOM     10  C   LIG d   1       7.151  -3.341  -4.714  0.00  0.00    -0.029 C 
ATOM     11  H   LIG d   1       6.965  -4.424  -4.571  0.00  0.00     0.031 H 
ATOM     12  C   LIG d   1       7.995  -3.212  -5.975  0.00  0.00    -0.031 C 
ATOM     13  H   LIG d   1       7.656  -3.895  -6.751  0.00  0.00     0.031 H 
ATOM     14  C   LIG d   1       7.964  -1.765  -6.488  0.00  0.00    -0.031 C 
ATOM     15  C   LIG d   1       6.572  -1.227  -6.553  0.00  0.00    -0.084 C 
ATOM     16  C   LIG d   1       5.608  -1.650  -5.794  0.00  0.00    -0.064 C 
ATOM     17  C   LIG d   1       5.761  -2.770  -4.812  0.00  0.00    -0.008 C 
ATOM     18  C   LIG d   1       5.236  -2.329  -3.445  0.00  0.00    -0.040 C 
ATOM     19  C   LIG d   1       3.827  -1.752  -3.562  0.00  0.00    -0.015 C 
ATOM     20  C   LIG d   1       3.805  -0.556  -4.512  0.00  0.00     0.107 C 
ATOM     21  H   LIG d   1       2.793  -0.151  -4.562  0.00  0.00     0.074 H 
ATOM     22  C   LIG d   1       4.245  -0.991  -5.913  0.00  0.00     0.006 C 
ATOM     23  H   LIG d   1      11.677  -5.775  -6.250  0.00  0.00     0.027 H 
ATOM     24  H   LIG d   1      12.375  -4.136  -6.109  0.00  0.00     0.027 H 
ATOM     25  H   LIG d   1       9.717  -4.955  -7.209  0.00  0.00     0.027 H 
ATOM     26  H   LIG d   1      10.611  -3.428  -7.445  0.00  0.00     0.027 H 
ATOM     27  H   LIG d   1       8.587  -4.741  -2.564  0.00  0.00     0.027 H 
ATOM     28  H   LIG d   1       9.823  -3.466  -2.591  0.00  0.00     0.027 H 
ATOM     29  H   LIG d   1       7.262  -2.806  -2.629  0.00  0.00     0.027 H 
ATOM     30  H   LIG d   1       8.398  -1.926  -3.675  0.00  0.00     0.027 H 
ATOM     31  H   LIG d   1       8.562  -1.140  -5.818  0.00  0.00     0.031 H 
ATOM     32  H   LIG d   1       8.413  -1.736  -7.484  0.00  0.00     0.031 H 
ATOM     33  H   LIG d   1       6.354  -0.446  -7.268  0.00  0.00     0.057 H 
ATOM     34  H   LIG d   1       5.900  -1.570  -3.029  0.00  0.00     0.028 H 
ATOM     35  H   LIG d   1       5.218  -3.190  -2.773  0.00  0.00     0.028 H 
ATOM     36  H   LIG d   1       3.503  -1.414  -2.569  0.00  0.00     0.030 H 
ATOM     37  H   LIG d   1       3.129  -2.510  -3.905  0.00  0.00     0.030 H 
ATOM     38  H   LIG d   1       4.318  -0.116  -6.560  0.00  0.00     0.035 H 
ATOM     39  H   LIG d   1       3.522  -1.687  -6.331  0.00  0.00     0.035 H 
ENDROOT
BRANCH  20  40
ATOM     40  O   LIG d   1       4.704   0.474  -4.021  0.00  0.00    -0.461 OA
BRANCH  40  41
ATOM     41  C   LIG d   1       4.235   1.281  -3.054  0.00  0.00     0.304 C 
ATOM     42  O   LIG d   1       3.543   2.228  -3.340  0.00  0.00    -0.251 OA
BRANCH  41  43
ATOM     43  C   LIG d   1       4.575   1.004  -1.612  0.00  0.00     0.033 C 
ATOM     44  H   LIG d   1       5.477   1.552  -1.340  0.00  0.00     0.034 H 
ATOM     45  H   LIG d   1       3.750   1.323  -0.977  0.00  0.00     0.034 H 
ATOM     46  H   LIG d   1       4.746  -0.064  -1.478  0.00  0.00     0.034 H 
ENDBRANCH  41  43
ENDBRANCH  40  41
ENDBRANCH  20  40
BRANCH  17  47
ATOM     47  C   LIG d   1       4.859  -3.920  -5.295  0.00  0.00    -0.056 C 
ATOM     48  H   LIG d   1       4.723  -3.844  -6.375  0.00  0.00     0.024 H 
ATOM     49  H   LIG d   1       5.327  -4.874  -5.054  0.00  0.00     0.024 H 
ATOM     50  H   LIG d   1       3.890  -3.854  -4.801  0.00  0.00     0.024 H 
ENDBRANCH  17  47
BRANCH   7  51
ATOM     51  C   LIG d   1       8.942  -5.854  -4.781  0.00  0.00    -0.059 C 
ATOM     52  H   LIG d   1       9.448  -6.637  -4.218  0.00  0.00     0.024 H 
ATOM     53  H   LIG d   1       7.887  -5.835  -4.513  0.00  0.00     0.024 H 
ATOM     54  H   LIG d   1       9.043  -6.051  -5.848  0.00  0.00     0.024 H 
ENDBRANCH   7  51
BRANCH   1  55
ATOM     55  C   LIG d   1      11.420  -6.033  -3.781  0.00  0.00     0.134 C 
ATOM     56  O   LIG d   1      11.235  -6.178  -2.596  0.00  0.00    -0.297 OA
BRANCH  55  57
ATOM     57  C   LIG d   1      11.965  -7.172  -4.603  0.00  0.00    -0.006 C 
ATOM     58  H   LIG d   1      11.539  -7.165  -5.507  0.00  0.00     0.031 H 
ATOM     59  H   LIG d   1      13.044  -7.062  -4.709  0.00  0.00     0.031 H 
ATOM     60  H   LIG d   1      11.744  -8.117  -4.105  0.00  0.00     0.031 H 
ENDBRANCH  55  57
ENDBRANCH   1  55
TORSDOF 7
ENDMDL
MODEL 4
REMARK VINA RESULT:      -5.5      4.857      7.731
REMARK  7 active torsions:
REMARK  status: ('A' for Active; 'I' for Inactive)
REMARK    1  A    between atoms: C_1  and  C_2 
REMARK    2  A    between atoms: C_2  and  C_4 
REMARK    3  A    between atoms: C_10  and  C_31 
REMARK    4  A    between atoms: C_20  and  C_30 
REMARK    5  A    between atoms: C_23  and  O_26 
REMARK    6  A    between atoms: O_26  and  C_27 
REMARK    7  A    between atoms: C_27  and  C_29 
ROOT
ATOM      1  C   LIG d   1       4.273  -0.193  -3.008  0.00  0.00     0.023 C 
ATOM      2  H   LIG d   1       4.572   0.186  -2.132  0.00  0.00     0.038 H 
ATOM      3  C   LIG d   1       3.658  -1.604  -2.834  0.00  0.00    -0.043 C 
ATOM      4  C   LIG d   1       4.718  -2.612  -3.356  0.00  0.00    -0.049 C 
ATOM      5  C   LIG d   1       5.997  -1.766  -3.439  0.00  0.00    -0.032 C 
ATOM      6  H   LIG d   1       6.396  -1.634  -2.418  0.00  0.00     0.031 H 
ATOM      7  C   LIG d   1       5.461  -0.425  -3.968  0.00  0.00    -0.019 C 
ATOM      8  C   LIG d   1       6.517   0.651  -3.913  0.00  0.00    -0.046 C 
ATOM      9  C   LIG d   1       7.916   0.010  -4.003  0.00  0.00    -0.049 C 
ATOM     10  C   LIG d   1       7.861  -1.184  -4.946  0.00  0.00    -0.029 C 
ATOM     11  H   LIG d   1       7.262  -0.850  -5.816  0.00  0.00     0.031 H 
ATOM     12  C   LIG d   1       7.099  -2.342  -4.316  0.00  0.00    -0.031 C 
ATOM     13  H   LIG d   1       6.679  -2.999  -5.075  0.00  0.00     0.031 H 
ATOM     14  C   LIG d   1       8.019  -3.132  -3.374  0.00  0.00    -0.031 C 
ATOM     15  C   LIG d   1       9.326  -3.459  -4.018  0.00  0.00    -0.084 C 
ATOM     16  C   LIG d   1       9.853  -2.745  -4.965  0.00  0.00    -0.064 C 
ATOM     17  C   LIG d   1       9.184  -1.549  -5.567  0.00  0.00    -0.008 C 
ATOM     18  C   LIG d   1      10.151  -0.365  -5.568  0.00  0.00    -0.040 C 
ATOM     19  C   LIG d   1      11.486  -0.752  -6.200  0.00  0.00    -0.015 C 
ATOM     20  C   LIG d   1      12.127  -1.917  -5.450  0.00  0.00     0.107 C 
ATOM     21  H   LIG d   1      13.087  -2.160  -5.908  0.00  0.00     0.074 H 
ATOM     22  C   LIG d   1      11.214  -3.145  -5.508  0.00  0.00     0.006 C 
ATOM     23  H   LIG d   1       2.743  -1.685  -3.420  0.00  0.00     0.027 H 
ATOM     24  H   LIG d   1       3.447  -1.794  -1.782  0.00  0.00     0.027 H 
ATOM     25  H   LIG d   1       4.436  -3.002  -4.333  0.00  0.00     0.027 H 
ATOM     26  H   LIG d   1       4.845  -3.434  -2.650  0.00  0.00     0.027 H 
ATOM     27  H   LIG d   1       6.382   1.350  -4.745  0.00  0.00     0.027 H 
ATOM     28  H   LIG d   1       6.428   1.210  -2.974  0.00  0.00     0.027 H 
ATOM     29  H   LIG d   1       8.621   0.752  -4.382  0.00  0.00     0.027 H 
ATOM     30  H   LIG d   1       8.234  -0.312  -3.012  0.00  0.00     0.027 H 
ATOM     31  H   LIG d   1       8.198  -2.536  -2.474  0.00  0.00     0.031 H 
ATOM     32  H   LIG d   1       7.513  -4.057  -3.085  0.00  0.00     0.031 H 
ATOM     33  H   LIG d   1       9.863  -4.335  -3.680  0.00  0.00     0.057 H 
ATOM     34  H   LIG d   1      10.323  -0.035  -4.543  0.00  0.00     0.028 H 
ATOM     35  H   LIG d   1       9.709   0.459  -6.135  0.00  0.00     0.028 H 
ATOM     36  H   LIG d   1      12.162   0.111  -6.148  0.00  0.00     0.030 H 
ATOM     37  H   LIG d   1      11.354  -1.014  -7.247  0.00  0.00     0.030 H 
ATOM     38  H   LIG d   1      11.633  -3.941  -4.890  0.00  0.00     0.035 H 
ATOM     39  H   LIG d   1      11.126  -3.496  -6.533  0.00  0.00     0.035 H 
ENDROOT
BRANCH  20  40
ATOM     40  O   LIG d   1      12.346  -1.542  -4.063  0.00  0.00    -0.461 OA
BRANCH  40  41
ATOM     41  C   LIG d   1      13.454  -0.833  -3.792  0.00  0.00     0.304 C 
ATOM     42  O   LIG d   1      13.364   0.323  -3.455  0.00  0.00    -0.251 OA
BRANCH  41  43
ATOM     43  C   LIG d   1      14.810  -1.481  -3.909  0.00  0.00     0.033 C 
ATOM     44  H   LIG d   1      15.155  -1.417  -4.941  0.00  0.00     0.034 H 
ATOM     45  H   LIG d   1      15.516  -0.967  -3.258  0.00  0.00     0.034 H 
ATOM     46  H   LIG d   1      14.738  -2.528  -3.615  0.00  0.00     0.034 H 
ENDBRANCH  41  43
ENDBRANCH  40  41
ENDBRANCH  20  40
BRANCH  17  47
ATOM     47  C   LIG d   1       8.884  -1.893  -7.038  0.00  0.00    -0.056 C 
ATOM     48  H   LIG d   1       8.092  -2.640  -7.081  0.00  0.00     0.024 H 
ATOM     49  H   LIG d   1       8.564  -0.993  -7.563  0.00  0.00     0.024 H 
ATOM     50  H   LIG d   1       9.783  -2.289  -7.508  0.00  0.00     0.024 H 
ENDBRANCH  17  47
BRANCH   7  51
ATOM     51  C   LIG d   1       4.871  -0.548  -5.375  0.00  0.00    -0.059 C 
ATOM     52  H   LIG d   1       4.304  -1.475  -5.452  0.00  0.00     0.024 H 
ATOM     53  H   LIG d   1       4.213   0.299  -5.568  0.00  0.00     0.024 H 
ATOM     54  H   LIG d   1       5.679  -0.554  -6.107  0.00  0.00     0.024 H 
ENDBRANCH   7  51
BRANCH   1  55
ATOM     55  C   LIG d   1       3.284   0.741  -3.646  0.00  0.00     0.134 C 
ATOM     56  O   LIG d   1       3.413   1.936  -3.521  0.00  0.00    -0.297 OA
BRANCH  55  57
ATOM     57  C   LIG d   1       2.131   0.189  -4.442  0.00  0.00    -0.006 C 
ATOM     58  H   LIG d   1       2.134  -0.810  -4.385  0.00  0.00     0.031 H 
ATOM     59  H   LIG d   1       1.193   0.573  -4.041  0.00  0.00     0.031 H 
ATOM     60  H   LIG d   1       2.231   0.492  -5.485  0.00  0.00     0.031 H 
ENDBRANCH  55  57
ENDBRANCH   1  55
TORSDOF 7
ENDMDL
MODEL 5
REMARK VINA RESULT:      -5.3      9.267     11.596
REMARK  7 active torsions:
REMARK  status: ('A' for Active; 'I' for Inactive)
REMARK    1  A    between atoms: C_1  and  C_2 
REMARK    2  A    between atoms: C_2  and  C_4 
REMARK    3  A    between atoms: C_10  and  C_31 
REMARK    4  A    between atoms: C_20  and  C_30 
REMARK    5  A    between atoms: C_23  and  O_26 
REMARK    6  A    between atoms: O_26  and  C_27 
REMARK    7  A    between atoms: C_27  and  C_29 
ROOT
ATOM      1  C   LIG d   1      10.983   9.285   0.649  0.00  0.00     0.023 C 
ATOM      2  H   LIG d   1      10.148   9.118   1.172  0.00  0.00     0.038 H 
ATOM      3  C   LIG d   1      10.799  10.453  -0.352  0.00  0.00    -0.043 C 
ATOM      4  C   LIG d   1      10.672   9.809  -1.759  0.00  0.00    -0.049 C 
ATOM      5  C   LIG d   1      10.410   8.328  -1.446  0.00  0.00    -0.032 C 
ATOM      6  H   LIG d   1       9.359   8.218  -1.127  0.00  0.00     0.031 H 
ATOM      7  C   LIG d   1      11.347   8.083  -0.251  0.00  0.00    -0.019 C 
ATOM      8  C   LIG d   1      11.090   6.739   0.384  0.00  0.00    -0.046 C 
ATOM      9  C   LIG d   1      10.511   5.772  -0.667  0.00  0.00    -0.049 C 
ATOM     10  C   LIG d   1      11.159   6.048  -2.016  0.00  0.00    -0.029 C 
ATOM     11  H   LIG d   1      12.239   6.180  -1.806  0.00  0.00     0.031 H 
ATOM     12  C   LIG d   1      10.668   7.367  -2.597  0.00  0.00    -0.031 C 
ATOM     13  H   LIG d   1      11.391   7.788  -3.291  0.00  0.00     0.031 H 
ATOM     14  C   LIG d   1       9.313   7.169  -3.292  0.00  0.00    -0.031 C 
ATOM     15  C   LIG d   1       9.327   5.993  -4.213  0.00  0.00    -0.084 C 
ATOM     16  C   LIG d   1      10.112   4.972  -4.054  0.00  0.00    -0.064 C 
ATOM     17  C   LIG d   1      11.140   4.881  -2.968  0.00  0.00    -0.008 C 
ATOM     18  C   LIG d   1      10.988   3.553  -2.227  0.00  0.00    -0.040 C 
ATOM     19  C   LIG d   1      10.970   2.381  -3.206  0.00  0.00    -0.015 C 
ATOM     20  C   LIG d   1       9.825   2.525  -4.207  0.00  0.00     0.107 C 
ATOM     21  H   LIG d   1       9.822   1.667  -4.881  0.00  0.00     0.074 H 
ATOM     22  C   LIG d   1      10.001   3.809  -5.024  0.00  0.00     0.006 C 
ATOM     23  H   LIG d   1      11.668  11.111  -0.318  0.00  0.00     0.027 H 
ATOM     24  H   LIG d   1       9.896  11.013  -0.113  0.00  0.00     0.027 H 
ATOM     25  H   LIG d   1      11.589   9.938  -2.331  0.00  0.00     0.027 H 
ATOM     26  H   LIG d   1       9.830  10.242  -2.304  0.00  0.00     0.027 H 
ATOM     27  H   LIG d   1      12.025   6.329   0.780  0.00  0.00     0.027 H 
ATOM     28  H   LIG d   1      10.382   6.849   1.213  0.00  0.00     0.027 H 
ATOM     29  H   LIG d   1      10.719   4.746  -0.356  0.00  0.00     0.027 H 
ATOM     30  H   LIG d   1       9.432   5.912  -0.736  0.00  0.00     0.027 H 
ATOM     31  H   LIG d   1       8.543   7.022  -2.529  0.00  0.00     0.031 H 
ATOM     32  H   LIG d   1       9.074   8.073  -3.859  0.00  0.00     0.031 H 
ATOM     33  H   LIG d   1       8.650   5.990  -5.056  0.00  0.00     0.057 H 
ATOM     34  H   LIG d   1      10.058   3.558  -1.658  0.00  0.00     0.028 H 
ATOM     35  H   LIG d   1      11.826   3.431  -1.535  0.00  0.00     0.028 H 
ATOM     36  H   LIG d   1      10.823   1.453  -2.640  0.00  0.00     0.030 H 
ATOM     37  H   LIG d   1      11.917   2.308  -3.735  0.00  0.00     0.030 H 
ATOM     38  H   LIG d   1       9.132   3.953  -5.667  0.00  0.00     0.035 H 
ATOM     39  H   LIG d   1      10.894   3.740  -5.639  0.00  0.00     0.035 H 
ENDROOT
BRANCH  20  40
ATOM     40  O   LIG d   1       8.559   2.573  -3.496  0.00  0.00    -0.461 OA
BRANCH  40  41
ATOM     41  C   LIG d   1       7.638   1.654  -3.829  0.00  0.00     0.304 C 
ATOM     42  O   LIG d   1       6.531   1.706  -3.350  0.00  0.00    -0.251 OA
BRANCH  41  43
ATOM     43  C   LIG d   1       7.988   0.557  -4.801  0.00  0.00     0.033 C 
ATOM     44  H   LIG d   1       9.069   0.419  -4.820  0.00  0.00     0.034 H 
ATOM     45  H   LIG d   1       7.509  -0.371  -4.489  0.00  0.00     0.034 H 
ATOM     46  H   LIG d   1       7.639   0.829  -5.797  0.00  0.00     0.034 H 
ENDBRANCH  41  43
ENDBRANCH  40  41
ENDBRANCH  20  40
BRANCH  17  47
ATOM     47  C   LIG d   1      12.518   4.866  -3.652  0.00  0.00    -0.056 C 
ATOM     48  H   LIG d   1      13.086   5.745  -3.344  0.00  0.00     0.024 H 
ATOM     49  H   LIG d   1      13.058   3.965  -3.363  0.00  0.00     0.024 H 
ATOM     50  H   LIG d   1      12.387   4.880  -4.734  0.00  0.00     0.024 H 
ENDBRANCH  17  47
BRANCH   7  51
ATOM     51  C   LIG d   1      12.823   8.245  -0.624  0.00  0.00    -0.059 C 
ATOM     52  H   LIG d   1      13.232   9.119  -0.118  0.00  0.00     0.024 H 
ATOM     53  H   LIG d   1      13.374   7.356  -0.319  0.00  0.00     0.024 H 
ATOM     54  H   LIG d   1      12.911   8.374  -1.703  0.00  0.00     0.024 H 
ENDBRANCH   7  51
BRANCH   1  55
ATOM     55  C   LIG d   1      12.117   9.570   1.593  0.00  0.00     0.134 C 
ATOM     56  O   LIG d   1      12.327   8.832   2.526  0.00  0.00    -0.297 OA
BRANCH  55  57
ATOM     57  C   LIG d   1      12.994  10.775   1.375  0.00  0.00    -0.006 C 
ATOM     58  H   LIG d   1      13.558  10.635   0.561  0.00  0.00     0.031 H 
ATOM     59  H   LIG d   1      12.372  11.660   1.238  0.00  0.00     0.031 H 
ATOM     60  H   LIG d   1      13.639  10.917   2.243  0.00  0.00     0.031 H 
ENDBRANCH  55  57
ENDBRANCH   1  55
TORSDOF 7
ENDMDL
MODEL 6
REMARK VINA RESULT:      -5.3      9.199     11.529
REMARK  7 active torsions:
REMARK  status: ('A' for Active; 'I' for Inactive)
REMARK    1  A    between atoms: C_1  and  C_2 
REMARK    2  A    between atoms: C_2  and  C_4 
REMARK    3  A    between atoms: C_10  and  C_31 
REMARK    4  A    between atoms: C_20  and  C_30 
REMARK    5  A    between atoms: C_23  and  O_26 
REMARK    6  A    between atoms: O_26  and  C_27 
REMARK    7  A    between atoms: C_27  and  C_29 
ROOT
ATOM      1  C   LIG d   1       9.771  10.716  -1.960  0.00  0.00     0.023 C 
ATOM      2  H   LIG d   1       8.814  10.686  -1.669  0.00  0.00     0.038 H 
ATOM      3  C   LIG d   1       9.918  11.391  -3.347  0.00  0.00    -0.043 C 
ATOM      4  C   LIG d   1      10.191  10.250  -4.364  0.00  0.00    -0.049 C 
ATOM      5  C   LIG d   1       9.809   8.984  -3.583  0.00  0.00    -0.032 C 
ATOM      6  H   LIG d   1       8.708   8.909  -3.553  0.00  0.00     0.031 H 
ATOM      7  C   LIG d   1      10.349   9.300  -2.177  0.00  0.00    -0.019 C 
ATOM      8  C   LIG d   1       9.883   8.282  -1.166  0.00  0.00    -0.046 C 
ATOM      9  C   LIG d   1       9.610   6.939  -1.870  0.00  0.00    -0.049 C 
ATOM     10  C   LIG d   1      10.631   6.737  -2.980  0.00  0.00    -0.029 C 
ATOM     11  H   LIG d   1      11.606   7.037  -2.547  0.00  0.00     0.031 H 
ATOM     12  C   LIG d   1      10.367   7.684  -4.144  0.00  0.00    -0.031 C 
ATOM     13  H   LIG d   1      11.273   7.872  -4.715  0.00  0.00     0.031 H 
ATOM     14  C   LIG d   1       9.269   7.113  -5.053  0.00  0.00    -0.031 C 
ATOM     15  C   LIG d   1       9.521   5.681  -5.397  0.00  0.00    -0.084 C 
ATOM     16  C   LIG d   1      10.198   4.874  -4.638  0.00  0.00    -0.064 C 
ATOM     17  C   LIG d   1      10.860   5.299  -3.364  0.00  0.00    -0.008 C 
ATOM     18  C   LIG d   1      10.463   4.346  -2.236  0.00  0.00    -0.040 C 
ATOM     19  C   LIG d   1      10.701   2.893  -2.641  0.00  0.00    -0.015 C 
ATOM     20  C   LIG d   1       9.903   2.539  -3.895  0.00  0.00     0.107 C 
ATOM     21  H   LIG d   1      10.074   1.492  -4.150  0.00  0.00     0.074 H 
ATOM     22  C   LIG d   1      10.344   3.424  -5.064  0.00  0.00     0.006 C 
ATOM     23  H   LIG d   1      10.756  12.088  -3.332  0.00  0.00     0.027 H 
ATOM     24  H   LIG d   1       9.000  11.916  -3.609  0.00  0.00     0.027 H 
ATOM     25  H   LIG d   1      11.238  10.233  -4.660  0.00  0.00     0.027 H 
ATOM     26  H   LIG d   1       9.557  10.364  -5.246  0.00  0.00     0.027 H 
ATOM     27  H   LIG d   1      10.650   8.142  -0.397  0.00  0.00     0.027 H 
ATOM     28  H   LIG d   1       8.967   8.636  -0.680  0.00  0.00     0.027 H 
ATOM     29  H   LIG d   1       9.690   6.133  -1.138  0.00  0.00     0.027 H 
ATOM     30  H   LIG d   1       8.602   6.944  -2.287  0.00  0.00     0.027 H 
ATOM     31  H   LIG d   1       8.306   7.199  -4.542  0.00  0.00     0.031 H 
ATOM     32  H   LIG d   1       9.231   7.706  -5.971  0.00  0.00     0.031 H 
ATOM     33  H   LIG d   1       9.120   5.295  -6.324  0.00  0.00     0.057 H 
ATOM     34  H   LIG d   1       9.408   4.483  -1.999  0.00  0.00     0.028 H 
ATOM     35  H   LIG d   1      11.058   4.574  -1.348  0.00  0.00     0.028 H 
ATOM     36  H   LIG d   1      10.370   2.242  -1.822  0.00  0.00     0.030 H 
ATOM     37  H   LIG d   1      11.758   2.710  -2.812  0.00  0.00     0.030 H 
ATOM     38  H   LIG d   1       9.705   3.231  -5.928  0.00  0.00     0.035 H 
ATOM     39  H   LIG d   1      11.376   3.207  -5.327  0.00  0.00     0.035 H 
ENDROOT
BRANCH  20  40
ATOM     40  O   LIG d   1       8.486   2.739  -3.643  0.00  0.00    -0.461 OA
BRANCH  40  41
ATOM     41  C   LIG d   1       7.680   1.680  -3.822  0.00  0.00     0.304 C 
ATOM     42  O   LIG d   1       6.566   1.682  -3.355  0.00  0.00    -0.251 OA
BRANCH  41  43
ATOM     43  C   LIG d   1       8.167   0.488  -4.605  0.00  0.00     0.033 C 
ATOM     44  H   LIG d   1       8.931  -0.036  -4.030  0.00  0.00     0.034 H 
ATOM     45  H   LIG d   1       7.332  -0.185  -4.799  0.00  0.00     0.034 H 
ATOM     46  H   LIG d   1       8.591   0.824  -5.551  0.00  0.00     0.034 H 
ENDBRANCH  41  43
ENDBRANCH  40  41
ENDBRANCH  20  40
BRANCH  17  47
ATOM     47  C   LIG d   1      12.378   5.149  -3.573  0.00  0.00    -0.056 C 
ATOM     48  H   LIG d   1      12.594   5.112  -4.642  0.00  0.00     0.024 H 
ATOM     49  H   LIG d   1      12.892   6.000  -3.128  0.00  0.00     0.024 H 
ATOM     50  H   LIG d   1      12.720   4.229  -3.102  0.00  0.00     0.024 H 
ENDBRANCH  17  47
BRANCH   7  51
ATOM     51  C   LIG d   1      11.873   9.440  -2.156  0.00  0.00    -0.059 C 
ATOM     52  H   LIG d   1      12.289   8.773  -1.402  0.00  0.00     0.024 H 
ATOM     53  H   LIG d   1      12.276   9.179  -3.134  0.00  0.00     0.024 H 
ATOM     54  H   LIG d   1      12.139  10.470  -1.917  0.00  0.00     0.024 H 
ENDBRANCH   7  51
BRANCH   1  55
ATOM     55  C   LIG d   1      10.586  11.442  -0.928  0.00  0.00     0.134 C 
ATOM     56  O   LIG d   1      11.431  12.234  -1.274  0.00  0.00    -0.297 OA
BRANCH  55  57
ATOM     57  C   LIG d   1      10.351  11.185   0.537  0.00  0.00    -0.006 C 
ATOM     58  H   LIG d   1       9.484  10.700   0.655  0.00  0.00     0.031 H 
ATOM     59  H   LIG d   1      11.163  10.578   0.936  0.00  0.00     0.031 H 
ATOM     60  H   LIG d   1      10.311  12.135   1.070  0.00  0.00     0.031 H 
ENDBRANCH  55  57
ENDBRANCH   1  55
TORSDOF 7
ENDMDL
MODEL 7
REMARK VINA RESULT:      -5.2      1.883      7.255
REMARK  7 active torsions:
REMARK  status: ('A' for Active; 'I' for Inactive)
REMARK    1  A    between atoms: C_1  and  C_2 
REMARK    2  A    between atoms: C_2  and  C_4 
REMARK    3  A    between atoms: C_10  and  C_31 
REMARK    4  A    between atoms: C_20  and  C_30 
REMARK    5  A    between atoms: C_23  and  O_26 
REMARK    6  A    between atoms: O_26  and  C_27 
REMARK    7  A    between atoms: C_27  and  C_29 
ROOT
ATOM      1  C   LIG d   1       2.953  -0.950 -11.992  0.00  0.00     0.023 C 
ATOM      2  H   LIG d   1       3.343  -0.064 -12.241  0.00  0.00     0.038 H 
ATOM      3  C   LIG d   1       1.438  -0.835 -11.687  0.00  0.00    -0.043 C 
ATOM      4  C   LIG d   1       1.293  -0.927 -10.143  0.00  0.00    -0.049 C 
ATOM      5  C   LIG d   1       2.727  -0.707  -9.642  0.00  0.00    -0.032 C 
ATOM      6  H   LIG d   1       2.963   0.369  -9.714  0.00  0.00     0.031 H 
ATOM      7  C   LIG d   1       3.553  -1.492 -10.675  0.00  0.00    -0.019 C 
ATOM      8  C   LIG d   1       5.030  -1.228 -10.517  0.00  0.00    -0.046 C 
ATOM      9  C   LIG d   1       5.334  -0.843  -9.057  0.00  0.00    -0.049 C 
ATOM     10  C   LIG d   1       4.434  -1.645  -8.128  0.00  0.00    -0.029 C 
ATOM     11  H   LIG d   1       4.444  -2.680  -8.524  0.00  0.00     0.031 H 
ATOM     12  C   LIG d   1       2.992  -1.164  -8.215  0.00  0.00    -0.031 C 
ATOM     13  H   LIG d   1       2.294  -1.948  -7.929  0.00  0.00     0.031 H 
ATOM     14  C   LIG d   1       2.793   0.076  -7.331  0.00  0.00    -0.031 C 
ATOM     15  C   LIG d   1       3.354  -0.121  -5.961  0.00  0.00    -0.084 C 
ATOM     16  C   LIG d   1       4.332  -0.932  -5.701  0.00  0.00    -0.064 C 
ATOM     17  C   LIG d   1       4.971  -1.813  -6.730  0.00  0.00    -0.008 C 
ATOM     18  C   LIG d   1       6.489  -1.639  -6.686  0.00  0.00    -0.040 C 
ATOM     19  C   LIG d   1       7.016  -1.811  -5.263  0.00  0.00    -0.015 C 
ATOM     20  C   LIG d   1       6.371  -0.800  -4.317  0.00  0.00     0.107 C 
ATOM     21  H   LIG d   1       6.780  -0.931  -3.313  0.00  0.00     0.074 H 
ATOM     22  C   LIG d   1       4.855  -1.011  -4.277  0.00  0.00     0.006 C 
ATOM     23  H   LIG d   1       0.901  -1.655 -12.163  0.00  0.00     0.027 H 
ATOM     24  H   LIG d   1       1.055   0.121 -12.043  0.00  0.00     0.027 H 
ATOM     25  H   LIG d   1       0.913  -1.903  -9.845  0.00  0.00     0.027 H 
ATOM     26  H   LIG d   1       0.631  -0.142  -9.774  0.00  0.00     0.027 H 
ATOM     27  H   LIG d   1       5.600  -2.124 -10.784  0.00  0.00     0.027 H 
ATOM     28  H   LIG d   1       5.334  -0.413 -11.184  0.00  0.00     0.027 H 
ATOM     29  H   LIG d   1       6.382  -1.063  -8.843  0.00  0.00     0.027 H 
ATOM     30  H   LIG d   1       5.158   0.224  -8.916  0.00  0.00     0.027 H 
ATOM     31  H   LIG d   1       3.286   0.930  -7.805  0.00  0.00     0.031 H 
ATOM     32  H   LIG d   1       1.723   0.288  -7.260  0.00  0.00     0.031 H 
ATOM     33  H   LIG d   1       2.924   0.439  -5.142  0.00  0.00     0.057 H 
ATOM     34  H   LIG d   1       6.751  -0.643  -7.046  0.00  0.00     0.028 H 
ATOM     35  H   LIG d   1       6.955  -2.384  -7.336  0.00  0.00     0.028 H 
ATOM     36  H   LIG d   1       8.100  -1.642  -5.268  0.00  0.00     0.030 H 
ATOM     37  H   LIG d   1       6.834  -2.821  -4.906  0.00  0.00     0.030 H 
ATOM     38  H   LIG d   1       4.394  -0.227  -3.676  0.00  0.00     0.035 H 
ATOM     39  H   LIG d   1       4.625  -1.980  -3.841  0.00  0.00     0.035 H 
ENDROOT
BRANCH  20  40
ATOM     40  O   LIG d   1       6.661   0.549  -4.773  0.00  0.00    -0.461 OA
BRANCH  40  41
ATOM     41  C   LIG d   1       6.989   1.452  -3.835  0.00  0.00     0.304 C 
ATOM     42  O   LIG d   1       6.174   1.790  -3.011  0.00  0.00    -0.251 OA
BRANCH  41  43
ATOM     43  C   LIG d   1       8.375   2.044  -3.812  0.00  0.00     0.033 C 
ATOM     44  H   LIG d   1       8.420   2.889  -4.499  0.00  0.00     0.034 H 
ATOM     45  H   LIG d   1       8.608   2.383  -2.803  0.00  0.00     0.034 H 
ATOM     46  H   LIG d   1       9.097   1.288  -4.119  0.00  0.00     0.034 H 
ENDBRANCH  41  43
ENDBRANCH  40  41
ENDBRANCH  20  40
BRANCH  17  47
ATOM     47  C   LIG d   1       4.668  -3.268  -6.329  0.00  0.00    -0.056 C 
ATOM     48  H   LIG d   1       3.902  -3.278  -5.553  0.00  0.00     0.024 H 
ATOM     49  H   LIG d   1       4.312  -3.819  -7.199  0.00  0.00     0.024 H 
ATOM     50  H   LIG d   1       5.576  -3.736  -5.948  0.00  0.00     0.024 H 
ENDBRANCH  17  47
BRANCH   7  51
ATOM     51  C   LIG d   1       3.254  -2.993 -10.642  0.00  0.00    -0.059 C 
ATOM     52  H   LIG d   1       2.991  -3.288  -9.626  0.00  0.00     0.024 H 
ATOM     53  H   LIG d   1       2.423  -3.213 -11.311  0.00  0.00     0.024 H 
ATOM     54  H   LIG d   1       4.137  -3.545 -10.964  0.00  0.00     0.024 H 
ENDBRANCH   7  51
BRANCH   1  55
ATOM     55  C   LIG d   1       3.196  -1.934 -13.101  0.00  0.00     0.134 C 
ATOM     56  O   LIG d   1       4.316  -2.106 -13.521  0.00  0.00    -0.297 OA
BRANCH  55  57
ATOM     57  C   LIG d   1       2.046  -2.708 -13.688  0.00  0.00    -0.006 C 
ATOM     58  H   LIG d   1       2.298  -3.043 -14.596  0.00  0.00     0.031 H 
ATOM     59  H   LIG d   1       1.808  -3.554 -13.043  0.00  0.00     0.031 H 
ATOM     60  H   LIG d   1       1.175  -2.058 -13.770  0.00  0.00     0.031 H 
ENDBRANCH  55  57
ENDBRANCH   1  55
TORSDOF 7
ENDMDL
MODEL 8
REMARK VINA RESULT:      -5.1      5.014      7.885
REMARK  7 active torsions:
REMARK  status: ('A' for Active; 'I' for Inactive)
REMARK    1  A    between atoms: C_1  and  C_2 
REMARK    2  A    between atoms: C_2  and  C_4 
REMARK    3  A    between atoms: C_10  and  C_31 
REMARK    4  A    between atoms: C_20  and  C_30 
REMARK    5  A    between atoms: C_23  and  O_26 
REMARK    6  A    between atoms: O_26  and  C_27 
REMARK    7  A    between atoms: C_27  and  C_29 
ROOT
ATOM      1  C   LIG d   1      11.361   4.284  -4.770  0.00  0.00     0.023 C 
ATOM      2  H   LIG d   1      10.767   5.068  -4.589  0.00  0.00     0.038 H 
ATOM      3  C   LIG d   1      11.816   4.248  -6.251  0.00  0.00    -0.043 C 
ATOM      4  C   LIG d   1      10.997   3.118  -6.933  0.00  0.00    -0.049 C 
ATOM      5  C   LIG d   1       9.874   2.839  -5.924  0.00  0.00    -0.032 C 
ATOM      6  H   LIG d   1       9.124   3.645  -6.002  0.00  0.00     0.031 H 
ATOM      7  C   LIG d   1      10.616   2.944  -4.581  0.00  0.00    -0.019 C 
ATOM      8  C   LIG d   1       9.655   2.932  -3.417  0.00  0.00    -0.046 C 
ATOM      9  C   LIG d   1       8.373   2.174  -3.812  0.00  0.00    -0.049 C 
ATOM     10  C   LIG d   1       8.738   1.009  -4.721  0.00  0.00    -0.029 C 
ATOM     11  H   LIG d   1       9.633   0.542  -4.264  0.00  0.00     0.031 H 
ATOM     12  C   LIG d   1       9.165   1.503  -6.097  0.00  0.00    -0.031 C 
ATOM     13  H   LIG d   1       9.817   0.786  -6.591  0.00  0.00     0.031 H 
ATOM     14  C   LIG d   1       7.931   1.790  -6.964  0.00  0.00    -0.031 C 
ATOM     15  C   LIG d   1       6.953   0.661  -6.930  0.00  0.00    -0.084 C 
ATOM     16  C   LIG d   1       6.848  -0.161  -5.932  0.00  0.00    -0.064 C 
ATOM     17  C   LIG d   1       7.736  -0.116  -4.727  0.00  0.00    -0.008 C 
ATOM     18  C   LIG d   1       6.882  -0.115  -3.459  0.00  0.00    -0.040 C 
ATOM     19  C   LIG d   1       5.873  -1.260  -3.481  0.00  0.00    -0.015 C 
ATOM     20  C   LIG d   1       4.956  -1.154  -4.698  0.00  0.00     0.107 C 
ATOM     21  H   LIG d   1       4.231  -1.971  -4.679  0.00  0.00     0.074 H 
ATOM     22  C   LIG d   1       5.780  -1.239  -5.985  0.00  0.00     0.006 C 
ATOM     23  H   LIG d   1      12.881   4.025  -6.306  0.00  0.00     0.027 H 
ATOM     24  H   LIG d   1      11.608   5.204  -6.730  0.00  0.00     0.027 H 
ATOM     25  H   LIG d   1      11.613   2.235  -7.097  0.00  0.00     0.027 H 
ATOM     26  H   LIG d   1      10.584   3.465  -7.882  0.00  0.00     0.027 H 
ATOM     27  H   LIG d   1      10.119   2.441  -2.556  0.00  0.00     0.027 H 
ATOM     28  H   LIG d   1       9.403   3.960  -3.135  0.00  0.00     0.027 H 
ATOM     29  H   LIG d   1       7.889   1.803  -2.907  0.00  0.00     0.027 H 
ATOM     30  H   LIG d   1       7.693   2.851  -4.329  0.00  0.00     0.027 H 
ATOM     31  H   LIG d   1       7.447   2.700  -6.599  0.00  0.00     0.031 H 
ATOM     32  H   LIG d   1       8.258   1.958  -7.994  0.00  0.00     0.031 H 
ATOM     33  H   LIG d   1       6.299   0.520  -7.779  0.00  0.00     0.057 H 
ATOM     34  H   LIG d   1       6.348   0.832  -3.381  0.00  0.00     0.028 H 
ATOM     35  H   LIG d   1       7.534  -0.226  -2.588  0.00  0.00     0.028 H 
ATOM     36  H   LIG d   1       5.257  -1.203  -2.574  0.00  0.00     0.030 H 
ATOM     37  H   LIG d   1       6.381  -2.221  -3.483  0.00  0.00     0.030 H 
ATOM     38  H   LIG d   1       5.131  -1.067  -6.846  0.00  0.00     0.035 H 
ATOM     39  H   LIG d   1       6.236  -2.222  -6.072  0.00  0.00     0.035 H 
ENDROOT
BRANCH  20  40
ATOM     40  O   LIG d   1       4.242   0.111  -4.662  0.00  0.00    -0.461 OA
BRANCH  40  41
ATOM     41  C   LIG d   1       3.359   0.285  -3.665  0.00  0.00     0.304 C 
ATOM     42  O   LIG d   1       2.418  -0.463  -3.554  0.00  0.00    -0.251 OA
BRANCH  41  43
ATOM     43  C   LIG d   1       3.543   1.415  -2.685  0.00  0.00     0.033 C 
ATOM     44  H   LIG d   1       4.209   1.095  -1.883  0.00  0.00     0.034 H 
ATOM     45  H   LIG d   1       3.976   2.273  -3.197  0.00  0.00     0.034 H 
ATOM     46  H   LIG d   1       2.576   1.691  -2.264  0.00  0.00     0.034 H 
ENDBRANCH  41  43
ENDBRANCH  40  41
ENDBRANCH  20  40
BRANCH  17  47
ATOM     47  C   LIG d   1       8.557  -1.418  -4.723  0.00  0.00    -0.056 C 
ATOM     48  H   LIG d   1       9.579  -1.202  -4.413  0.00  0.00     0.024 H 
ATOM     49  H   LIG d   1       8.109  -2.128  -4.027  0.00  0.00     0.024 H 
ATOM     50  H   LIG d   1       8.564  -1.846  -5.725  0.00  0.00     0.024 H 
ENDBRANCH  17  47
BRANCH   7  51
ATOM     51  C   LIG d   1      11.689   1.864  -4.421  0.00  0.00    -0.059 C 
ATOM     52  H   LIG d   1      12.366   2.140  -3.613  0.00  0.00     0.024 H 
ATOM     53  H   LIG d   1      11.214   0.912  -4.189  0.00  0.00     0.024 H 
ATOM     54  H   LIG d   1      12.251   1.772  -5.351  0.00  0.00     0.024 H 
ENDBRANCH   7  51
BRANCH   1  55
ATOM     55  C   LIG d   1      12.550   4.335  -3.852  0.00  0.00     0.134 C 
ATOM     56  O   LIG d   1      13.641   4.012  -4.259  0.00  0.00    -0.297 OA
BRANCH  55  57
ATOM     57  C   LIG d   1      12.383   4.790  -2.426  0.00  0.00    -0.006 C 
ATOM     58  H   LIG d   1      11.438   4.640  -2.137  0.00  0.00     0.031 H 
ATOM     59  H   LIG d   1      13.054   4.222  -1.781  0.00  0.00     0.031 H 
ATOM     60  H   LIG d   1      12.621   5.851  -2.354  0.00  0.00     0.031 H 
ENDBRANCH  55  57
ENDBRANCH   1  55
TORSDOF 7
ENDMDL
MODEL 9
REMARK VINA RESULT:      -5.1      9.418     13.231
REMARK  7 active torsions:
REMARK  status: ('A' for Active; 'I' for Inactive)
REMARK    1  A    between atoms: C_1  and  C_2 
REMARK    2  A    between atoms: C_2  and  C_4 
REMARK    3  A    between atoms: C_10  and  C_31 
REMARK    4  A    between atoms: C_20  and  C_30 
REMARK    5  A    between atoms: C_23  and  O_26 
REMARK    6  A    between atoms: O_26  and  C_27 
REMARK    7  A    between atoms: C_27  and  C_29 
ROOT
ATOM      1  C   LIG d   1       4.937  -9.081  -4.457  0.00  0.00     0.023 C 
ATOM      2  H   LIG d   1       4.733  -8.185  -4.062  0.00  0.00     0.038 H 
ATOM      3  C   LIG d   1       4.150 -10.207  -3.741  0.00  0.00    -0.043 C 
ATOM      4  C   LIG d   1       5.172 -10.953  -2.842  0.00  0.00    -0.049 C 
ATOM      5  C   LIG d   1       6.371  -9.994  -2.800  0.00  0.00    -0.032 C 
ATOM      6  H   LIG d   1       6.132  -9.164  -2.112  0.00  0.00     0.031 H 
ATOM      7  C   LIG d   1       6.416  -9.475  -4.248  0.00  0.00    -0.019 C 
ATOM      8  C   LIG d   1       7.386  -8.329  -4.393  0.00  0.00    -0.046 C 
ATOM      9  C   LIG d   1       8.487  -8.443  -3.320  0.00  0.00    -0.049 C 
ATOM     10  C   LIG d   1       8.818  -9.911  -3.095  0.00  0.00    -0.029 C 
ATOM     11  H   LIG d   1       8.871 -10.364  -4.105  0.00  0.00     0.031 H 
ATOM     12  C   LIG d   1       7.687 -10.620  -2.363  0.00  0.00    -0.031 C 
ATOM     13  H   LIG d   1       7.689 -11.688  -2.569  0.00  0.00     0.031 H 
ATOM     14  C   LIG d   1       7.792 -10.367  -0.852  0.00  0.00    -0.031 C 
ATOM     15  C   LIG d   1       9.176 -10.608  -0.343  0.00  0.00    -0.084 C 
ATOM     16  C   LIG d   1      10.237 -10.489  -1.080  0.00  0.00    -0.064 C 
ATOM     17  C   LIG d   1      10.196 -10.161  -2.540  0.00  0.00    -0.008 C 
ATOM     18  C   LIG d   1      11.141  -8.995  -2.832  0.00  0.00    -0.040 C 
ATOM     19  C   LIG d   1      12.532  -9.264  -2.263  0.00  0.00    -0.015 C 
ATOM     20  C   LIG d   1      12.469  -9.488  -0.754  0.00  0.00     0.107 C 
ATOM     21  H   LIG d   1      13.477  -9.657  -0.370  0.00  0.00     0.074 H 
ATOM     22  C   LIG d   1      11.597 -10.707  -0.439  0.00  0.00     0.006 C 
ATOM     23  H   LIG d   1       3.730 -10.891  -4.478  0.00  0.00     0.027 H 
ATOM     24  H   LIG d   1       3.355  -9.780  -3.131  0.00  0.00     0.027 H 
ATOM     25  H   LIG d   1       5.446 -11.913  -3.277  0.00  0.00     0.027 H 
ATOM     26  H   LIG d   1       4.764 -11.102  -1.840  0.00  0.00     0.027 H 
ATOM     27  H   LIG d   1       7.843  -8.350  -5.388  0.00  0.00     0.027 H 
ATOM     28  H   LIG d   1       6.855  -7.377  -4.276  0.00  0.00     0.027 H 
ATOM     29  H   LIG d   1       9.374  -7.909  -3.666  0.00  0.00     0.027 H 
ATOM     30  H   LIG d   1       8.138  -7.993  -2.391  0.00  0.00     0.027 H 
ATOM     31  H   LIG d   1       7.505  -9.332  -0.646  0.00  0.00     0.031 H 
ATOM     32  H   LIG d   1       7.093 -11.031  -0.336  0.00  0.00     0.031 H 
ATOM     33  H   LIG d   1       9.302 -10.895   0.692  0.00  0.00     0.057 H 
ATOM     34  H   LIG d   1      10.742  -8.084  -2.384  0.00  0.00     0.028 H 
ATOM     35  H   LIG d   1      11.215  -8.855  -3.913  0.00  0.00     0.028 H 
ATOM     36  H   LIG d   1      13.166  -8.391  -2.460  0.00  0.00     0.030 H 
ATOM     37  H   LIG d   1      12.984 -10.126  -2.746  0.00  0.00     0.030 H 
ATOM     38  H   LIG d   1      11.480 -10.802   0.642  0.00  0.00     0.035 H 
ATOM     39  H   LIG d   1      12.061 -11.608  -0.830  0.00  0.00     0.035 H 
ENDROOT
BRANCH  20  40
ATOM     40  O   LIG d   1      11.909  -8.312  -0.109  0.00  0.00    -0.461 OA
BRANCH  40  41
ATOM     41  C   LIG d   1      12.261  -8.092   1.168  0.00  0.00     0.304 C 
ATOM     42  O   LIG d   1      13.389  -7.753   1.435  0.00  0.00    -0.251 OA
BRANCH  41  43
ATOM     43  C   LIG d   1      11.247  -8.270   2.270  0.00  0.00     0.033 C 
ATOM     44  H   LIG d   1      10.294  -8.576   1.839  0.00  0.00     0.034 H 
ATOM     45  H   LIG d   1      11.595  -9.035   2.963  0.00  0.00     0.034 H 
ATOM     46  H   LIG d   1      11.119  -7.327   2.801  0.00  0.00     0.034 H 
ENDBRANCH  41  43
ENDBRANCH  40  41
ENDBRANCH  20  40
BRANCH  17  47
ATOM     47  C   LIG d   1      10.743 -11.388  -3.293  0.00  0.00    -0.056 C 
ATOM     48  H   LIG d   1       9.910 -11.995  -3.649  0.00  0.00     0.024 H 
ATOM     49  H   LIG d   1      11.341 -11.057  -4.141  0.00  0.00     0.024 H 
ATOM     50  H   LIG d   1      11.362 -11.980  -2.620  0.00  0.00     0.024 H 
ENDBRANCH  17  47
BRANCH   7  51
ATOM     51  C   LIG d   1       6.721 -10.586  -5.256  0.00  0.00    -0.059 C 
ATOM     52  H   LIG d   1       7.788 -10.595  -5.475  0.00  0.00     0.024 H 
ATOM     53  H   LIG d   1       6.428 -11.548  -4.836  0.00  0.00     0.024 H 
ATOM     54  H   LIG d   1       6.162 -10.406  -6.174  0.00  0.00     0.024 H 
ENDBRANCH   7  51
BRANCH   1  55
ATOM     55  C   LIG d   1       4.621  -9.065  -5.926  0.00  0.00     0.134 C 
ATOM     56  O   LIG d   1       4.173 -10.053  -6.458  0.00  0.00    -0.297 OA
BRANCH  55  57
ATOM     57  C   LIG d   1       4.861  -7.818  -6.735  0.00  0.00    -0.006 C 
ATOM     58  H   LIG d   1       5.818  -7.540  -6.645  0.00  0.00     0.031 H 
ATOM     59  H   LIG d   1       4.638  -8.015  -7.784  0.00  0.00     0.031 H 
ATOM     60  H   LIG d   1       4.215  -7.018  -6.371  0.00  0.00     0.031 H 
ENDBRANCH  55  57
ENDBRANCH   1  55
TORSDOF 7
ENDMDL
