MODEL 1
REMARK VINA RESULT:      -6.5      0.000      0.000
REMARK  18 active torsions:
REMARK  status: ('A' for Active; 'I' for Inactive)
REMARK    1  A    between atoms: C_1  and  C_2 
REMARK    2  A    between atoms: C_3  and  C_4 
REMARK    3  A    between atoms: C_5  and  C_6 
REMARK    4  A    between atoms: C_7  and  C_8 
REMARK    5  A    between atoms: C_8  and  C_10 
REMARK    6  A    between atoms: C_8  and  O_35 
REMARK    7  A    between atoms: C_10  and  C_12 
REMARK    8  A    between atoms: C_10  and  O_18 
REMARK    9  A    between atoms: C_13  and  C_14 
REMARK   10  A    between atoms: C_14  and  C_15 
REMARK   11  A    between atoms: C_15  and  C_16 
REMARK   12  A    between atoms: C_16  and  O_17 
REMARK   13  A    between atoms: O_18  and  C_19 
REMARK   14  A    between atoms: C_21  and  O_34 
REMARK   15  A    between atoms: C_23  and  O_33 
REMARK   16  A    between atoms: C_25  and  O_32 
REMARK   17  A    between atoms: C_27  and  C_30 
REMARK   18  A    between atoms: C_30  and  O_31 
ROOT
ATOM      1  C   LIG d   1       9.636   4.498  -4.505  0.00  0.00     0.117 C 
ATOM      2  H   LIG d   1       8.705   5.044  -4.651  0.00  0.00     0.068 H 
ENDROOT
BRANCH   1   3
ATOM      3  C   LIG d   1       9.476   3.070  -5.032  0.00  0.00     0.146 C 
ATOM      4  H   LIG d   1      10.391   2.508  -4.841  0.00  0.00     0.076 H 
BRANCH   3   5
ATOM      5  C   LIG d   1       8.348   2.417  -4.347  0.00  0.00    -0.054 C 
ATOM      6  C   LIG d   1       7.449   1.897  -3.801  0.00  0.00    -0.012 C 
BRANCH   6   7
ATOM      7  C   LIG d   1       6.393   1.286  -3.161  0.00  0.00    -0.010 C 
ATOM      8  C   LIG d   1       5.494   0.767  -2.614  0.00  0.00    -0.061 C 
BRANCH   8   9
ATOM      9  C   LIG d   1       4.396   0.132  -1.949  0.00  0.00    -0.015 C 
ATOM     10  C   LIG d   1       4.154  -1.163  -2.149  0.00  0.00    -0.079 C 
ATOM     11  H   LIG d   1       3.326  -1.642  -1.648  0.00  0.00     0.058 H 
ATOM     12  H   LIG d   1       3.764   0.703  -1.285  0.00  0.00     0.071 H 
BRANCH  10  13
ATOM     13  C   LIG d   1       5.036  -1.960  -3.075  0.00  0.00    -0.046 C 
ATOM     14  H   LIG d   1       4.904  -3.024  -2.875  0.00  0.00     0.027 H 
ATOM     15  H   LIG d   1       4.761  -1.749  -4.110  0.00  0.00     0.027 H 
ATOM     16  H   LIG d   1       6.078  -1.686  -2.912  0.00  0.00     0.027 H 
ENDBRANCH  10  13
ENDBRANCH   8   9
ENDBRANCH   6   7
ENDBRANCH   3   5
BRANCH   3  17
ATOM     17  O   LIG d   1       9.224   3.106  -6.438  0.00  0.00    -0.376 OA
ATOM     18  H   LIG d   1       9.105   2.233  -6.838  0.00  0.00     0.211 HD
ENDBRANCH   3  17
ENDBRANCH   1   3
BRANCH   1  19
ATOM     19  C   LIG d   1      10.746   5.187  -5.254  0.00  0.00    -0.056 C 
ATOM     20  C   LIG d   1      10.550   6.375  -5.769  0.00  0.00    -0.085 C 
ATOM     21  H   LIG d   1      11.361   6.892  -6.261  0.00  0.00     0.057 H 
ATOM     22  H   LIG d   1      11.705   4.702  -5.366  0.00  0.00     0.060 H 
BRANCH  20  23
ATOM     23  C   LIG d   1       9.192   7.022  -5.675  0.00  0.00    -0.033 C 
ATOM     24  H   LIG d   1       8.443   6.360  -6.109  0.00  0.00     0.031 H 
ATOM     25  H   LIG d   1       8.951   7.209  -4.629  0.00  0.00     0.031 H 
BRANCH  23  26
ATOM     26  C   LIG d   1       9.204   8.347  -6.440  0.00  0.00    -0.026 C 
ATOM     27  H   LIG d   1       8.336   8.940  -6.152  0.00  0.00     0.029 H 
ATOM     28  H   LIG d   1      10.115   8.897  -6.199  0.00  0.00     0.029 H 
BRANCH  26  29
ATOM     29  C   LIG d   1       9.159   8.070  -7.944  0.00  0.00     0.044 C 
ATOM     30  H   LIG d   1      10.173   8.063  -8.343  0.00  0.00     0.056 H 
ATOM     31  H   LIG d   1       8.692   7.100  -8.120  0.00  0.00     0.056 H 
BRANCH  29  32
ATOM     32  O   LIG d   1       8.397   9.089  -8.593  0.00  0.00    -0.395 OA
ATOM     33  H   LIG d   1       8.770   9.977  -8.502  0.00  0.00     0.209 HD
ENDBRANCH  29  32
ENDBRANCH  26  29
ENDBRANCH  23  26
ENDBRANCH  20  23
ENDBRANCH   1  19
BRANCH   1  34
ATOM     34  O   LIG d   1       9.953   4.458  -3.112  0.00  0.00    -0.338 OA
BRANCH  34  35
ATOM     35  C   LIG d   1      10.615   5.631  -2.634  0.00  0.00     0.189 C 
ATOM     36  H   LIG d   1      11.069   6.159  -3.472  0.00  0.00     0.094 H 
ATOM     37  O   LIG d   1       9.668   6.484  -1.989  0.00  0.00    -0.341 OA
ATOM     38  C   LIG d   1      10.224   7.704  -1.493  0.00  0.00     0.113 C 
ATOM     39  C   LIG d   1      11.296   7.387  -0.448  0.00  0.00     0.112 C 
ATOM     40  H   LIG d   1      10.672   8.259  -2.317  0.00  0.00     0.065 H 
ATOM     41  C   LIG d   1      12.368   6.494  -1.081  0.00  0.00     0.114 C 
ATOM     42  H   LIG d   1      11.752   8.314  -0.101  0.00  0.00     0.065 H 
ATOM     43  C   LIG d   1      11.703   5.230  -1.634  0.00  0.00     0.134 C 
ATOM     44  H   LIG d   1      12.858   7.033  -1.893  0.00  0.00     0.065 H 
ATOM     45  H   LIG d   1      12.450   4.615  -2.135  0.00  0.00     0.067 H 
BRANCH  38  46
ATOM     46  C   LIG d   1       9.119   8.545  -0.852  0.00  0.00     0.073 C 
ATOM     47  H   LIG d   1       9.321   8.659   0.213  0.00  0.00     0.058 H 
ATOM     48  H   LIG d   1       9.090   9.527  -1.323  0.00  0.00     0.058 H 
BRANCH  46  49
ATOM     49  O   LIG d   1       7.859   7.892  -1.031  0.00  0.00    -0.392 OA
ATOM     50  H   LIG d   1       7.857   7.232  -1.737  0.00  0.00     0.209 HD
ENDBRANCH  46  49
ENDBRANCH  38  46
BRANCH  39  51
ATOM     51  O   LIG d   1      10.700   6.704   0.658  0.00  0.00    -0.387 OA
ATOM     52  H   LIG d   1       9.809   6.374   0.481  0.00  0.00     0.210 HD
ENDBRANCH  39  51
BRANCH  41  53
ATOM     53  O   LIG d   1      13.336   6.133  -0.095  0.00  0.00    -0.386 OA
ATOM     54  H   LIG d   1      13.198   5.257   0.290  0.00  0.00     0.210 HD
ENDBRANCH  41  53
BRANCH  43  55
ATOM     55  O   LIG d   1      11.117   4.489  -0.561  0.00  0.00    -0.384 OA
ATOM     56  H   LIG d   1      10.649   3.691  -0.844  0.00  0.00     0.210 HD
ENDBRANCH  43  55
ENDBRANCH  34  35
ENDBRANCH   1  34
TORSDOF 18
ENDMDL
MODEL 2
REMARK VINA RESULT:      -6.4      5.257     10.323
REMARK  18 active torsions:
REMARK  status: ('A' for Active; 'I' for Inactive)
REMARK    1  A    between atoms: C_1  and  C_2 
REMARK    2  A    between atoms: C_3  and  C_4 
REMARK    3  A    between atoms: C_5  and  C_6 
REMARK    4  A    between atoms: C_7  and  C_8 
REMARK    5  A    between atoms: C_8  and  C_10 
REMARK    6  A    between atoms: C_8  and  O_35 
REMARK    7  A    between atoms: C_10  and  C_12 
REMARK    8  A    between atoms: C_10  and  O_18 
REMARK    9  A    between atoms: C_13  and  C_14 
REMARK   10  A    between atoms: C_14  and  C_15 
REMARK   11  A    between atoms: C_15  and  C_16 
REMARK   12  A    between atoms: C_16  and  O_17 
REMARK   13  A    between atoms: O_18  and  C_19 
REMARK   14  A    between atoms: C_21  and  O_34 
REMARK   15  A    between atoms: C_23  and  O_33 
REMARK   16  A    between atoms: C_25  and  O_32 
REMARK   17  A    between atoms: C_27  and  C_30 
REMARK   18  A    between atoms: C_30  and  O_31 
ROOT
ATOM      1  C   LIG d   1       5.083  -1.775  -4.524  0.00  0.00     0.117 C 
ATOM      2  H   LIG d   1       4.812  -0.726  -4.405  0.00  0.00     0.068 H 
ENDROOT
BRANCH   1   3
ATOM      3  C   LIG d   1       6.580  -1.883  -4.824  0.00  0.00     0.146 C 
ATOM      4  H   LIG d   1       6.723  -2.094  -5.884  0.00  0.00     0.076 H 
BRANCH   3   5
ATOM      5  C   LIG d   1       7.243  -0.614  -4.482  0.00  0.00    -0.054 C 
ATOM      6  C   LIG d   1       7.770   0.399  -4.209  0.00  0.00    -0.012 C 
BRANCH   6   7
ATOM      7  C   LIG d   1       8.390   1.586  -3.889  0.00  0.00    -0.010 C 
ATOM      8  C   LIG d   1       8.918   2.597  -3.615  0.00  0.00    -0.061 C 
BRANCH   8   9
ATOM      9  C   LIG d   1       9.563   3.832  -3.282  0.00  0.00    -0.015 C 
ATOM     10  C   LIG d   1       9.949   4.664  -4.249  0.00  0.00    -0.079 C 
ATOM     11  H   LIG d   1      10.435   5.595  -3.998  0.00  0.00     0.058 H 
ATOM     12  H   LIG d   1       9.738   4.088  -2.248  0.00  0.00     0.071 H 
BRANCH  10  13
ATOM     13  C   LIG d   1       9.706   4.307  -5.692  0.00  0.00    -0.046 C 
ATOM     14  H   LIG d   1      10.662   4.202  -6.206  0.00  0.00     0.027 H 
ATOM     15  H   LIG d   1       9.159   3.365  -5.747  0.00  0.00     0.027 H 
ATOM     16  H   LIG d   1       9.122   5.095  -6.169  0.00  0.00     0.027 H 
ENDBRANCH  10  13
ENDBRANCH   8   9
ENDBRANCH   6   7
ENDBRANCH   3   5
BRANCH   3  17
ATOM     17  O   LIG d   1       7.145  -2.941  -4.048  0.00  0.00    -0.376 OA
ATOM     18  H   LIG d   1       8.090  -2.836  -3.870  0.00  0.00     0.211 HD
ENDBRANCH   3  17
ENDBRANCH   1   3
BRANCH   1  19
ATOM     19  C   LIG d   1       4.770  -2.523  -3.254  0.00  0.00    -0.056 C 
ATOM     20  C   LIG d   1       3.932  -2.016  -2.385  0.00  0.00    -0.085 C 
ATOM     21  H   LIG d   1       3.668  -2.574  -1.498  0.00  0.00     0.057 H 
ATOM     22  H   LIG d   1       5.236  -3.478  -3.061  0.00  0.00     0.060 H 
BRANCH  20  23
ATOM     23  C   LIG d   1       3.337  -0.651  -2.619  0.00  0.00    -0.033 C 
ATOM     24  H   LIG d   1       3.310  -0.445  -3.689  0.00  0.00     0.031 H 
ATOM     25  H   LIG d   1       2.324  -0.623  -2.218  0.00  0.00     0.031 H 
BRANCH  23  26
ATOM     26  C   LIG d   1       4.192   0.406  -1.918  0.00  0.00    -0.026 C 
ATOM     27  H   LIG d   1       3.668   0.768  -1.033  0.00  0.00     0.029 H 
ATOM     28  H   LIG d   1       5.144  -0.035  -1.620  0.00  0.00     0.029 H 
BRANCH  26  29
ATOM     29  C   LIG d   1       4.447   1.573  -2.874  0.00  0.00     0.044 C 
ATOM     30  H   LIG d   1       4.451   2.508  -2.314  0.00  0.00     0.056 H 
ATOM     31  H   LIG d   1       5.412   1.437  -3.363  0.00  0.00     0.056 H 
BRANCH  29  32
ATOM     32  O   LIG d   1       3.416   1.613  -3.862  0.00  0.00    -0.395 OA
ATOM     33  H   LIG d   1       3.670   1.230  -4.712  0.00  0.00     0.209 HD
ENDBRANCH  29  32
ENDBRANCH  26  29
ENDBRANCH  23  26
ENDBRANCH  20  23
ENDBRANCH   1  19
BRANCH   1  34
ATOM     34  O   LIG d   1       4.339  -2.340  -5.606  0.00  0.00    -0.338 OA
BRANCH  34  35
ATOM     35  C   LIG d   1       4.503  -1.649  -6.846  0.00  0.00     0.189 C 
ATOM     36  H   LIG d   1       5.562  -1.593  -7.094  0.00  0.00     0.094 H 
ATOM     37  O   LIG d   1       3.807  -2.350  -7.878  0.00  0.00    -0.341 OA
ATOM     38  C   LIG d   1       3.926  -1.754  -9.172  0.00  0.00     0.113 C 
ATOM     39  C   LIG d   1       3.335  -0.342  -9.138  0.00  0.00     0.112 C 
ATOM     40  H   LIG d   1       4.979  -1.700  -9.450  0.00  0.00     0.065 H 
ATOM     41  C   LIG d   1       4.057   0.482  -8.068  0.00  0.00     0.114 C 
ATOM     42  H   LIG d   1       3.465   0.130 -10.112  0.00  0.00     0.065 H 
ATOM     43  C   LIG d   1       3.933  -0.233  -6.719  0.00  0.00     0.134 C 
ATOM     44  H   LIG d   1       5.110   0.580  -8.333  0.00  0.00     0.065 H 
ATOM     45  H   LIG d   1       4.491   0.318  -5.962  0.00  0.00     0.067 H 
BRANCH  38  46
ATOM     46  C   LIG d   1       3.170  -2.601 -10.197  0.00  0.00     0.073 C 
ATOM     47  H   LIG d   1       2.739  -1.950 -10.958  0.00  0.00     0.058 H 
ATOM     48  H   LIG d   1       3.857  -3.304 -10.665  0.00  0.00     0.058 H 
BRANCH  46  49
ATOM     49  O   LIG d   1       2.125  -3.321  -9.539  0.00  0.00    -0.392 OA
ATOM     50  H   LIG d   1       2.438  -3.932  -8.857  0.00  0.00     0.209 HD
ENDBRANCH  46  49
ENDBRANCH  38  46
BRANCH  39  51
ATOM     51  O   LIG d   1       1.942  -0.415  -8.825  0.00  0.00    -0.387 OA
ATOM     52  H   LIG d   1       1.423  -0.927  -9.460  0.00  0.00     0.210 HD
ENDBRANCH  39  51
BRANCH  41  53
ATOM     53  O   LIG d   1       3.464   1.778  -7.979  0.00  0.00    -0.386 OA
ATOM     54  H   LIG d   1       2.781   1.945  -8.642  0.00  0.00     0.210 HD
ENDBRANCH  41  53
BRANCH  43  55
ATOM     55  O   LIG d   1       2.557  -0.304  -6.340  0.00  0.00    -0.384 OA
ATOM     56  H   LIG d   1       2.354   0.148  -5.509  0.00  0.00     0.210 HD
ENDBRANCH  43  55
ENDBRANCH  34  35
ENDBRANCH   1  34
TORSDOF 18
ENDMDL
MODEL 3
REMARK VINA RESULT:      -6.1      7.899     10.945
REMARK  18 active torsions:
REMARK  status: ('A' for Active; 'I' for Inactive)
REMARK    1  A    between atoms: C_1  and  C_2 
REMARK    2  A    between atoms: C_3  and  C_4 
REMARK    3  A    between atoms: C_5  and  C_6 
REMARK    4  A    between atoms: C_7  and  C_8 
REMARK    5  A    between atoms: C_8  and  C_10 
REMARK    6  A    between atoms: C_8  and  O_35 
REMARK    7  A    between atoms: C_10  and  C_12 
REMARK    8  A    between atoms: C_10  and  O_18 
REMARK    9  A    between atoms: C_13  and  C_14 
REMARK   10  A    between atoms: C_14  and  C_15 
REMARK   11  A    between atoms: C_15  and  C_16 
REMARK   12  A    between atoms: C_16  and  O_17 
REMARK   13  A    between atoms: O_18  and  C_19 
REMARK   14  A    between atoms: C_21  and  O_34 
REMARK   15  A    between atoms: C_23  and  O_33 
REMARK   16  A    between atoms: C_25  and  O_32 
REMARK   17  A    between atoms: C_27  and  C_30 
REMARK   18  A    between atoms: C_30  and  O_31 
ROOT
ATOM      1  C   LIG d   1       3.760  -1.409  -9.476  0.00  0.00     0.117 C 
ATOM      2  H   LIG d   1       4.557  -1.335  -8.738  0.00  0.00     0.068 H 
ENDROOT
BRANCH   1   3
ATOM      3  C   LIG d   1       2.452  -0.896  -8.869  0.00  0.00     0.146 C 
ATOM      4  H   LIG d   1       1.720  -1.704  -8.845  0.00  0.00     0.076 H 
BRANCH   3   5
ATOM      5  C   LIG d   1       2.701  -0.419  -7.499  0.00  0.00    -0.054 C 
ATOM      6  C   LIG d   1       2.898  -0.037  -6.406  0.00  0.00    -0.012 C 
BRANCH   6   7
ATOM      7  C   LIG d   1       3.130   0.409  -5.124  0.00  0.00    -0.010 C 
ATOM      8  C   LIG d   1       3.329   0.790  -4.032  0.00  0.00    -0.061 C 
BRANCH   8   9
ATOM      9  C   LIG d   1       3.570   1.254  -2.699  0.00  0.00    -0.015 C 
ATOM     10  C   LIG d   1       4.141   0.448  -1.805  0.00  0.00    -0.079 C 
ATOM     11  H   LIG d   1       4.322   0.798  -0.800  0.00  0.00     0.058 H 
ATOM     12  H   LIG d   1       3.287   2.258  -2.418  0.00  0.00     0.071 H 
BRANCH  10  13
ATOM     13  C   LIG d   1       4.534  -0.953  -2.196  0.00  0.00    -0.046 C 
ATOM     14  H   LIG d   1       5.537  -0.942  -2.626  0.00  0.00     0.027 H 
ATOM     15  H   LIG d   1       4.526  -1.593  -1.313  0.00  0.00     0.027 H 
ATOM     16  H   LIG d   1       3.828  -1.338  -2.931  0.00  0.00     0.027 H 
ENDBRANCH  10  13
ENDBRANCH   8   9
ENDBRANCH   6   7
ENDBRANCH   3   5
BRANCH   3  17
ATOM     17  O   LIG d   1       1.948   0.179  -9.664  0.00  0.00    -0.376 OA
ATOM     18  H   LIG d   1       1.164   0.608  -9.292  0.00  0.00     0.211 HD
ENDBRANCH   3  17
ENDBRANCH   1   3
BRANCH   1  19
ATOM     19  C   LIG d   1       4.113  -0.579 -10.683  0.00  0.00    -0.056 C 
ATOM     20  C   LIG d   1       5.079   0.302 -10.612  0.00  0.00    -0.085 C 
ATOM     21  H   LIG d   1       5.367   0.861 -11.490  0.00  0.00     0.057 H 
ATOM     22  H   LIG d   1       3.569  -0.710 -11.607  0.00  0.00     0.060 H 
BRANCH  20  23
ATOM     23  C   LIG d   1       5.790   0.536  -9.304  0.00  0.00    -0.033 C 
ATOM     24  H   LIG d   1       5.318  -0.057  -8.521  0.00  0.00     0.031 H 
ATOM     25  H   LIG d   1       6.835   0.244  -9.401  0.00  0.00     0.031 H 
BRANCH  23  26
ATOM     26  C   LIG d   1       5.708   2.020  -8.938  0.00  0.00    -0.026 C 
ATOM     27  H   LIG d   1       5.745   2.129  -7.854  0.00  0.00     0.029 H 
ATOM     28  H   LIG d   1       6.549   2.551  -9.385  0.00  0.00     0.029 H 
BRANCH  26  29
ATOM     29  C   LIG d   1       4.396   2.604  -9.466  0.00  0.00     0.044 C 
ATOM     30  H   LIG d   1       4.566   3.622  -9.816  0.00  0.00     0.056 H 
ATOM     31  H   LIG d   1       4.032   1.992 -10.291  0.00  0.00     0.056 H 
BRANCH  29  32
ATOM     32  O   LIG d   1       3.425   2.617  -8.418  0.00  0.00    -0.395 OA
ATOM     33  H   LIG d   1       3.796   2.476  -7.536  0.00  0.00     0.209 HD
ENDBRANCH  29  32
ENDBRANCH  26  29
ENDBRANCH  23  26
ENDBRANCH  20  23
ENDBRANCH   1  19
BRANCH   1  34
ATOM     34  O   LIG d   1       3.598  -2.775  -9.867  0.00  0.00    -0.338 OA
BRANCH  34  35
ATOM     35  C   LIG d   1       4.345  -3.698  -9.072  0.00  0.00     0.189 C 
ATOM     36  H   LIG d   1       5.356  -3.784  -9.468  0.00  0.00     0.094 H 
ATOM     37  O   LIG d   1       4.397  -3.231  -7.723  0.00  0.00    -0.341 OA
ATOM     38  C   LIG d   1       5.146  -4.073  -6.843  0.00  0.00     0.113 C 
ATOM     39  C   LIG d   1       4.499  -5.459  -6.792  0.00  0.00     0.112 C 
ATOM     40  H   LIG d   1       6.168  -4.162  -7.209  0.00  0.00     0.065 H 
ATOM     41  C   LIG d   1       4.435  -6.038  -8.208  0.00  0.00     0.114 C 
ATOM     42  H   LIG d   1       5.093  -6.115  -6.156  0.00  0.00     0.065 H 
ATOM     43  C   LIG d   1       3.665  -5.070  -9.110  0.00  0.00     0.134 C 
ATOM     44  H   LIG d   1       5.447  -6.168  -8.594  0.00  0.00     0.065 H 
ATOM     45  H   LIG d   1       3.662  -5.447 -10.132  0.00  0.00     0.067 H 
BRANCH  38  46
ATOM     46  C   LIG d   1       5.158  -3.463  -5.440  0.00  0.00     0.073 C 
ATOM     47  H   LIG d   1       5.467  -4.218  -4.718  0.00  0.00     0.058 H 
ATOM     48  H   LIG d   1       5.856  -2.627  -5.413  0.00  0.00     0.058 H 
BRANCH  46  49
ATOM     49  O   LIG d   1       3.846  -2.998  -5.112  0.00  0.00    -0.392 OA
ATOM     50  H   LIG d   1       3.294  -3.659  -4.671  0.00  0.00     0.209 HD
ENDBRANCH  46  49
ENDBRANCH  38  46
BRANCH  39  51
ATOM     51  O   LIG d   1       3.175  -5.350  -6.261  0.00  0.00    -0.387 OA
ATOM     52  H   LIG d   1       3.114  -4.797  -5.471  0.00  0.00     0.210 HD
ENDBRANCH  39  51
BRANCH  41  53
ATOM     53  O   LIG d   1       3.768  -7.301  -8.181  0.00  0.00    -0.386 OA
ATOM     54  H   LIG d   1       2.840  -7.261  -8.449  0.00  0.00     0.210 HD
ENDBRANCH  41  53
BRANCH  43  55
ATOM     55  O   LIG d   1       2.319  -4.949  -8.643  0.00  0.00    -0.384 OA
ATOM     56  H   LIG d   1       2.138  -4.121  -8.175  0.00  0.00     0.210 HD
ENDBRANCH  43  55
ENDBRANCH  34  35
ENDBRANCH   1  34
TORSDOF 18
ENDMDL
MODEL 4
REMARK VINA RESULT:      -6.0      7.545     11.376
REMARK  18 active torsions:
REMARK  status: ('A' for Active; 'I' for Inactive)
REMARK    1  A    between atoms: C_1  and  C_2 
REMARK    2  A    between atoms: C_3  and  C_4 
REMARK    3  A    between atoms: C_5  and  C_6 
REMARK    4  A    between atoms: C_7  and  C_8 
REMARK    5  A    between atoms: C_8  and  C_10 
REMARK    6  A    between atoms: C_8  and  O_35 
REMARK    7  A    between atoms: C_10  and  C_12 
REMARK    8  A    between atoms: C_10  and  O_18 
REMARK    9  A    between atoms: C_13  and  C_14 
REMARK   10  A    between atoms: C_14  and  C_15 
REMARK   11  A    between atoms: C_15  and  C_16 
REMARK   12  A    between atoms: C_16  and  O_17 
REMARK   13  A    between atoms: O_18  and  C_19 
REMARK   14  A    between atoms: C_21  and  O_34 
REMARK   15  A    between atoms: C_23  and  O_33 
REMARK   16  A    between atoms: C_25  and  O_32 
REMARK   17  A    between atoms: C_27  and  C_30 
REMARK   18  A    between atoms: C_30  and  O_31 
ROOT
ATOM      1  C   LIG d   1       5.757  -1.815  -4.473  0.00  0.00     0.117 C 
ATOM      2  H   LIG d   1       4.730  -2.150  -4.610  0.00  0.00     0.068 H 
ENDROOT
BRANCH   1   3
ATOM      3  C   LIG d   1       6.089  -0.747  -5.517  0.00  0.00     0.146 C 
ATOM      4  H   LIG d   1       7.047  -0.980  -5.984  0.00  0.00     0.076 H 
BRANCH   3   5
ATOM      5  C   LIG d   1       5.035  -0.720  -6.545  0.00  0.00    -0.054 C 
ATOM      6  C   LIG d   1       4.197  -0.700  -7.366  0.00  0.00    -0.012 C 
BRANCH   6   7
ATOM      7  C   LIG d   1       3.212  -0.675  -8.328  0.00  0.00    -0.010 C 
ATOM      8  C   LIG d   1       2.371  -0.655  -9.147  0.00  0.00    -0.061 C 
BRANCH   8   9
ATOM      9  C   LIG d   1       1.347  -0.629 -10.148  0.00  0.00    -0.015 C 
ATOM     10  C   LIG d   1       1.657  -0.854 -11.424  0.00  0.00    -0.079 C 
ATOM     11  H   LIG d   1       0.885  -0.834 -12.179  0.00  0.00     0.058 H 
ATOM     12  H   LIG d   1       0.324  -0.427  -9.868  0.00  0.00     0.071 H 
BRANCH  10  13
ATOM     13  C   LIG d   1       3.084  -1.136 -11.816  0.00  0.00    -0.046 C 
ATOM     14  H   LIG d   1       3.136  -2.093 -12.336  0.00  0.00     0.027 H 
ATOM     15  H   LIG d   1       3.444  -0.345 -12.475  0.00  0.00     0.027 H 
ATOM     16  H   LIG d   1       3.706  -1.175 -10.921  0.00  0.00     0.027 H 
ENDBRANCH  10  13
ENDBRANCH   8   9
ENDBRANCH   6   7
ENDBRANCH   3   5
BRANCH   3  17
ATOM     17  O   LIG d   1       6.167   0.531  -4.882  0.00  0.00    -0.376 OA
ATOM     18  H   LIG d   1       5.695   0.581  -4.039  0.00  0.00     0.211 HD
ENDBRANCH   3  17
ENDBRANCH   1   3
BRANCH   1  19
ATOM     19  C   LIG d   1       5.917  -1.234  -3.092  0.00  0.00    -0.056 C 
ATOM     20  C   LIG d   1       4.898  -1.211  -2.269  0.00  0.00    -0.085 C 
ATOM     21  H   LIG d   1       5.025  -0.842  -1.262  0.00  0.00     0.057 H 
ATOM     22  H   LIG d   1       6.871  -0.837  -2.780  0.00  0.00     0.060 H 
BRANCH  20  23
ATOM     23  C   LIG d   1       3.548  -1.699  -2.728  0.00  0.00    -0.033 C 
ATOM     24  H   LIG d   1       3.639  -2.142  -3.720  0.00  0.00     0.031 H 
ATOM     25  H   LIG d   1       3.176  -2.448  -2.028  0.00  0.00     0.031 H 
BRANCH  23  26
ATOM     26  C   LIG d   1       2.572  -0.523  -2.782  0.00  0.00    -0.026 C 
ATOM     27  H   LIG d   1       1.571  -0.870  -2.527  0.00  0.00     0.029 H 
ATOM     28  H   LIG d   1       2.884   0.241  -2.069  0.00  0.00     0.029 H 
BRANCH  26  29
ATOM     29  C   LIG d   1       2.563   0.069  -4.193  0.00  0.00     0.044 C 
ATOM     30  H   LIG d   1       3.015  -0.639  -4.887  0.00  0.00     0.056 H 
ATOM     31  H   LIG d   1       1.536   0.271  -4.496  0.00  0.00     0.056 H 
BRANCH  29  32
ATOM     32  O   LIG d   1       3.310   1.288  -4.202  0.00  0.00    -0.395 OA
ATOM     33  H   LIG d   1       2.796   2.066  -3.945  0.00  0.00     0.209 HD
ENDBRANCH  29  32
ENDBRANCH  26  29
ENDBRANCH  23  26
ENDBRANCH  20  23
ENDBRANCH   1  19
BRANCH   1  34
ATOM     34  O   LIG d   1       6.645  -2.925  -4.629  0.00  0.00    -0.338 OA
BRANCH  34  35
ATOM     35  C   LIG d   1       6.267  -3.828  -5.670  0.00  0.00     0.189 C 
ATOM     36  H   LIG d   1       6.580  -3.425  -6.632  0.00  0.00     0.094 H 
ATOM     37  O   LIG d   1       6.895  -5.093  -5.455  0.00  0.00    -0.341 OA
ATOM     38  C   LIG d   1       6.603  -6.068  -6.457  0.00  0.00     0.113 C 
ATOM     39  C   LIG d   1       5.096  -6.337  -6.482  0.00  0.00     0.112 C 
ATOM     40  H   LIG d   1       6.921  -5.695  -7.431  0.00  0.00     0.065 H 
ATOM     41  C   LIG d   1       4.354  -5.022  -6.740  0.00  0.00     0.114 C 
ATOM     42  H   LIG d   1       4.865  -7.048  -7.275  0.00  0.00     0.065 H 
ATOM     43  C   LIG d   1       4.746  -4.008  -5.662  0.00  0.00     0.134 C 
ATOM     44  H   LIG d   1       4.628  -4.636  -7.721  0.00  0.00     0.065 H 
ATOM     45  H   LIG d   1       4.266  -3.052  -5.869  0.00  0.00     0.067 H 
BRANCH  38  46
ATOM     46  C   LIG d   1       7.348  -7.366  -6.141  0.00  0.00     0.073 C 
ATOM     47  H   LIG d   1       8.343  -7.332  -6.584  0.00  0.00     0.058 H 
ATOM     48  H   LIG d   1       7.435  -7.481  -5.061  0.00  0.00     0.058 H 
BRANCH  46  49
ATOM     49  O   LIG d   1       6.624  -8.474  -6.681  0.00  0.00    -0.392 OA
ATOM     50  H   LIG d   1       6.064  -8.247  -7.436  0.00  0.00     0.209 HD
ENDBRANCH  46  49
ENDBRANCH  38  46
BRANCH  39  51
ATOM     51  O   LIG d   1       4.686  -6.877  -5.223  0.00  0.00    -0.387 OA
ATOM     52  H   LIG d   1       3.728  -6.955  -5.122  0.00  0.00     0.210 HD
ENDBRANCH  39  51
BRANCH  41  53
ATOM     53  O   LIG d   1       2.944  -5.249  -6.692  0.00  0.00    -0.386 OA
ATOM     54  H   LIG d   1       2.413  -4.450  -6.810  0.00  0.00     0.210 HD
ENDBRANCH  41  53
BRANCH  43  55
ATOM     55  O   LIG d   1       4.328  -4.484  -4.380  0.00  0.00    -0.384 OA
ATOM     56  H   LIG d   1       3.591  -5.108  -4.415  0.00  0.00     0.210 HD
ENDBRANCH  43  55
ENDBRANCH  34  35
ENDBRANCH   1  34
TORSDOF 18
ENDMDL
MODEL 5
REMARK VINA RESULT:      -5.9      1.813      2.537
REMARK  18 active torsions:
REMARK  status: ('A' for Active; 'I' for Inactive)
REMARK    1  A    between atoms: C_1  and  C_2 
REMARK    2  A    between atoms: C_3  and  C_4 
REMARK    3  A    between atoms: C_5  and  C_6 
REMARK    4  A    between atoms: C_7  and  C_8 
REMARK    5  A    between atoms: C_8  and  C_10 
REMARK    6  A    between atoms: C_8  and  O_35 
REMARK    7  A    between atoms: C_10  and  C_12 
REMARK    8  A    between atoms: C_10  and  O_18 
REMARK    9  A    between atoms: C_13  and  C_14 
REMARK   10  A    between atoms: C_14  and  C_15 
REMARK   11  A    between atoms: C_15  and  C_16 
REMARK   12  A    between atoms: C_16  and  O_17 
REMARK   13  A    between atoms: O_18  and  C_19 
REMARK   14  A    between atoms: C_21  and  O_34 
REMARK   15  A    between atoms: C_23  and  O_33 
REMARK   16  A    between atoms: C_25  and  O_32 
REMARK   17  A    between atoms: C_27  and  C_30 
REMARK   18  A    between atoms: C_30  and  O_31 
ROOT
ATOM      1  C   LIG d   1       9.803   5.320  -4.877  0.00  0.00     0.117 C 
ATOM      2  H   LIG d   1       9.125   4.922  -5.632  0.00  0.00     0.068 H 
ENDROOT
BRANCH   1   3
ATOM      3  C   LIG d   1      10.320   4.177  -4.002  0.00  0.00     0.146 C 
ATOM      4  H   LIG d   1      10.577   4.562  -3.015  0.00  0.00     0.076 H 
BRANCH   3   5
ATOM      5  C   LIG d   1       9.276   3.148  -3.870  0.00  0.00    -0.054 C 
ATOM      6  C   LIG d   1       8.443   2.326  -3.766  0.00  0.00    -0.012 C 
BRANCH   6   7
ATOM      7  C   LIG d   1       7.467   1.363  -3.642  0.00  0.00    -0.010 C 
ATOM      8  C   LIG d   1       6.635   0.542  -3.536  0.00  0.00    -0.061 C 
BRANCH   8   9
ATOM      9  C   LIG d   1       5.619  -0.459  -3.408  0.00  0.00    -0.015 C 
ATOM     10  C   LIG d   1       4.632  -0.298  -2.528  0.00  0.00    -0.079 C 
ATOM     11  H   LIG d   1       3.866  -1.053  -2.431  0.00  0.00     0.058 H 
ATOM     12  H   LIG d   1       5.654  -1.345  -4.024  0.00  0.00     0.071 H 
BRANCH  10  13
ATOM     13  C   LIG d   1       4.583   0.938  -1.667  0.00  0.00    -0.046 C 
ATOM     14  H   LIG d   1       5.364   0.883  -0.908  0.00  0.00     0.027 H 
ATOM     15  H   LIG d   1       4.742   1.820  -2.289  0.00  0.00     0.027 H 
ATOM     16  H   LIG d   1       3.609   1.006  -1.183  0.00  0.00     0.027 H 
ENDBRANCH  10  13
ENDBRANCH   8   9
ENDBRANCH   6   7
ENDBRANCH   3   5
BRANCH   3  17
ATOM     17  O   LIG d   1      11.481   3.603  -4.606  0.00  0.00    -0.376 OA
ATOM     18  H   LIG d   1      12.315   3.956  -4.267  0.00  0.00     0.211 HD
ENDBRANCH   3  17
ENDBRANCH   1   3
BRANCH   1  19
ATOM     19  C   LIG d   1      10.965   6.000  -5.553  0.00  0.00    -0.056 C 
ATOM     20  C   LIG d   1      10.916   6.262  -6.835  0.00  0.00    -0.085 C 
ATOM     21  H   LIG d   1      11.727   6.795  -7.310  0.00  0.00     0.057 H 
ATOM     22  H   LIG d   1      11.839   6.274  -4.980  0.00  0.00     0.060 H 
BRANCH  20  23
ATOM     23  C   LIG d   1       9.728   5.817  -7.649  0.00  0.00    -0.033 C 
ATOM     24  H   LIG d   1       9.995   4.935  -8.231  0.00  0.00     0.031 H 
ATOM     25  H   LIG d   1       8.901   5.576  -6.983  0.00  0.00     0.031 H 
BRANCH  23  26
ATOM     26  C   LIG d   1       9.308   6.944  -8.596  0.00  0.00    -0.026 C 
ATOM     27  H   LIG d   1      10.102   7.124  -9.321  0.00  0.00     0.029 H 
ATOM     28  H   LIG d   1       8.396   6.656  -9.120  0.00  0.00     0.029 H 
BRANCH  26  29
ATOM     29  C   LIG d   1       9.053   8.219  -7.790  0.00  0.00     0.044 C 
ATOM     30  H   LIG d   1       8.345   8.007  -6.988  0.00  0.00     0.056 H 
ATOM     31  H   LIG d   1       9.991   8.573  -7.363  0.00  0.00     0.056 H 
BRANCH  29  32
ATOM     32  O   LIG d   1       8.512   9.224  -8.649  0.00  0.00    -0.395 OA
ATOM     33  H   LIG d   1       8.796   9.149  -9.571  0.00  0.00     0.209 HD
ENDBRANCH  29  32
ENDBRANCH  26  29
ENDBRANCH  23  26
ENDBRANCH  20  23
ENDBRANCH   1  19
BRANCH   1  34
ATOM     34  O   LIG d   1       9.105   6.265  -4.062  0.00  0.00    -0.338 OA
BRANCH  34  35
ATOM     35  C   LIG d   1       9.948   7.263  -3.481  0.00  0.00     0.189 C 
ATOM     36  H   LIG d   1      10.983   7.071  -3.759  0.00  0.00     0.094 H 
ATOM     37  O   LIG d   1       9.557   8.552  -3.956  0.00  0.00    -0.341 OA
ATOM     38  C   LIG d   1      10.355   9.626  -3.453  0.00  0.00     0.113 C 
ATOM     39  C   LIG d   1      10.237   9.677  -1.928  0.00  0.00     0.112 C 
ATOM     40  H   LIG d   1      11.396   9.465  -3.732  0.00  0.00     0.065 H 
ATOM     41  C   LIG d   1      10.671   8.330  -1.343  0.00  0.00     0.114 C 
ATOM     42  H   LIG d   1      10.878  10.468  -1.539  0.00  0.00     0.065 H 
ATOM     43  C   LIG d   1       9.812   7.220  -1.956  0.00  0.00     0.134 C 
ATOM     44  H   LIG d   1      11.720   8.152  -1.580  0.00  0.00     0.065 H 
ATOM     45  H   LIG d   1      10.151   6.252  -1.588  0.00  0.00     0.067 H 
BRANCH  38  46
ATOM     46  C   LIG d   1       9.866  10.948  -4.048  0.00  0.00     0.073 C 
ATOM     47  H   LIG d   1      10.173  11.772  -3.404  0.00  0.00     0.058 H 
ATOM     48  H   LIG d   1      10.297  11.081  -5.040  0.00  0.00     0.058 H 
BRANCH  46  49
ATOM     49  O   LIG d   1       8.440  10.926  -4.147  0.00  0.00    -0.392 OA
ATOM     50  H   LIG d   1       8.042  10.081  -3.897  0.00  0.00     0.209 HD
ENDBRANCH  46  49
ENDBRANCH  38  46
BRANCH  39  51
ATOM     51  O   LIG d   1       8.880   9.941  -1.562  0.00  0.00    -0.387 OA
ATOM     52  H   LIG d   1       8.363   9.147  -1.369  0.00  0.00     0.210 HD
ENDBRANCH  39  51
BRANCH  41  53
ATOM     53  O   LIG d   1      10.495   8.343   0.074  0.00  0.00    -0.386 OA
ATOM     54  H   LIG d   1      10.633   7.484   0.495  0.00  0.00     0.210 HD
ENDBRANCH  41  53
BRANCH  43  55
ATOM     55  O   LIG d   1       8.444   7.417  -1.592  0.00  0.00    -0.384 OA
ATOM     56  H   LIG d   1       8.303   7.535  -0.643  0.00  0.00     0.210 HD
ENDBRANCH  43  55
ENDBRANCH  34  35
ENDBRANCH   1  34
TORSDOF 18
ENDMDL
MODEL 6
REMARK VINA RESULT:      -5.9      7.354     10.380
REMARK  18 active torsions:
REMARK  status: ('A' for Active; 'I' for Inactive)
REMARK    1  A    between atoms: C_1  and  C_2 
REMARK    2  A    between atoms: C_3  and  C_4 
REMARK    3  A    between atoms: C_5  and  C_6 
REMARK    4  A    between atoms: C_7  and  C_8 
REMARK    5  A    between atoms: C_8  and  C_10 
REMARK    6  A    between atoms: C_8  and  O_35 
REMARK    7  A    between atoms: C_10  and  C_12 
REMARK    8  A    between atoms: C_10  and  O_18 
REMARK    9  A    between atoms: C_13  and  C_14 
REMARK   10  A    between atoms: C_14  and  C_15 
REMARK   11  A    between atoms: C_15  and  C_16 
REMARK   12  A    between atoms: C_16  and  O_17 
REMARK   13  A    between atoms: O_18  and  C_19 
REMARK   14  A    between atoms: C_21  and  O_34 
REMARK   15  A    between atoms: C_23  and  O_33 
REMARK   16  A    between atoms: C_25  and  O_32 
REMARK   17  A    between atoms: C_27  and  C_30 
REMARK   18  A    between atoms: C_30  and  O_31 
ROOT
ATOM      1  C   LIG d   1       4.457  -1.607  -4.844  0.00  0.00     0.117 C 
ATOM      2  H   LIG d   1       5.301  -0.962  -4.604  0.00  0.00     0.068 H 
ENDROOT
BRANCH   1   3
ATOM      3  C   LIG d   1       4.963  -2.871  -5.541  0.00  0.00     0.146 C 
ATOM      4  H   LIG d   1       5.073  -2.677  -6.609  0.00  0.00     0.076 H 
BRANCH   3   5
ATOM      5  C   LIG d   1       6.266  -3.256  -4.976  0.00  0.00    -0.054 C 
ATOM      6  C   LIG d   1       7.306  -3.562  -4.525  0.00  0.00    -0.012 C 
BRANCH   6   7
ATOM      7  C   LIG d   1       8.526  -3.922  -3.996  0.00  0.00    -0.010 C 
ATOM      8  C   LIG d   1       9.564  -4.229  -3.545  0.00  0.00    -0.061 C 
BRANCH   8   9
ATOM      9  C   LIG d   1      10.833  -4.603  -2.995  0.00  0.00    -0.015 C 
ATOM     10  C   LIG d   1      11.936  -3.951  -3.359  0.00  0.00    -0.079 C 
ATOM     11  H   LIG d   1      12.892  -4.233  -2.944  0.00  0.00     0.058 H 
ATOM     12  H   LIG d   1      10.895  -5.415  -2.285  0.00  0.00     0.071 H 
BRANCH  10  13
ATOM     13  C   LIG d   1      11.850  -2.818  -4.348  0.00  0.00    -0.046 C 
ATOM     14  H   LIG d   1      11.976  -3.208  -5.359  0.00  0.00     0.027 H 
ATOM     15  H   LIG d   1      10.875  -2.335  -4.265  0.00  0.00     0.027 H 
ATOM     16  H   LIG d   1      12.634  -2.091  -4.139  0.00  0.00     0.027 H 
ENDBRANCH  10  13
ENDBRANCH   8   9
ENDBRANCH   6   7
ENDBRANCH   3   5
BRANCH   3  17
ATOM     17  O   LIG d   1       4.026  -3.931  -5.344  0.00  0.00    -0.376 OA
ATOM     18  H   LIG d   1       3.385  -3.763  -4.639  0.00  0.00     0.211 HD
ENDBRANCH   3  17
ENDBRANCH   1   3
BRANCH   1  19
ATOM     19  C   LIG d   1       3.738  -1.987  -3.575  0.00  0.00    -0.056 C 
ATOM     20  C   LIG d   1       4.051  -1.405  -2.445  0.00  0.00    -0.085 C 
ATOM     21  H   LIG d   1       3.502  -1.640  -1.545  0.00  0.00     0.057 H 
ATOM     22  H   LIG d   1       2.964  -2.740  -3.598  0.00  0.00     0.060 H 
BRANCH  20  23
ATOM     23  C   LIG d   1       5.179  -0.406  -2.399  0.00  0.00    -0.033 C 
ATOM     24  H   LIG d   1       5.968  -0.777  -1.745  0.00  0.00     0.031 H 
ATOM     25  H   LIG d   1       5.578  -0.263  -3.403  0.00  0.00     0.031 H 
BRANCH  23  26
ATOM     26  C   LIG d   1       4.658   0.929  -1.863  0.00  0.00    -0.026 C 
ATOM     27  H   LIG d   1       4.502   0.851  -0.787  0.00  0.00     0.029 H 
ATOM     28  H   LIG d   1       5.388   1.712  -2.068  0.00  0.00     0.029 H 
BRANCH  26  29
ATOM     29  C   LIG d   1       3.334   1.272  -2.548  0.00  0.00     0.044 C 
ATOM     30  H   LIG d   1       2.661   0.417  -2.490  0.00  0.00     0.056 H 
ATOM     31  H   LIG d   1       2.878   2.128  -2.050  0.00  0.00     0.056 H 
BRANCH  29  32
ATOM     32  O   LIG d   1       3.577   1.594  -3.919  0.00  0.00    -0.395 OA
ATOM     33  H   LIG d   1       4.440   1.304  -4.244  0.00  0.00     0.209 HD
ENDBRANCH  29  32
ENDBRANCH  26  29
ENDBRANCH  23  26
ENDBRANCH  20  23
ENDBRANCH   1  19
BRANCH   1  34
ATOM     34  O   LIG d   1       3.558  -0.912  -5.711  0.00  0.00    -0.338 OA
BRANCH  34  35
ATOM     35  C   LIG d   1       4.033  -0.778  -7.052  0.00  0.00     0.189 C 
ATOM     36  H   LIG d   1       4.941  -1.367  -7.177  0.00  0.00     0.094 H 
ATOM     37  O   LIG d   1       3.034  -1.244  -7.961  0.00  0.00    -0.341 OA
ATOM     38  C   LIG d   1       3.418  -1.177  -9.336  0.00  0.00     0.113 C 
ATOM     39  C   LIG d   1       3.698   0.280  -9.716  0.00  0.00     0.112 C 
ATOM     40  H   LIG d   1       4.319  -1.772  -9.490  0.00  0.00     0.065 H 
ATOM     41  C   LIG d   1       4.788   0.840  -8.797  0.00  0.00     0.114 C 
ATOM     42  H   LIG d   1       4.034   0.328 -10.751  0.00  0.00     0.065 H 
ATOM     43  C   LIG d   1       4.336   0.695  -7.341  0.00  0.00     0.134 C 
ATOM     44  H   LIG d   1       5.713   0.283  -8.948  0.00  0.00     0.065 H 
ATOM     45  H   LIG d   1       5.129   1.040  -6.677  0.00  0.00     0.067 H 
BRANCH  38  46
ATOM     46  C   LIG d   1       2.289  -1.725 -10.210  0.00  0.00     0.073 C 
ATOM     47  H   LIG d   1       2.446  -1.415 -11.243  0.00  0.00     0.058 H 
ATOM     48  H   LIG d   1       2.281  -2.813 -10.154  0.00  0.00     0.058 H 
BRANCH  46  49
ATOM     49  O   LIG d   1       1.037  -1.214  -9.744  0.00  0.00    -0.392 OA
ATOM     50  H   LIG d   1       0.694  -0.478 -10.268  0.00  0.00     0.209 HD
ENDBRANCH  46  49
ENDBRANCH  38  46
BRANCH  39  51
ATOM     51  O   LIG d   1       2.504   1.051  -9.564  0.00  0.00    -0.387 OA
ATOM     52  H   LIG d   1       2.474   1.574  -8.752  0.00  0.00     0.210 HD
ENDBRANCH  39  51
BRANCH  41  53
ATOM     53  O   LIG d   1       5.005   2.220  -9.095  0.00  0.00    -0.386 OA
ATOM     54  H   LIG d   1       5.841   2.568  -8.758  0.00  0.00     0.210 HD
ENDBRANCH  41  53
BRANCH  43  55
ATOM     55  O   LIG d   1       3.159   1.476  -7.124  0.00  0.00    -0.384 OA
ATOM     56  H   LIG d   1       2.347   1.060  -7.444  0.00  0.00     0.210 HD
ENDBRANCH  43  55
ENDBRANCH  34  35
ENDBRANCH   1  34
TORSDOF 18
ENDMDL
MODEL 7
REMARK VINA RESULT:      -5.9      8.584     14.009
REMARK  18 active torsions:
REMARK  status: ('A' for Active; 'I' for Inactive)
REMARK    1  A    between atoms: C_1  and  C_2 
REMARK    2  A    between atoms: C_3  and  C_4 
REMARK    3  A    between atoms: C_5  and  C_6 
REMARK    4  A    between atoms: C_7  and  C_8 
REMARK    5  A    between atoms: C_8  and  C_10 
REMARK    6  A    between atoms: C_8  and  O_35 
REMARK    7  A    between atoms: C_10  and  C_12 
REMARK    8  A    between atoms: C_10  and  O_18 
REMARK    9  A    between atoms: C_13  and  C_14 
REMARK   10  A    between atoms: C_14  and  C_15 
REMARK   11  A    between atoms: C_15  and  C_16 
REMARK   12  A    between atoms: C_16  and  O_17 
REMARK   13  A    between atoms: O_18  and  C_19 
REMARK   14  A    between atoms: C_21  and  O_34 
REMARK   15  A    between atoms: C_23  and  O_33 
REMARK   16  A    between atoms: C_25  and  O_32 
REMARK   17  A    between atoms: C_27  and  C_30 
REMARK   18  A    between atoms: C_30  and  O_31 
ROOT
ATOM      1  C   LIG d   1       4.646  -6.176  -6.027  0.00  0.00     0.117 C 
ATOM      2  H   LIG d   1       4.329  -6.490  -5.033  0.00  0.00     0.068 H 
ENDROOT
BRANCH   1   3
ATOM      3  C   LIG d   1       5.816  -5.198  -5.905  0.00  0.00     0.146 C 
ATOM      4  H   LIG d   1       6.049  -4.785  -6.887  0.00  0.00     0.076 H 
BRANCH   3   5
ATOM      5  C   LIG d   1       5.450  -4.106  -4.988  0.00  0.00    -0.054 C 
ATOM      6  C   LIG d   1       5.160  -3.235  -4.256  0.00  0.00    -0.012 C 
BRANCH   6   7
ATOM      7  C   LIG d   1       4.818  -2.213  -3.399  0.00  0.00    -0.010 C 
ATOM      8  C   LIG d   1       4.526  -1.343  -2.667  0.00  0.00    -0.061 C 
BRANCH   8   9
ATOM      9  C   LIG d   1       4.171  -0.280  -1.776  0.00  0.00    -0.015 C 
ATOM     10  C   LIG d   1       4.732   0.920  -1.913  0.00  0.00    -0.079 C 
ATOM     11  H   LIG d   1       4.464   1.722  -1.241  0.00  0.00     0.058 H 
ATOM     12  H   LIG d   1       3.449  -0.453  -0.991  0.00  0.00     0.071 H 
BRANCH  10  13
ATOM     13  C   LIG d   1       5.739   1.162  -3.008  0.00  0.00    -0.046 C 
ATOM     14  H   LIG d   1       6.627   0.556  -2.824  0.00  0.00     0.027 H 
ATOM     15  H   LIG d   1       5.304   0.885  -3.969  0.00  0.00     0.027 H 
ATOM     16  H   LIG d   1       6.014   2.216  -3.023  0.00  0.00     0.027 H 
ENDBRANCH  10  13
ENDBRANCH   8   9
ENDBRANCH   6   7
ENDBRANCH   3   5
BRANCH   3  17
ATOM     17  O   LIG d   1       6.960  -5.886  -5.394  0.00  0.00    -0.376 OA
ATOM     18  H   LIG d   1       6.928  -6.845  -5.516  0.00  0.00     0.211 HD
ENDBRANCH   3  17
ENDBRANCH   1   3
BRANCH   1  19
ATOM     19  C   LIG d   1       5.080  -7.382  -6.820  0.00  0.00    -0.056 C 
ATOM     20  C   LIG d   1       5.109  -8.562  -6.255  0.00  0.00    -0.085 C 
ATOM     21  H   LIG d   1       5.371  -9.434  -6.836  0.00  0.00     0.057 H 
ATOM     22  H   LIG d   1       5.366  -7.272  -7.856  0.00  0.00     0.060 H 
BRANCH  20  23
ATOM     23  C   LIG d   1       4.779  -8.705  -4.791  0.00  0.00    -0.033 C 
ATOM     24  H   LIG d   1       5.669  -8.504  -4.196  0.00  0.00     0.031 H 
ATOM     25  H   LIG d   1       3.995  -7.995  -4.525  0.00  0.00     0.031 H 
BRANCH  23  26
ATOM     26  C   LIG d   1       4.291 -10.128  -4.514  0.00  0.00    -0.026 C 
ATOM     27  H   LIG d   1       3.526 -10.398  -5.242  0.00  0.00     0.029 H 
ATOM     28  H   LIG d   1       5.129 -10.821  -4.595  0.00  0.00     0.029 H 
BRANCH  26  29
ATOM     29  C   LIG d   1       3.703 -10.201  -3.104  0.00  0.00     0.044 C 
ATOM     30  H   LIG d   1       3.897 -11.186  -2.679  0.00  0.00     0.056 H 
ATOM     31  H   LIG d   1       4.165  -9.438  -2.478  0.00  0.00     0.056 H 
BRANCH  29  32
ATOM     32  O   LIG d   1       2.293  -9.978  -3.164  0.00  0.00    -0.395 OA
ATOM     33  H   LIG d   1       1.795 -10.709  -3.555  0.00  0.00     0.209 HD
ENDBRANCH  29  32
ENDBRANCH  26  29
ENDBRANCH  23  26
ENDBRANCH  20  23
ENDBRANCH   1  19
BRANCH   1  34
ATOM     34  O   LIG d   1       3.556  -5.534  -6.694  0.00  0.00    -0.338 OA
BRANCH  34  35
ATOM     35  C   LIG d   1       3.673  -5.523  -8.118  0.00  0.00     0.189 C 
ATOM     36  H   LIG d   1       4.431  -6.242  -8.426  0.00  0.00     0.094 H 
ATOM     37  O   LIG d   1       2.417  -5.873  -8.702  0.00  0.00    -0.341 OA
ATOM     38  C   LIG d   1       2.429  -5.916 -10.130  0.00  0.00     0.113 C 
ATOM     39  C   LIG d   1       2.786  -4.532 -10.679  0.00  0.00     0.112 C 
ATOM     40  H   LIG d   1       3.170  -6.642 -10.465  0.00  0.00     0.065 H 
ATOM     41  C   LIG d   1       4.144  -4.102 -10.115  0.00  0.00     0.114 C 
ATOM     42  H   LIG d   1       2.839  -4.574 -11.766  0.00  0.00     0.065 H 
ATOM     43  C   LIG d   1       4.079  -4.122  -8.585  0.00  0.00     0.134 C 
ATOM     44  H   LIG d   1       4.915  -4.793 -10.457  0.00  0.00     0.065 H 
ATOM     45  H   LIG d   1       5.057  -3.871  -8.176  0.00  0.00     0.067 H 
BRANCH  38  46
ATOM     46  C   LIG d   1       1.047  -6.327 -10.641  0.00  0.00     0.073 C 
ATOM     47  H   LIG d   1       0.815  -5.772 -11.550  0.00  0.00     0.058 H 
ATOM     48  H   LIG d   1       1.042  -7.395 -10.856  0.00  0.00     0.058 H 
BRANCH  46  49
ATOM     49  O   LIG d   1       0.066  -6.037  -9.642  0.00  0.00    -0.392 OA
ATOM     50  H   LIG d   1      -0.180  -6.799  -9.100  0.00  0.00     0.209 HD
ENDBRANCH  46  49
ENDBRANCH  38  46
BRANCH  39  51
ATOM     51  O   LIG d   1       1.786  -3.590 -10.285  0.00  0.00    -0.387 OA
ATOM     52  H   LIG d   1       2.129  -2.704 -10.106  0.00  0.00     0.210 HD
ENDBRANCH  39  51
BRANCH  41  53
ATOM     53  O   LIG d   1       4.453  -2.781 -10.563  0.00  0.00    -0.386 OA
ATOM     54  H   LIG d   1       5.361  -2.506 -10.381  0.00  0.00     0.210 HD
ENDBRANCH  41  53
BRANCH  43  55
ATOM     55  O   LIG d   1       3.114  -3.170  -8.134  0.00  0.00    -0.384 OA
ATOM     56  H   LIG d   1       2.652  -3.431  -7.326  0.00  0.00     0.210 HD
ENDBRANCH  43  55
ENDBRANCH  34  35
ENDBRANCH   1  34
TORSDOF 18
ENDMDL
MODEL 8
REMARK VINA RESULT:      -5.9      2.130      3.853
REMARK  18 active torsions:
REMARK  status: ('A' for Active; 'I' for Inactive)
REMARK    1  A    between atoms: C_1  and  C_2 
REMARK    2  A    between atoms: C_3  and  C_4 
REMARK    3  A    between atoms: C_5  and  C_6 
REMARK    4  A    between atoms: C_7  and  C_8 
REMARK    5  A    between atoms: C_8  and  C_10 
REMARK    6  A    between atoms: C_8  and  O_35 
REMARK    7  A    between atoms: C_10  and  C_12 
REMARK    8  A    between atoms: C_10  and  O_18 
REMARK    9  A    between atoms: C_13  and  C_14 
REMARK   10  A    between atoms: C_14  and  C_15 
REMARK   11  A    between atoms: C_15  and  C_16 
REMARK   12  A    between atoms: C_16  and  O_17 
REMARK   13  A    between atoms: O_18  and  C_19 
REMARK   14  A    between atoms: C_21  and  O_34 
REMARK   15  A    between atoms: C_23  and  O_33 
REMARK   16  A    between atoms: C_25  and  O_32 
REMARK   17  A    between atoms: C_27  and  C_30 
REMARK   18  A    between atoms: C_30  and  O_31 
ROOT
ATOM      1  C   LIG d   1      10.723   3.618  -3.868  0.00  0.00     0.117 C 
ATOM      2  H   LIG d   1      11.516   4.243  -4.278  0.00  0.00     0.068 H 
ENDROOT
BRANCH   1   3
ATOM      3  C   LIG d   1       9.606   3.468  -4.903  0.00  0.00     0.146 C 
ATOM      4  H   LIG d   1      10.024   3.089  -5.836  0.00  0.00     0.076 H 
BRANCH   3   5
ATOM      5  C   LIG d   1       8.594   2.525  -4.400  0.00  0.00    -0.054 C 
ATOM      6  C   LIG d   1       7.786   1.774  -3.998  0.00  0.00    -0.012 C 
BRANCH   6   7
ATOM      7  C   LIG d   1       6.839   0.892  -3.528  0.00  0.00    -0.010 C 
ATOM      8  C   LIG d   1       6.031   0.142  -3.126  0.00  0.00    -0.061 C 
BRANCH   8   9
ATOM      9  C   LIG d   1       5.045  -0.775  -2.637  0.00  0.00    -0.015 C 
ATOM     10  C   LIG d   1       3.863  -0.323  -2.221  0.00  0.00    -0.079 C 
ATOM     11  H   LIG d   1       3.120  -1.015  -1.852  0.00  0.00     0.058 H 
ATOM     12  H   LIG d   1       5.261  -1.833  -2.605  0.00  0.00     0.071 H 
BRANCH  10  13
ATOM     13  C   LIG d   1       3.561   1.152  -2.265  0.00  0.00    -0.046 C 
ATOM     14  H   LIG d   1       2.491   1.308  -2.125  0.00  0.00     0.027 H 
ATOM     15  H   LIG d   1       4.109   1.659  -1.470  0.00  0.00     0.027 H 
ATOM     16  H   LIG d   1       3.864   1.557  -3.231  0.00  0.00     0.027 H 
ENDBRANCH  10  13
ENDBRANCH   8   9
ENDBRANCH   6   7
ENDBRANCH   3   5
BRANCH   3  17
ATOM     17  O   LIG d   1       8.999   4.740  -5.136  0.00  0.00    -0.376 OA
ATOM     18  H   LIG d   1       8.400   5.024  -4.432  0.00  0.00     0.211 HD
ENDBRANCH   3  17
ENDBRANCH   1   3
BRANCH   1  19
ATOM     19  C   LIG d   1      11.278   2.259  -3.528  0.00  0.00    -0.056 C 
ATOM     20  C   LIG d   1      12.570   2.050  -3.569  0.00  0.00    -0.085 C 
ATOM     21  H   LIG d   1      12.973   1.091  -3.276  0.00  0.00     0.057 H 
ATOM     22  H   LIG d   1      10.611   1.457  -3.249  0.00  0.00     0.060 H 
BRANCH  20  23
ATOM     23  C   LIG d   1      13.497   3.147  -4.028  0.00  0.00    -0.033 C 
ATOM     24  H   LIG d   1      13.162   3.526  -4.993  0.00  0.00     0.031 H 
ATOM     25  H   LIG d   1      13.490   3.956  -3.298  0.00  0.00     0.031 H 
BRANCH  23  26
ATOM     26  C   LIG d   1      14.917   2.593  -4.162  0.00  0.00    -0.026 C 
ATOM     27  H   LIG d   1      15.008   2.052  -5.103  0.00  0.00     0.029 H 
ATOM     28  H   LIG d   1      15.631   3.417  -4.146  0.00  0.00     0.029 H 
BRANCH  26  29
ATOM     29  C   LIG d   1      15.206   1.644  -2.997  0.00  0.00     0.044 C 
ATOM     30  H   LIG d   1      14.317   1.052  -2.780  0.00  0.00     0.056 H 
ATOM     31  H   LIG d   1      16.028   0.980  -3.265  0.00  0.00     0.056 H 
BRANCH  29  32
ATOM     32  O   LIG d   1      15.566   2.404  -1.842  0.00  0.00    -0.395 OA
ATOM     33  H   LIG d   1      14.813   2.689  -1.307  0.00  0.00     0.209 HD
ENDBRANCH  29  32
ENDBRANCH  26  29
ENDBRANCH  23  26
ENDBRANCH  20  23
ENDBRANCH   1  19
BRANCH   1  34
ATOM     34  O   LIG d   1      10.198   4.228  -2.687  0.00  0.00    -0.338 OA
BRANCH  34  35
ATOM     35  C   LIG d   1      10.816   5.473  -2.354  0.00  0.00     0.189 C 
ATOM     36  H   LIG d   1      11.314   5.879  -3.233  0.00  0.00     0.094 H 
ATOM     37  O   LIG d   1       9.820   6.393  -1.902  0.00  0.00    -0.341 OA
ATOM     38  C   LIG d   1      10.329   7.685  -1.565  0.00  0.00     0.113 C 
ATOM     39  C   LIG d   1      11.339   7.552  -0.422  0.00  0.00     0.112 C 
ATOM     40  H   LIG d   1      10.821   8.120  -2.435  0.00  0.00     0.065 H 
ATOM     41  C   LIG d   1      12.459   6.597  -0.848  0.00  0.00     0.114 C 
ATOM     42  H   LIG d   1      11.761   8.530  -0.192  0.00  0.00     0.065 H 
ATOM     43  C   LIG d   1      11.844   5.251  -1.241  0.00  0.00     0.134 C 
ATOM     44  H   LIG d   1      12.991   7.018  -1.700  0.00  0.00     0.065 H 
ATOM     45  H   LIG d   1      12.628   4.583  -1.598  0.00  0.00     0.067 H 
BRANCH  38  46
ATOM     46  C   LIG d   1       9.177   8.590  -1.125  0.00  0.00     0.073 C 
ATOM     47  H   LIG d   1       9.438   9.081  -0.188  0.00  0.00     0.058 H 
ATOM     48  H   LIG d   1       8.994   9.343  -1.891  0.00  0.00     0.058 H 
BRANCH  46  49
ATOM     49  O   LIG d   1       7.999   7.802  -0.939  0.00  0.00    -0.392 OA
ATOM     50  H   LIG d   1       8.013   7.258  -0.139  0.00  0.00     0.209 HD
ENDBRANCH  46  49
ENDBRANCH  38  46
BRANCH  39  51
ATOM     51  O   LIG d   1      10.683   7.031   0.737  0.00  0.00    -0.387 OA
ATOM     52  H   LIG d   1      10.720   6.068   0.810  0.00  0.00     0.210 HD
ENDBRANCH  39  51
BRANCH  41  53
ATOM     53  O   LIG d   1      13.367   6.409   0.238  0.00  0.00    -0.386 OA
ATOM     54  H   LIG d   1      14.046   5.741   0.072  0.00  0.00     0.210 HD
ENDBRANCH  41  53
BRANCH  43  55
ATOM     55  O   LIG d   1      11.201   4.667  -0.106  0.00  0.00    -0.384 OA
ATOM     56  H   LIG d   1      11.760   4.053   0.390  0.00  0.00     0.210 HD
ENDBRANCH  43  55
ENDBRANCH  34  35
ENDBRANCH   1  34
TORSDOF 18
ENDMDL
MODEL 9
REMARK VINA RESULT:      -5.8      4.626      9.433
REMARK  18 active torsions:
REMARK  status: ('A' for Active; 'I' for Inactive)
REMARK    1  A    between atoms: C_1  and  C_2 
REMARK    2  A    between atoms: C_3  and  C_4 
REMARK    3  A    between atoms: C_5  and  C_6 
REMARK    4  A    between atoms: C_7  and  C_8 
REMARK    5  A    between atoms: C_8  and  C_10 
REMARK    6  A    between atoms: C_8  and  O_35 
REMARK    7  A    between atoms: C_10  and  C_12 
REMARK    8  A    between atoms: C_10  and  O_18 
REMARK    9  A    between atoms: C_13  and  C_14 
REMARK   10  A    between atoms: C_14  and  C_15 
REMARK   11  A    between atoms: C_15  and  C_16 
REMARK   12  A    between atoms: C_16  and  O_17 
REMARK   13  A    between atoms: O_18  and  C_19 
REMARK   14  A    between atoms: C_21  and  O_34 
REMARK   15  A    between atoms: C_23  and  O_33 
REMARK   16  A    between atoms: C_25  and  O_32 
REMARK   17  A    between atoms: C_27  and  C_30 
REMARK   18  A    between atoms: C_30  and  O_31 
ROOT
ATOM      1  C   LIG d   1       6.170  -0.592  -4.539  0.00  0.00     0.117 C 
ATOM      2  H   LIG d   1       5.856  -0.335  -3.528  0.00  0.00     0.068 H 
ENDROOT
BRANCH   1   3
ATOM      3  C   LIG d   1       7.698  -0.666  -4.595  0.00  0.00     0.146 C 
ATOM      4  H   LIG d   1       8.013  -0.897  -5.613  0.00  0.00     0.076 H 
BRANCH   3   5
ATOM      5  C   LIG d   1       8.268   0.629  -4.188  0.00  0.00    -0.054 C 
ATOM      6  C   LIG d   1       8.721   1.661  -3.862  0.00  0.00    -0.012 C 
BRANCH   6   7
ATOM      7  C   LIG d   1       9.255   2.872  -3.481  0.00  0.00    -0.010 C 
ATOM      8  C   LIG d   1       9.709   3.904  -3.157  0.00  0.00    -0.061 C 
BRANCH   8   9
ATOM      9  C   LIG d   1      10.264   5.164  -2.759  0.00  0.00    -0.015 C 
ATOM     10  C   LIG d   1      10.001   6.261  -3.468  0.00  0.00    -0.079 C 
ATOM     11  H   LIG d   1      10.419   7.211  -3.169  0.00  0.00     0.058 H 
ATOM     12  H   LIG d   1      10.896   5.224  -1.886  0.00  0.00     0.071 H 
BRANCH  10  13
ATOM     13  C   LIG d   1       9.119   6.178  -4.687  0.00  0.00    -0.046 C 
ATOM     14  H   LIG d   1       9.671   5.711  -5.504  0.00  0.00     0.027 H 
ATOM     15  H   LIG d   1       8.236   5.580  -4.458  0.00  0.00     0.027 H 
ATOM     16  H   LIG d   1       8.812   7.181  -4.983  0.00  0.00     0.027 H 
ENDBRANCH  10  13
ENDBRANCH   8   9
ENDBRANCH   6   7
ENDBRANCH   3   5
BRANCH   3  17
ATOM     17  O   LIG d   1       8.158  -1.689  -3.710  0.00  0.00    -0.376 OA
ATOM     18  H   LIG d   1       8.663  -1.357  -2.955  0.00  0.00     0.211 HD
ENDBRANCH   3  17
ENDBRANCH   1   3
BRANCH   1  19
ATOM     19  C   LIG d   1       5.589  -1.928  -4.922  0.00  0.00    -0.056 C 
ATOM     20  C   LIG d   1       4.688  -2.494  -4.158  0.00  0.00    -0.085 C 
ATOM     21  H   LIG d   1       4.234  -3.427  -4.458  0.00  0.00     0.057 H 
ATOM     22  H   LIG d   1       5.913  -2.419  -5.828  0.00  0.00     0.060 H 
BRANCH  20  23
ATOM     23  C   LIG d   1       4.287  -1.845  -2.859  0.00  0.00    -0.033 C 
ATOM     24  H   LIG d   1       4.194  -2.606  -2.085  0.00  0.00     0.031 H 
ATOM     25  H   LIG d   1       5.047  -1.120  -2.566  0.00  0.00     0.031 H 
BRANCH  23  26
ATOM     26  C   LIG d   1       2.945  -1.132  -3.037  0.00  0.00    -0.026 C 
ATOM     27  H   LIG d   1       2.506  -1.419  -3.992  0.00  0.00     0.029 H 
ATOM     28  H   LIG d   1       2.272  -1.418  -2.228  0.00  0.00     0.029 H 
BRANCH  26  29
ATOM     29  C   LIG d   1       3.163   0.382  -3.009  0.00  0.00     0.044 C 
ATOM     30  H   LIG d   1       2.407   0.847  -2.377  0.00  0.00     0.056 H 
ATOM     31  H   LIG d   1       4.154   0.599  -2.609  0.00  0.00     0.056 H 
BRANCH  29  32
ATOM     32  O   LIG d   1       3.061   0.902  -4.335  0.00  0.00    -0.395 OA
ATOM     33  H   LIG d   1       3.708   1.592  -4.539  0.00  0.00     0.209 HD
ENDBRANCH  29  32
ENDBRANCH  26  29
ENDBRANCH  23  26
ENDBRANCH  20  23
ENDBRANCH   1  19
BRANCH   1  34
ATOM     34  O   LIG d   1       5.709   0.409  -5.450  0.00  0.00    -0.338 OA
BRANCH  34  35
ATOM     35  C   LIG d   1       5.459  -0.079  -6.769  0.00  0.00     0.189 C 
ATOM     36  H   LIG d   1       5.306  -1.157  -6.736  0.00  0.00     0.094 H 
ATOM     37  O   LIG d   1       4.292   0.553  -7.298  0.00  0.00    -0.341 OA
ATOM     38  C   LIG d   1       3.936   0.116  -8.612  0.00  0.00     0.113 C 
ATOM     39  C   LIG d   1       5.076   0.439  -9.582  0.00  0.00     0.112 C 
ATOM     40  H   LIG d   1       3.762  -0.960  -8.602  0.00  0.00     0.065 H 
ATOM     41  C   LIG d   1       6.361  -0.234  -9.091  0.00  0.00     0.114 C 
ATOM     42  H   LIG d   1       4.825   0.068 -10.575  0.00  0.00     0.065 H 
ATOM     43  C   LIG d   1       6.660   0.237  -7.666  0.00  0.00     0.134 C 
ATOM     44  H   LIG d   1       6.230  -1.317  -9.098  0.00  0.00     0.065 H 
ATOM     45  H   LIG d   1       7.542  -0.279  -7.288  0.00  0.00     0.067 H 
BRANCH  38  46
ATOM     46  C   LIG d   1       2.663   0.834  -9.062  0.00  0.00     0.073 C 
ATOM     47  H   LIG d   1       2.648   0.900 -10.150  0.00  0.00     0.058 H 
ATOM     48  H   LIG d   1       1.791   0.277  -8.720  0.00  0.00     0.058 H 
BRANCH  46  49
ATOM     49  O   LIG d   1       2.637   2.150  -8.505  0.00  0.00    -0.392 OA
ATOM     50  H   LIG d   1       3.473   2.422  -8.100  0.00  0.00     0.209 HD
ENDBRANCH  46  49
ENDBRANCH  38  46
BRANCH  39  51
ATOM     51  O   LIG d   1       5.270   1.855  -9.636  0.00  0.00    -0.387 OA
ATOM     52  H   LIG d   1       4.534   2.366  -9.273  0.00  0.00     0.210 HD
ENDBRANCH  39  51
BRANCH  41  53
ATOM     53  O   LIG d   1       7.446   0.121  -9.950  0.00  0.00    -0.386 OA
ATOM     54  H   LIG d   1       7.904   0.931  -9.690  0.00  0.00     0.210 HD
ENDBRANCH  41  53
BRANCH  43  55
ATOM     55  O   LIG d   1       6.896   1.647  -7.667  0.00  0.00    -0.384 OA
ATOM     56  H   LIG d   1       7.263   1.985  -6.839  0.00  0.00     0.210 HD
ENDBRANCH  43  55
ENDBRANCH  34  35
ENDBRANCH   1  34
TORSDOF 18
ENDMDL
MODEL 10
REMARK VINA RESULT:      -5.8      6.903      9.453
REMARK  18 active torsions:
REMARK  status: ('A' for Active; 'I' for Inactive)
REMARK    1  A    between atoms: C_1  and  C_2 
REMARK    2  A    between atoms: C_3  and  C_4 
REMARK    3  A    between atoms: C_5  and  C_6 
REMARK    4  A    between atoms: C_7  and  C_8 
REMARK    5  A    between atoms: C_8  and  C_10 
REMARK    6  A    between atoms: C_8  and  O_35 
REMARK    7  A    between atoms: C_10  and  C_12 
REMARK    8  A    between atoms: C_10  and  O_18 
REMARK    9  A    between atoms: C_13  and  C_14 
REMARK   10  A    between atoms: C_14  and  C_15 
REMARK   11  A    between atoms: C_15  and  C_16 
REMARK   12  A    between atoms: C_16  and  O_17 
REMARK   13  A    between atoms: O_18  and  C_19 
REMARK   14  A    between atoms: C_21  and  O_34 
REMARK   15  A    between atoms: C_23  and  O_33 
REMARK   16  A    between atoms: C_25  and  O_32 
REMARK   17  A    between atoms: C_27  and  C_30 
REMARK   18  A    between atoms: C_30  and  O_31 
ROOT
ATOM      1  C   LIG d   1       4.755  -0.992  -4.789  0.00  0.00     0.117 C 
ATOM      2  H   LIG d   1       5.505  -0.776  -4.029  0.00  0.00     0.068 H 
ENDROOT
BRANCH   1   3
ATOM      3  C   LIG d   1       5.154  -2.255  -5.555  0.00  0.00     0.146 C 
ATOM      4  H   LIG d   1       5.372  -1.997  -6.592  0.00  0.00     0.076 H 
BRANCH   3   5
ATOM      5  C   LIG d   1       6.351  -2.848  -4.936  0.00  0.00    -0.054 C 
ATOM      6  C   LIG d   1       7.306  -3.320  -4.442  0.00  0.00    -0.012 C 
BRANCH   6   7
ATOM      7  C   LIG d   1       8.425  -3.874  -3.863  0.00  0.00    -0.010 C 
ATOM      8  C   LIG d   1       9.378  -4.348  -3.369  0.00  0.00    -0.061 C 
BRANCH   8   9
ATOM      9  C   LIG d   1      10.543  -4.924  -2.766  0.00  0.00    -0.015 C 
ATOM     10  C   LIG d   1      10.526  -6.194  -2.364  0.00  0.00    -0.079 C 
ATOM     11  H   LIG d   1      11.403  -6.629  -1.909  0.00  0.00     0.058 H 
ATOM     12  H   LIG d   1      11.435  -4.329  -2.638  0.00  0.00     0.071 H 
BRANCH  10  13
ATOM     13  C   LIG d   1       9.281  -7.025  -2.543  0.00  0.00    -0.046 C 
ATOM     14  H   LIG d   1       8.653  -6.934  -1.656  0.00  0.00     0.027 H 
ATOM     15  H   LIG d   1       8.731  -6.672  -3.415  0.00  0.00     0.027 H 
ATOM     16  H   LIG d   1       9.559  -8.070  -2.686  0.00  0.00     0.027 H 
ENDBRANCH  10  13
ENDBRANCH   8   9
ENDBRANCH   6   7
ENDBRANCH   3   5
BRANCH   3  17
ATOM     17  O   LIG d   1       4.080  -3.196  -5.515  0.00  0.00    -0.376 OA
ATOM     18  H   LIG d   1       4.031  -3.701  -4.691  0.00  0.00     0.211 HD
ENDBRANCH   3  17
ENDBRANCH   1   3
BRANCH   1  19
ATOM     19  C   LIG d   1       3.418  -1.207  -4.129  0.00  0.00    -0.056 C 
ATOM     20  C   LIG d   1       3.306  -1.112  -2.828  0.00  0.00    -0.085 C 
ATOM     21  H   LIG d   1       2.339  -1.216  -2.358  0.00  0.00     0.057 H 
ATOM     22  H   LIG d   1       2.550  -1.440  -4.729  0.00  0.00     0.060 H 
BRANCH  20  23
ATOM     23  C   LIG d   1       4.529  -0.859  -1.984  0.00  0.00    -0.033 C 
ATOM     24  H   LIG d   1       4.478  -1.464  -1.079  0.00  0.00     0.031 H 
ATOM     25  H   LIG d   1       5.422  -1.124  -2.549  0.00  0.00     0.031 H 
BRANCH  23  26
ATOM     26  C   LIG d   1       4.589   0.622  -1.604  0.00  0.00    -0.026 C 
ATOM     27  H   LIG d   1       4.457   0.726  -0.527  0.00  0.00     0.029 H 
ATOM     28  H   LIG d   1       5.557   1.032  -1.892  0.00  0.00     0.029 H 
BRANCH  26  29
ATOM     29  C   LIG d   1       3.477   1.381  -2.330  0.00  0.00     0.044 C 
ATOM     30  H   LIG d   1       2.778   0.670  -2.770  0.00  0.00     0.056 H 
ATOM     31  H   LIG d   1       2.948   2.018  -1.621  0.00  0.00     0.056 H 
BRANCH  29  32
ATOM     32  O   LIG d   1       4.047   2.189  -3.361  0.00  0.00    -0.395 OA
ATOM     33  H   LIG d   1       4.768   2.759  -3.061  0.00  0.00     0.209 HD
ENDBRANCH  29  32
ENDBRANCH  26  29
ENDBRANCH  23  26
ENDBRANCH  20  23
ENDBRANCH   1  19
BRANCH   1  34
ATOM     34  O   LIG d   1       4.667   0.108  -5.697  0.00  0.00    -0.338 OA
BRANCH  34  35
ATOM     35  C   LIG d   1       5.136  -0.188  -7.014  0.00  0.00     0.189 C 
ATOM     36  H   LIG d   1       4.938  -1.235  -7.244  0.00  0.00     0.094 H 
ATOM     37  O   LIG d   1       4.460   0.643  -7.959  0.00  0.00    -0.341 OA
ATOM     38  C   LIG d   1       4.838   0.410  -9.318  0.00  0.00     0.113 C 
ATOM     39  C   LIG d   1       6.333   0.696  -9.486  0.00  0.00     0.112 C 
ATOM     40  H   LIG d   1       4.636  -0.629  -9.577  0.00  0.00     0.065 H 
ATOM     41  C   LIG d   1       7.127  -0.187  -8.519  0.00  0.00     0.114 C 
ATOM     42  H   LIG d   1       6.632   0.477 -10.510  0.00  0.00     0.065 H 
ATOM     43  C   LIG d   1       6.642   0.075  -7.090  0.00  0.00     0.134 C 
ATOM     44  H   LIG d   1       6.969  -1.236  -8.771  0.00  0.00     0.065 H 
ATOM     45  H   LIG d   1       7.163  -0.589  -6.401  0.00  0.00     0.067 H 
BRANCH  38  46
ATOM     46  C   LIG d   1       4.035   1.331 -10.238  0.00  0.00     0.073 C 
ATOM     47  H   LIG d   1       2.981   1.290  -9.963  0.00  0.00     0.058 H 
ATOM     48  H   LIG d   1       4.398   2.354 -10.134  0.00  0.00     0.058 H 
BRANCH  46  49
ATOM     49  O   LIG d   1       4.192   0.904 -11.593  0.00  0.00    -0.392 OA
ATOM     50  H   LIG d   1       4.538   1.589 -12.182  0.00  0.00     0.209 HD
ENDBRANCH  46  49
ENDBRANCH  38  46
BRANCH  39  51
ATOM     51  O   LIG d   1       6.591   2.073  -9.197  0.00  0.00    -0.387 OA
ATOM     52  H   LIG d   1       7.350   2.216  -8.616  0.00  0.00     0.210 HD
ENDBRANCH  39  51
BRANCH  41  53
ATOM     53  O   LIG d   1       8.518   0.124  -8.617  0.00  0.00    -0.386 OA
ATOM     54  H   LIG d   1       8.778   0.500  -9.469  0.00  0.00     0.210 HD
ENDBRANCH  41  53
BRANCH  43  55
ATOM     55  O   LIG d   1       6.908   1.434  -6.736  0.00  0.00    -0.384 OA
ATOM     56  H   LIG d   1       6.120   1.937  -6.487  0.00  0.00     0.210 HD
ENDBRANCH  43  55
ENDBRANCH  34  35
ENDBRANCH   1  34
TORSDOF 18
ENDMDL
