MODEL 1
REMARK VINA RESULT:      -6.3      0.000      0.000
REMARK  6 active torsions:
REMARK  status: ('A' for Active; 'I' for Inactive)
REMARK    1  A    between atoms: C_1  and  C_2 
REMARK    2  A    between atoms: C_2  and  C_3 
REMARK    3  A    between atoms: C_3  and  O_5 
REMARK    4  A    between atoms: O_5  and  C_6 
REMARK    5  A    between atoms: C_12  and  C_29 
REMARK    6  A    between atoms: C_27  and  C_28 
ROOT
ATOM      1  C   LIG d   1       4.709   0.131  -5.024  0.00  0.00     0.109 C 
ATOM      2  H   LIG d   1       5.190   1.093  -5.197  0.00  0.00     0.074 H 
ATOM      3  C   LIG d   1       3.206   0.318  -4.728  0.00  0.00    -0.015 C 
ATOM      4  C   LIG d   1       2.505   0.289  -6.096  0.00  0.00    -0.046 C 
ATOM      5  C   LIG d   1       3.491  -0.358  -7.099  0.00  0.00    -0.029 C 
ATOM      6  H   LIG d   1       3.045  -1.261  -7.515  0.00  0.00     0.031 H 
ATOM      7  C   LIG d   1       4.728  -0.716  -6.301  0.00  0.00     0.008 C 
ATOM      8  C   LIG d   1       6.049  -0.724  -7.002  0.00  0.00    -0.044 C 
ATOM      9  C   LIG d   1       6.223   0.293  -8.112  0.00  0.00    -0.049 C 
ATOM     10  C   LIG d   1       4.995   0.449  -8.989  0.00  0.00    -0.029 C 
ATOM     11  H   LIG d   1       5.149   1.435  -9.500  0.00  0.00     0.031 H 
ATOM     12  C   LIG d   1       3.740   0.655  -8.201  0.00  0.00    -0.034 C 
ATOM     13  H   LIG d   1       3.883   1.615  -7.678  0.00  0.00     0.031 H 
ATOM     14  C   LIG d   1       2.501   0.855  -9.057  0.00  0.00    -0.046 C 
ATOM     15  C   LIG d   1       2.340  -0.277 -10.065  0.00  0.00    -0.030 C 
ATOM     16  C   LIG d   1       3.618  -0.424 -10.866  0.00  0.00    -0.060 C 
ATOM     17  C   LIG d   1       3.519  -0.431 -12.194  0.00  0.00    -0.019 C 
ATOM     18  C   LIG d   1       4.700  -0.613 -13.039  0.00  0.00     0.156 C 
ATOM     19  O   LIG d   1       4.653  -0.406 -14.238  0.00  0.00    -0.293 OA
ATOM     20  C   LIG d   1       5.980  -1.069 -12.374  0.00  0.00     0.011 C 
ATOM     21  C   LIG d   1       6.128  -0.339 -11.045  0.00  0.00    -0.037 C 
ATOM     22  C   LIG d   1       4.922  -0.538 -10.135  0.00  0.00    -0.007 C 
ATOM     23  H   LIG d   1       2.838  -0.490  -4.097  0.00  0.00     0.030 H 
ATOM     24  H   LIG d   1       3.035   1.278  -4.239  0.00  0.00     0.030 H 
ATOM     25  H   LIG d   1       2.266   1.305  -6.410  0.00  0.00     0.027 H 
ATOM     26  H   LIG d   1       1.593  -0.304  -6.035  0.00  0.00     0.027 H 
ATOM     27  H   LIG d   1       6.825  -0.522  -6.238  0.00  0.00     0.027 H 
ATOM     28  H   LIG d   1       6.265  -1.732  -7.365  0.00  0.00     0.027 H 
ATOM     29  H   LIG d   1       6.466   1.273  -7.665  0.00  0.00     0.027 H 
ATOM     30  H   LIG d   1       7.088   0.017  -8.733  0.00  0.00     0.027 H 
ATOM     31  H   LIG d   1       1.617   0.894  -8.417  0.00  0.00     0.027 H 
ATOM     32  H   LIG d   1       2.583   1.804  -9.595  0.00  0.00     0.027 H 
ATOM     33  H   LIG d   1       2.119  -1.207  -9.543  0.00  0.00     0.031 H 
ATOM     34  H   LIG d   1       1.514  -0.044 -10.742  0.00  0.00     0.031 H 
ATOM     35  H   LIG d   1       2.548  -0.299 -12.656  0.00  0.00     0.065 H 
ATOM     36  H   LIG d   1       5.942  -2.055 -12.220  0.00  0.00     0.035 H 
ATOM     37  H   LIG d   1       6.832  -0.830 -13.020  0.00  0.00     0.035 H 
ATOM     38  H   LIG d   1       7.017  -0.711 -10.533  0.00  0.00     0.028 H 
ATOM     39  H   LIG d   1       6.252   0.729 -11.232  0.00  0.00     0.028 H 
ENDROOT
BRANCH   1  40
ATOM     40  O   LIG d   1       5.359  -0.576  -3.936  0.00  0.00    -0.461 OA
BRANCH  40  41
ATOM     41  C   LIG d   1       5.215  -0.065  -2.704  0.00  0.00     0.307 C 
ATOM     42  O   LIG d   1       5.638   1.040  -2.456  0.00  0.00    -0.251 OA
BRANCH  41  43
ATOM     43  C   LIG d   1       4.525  -0.866  -1.630  0.00  0.00     0.042 C 
ATOM     44  H   LIG d   1       3.753  -0.256  -1.161  0.00  0.00     0.037 H 
ATOM     45  H   LIG d   1       5.254  -1.170  -0.880  0.00  0.00     0.037 H 
BRANCH  43  46
ATOM     46  C   LIG d   1       3.885  -2.109  -2.253  0.00  0.00    -0.055 C 
ATOM     47  H   LIG d   1       4.593  -2.937  -2.219  0.00  0.00     0.024 H 
ATOM     48  H   LIG d   1       3.619  -1.900  -3.289  0.00  0.00     0.024 H 
ATOM     49  H   LIG d   1       2.988  -2.375  -1.694  0.00  0.00     0.024 H 
ENDBRANCH  43  46
ENDBRANCH  41  43
ENDBRANCH  40  41
ENDBRANCH   1  40
BRANCH   7  50
ATOM     50  C   LIG d   1       4.501  -2.160  -5.825  0.00  0.00    -0.056 C 
ATOM     51  H   LIG d   1       3.447  -2.304  -5.589  0.00  0.00     0.024 H 
ATOM     52  H   LIG d   1       4.795  -2.853  -6.614  0.00  0.00     0.024 H 
ATOM     53  H   LIG d   1       5.102  -2.348  -4.935  0.00  0.00     0.024 H 
ENDBRANCH   7  50
BRANCH  22  54
ATOM     54  C   LIG d   1       4.997  -1.965  -9.601  0.00  0.00    -0.056 C 
ATOM     55  H   LIG d   1       4.069  -2.488  -9.832  0.00  0.00     0.024 H 
ATOM     56  H   LIG d   1       5.833  -2.484 -10.068  0.00  0.00     0.024 H 
ATOM     57  H   LIG d   1       5.141  -1.941  -8.521  0.00  0.00     0.024 H 
ENDBRANCH  22  54
TORSDOF 6
ENDMDL
MODEL 2
REMARK VINA RESULT:      -5.9      1.459      2.808
REMARK  6 active torsions:
REMARK  status: ('A' for Active; 'I' for Inactive)
REMARK    1  A    between atoms: C_1  and  C_2 
REMARK    2  A    between atoms: C_2  and  C_3 
REMARK    3  A    between atoms: C_3  and  O_5 
REMARK    4  A    between atoms: O_5  and  C_6 
REMARK    5  A    between atoms: C_12  and  C_29 
REMARK    6  A    between atoms: C_27  and  C_28 
ROOT
ATOM      1  C   LIG d   1       4.291  -2.036  -4.458  0.00  0.00     0.109 C 
ATOM      2  H   LIG d   1       3.205  -2.058  -4.532  0.00  0.00     0.074 H 
ATOM      3  C   LIG d   1       4.865  -3.468  -4.414  0.00  0.00    -0.015 C 
ATOM      4  C   LIG d   1       5.093  -3.870  -5.880  0.00  0.00    -0.046 C 
ATOM      5  C   LIG d   1       5.100  -2.565  -6.715  0.00  0.00    -0.029 C 
ATOM      6  H   LIG d   1       6.062  -2.459  -7.214  0.00  0.00     0.031 H 
ATOM      7  C   LIG d   1       4.904  -1.433  -5.727  0.00  0.00     0.008 C 
ATOM      8  C   LIG d   1       4.221  -0.189  -6.197  0.00  0.00    -0.044 C 
ATOM      9  C   LIG d   1       3.143  -0.374  -7.245  0.00  0.00    -0.049 C 
ATOM     10  C   LIG d   1       3.504  -1.390  -8.313  0.00  0.00    -0.029 C 
ATOM     11  H   LIG d   1       2.518  -1.660  -8.775  0.00  0.00     0.031 H 
ATOM     12  C   LIG d   1       3.990  -2.684  -7.743  0.00  0.00    -0.034 C 
ATOM     13  H   LIG d   1       3.130  -3.096  -7.188  0.00  0.00     0.031 H 
ATOM     14  C   LIG d   1       4.319  -3.733  -8.791  0.00  0.00    -0.046 C 
ATOM     15  C   LIG d   1       5.292  -3.188  -9.829  0.00  0.00    -0.030 C 
ATOM     16  C   LIG d   1       4.742  -1.900 -10.407  0.00  0.00    -0.060 C 
ATOM     17  C   LIG d   1       4.669  -1.797 -11.733  0.00  0.00    -0.019 C 
ATOM     18  C   LIG d   1       4.191  -0.569 -12.372  0.00  0.00     0.156 C 
ATOM     19  O   LIG d   1       3.919  -0.543 -13.558  0.00  0.00    -0.293 OA
ATOM     20  C   LIG d   1       4.049   0.665 -11.509  0.00  0.00     0.011 C 
ATOM     21  C   LIG d   1       3.464   0.257 -10.162  0.00  0.00    -0.037 C 
ATOM     22  C   LIG d   1       4.294  -0.818  -9.471  0.00  0.00    -0.007 C 
ATOM     23  H   LIG d   1       5.807  -3.485  -3.867  0.00  0.00     0.030 H 
ATOM     24  H   LIG d   1       4.151  -4.146  -3.945  0.00  0.00     0.030 H 
ATOM     25  H   LIG d   1       4.286  -4.522  -6.214  0.00  0.00     0.027 H 
ATOM     26  H   LIG d   1       6.049  -4.382  -5.982  0.00  0.00     0.027 H 
ATOM     27  H   LIG d   1       3.750   0.279  -5.310  0.00  0.00     0.027 H 
ATOM     28  H   LIG d   1       4.968   0.533  -6.534  0.00  0.00     0.027 H 
ATOM     29  H   LIG d   1       2.211  -0.698  -6.748  0.00  0.00     0.027 H 
ATOM     30  H   LIG d   1       2.918   0.594  -7.717  0.00  0.00     0.027 H 
ATOM     31  H   LIG d   1       4.762  -4.606  -8.307  0.00  0.00     0.027 H 
ATOM     32  H   LIG d   1       3.398  -4.044  -9.292  0.00  0.00     0.027 H 
ATOM     33  H   LIG d   1       6.261  -3.003  -9.366  0.00  0.00     0.031 H 
ATOM     34  H   LIG d   1       5.415  -3.920 -10.632  0.00  0.00     0.031 H 
ATOM     35  H   LIG d   1       4.969  -2.636 -12.349  0.00  0.00     0.065 H 
ATOM     36  H   LIG d   1       4.946   1.086 -11.379  0.00  0.00     0.035 H 
ATOM     37  H   LIG d   1       3.377   1.377 -11.999  0.00  0.00     0.035 H 
ATOM     38  H   LIG d   1       3.419   1.134  -9.514  0.00  0.00     0.028 H 
ATOM     39  H   LIG d   1       2.453  -0.124 -10.309  0.00  0.00     0.028 H 
ENDROOT
BRANCH   1  40
ATOM     40  O   LIG d   1       4.707  -1.285  -3.287  0.00  0.00    -0.461 OA
BRANCH  40  41
ATOM     41  C   LIG d   1       3.777  -0.525  -2.688  0.00  0.00     0.307 C 
ATOM     42  O   LIG d   1       2.611  -0.837  -2.750  0.00  0.00    -0.251 OA
BRANCH  41  43
ATOM     43  C   LIG d   1       4.186   0.716  -1.937  0.00  0.00     0.042 C 
ATOM     44  H   LIG d   1       4.525   0.441  -0.938  0.00  0.00     0.037 H 
ATOM     45  H   LIG d   1       3.334   1.390  -1.858  0.00  0.00     0.037 H 
BRANCH  43  46
ATOM     46  C   LIG d   1       5.322   1.415  -2.687  0.00  0.00    -0.055 C 
ATOM     47  H   LIG d   1       4.910   2.207  -3.313  0.00  0.00     0.024 H 
ATOM     48  H   LIG d   1       5.843   0.691  -3.314  0.00  0.00     0.024 H 
ATOM     49  H   LIG d   1       6.021   1.844  -1.970  0.00  0.00     0.024 H 
ENDBRANCH  43  46
ENDBRANCH  41  43
ENDBRANCH  40  41
ENDBRANCH   1  40
BRANCH   7  50
ATOM     50  C   LIG d   1       6.322  -1.001  -5.318  0.00  0.00    -0.056 C 
ATOM     51  H   LIG d   1       6.900  -0.760  -6.209  0.00  0.00     0.024 H 
ATOM     52  H   LIG d   1       6.262  -0.122  -4.674  0.00  0.00     0.024 H 
ATOM     53  H   LIG d   1       6.808  -1.813  -4.777  0.00  0.00     0.024 H 
ENDBRANCH   7  50
BRANCH  22  54
ATOM     54  C   LIG d   1       5.560  -0.141  -8.954  0.00  0.00    -0.056 C 
ATOM     55  H   LIG d   1       6.399  -0.833  -9.028  0.00  0.00     0.024 H 
ATOM     56  H   LIG d   1       5.768   0.746  -9.552  0.00  0.00     0.024 H 
ATOM     57  H   LIG d   1       5.419   0.147  -7.913  0.00  0.00     0.024 H 
ENDBRANCH  22  54
TORSDOF 6
ENDMDL
MODEL 3
REMARK VINA RESULT:      -5.8      4.173      6.993
REMARK  6 active torsions:
REMARK  status: ('A' for Active; 'I' for Inactive)
REMARK    1  A    between atoms: C_1  and  C_2 
REMARK    2  A    between atoms: C_2  and  C_3 
REMARK    3  A    between atoms: C_3  and  O_5 
REMARK    4  A    between atoms: O_5  and  C_6 
REMARK    5  A    between atoms: C_12  and  C_29 
REMARK    6  A    between atoms: C_27  and  C_28 
ROOT
ATOM      1  C   LIG d   1       5.062  -0.548  -5.550  0.00  0.00     0.109 C 
ATOM      2  H   LIG d   1       5.519   0.169  -4.870  0.00  0.00     0.074 H 
ATOM      3  C   LIG d   1       5.353  -0.171  -7.018  0.00  0.00    -0.015 C 
ATOM      4  C   LIG d   1       6.681  -0.862  -7.370  0.00  0.00    -0.046 C 
ATOM      5  C   LIG d   1       6.911  -1.972  -6.315  0.00  0.00    -0.029 C 
ATOM      6  H   LIG d   1       6.959  -2.940  -6.812  0.00  0.00     0.031 H 
ATOM      7  C   LIG d   1       5.711  -1.928  -5.390  0.00  0.00     0.008 C 
ATOM      8  C   LIG d   1       5.895  -2.349  -3.968  0.00  0.00    -0.044 C 
ATOM      9  C   LIG d   1       7.245  -2.047  -3.350  0.00  0.00    -0.049 C 
ATOM     10  C   LIG d   1       8.411  -2.305  -4.285  0.00  0.00    -0.029 C 
ATOM     11  H   LIG d   1       9.257  -1.724  -3.833  0.00  0.00     0.031 H 
ATOM     12  C   LIG d   1       8.230  -1.673  -5.628  0.00  0.00    -0.034 C 
ATOM     13  H   LIG d   1       8.210  -0.587  -5.435  0.00  0.00     0.031 H 
ATOM     14  C   LIG d   1       9.403  -1.882  -6.571  0.00  0.00    -0.046 C 
ATOM     15  C   LIG d   1       9.748  -3.361  -6.700  0.00  0.00    -0.030 C 
ATOM     16  C   LIG d   1       9.960  -3.951  -5.321  0.00  0.00    -0.060 C 
ATOM     17  C   LIG d   1      11.086  -4.628  -5.103  0.00  0.00    -0.019 C 
ATOM     18  C   LIG d   1      11.348  -5.267  -3.812  0.00  0.00     0.156 C 
ATOM     19  O   LIG d   1      12.453  -5.696  -3.536  0.00  0.00    -0.293 OA
ATOM     20  C   LIG d   1      10.200  -5.376  -2.834  0.00  0.00     0.011 C 
ATOM     21  C   LIG d   1       9.402  -4.078  -2.868  0.00  0.00    -0.037 C 
ATOM     22  C   LIG d   1       8.913  -3.734  -4.270  0.00  0.00    -0.007 C 
ATOM     23  H   LIG d   1       4.557  -0.529  -7.669  0.00  0.00     0.030 H 
ATOM     24  H   LIG d   1       5.455   0.910  -7.116  0.00  0.00     0.030 H 
ATOM     25  H   LIG d   1       7.495  -0.138  -7.334  0.00  0.00     0.027 H 
ATOM     26  H   LIG d   1       6.620  -1.301  -8.366  0.00  0.00     0.027 H 
ATOM     27  H   LIG d   1       5.126  -1.820  -3.369  0.00  0.00     0.027 H 
ATOM     28  H   LIG d   1       5.652  -3.410  -3.866  0.00  0.00     0.027 H 
ATOM     29  H   LIG d   1       7.268  -0.987  -3.039  0.00  0.00     0.027 H 
ATOM     30  H   LIG d   1       7.370  -2.638  -2.431  0.00  0.00     0.027 H 
ATOM     31  H   LIG d   1       9.155  -1.484  -7.557  0.00  0.00     0.027 H 
ATOM     32  H   LIG d   1      10.274  -1.344  -6.188  0.00  0.00     0.027 H 
ATOM     33  H   LIG d   1       8.939  -3.885  -7.208  0.00  0.00     0.031 H 
ATOM     34  H   LIG d   1      10.665  -3.470  -7.284  0.00  0.00     0.031 H 
ATOM     35  H   LIG d   1      11.821  -4.708  -5.896  0.00  0.00     0.065 H 
ATOM     36  H   LIG d   1       9.614  -6.144  -3.091  0.00  0.00     0.035 H 
ATOM     37  H   LIG d   1      10.594  -5.537  -1.825  0.00  0.00     0.035 H 
ATOM     38  H   LIG d   1       8.536  -4.176  -2.211  0.00  0.00     0.028 H 
ATOM     39  H   LIG d   1      10.027  -3.261  -2.506  0.00  0.00     0.028 H 
ENDROOT
BRANCH   1  40
ATOM     40  O   LIG d   1       3.631  -0.632  -5.320  0.00  0.00    -0.461 OA
BRANCH  40  41
ATOM     41  C   LIG d   1       3.109   0.213  -4.417  0.00  0.00     0.307 C 
ATOM     42  O   LIG d   1       2.716   1.302  -4.765  0.00  0.00    -0.251 OA
BRANCH  41  43
ATOM     43  C   LIG d   1       3.013  -0.195  -2.969  0.00  0.00     0.042 C 
ATOM     44  H   LIG d   1       3.236  -1.258  -2.876  0.00  0.00     0.037 H 
ATOM     45  H   LIG d   1       2.005  -0.003  -2.604  0.00  0.00     0.037 H 
BRANCH  43  46
ATOM     46  C   LIG d   1       4.018   0.611  -2.144  0.00  0.00    -0.055 C 
ATOM     47  H   LIG d   1       4.047   0.222  -1.126  0.00  0.00     0.024 H 
ATOM     48  H   LIG d   1       3.715   1.658  -2.123  0.00  0.00     0.024 H 
ATOM     49  H   LIG d   1       5.007   0.528  -2.593  0.00  0.00     0.024 H 
ENDBRANCH  43  46
ENDBRANCH  41  43
ENDBRANCH  40  41
ENDBRANCH   1  40
BRANCH   7  50
ATOM     50  C   LIG d   1       4.698  -2.917  -5.990  0.00  0.00    -0.056 C 
ATOM     51  H   LIG d   1       4.288  -2.504  -6.911  0.00  0.00     0.024 H 
ATOM     52  H   LIG d   1       5.198  -3.862  -6.207  0.00  0.00     0.024 H 
ATOM     53  H   LIG d   1       3.892  -3.089  -5.277  0.00  0.00     0.024 H 
ENDBRANCH   7  50
BRANCH  22  54
ATOM     54  C   LIG d   1       7.770  -4.692  -4.592  0.00  0.00    -0.056 C 
ATOM     55  H   LIG d   1       7.923  -5.119  -5.584  0.00  0.00     0.024 H 
ATOM     56  H   LIG d   1       7.747  -5.491  -3.853  0.00  0.00     0.024 H 
ATOM     57  H   LIG d   1       6.826  -4.150  -4.572  0.00  0.00     0.024 H 
ENDBRANCH  22  54
TORSDOF 6
ENDMDL
MODEL 4
REMARK VINA RESULT:      -5.6     10.018     13.464
REMARK  6 active torsions:
REMARK  status: ('A' for Active; 'I' for Inactive)
REMARK    1  A    between atoms: C_1  and  C_2 
REMARK    2  A    between atoms: C_2  and  C_3 
REMARK    3  A    between atoms: C_3  and  O_5 
REMARK    4  A    between atoms: O_5  and  C_6 
REMARK    5  A    between atoms: C_12  and  C_29 
REMARK    6  A    between atoms: C_27  and  C_28 
ROOT
ATOM      1  C   LIG d   1       9.706   9.411  -5.588  0.00  0.00     0.109 C 
ATOM      2  H   LIG d   1       8.730   8.939  -5.483  0.00  0.00     0.074 H 
ATOM      3  C   LIG d   1       9.613  10.927  -5.316  0.00  0.00    -0.015 C 
ATOM      4  C   LIG d   1       9.828  11.092  -3.803  0.00  0.00    -0.046 C 
ATOM      5  C   LIG d   1      10.487   9.787  -3.291  0.00  0.00    -0.029 C 
ATOM      6  H   LIG d   1      11.458  10.018  -2.854  0.00  0.00     0.031 H 
ATOM      7  C   LIG d   1      10.667   8.902  -4.507  0.00  0.00     0.008 C 
ATOM      8  C   LIG d   1      10.636   7.419  -4.319  0.00  0.00    -0.044 C 
ATOM      9  C   LIG d   1       9.718   6.904  -3.229  0.00  0.00    -0.049 C 
ATOM     10  C   LIG d   1       9.745   7.744  -1.966  0.00  0.00    -0.029 C 
ATOM     11  H   LIG d   1       8.803   7.458  -1.429  0.00  0.00     0.031 H 
ATOM     12  C   LIG d   1       9.567   9.204  -2.235  0.00  0.00    -0.034 C 
ATOM     13  H   LIG d   1       8.552   9.297  -2.658  0.00  0.00     0.031 H 
ATOM     14  C   LIG d   1       9.549  10.063  -0.982  0.00  0.00    -0.046 C 
ATOM     15  C   LIG d   1      10.781   9.808  -0.122  0.00  0.00    -0.030 C 
ATOM     16  C   LIG d   1      10.901   8.324   0.158  0.00  0.00    -0.060 C 
ATOM     17  C   LIG d   1      11.041   7.942   1.426  0.00  0.00    -0.019 C 
ATOM     18  C   LIG d   1      11.208   6.530   1.777  0.00  0.00     0.156 C 
ATOM     19  O   LIG d   1      11.120   6.155   2.932  0.00  0.00    -0.293 OA
ATOM     20  C   LIG d   1      11.494   5.554   0.658  0.00  0.00     0.011 C 
ATOM     21  C   LIG d   1      10.631   5.920  -0.544  0.00  0.00    -0.037 C 
ATOM     22  C   LIG d   1      10.839   7.361  -0.991  0.00  0.00    -0.007 C 
ATOM     23  H   LIG d   1      10.384  11.461  -5.868  0.00  0.00     0.030 H 
ATOM     24  H   LIG d   1       8.628  11.300  -5.598  0.00  0.00     0.030 H 
ATOM     25  H   LIG d   1       8.869  11.245  -3.308  0.00  0.00     0.027 H 
ATOM     26  H   LIG d   1      10.484  11.941  -3.610  0.00  0.00     0.027 H 
ATOM     27  H   LIG d   1      10.300   6.975  -5.277  0.00  0.00     0.027 H 
ATOM     28  H   LIG d   1      11.653   7.047  -4.176  0.00  0.00     0.027 H 
ATOM     29  H   LIG d   1       8.683   6.876  -3.614  0.00  0.00     0.027 H 
ATOM     30  H   LIG d   1       9.982   5.863  -2.987  0.00  0.00     0.027 H 
ATOM     31  H   LIG d   1       9.520  11.118  -1.264  0.00  0.00     0.027 H 
ATOM     32  H   LIG d   1       8.652   9.834  -0.400  0.00  0.00     0.027 H 
ATOM     33  H   LIG d   1      11.672  10.161  -0.640  0.00  0.00     0.031 H 
ATOM     34  H   LIG d   1      10.681  10.347   0.823  0.00  0.00     0.031 H 
ATOM     35  H   LIG d   1      11.033   8.689   2.210  0.00  0.00     0.065 H 
ATOM     36  H   LIG d   1      12.462   5.604   0.411  0.00  0.00     0.035 H 
ATOM     37  H   LIG d   1      11.251   4.539   0.988  0.00  0.00     0.035 H 
ATOM     38  H   LIG d   1      10.881   5.258  -1.375  0.00  0.00     0.028 H 
ATOM     39  H   LIG d   1       9.580   5.782  -0.288  0.00  0.00     0.028 H 
ENDROOT
BRANCH   1  40
ATOM     40  O   LIG d   1      10.253   9.163  -6.910  0.00  0.00    -0.461 OA
BRANCH  40  41
ATOM     41  C   LIG d   1       9.489   8.465  -7.764  0.00  0.00     0.307 C 
ATOM     42  O   LIG d   1       8.694   9.038  -8.471  0.00  0.00    -0.251 OA
BRANCH  41  43
ATOM     43  C   LIG d   1       9.623   6.966  -7.843  0.00  0.00     0.042 C 
ATOM     44  H   LIG d   1       9.126   6.603  -8.743  0.00  0.00     0.037 H 
ATOM     45  H   LIG d   1       9.160   6.513  -6.967  0.00  0.00     0.037 H 
BRANCH  43  46
ATOM     46  C   LIG d   1      11.104   6.587  -7.890  0.00  0.00    -0.055 C 
ATOM     47  H   LIG d   1      11.346   5.959  -7.033  0.00  0.00     0.024 H 
ATOM     48  H   LIG d   1      11.712   7.492  -7.861  0.00  0.00     0.024 H 
ATOM     49  H   LIG d   1      11.311   6.041  -8.811  0.00  0.00     0.024 H 
ENDBRANCH  43  46
ENDBRANCH  41  43
ENDBRANCH  40  41
ENDBRANCH   1  40
BRANCH   7  50
ATOM     50  C   LIG d   1      12.073   9.224  -5.041  0.00  0.00    -0.056 C 
ATOM     51  H   LIG d   1      12.443   8.381  -5.623  0.00  0.00     0.024 H 
ATOM     52  H   LIG d   1      12.026  10.111  -5.674  0.00  0.00     0.024 H 
ATOM     53  H   LIG d   1      12.745   9.412  -4.203  0.00  0.00     0.024 H 
ENDBRANCH   7  50
BRANCH  22  54
ATOM     54  C   LIG d   1      12.198   7.424  -1.681  0.00  0.00    -0.056 C 
ATOM     55  H   LIG d   1      12.442   8.461  -1.911  0.00  0.00     0.024 H 
ATOM     56  H   LIG d   1      12.960   7.010  -1.021  0.00  0.00     0.024 H 
ATOM     57  H   LIG d   1      12.164   6.846  -2.604  0.00  0.00     0.024 H 
ENDBRANCH  22  54
TORSDOF 6
ENDMDL
MODEL 5
REMARK VINA RESULT:      -5.6     11.167     13.992
REMARK  6 active torsions:
REMARK  status: ('A' for Active; 'I' for Inactive)
REMARK    1  A    between atoms: C_1  and  C_2 
REMARK    2  A    between atoms: C_2  and  C_3 
REMARK    3  A    between atoms: C_3  and  O_5 
REMARK    4  A    between atoms: O_5  and  C_6 
REMARK    5  A    between atoms: C_12  and  C_29 
REMARK    6  A    between atoms: C_27  and  C_28 
ROOT
ATOM      1  C   LIG d   1      11.162  11.211   0.874  0.00  0.00     0.109 C 
ATOM      2  H   LIG d   1      10.099  11.155   1.103  0.00  0.00     0.074 H 
ATOM      3  C   LIG d   1      12.006  10.762   2.085  0.00  0.00    -0.015 C 
ATOM      4  C   LIG d   1      12.174   9.241   1.934  0.00  0.00    -0.046 C 
ATOM      5  C   LIG d   1      11.851   8.891   0.460  0.00  0.00    -0.029 C 
ATOM      6  H   LIG d   1      12.725   8.437  -0.005  0.00  0.00     0.031 H 
ATOM      7  C   LIG d   1      11.529  10.204  -0.223  0.00  0.00     0.008 C 
ATOM      8  C   LIG d   1      10.576  10.191  -1.375  0.00  0.00    -0.044 C 
ATOM      9  C   LIG d   1       9.465   9.163  -1.312  0.00  0.00    -0.049 C 
ATOM     10  C   LIG d   1       9.919   7.810  -0.797  0.00  0.00    -0.029 C 
ATOM     11  H   LIG d   1       8.968   7.304  -0.486  0.00  0.00     0.031 H 
ATOM     12  C   LIG d   1      10.698   7.904   0.475  0.00  0.00    -0.034 C 
ATOM     13  H   LIG d   1       9.989   8.307   1.219  0.00  0.00     0.031 H 
ATOM     14  C   LIG d   1      11.130   6.559   1.034  0.00  0.00    -0.046 C 
ATOM     15  C   LIG d   1      11.880   5.744  -0.012  0.00  0.00    -0.030 C 
ATOM     16  C   LIG d   1      11.039   5.641  -1.268  0.00  0.00    -0.060 C 
ATOM     17  C   LIG d   1      10.828   4.428  -1.775  0.00  0.00    -0.019 C 
ATOM     18  C   LIG d   1      10.063   4.247  -3.011  0.00  0.00     0.156 C 
ATOM     19  O   LIG d   1       9.685   3.143  -3.359  0.00  0.00    -0.293 OA
ATOM     20  C   LIG d   1       9.761   5.475  -3.840  0.00  0.00     0.011 C 
ATOM     21  C   LIG d   1       9.392   6.619  -2.904  0.00  0.00    -0.037 C 
ATOM     22  C   LIG d   1      10.475   6.895  -1.868  0.00  0.00    -0.007 C 
ATOM     23  H   LIG d   1      12.978  11.252   2.075  0.00  0.00     0.030 H 
ATOM     24  H   LIG d   1      11.483  10.991   3.014  0.00  0.00     0.030 H 
ATOM     25  H   LIG d   1      11.484   8.725   2.600  0.00  0.00     0.027 H 
ATOM     26  H   LIG d   1      13.200   8.954   2.168  0.00  0.00     0.027 H 
ATOM     27  H   LIG d   1      10.104  11.193  -1.420  0.00  0.00     0.027 H 
ATOM     28  H   LIG d   1      11.134  10.100  -2.310  0.00  0.00     0.027 H 
ATOM     29  H   LIG d   1       8.663   9.542  -0.654  0.00  0.00     0.027 H 
ATOM     30  H   LIG d   1       9.013   9.047  -2.309  0.00  0.00     0.027 H 
ATOM     31  H   LIG d   1      11.777   6.715   1.900  0.00  0.00     0.027 H 
ATOM     32  H   LIG d   1      10.246   6.002   1.357  0.00  0.00     0.027 H 
ATOM     33  H   LIG d   1      12.831   6.222  -0.240  0.00  0.00     0.031 H 
ATOM     34  H   LIG d   1      12.070   4.741   0.378  0.00  0.00     0.031 H 
ATOM     35  H   LIG d   1      11.228   3.561  -1.264  0.00  0.00     0.065 H 
ATOM     36  H   LIG d   1      10.567   5.720  -4.378  0.00  0.00     0.035 H 
ATOM     37  H   LIG d   1       8.922   5.265  -4.511  0.00  0.00     0.035 H 
ATOM     38  H   LIG d   1       9.235   7.524  -3.493  0.00  0.00     0.028 H 
ATOM     39  H   LIG d   1       8.465   6.374  -2.383  0.00  0.00     0.028 H 
ENDROOT
BRANCH   1  40
ATOM     40  O   LIG d   1      11.527  12.556   0.469  0.00  0.00    -0.461 OA
BRANCH  40  41
ATOM     41  C   LIG d   1      10.533  13.451   0.360  0.00  0.00     0.307 C 
ATOM     42  O   LIG d   1       9.976  13.859   1.352  0.00  0.00    -0.251 OA
BRANCH  41  43
ATOM     43  C   LIG d   1      10.111  13.947  -0.999  0.00  0.00     0.042 C 
ATOM     44  H   LIG d   1       9.765  14.978  -0.918  0.00  0.00     0.037 H 
ATOM     45  H   LIG d   1       9.303  13.322  -1.379  0.00  0.00     0.037 H 
BRANCH  43  46
ATOM     46  C   LIG d   1      11.301  13.882  -1.958  0.00  0.00    -0.055 C 
ATOM     47  H   LIG d   1      12.078  14.568  -1.620  0.00  0.00     0.024 H 
ATOM     48  H   LIG d   1      10.977  14.166  -2.960  0.00  0.00     0.024 H 
ATOM     49  H   LIG d   1      11.696  12.867  -1.979  0.00  0.00     0.024 H 
ENDBRANCH  43  46
ENDBRANCH  41  43
ENDBRANCH  40  41
ENDBRANCH   1  40
BRANCH   7  50
ATOM     50  C   LIG d   1      12.866  10.705  -0.793  0.00  0.00    -0.056 C 
ATOM     51  H   LIG d   1      12.956  11.777  -0.620  0.00  0.00     0.024 H 
ATOM     52  H   LIG d   1      13.688  10.186  -0.299  0.00  0.00     0.024 H 
ATOM     53  H   LIG d   1      12.902  10.505  -1.864  0.00  0.00     0.024 H 
ENDBRANCH   7  50
BRANCH  22  54
ATOM     54  C   LIG d   1      11.625   7.582  -2.596  0.00  0.00    -0.056 C 
ATOM     55  H   LIG d   1      11.442   7.558  -3.671  0.00  0.00     0.024 H 
ATOM     56  H   LIG d   1      11.697   8.618  -2.264  0.00  0.00     0.024 H 
ATOM     57  H   LIG d   1      12.557   7.064  -2.375  0.00  0.00     0.024 H 
ENDBRANCH  22  54
TORSDOF 6
ENDMDL
MODEL 6
REMARK VINA RESULT:      -5.5      8.443     10.007
REMARK  6 active torsions:
REMARK  status: ('A' for Active; 'I' for Inactive)
REMARK    1  A    between atoms: C_1  and  C_2 
REMARK    2  A    between atoms: C_2  and  C_3 
REMARK    3  A    between atoms: C_3  and  O_5 
REMARK    4  A    between atoms: O_5  and  C_6 
REMARK    5  A    between atoms: C_12  and  C_29 
REMARK    6  A    between atoms: C_27  and  C_28 
ROOT
ATOM      1  C   LIG d   1      10.303   7.333  -1.784  0.00  0.00     0.109 C 
ATOM      2  H   LIG d   1       9.263   7.649  -1.830  0.00  0.00     0.074 H 
ATOM      3  C   LIG d   1      10.420   5.931  -1.149  0.00  0.00    -0.015 C 
ATOM      4  C   LIG d   1      10.293   4.935  -2.313  0.00  0.00    -0.046 C 
ATOM      5  C   LIG d   1      10.567   5.722  -3.619  0.00  0.00    -0.029 C 
ATOM      6  H   LIG d   1      11.429   5.294  -4.127  0.00  0.00     0.031 H 
ATOM      7  C   LIG d   1      10.872   7.145  -3.195  0.00  0.00     0.008 C 
ATOM      8  C   LIG d   1      10.532   8.255  -4.137  0.00  0.00    -0.044 C 
ATOM      9  C   LIG d   1       9.303   8.048  -4.999  0.00  0.00    -0.049 C 
ATOM     10  C   LIG d   1       9.176   6.638  -5.545  0.00  0.00    -0.029 C 
ATOM     11  H   LIG d   1       8.098   6.556  -5.840  0.00  0.00     0.031 H 
ATOM     12  C   LIG d   1       9.331   5.590  -4.490  0.00  0.00    -0.034 C 
ATOM     13  H   LIG d   1       8.481   5.744  -3.804  0.00  0.00     0.031 H 
ATOM     14  C   LIG d   1       9.168   4.169  -5.004  0.00  0.00    -0.046 C 
ATOM     15  C   LIG d   1      10.092   3.902  -6.185  0.00  0.00    -0.030 C 
ATOM     16  C   LIG d   1       9.875   4.963  -7.245  0.00  0.00    -0.060 C 
ATOM     17  C   LIG d   1       9.637   4.556  -8.490  0.00  0.00    -0.019 C 
ATOM     18  C   LIG d   1       9.461   5.517  -9.581  0.00  0.00     0.156 C 
ATOM     19  O   LIG d   1       9.033   5.166 -10.665  0.00  0.00    -0.293 OA
ATOM     20  C   LIG d   1       9.827   6.960  -9.315  0.00  0.00     0.011 C 
ATOM     21  C   LIG d   1       9.357   7.336  -7.915  0.00  0.00    -0.037 C 
ATOM     22  C   LIG d   1       9.919   6.408  -6.845  0.00  0.00    -0.007 C 
ATOM     23  H   LIG d   1      11.384   5.814  -0.656  0.00  0.00     0.030 H 
ATOM     24  H   LIG d   1       9.614   5.774  -0.432  0.00  0.00     0.030 H 
ATOM     25  H   LIG d   1       9.287   4.517  -2.333  0.00  0.00     0.027 H 
ATOM     26  H   LIG d   1      11.025   4.134  -2.201  0.00  0.00     0.027 H 
ATOM     27  H   LIG d   1      10.362   9.162  -3.524  0.00  0.00     0.027 H 
ATOM     28  H   LIG d   1      11.402   8.490  -4.754  0.00  0.00     0.027 H 
ATOM     29  H   LIG d   1       8.403   8.279  -4.403  0.00  0.00     0.027 H 
ATOM     30  H   LIG d   1       9.311   8.767  -5.831  0.00  0.00     0.027 H 
ATOM     31  H   LIG d   1       9.396   3.463  -4.203  0.00  0.00     0.027 H 
ATOM     32  H   LIG d   1       8.132   4.016  -5.318  0.00  0.00     0.027 H 
ATOM     33  H   LIG d   1      11.129   3.916  -5.853  0.00  0.00     0.031 H 
ATOM     34  H   LIG d   1       9.867   2.919  -6.607  0.00  0.00     0.031 H 
ATOM     35  H   LIG d   1       9.575   3.495  -8.700  0.00  0.00     0.065 H 
ATOM     36  H   LIG d   1      10.819   7.070  -9.383  0.00  0.00     0.035 H 
ATOM     37  H   LIG d   1       9.335   7.604 -10.051  0.00  0.00     0.035 H 
ATOM     38  H   LIG d   1       9.675   8.356  -7.695  0.00  0.00     0.028 H 
ATOM     39  H   LIG d   1       8.267   7.292  -7.877  0.00  0.00     0.028 H 
ENDROOT
BRANCH   1  40
ATOM     40  O   LIG d   1      11.097   8.295  -1.042  0.00  0.00    -0.461 OA
BRANCH  40  41
ATOM     41  C   LIG d   1      10.431   9.254  -0.380  0.00  0.00     0.307 C 
ATOM     42  O   LIG d   1      10.839   9.644   0.689  0.00  0.00    -0.251 OA
BRANCH  41  43
ATOM     43  C   LIG d   1       9.175   9.843  -0.969  0.00  0.00     0.042 C 
ATOM     44  H   LIG d   1       8.539  10.219  -0.167  0.00  0.00     0.037 H 
ATOM     45  H   LIG d   1       8.641   9.075  -1.527  0.00  0.00     0.037 H 
BRANCH  43  46
ATOM     46  C   LIG d   1       9.544  10.994  -1.908  0.00  0.00    -0.055 C 
ATOM     47  H   LIG d   1       8.634  11.488  -2.250  0.00  0.00     0.024 H 
ATOM     48  H   LIG d   1      10.089  10.602  -2.767  0.00  0.00     0.024 H 
ATOM     49  H   LIG d   1      10.169  11.711  -1.377  0.00  0.00     0.024 H 
ENDBRANCH  43  46
ENDBRANCH  41  43
ENDBRANCH  40  41
ENDBRANCH   1  40
BRANCH   7  50
ATOM     50  C   LIG d   1      12.398   7.199  -3.021  0.00  0.00    -0.056 C 
ATOM     51  H   LIG d   1      12.878   7.124  -3.996  0.00  0.00     0.024 H 
ATOM     52  H   LIG d   1      12.676   8.142  -2.550  0.00  0.00     0.024 H 
ATOM     53  H   LIG d   1      12.722   6.370  -2.391  0.00  0.00     0.024 H 
ENDBRANCH   7  50
BRANCH  22  54
ATOM     54  C   LIG d   1      11.393   6.765  -6.674  0.00  0.00    -0.056 C 
ATOM     55  H   LIG d   1      11.894   6.712  -7.640  0.00  0.00     0.024 H 
ATOM     56  H   LIG d   1      11.477   7.775  -6.275  0.00  0.00     0.024 H 
ATOM     57  H   LIG d   1      11.859   6.062  -5.984  0.00  0.00     0.024 H 
ENDBRANCH  22  54
TORSDOF 6
ENDMDL
MODEL 7
REMARK VINA RESULT:      -5.4      1.640      7.224
REMARK  6 active torsions:
REMARK  status: ('A' for Active; 'I' for Inactive)
REMARK    1  A    between atoms: C_1  and  C_2 
REMARK    2  A    between atoms: C_2  and  C_3 
REMARK    3  A    between atoms: C_3  and  O_5 
REMARK    4  A    between atoms: O_5  and  C_6 
REMARK    5  A    between atoms: C_12  and  C_29 
REMARK    6  A    between atoms: C_27  and  C_28 
ROOT
ATOM      1  C   LIG d   1       4.915  -1.604 -10.042  0.00  0.00     0.109 C 
ATOM      2  H   LIG d   1       4.499  -0.617 -10.234  0.00  0.00     0.074 H 
ATOM      3  C   LIG d   1       6.432  -1.624 -10.324  0.00  0.00    -0.015 C 
ATOM      4  C   LIG d   1       7.106  -1.213  -9.004  0.00  0.00    -0.046 C 
ATOM      5  C   LIG d   1       6.061  -1.408  -7.878  0.00  0.00    -0.029 C 
ATOM      6  H   LIG d   1       6.435  -2.132  -7.157  0.00  0.00     0.031 H 
ATOM      7  C   LIG d   1       4.815  -1.948  -8.551  0.00  0.00     0.008 C 
ATOM      8  C   LIG d   1       3.485  -1.631  -7.945  0.00  0.00    -0.044 C 
ATOM      9  C   LIG d   1       3.365  -0.281  -7.268  0.00  0.00    -0.049 C 
ATOM     10  C   LIG d   1       4.586   0.099  -6.451  0.00  0.00    -0.029 C 
ATOM     11  H   LIG d   1       4.493   1.209  -6.323  0.00  0.00     0.031 H 
ATOM     12  C   LIG d   1       5.865  -0.060  -7.210  0.00  0.00    -0.034 C 
ATOM     13  H   LIG d   1       5.799   0.663  -8.041  0.00  0.00     0.031 H 
ATOM     14  C   LIG d   1       7.100   0.353  -6.428  0.00  0.00    -0.046 C 
ATOM     15  C   LIG d   1       7.165  -0.361  -5.084  0.00  0.00    -0.030 C 
ATOM     16  C   LIG d   1       5.866  -0.142  -4.334  0.00  0.00    -0.060 C 
ATOM     17  C   LIG d   1       5.942   0.312  -3.084  0.00  0.00    -0.019 C 
ATOM     18  C   LIG d   1       4.736   0.508  -2.276  0.00  0.00     0.156 C 
ATOM     19  O   LIG d   1       4.778   1.119  -1.224  0.00  0.00    -0.293 OA
ATOM     20  C   LIG d   1       3.439  -0.074  -2.792  0.00  0.00     0.011 C 
ATOM     21  C   LIG d   1       3.365   0.151  -4.297  0.00  0.00    -0.037 C 
ATOM     22  C   LIG d   1       4.569  -0.426  -5.031  0.00  0.00    -0.007 C 
ATOM     23  H   LIG d   1       6.753  -2.622 -10.618  0.00  0.00     0.030 H 
ATOM     24  H   LIG d   1       6.678  -0.908 -11.109  0.00  0.00     0.030 H 
ATOM     25  H   LIG d   1       7.411  -0.168  -9.055  0.00  0.00     0.027 H 
ATOM     26  H   LIG d   1       7.976  -1.844  -8.818  0.00  0.00     0.027 H 
ATOM     27  H   LIG d   1       2.738  -1.664  -8.763  0.00  0.00     0.027 H 
ATOM     28  H   LIG d   1       3.193  -2.433  -7.263  0.00  0.00     0.027 H 
ATOM     29  H   LIG d   1       3.198   0.493  -8.037  0.00  0.00     0.027 H 
ATOM     30  H   LIG d   1       2.472  -0.270  -6.625  0.00  0.00     0.027 H 
ATOM     31  H   LIG d   1       7.995   0.113  -7.006  0.00  0.00     0.027 H 
ATOM     32  H   LIG d   1       7.076   1.433  -6.259  0.00  0.00     0.027 H 
ATOM     33  H   LIG d   1       7.328  -1.427  -5.240  0.00  0.00     0.031 H 
ATOM     34  H   LIG d   1       7.993   0.044  -4.497  0.00  0.00     0.031 H 
ATOM     35  H   LIG d   1       6.912   0.539  -2.658  0.00  0.00     0.065 H 
ATOM     36  H   LIG d   1       3.410  -1.053  -2.591  0.00  0.00     0.035 H 
ATOM     37  H   LIG d   1       2.596   0.425  -2.304  0.00  0.00     0.035 H 
ATOM     38  H   LIG d   1       2.461  -0.323  -4.683  0.00  0.00     0.028 H 
ATOM     39  H   LIG d   1       3.313   1.222  -4.499  0.00  0.00     0.028 H 
ENDROOT
BRANCH   1  40
ATOM     40  O   LIG d   1       4.236  -2.609 -10.840  0.00  0.00    -0.461 OA
BRANCH  40  41
ATOM     41  C   LIG d   1       3.260  -2.181 -11.656  0.00  0.00     0.307 C 
ATOM     42  O   LIG d   1       3.537  -1.716 -12.737  0.00  0.00    -0.251 OA
BRANCH  41  43
ATOM     43  C   LIG d   1       1.819  -2.280 -11.226  0.00  0.00     0.042 C 
ATOM     44  H   LIG d   1       1.741  -2.954 -10.372  0.00  0.00     0.037 H 
ATOM     45  H   LIG d   1       1.220  -2.668 -12.049  0.00  0.00     0.037 H 
BRANCH  43  46
ATOM     46  C   LIG d   1       1.307  -0.894 -10.830  0.00  0.00    -0.055 C 
ATOM     47  H   LIG d   1       0.765  -0.455 -11.668  0.00  0.00     0.024 H 
ATOM     48  H   LIG d   1       2.152  -0.255 -10.570  0.00  0.00     0.024 H 
ATOM     49  H   LIG d   1       0.641  -0.983  -9.972  0.00  0.00     0.024 H 
ENDBRANCH  43  46
ENDBRANCH  41  43
ENDBRANCH  40  41
ENDBRANCH   1  40
BRANCH   7  50
ATOM     50  C   LIG d   1       4.948  -3.479  -8.485  0.00  0.00    -0.056 C 
ATOM     51  H   LIG d   1       3.966  -3.934  -8.604  0.00  0.00     0.024 H 
ATOM     52  H   LIG d   1       5.607  -3.820  -9.284  0.00  0.00     0.024 H 
ATOM     53  H   LIG d   1       5.368  -3.766  -7.521  0.00  0.00     0.024 H 
ENDBRANCH   7  50
BRANCH  22  54
ATOM     54  C   LIG d   1       4.404  -1.943  -5.037  0.00  0.00    -0.056 C 
ATOM     55  H   LIG d   1       4.871  -2.363  -4.146  0.00  0.00     0.024 H 
ATOM     56  H   LIG d   1       3.343  -2.192  -5.043  0.00  0.00     0.024 H 
ATOM     57  H   LIG d   1       4.880  -2.356  -5.925  0.00  0.00     0.024 H 
ENDBRANCH  22  54
TORSDOF 6
ENDMDL
MODEL 8
REMARK VINA RESULT:      -5.3      2.066      3.829
REMARK  6 active torsions:
REMARK  status: ('A' for Active; 'I' for Inactive)
REMARK    1  A    between atoms: C_1  and  C_2 
REMARK    2  A    between atoms: C_2  and  C_3 
REMARK    3  A    between atoms: C_3  and  O_5 
REMARK    4  A    between atoms: O_5  and  C_6 
REMARK    5  A    between atoms: C_12  and  C_29 
REMARK    6  A    between atoms: C_27  and  C_28 
ROOT
ATOM      1  C   LIG d   1       5.048  -0.138  -7.601  0.00  0.00     0.109 C 
ATOM      2  H   LIG d   1       5.422  -1.154  -7.482  0.00  0.00     0.074 H 
ATOM      3  C   LIG d   1       6.141   0.780  -8.189  0.00  0.00    -0.015 C 
ATOM      4  C   LIG d   1       5.996   0.675  -9.716  0.00  0.00    -0.046 C 
ATOM      5  C   LIG d   1       4.587   0.099 -10.001  0.00  0.00    -0.029 C 
ATOM      6  H   LIG d   1       4.015   0.813 -10.591  0.00  0.00     0.031 H 
ATOM      7  C   LIG d   1       3.931  -0.096  -8.649  0.00  0.00     0.008 C 
ATOM      8  C   LIG d   1       2.920  -1.187  -8.500  0.00  0.00    -0.044 C 
ATOM      9  C   LIG d   1       3.153  -2.432  -9.331  0.00  0.00    -0.049 C 
ATOM     10  C   LIG d   1       3.625  -2.139 -10.742  0.00  0.00    -0.029 C 
ATOM     11  H   LIG d   1       4.072  -3.108 -11.086  0.00  0.00     0.031 H 
ATOM     12  C   LIG d   1       4.777  -1.187 -10.784  0.00  0.00    -0.034 C 
ATOM     13  H   LIG d   1       5.603  -1.712 -10.273  0.00  0.00     0.031 H 
ATOM     14  C   LIG d   1       5.296  -0.909 -12.185  0.00  0.00    -0.046 C 
ATOM     15  C   LIG d   1       4.173  -0.454 -13.107  0.00  0.00    -0.030 C 
ATOM     16  C   LIG d   1       3.045  -1.466 -13.064  0.00  0.00    -0.060 C 
ATOM     17  C   LIG d   1       2.594  -1.940 -14.224  0.00  0.00    -0.019 C 
ATOM     18  C   LIG d   1       1.478  -2.887 -14.271  0.00  0.00     0.156 C 
ATOM     19  O   LIG d   1       1.204  -3.485 -15.295  0.00  0.00    -0.293 OA
ATOM     20  C   LIG d   1       0.676  -3.095 -13.006  0.00  0.00     0.011 C 
ATOM     21  C   LIG d   1       1.632  -3.139 -11.821  0.00  0.00    -0.037 C 
ATOM     22  C   LIG d   1       2.505  -1.894 -11.732  0.00  0.00    -0.007 C 
ATOM     23  H   LIG d   1       5.990   1.809  -7.865  0.00  0.00     0.030 H 
ATOM     24  H   LIG d   1       7.128   0.435  -7.881  0.00  0.00     0.030 H 
ATOM     25  H   LIG d   1       6.760   0.007 -10.114  0.00  0.00     0.027 H 
ATOM     26  H   LIG d   1       6.093   1.661 -10.169  0.00  0.00     0.027 H 
ATOM     27  H   LIG d   1       2.922  -1.490  -7.434  0.00  0.00     0.027 H 
ATOM     28  H   LIG d   1       1.919  -0.785  -8.677  0.00  0.00     0.027 H 
ATOM     29  H   LIG d   1       3.907  -3.063  -8.828  0.00  0.00     0.027 H 
ATOM     30  H   LIG d   1       2.229  -3.030  -9.366  0.00  0.00     0.027 H 
ATOM     31  H   LIG d   1       6.063  -0.132 -12.142  0.00  0.00     0.027 H 
ATOM     32  H   LIG d   1       5.747  -1.819 -12.590  0.00  0.00     0.027 H 
ATOM     33  H   LIG d   1       3.808   0.522 -12.791  0.00  0.00     0.031 H 
ATOM     34  H   LIG d   1       4.551  -0.379 -14.130  0.00  0.00     0.031 H 
ATOM     35  H   LIG d   1       3.061  -1.620 -15.147  0.00  0.00     0.065 H 
ATOM     36  H   LIG d   1       0.028  -2.342 -12.894  0.00  0.00     0.035 H 
ATOM     37  H   LIG d   1       0.130  -4.042 -13.071  0.00  0.00     0.035 H 
ATOM     38  H   LIG d   1       1.053  -3.225 -10.900  0.00  0.00     0.028 H 
ATOM     39  H   LIG d   1       2.279  -4.013 -11.912  0.00  0.00     0.028 H 
ENDROOT
BRANCH   1  40
ATOM     40  O   LIG d   1       4.574   0.384  -6.332  0.00  0.00    -0.461 OA
BRANCH  40  41
ATOM     41  C   LIG d   1       4.595  -0.453  -5.283  0.00  0.00     0.307 C 
ATOM     42  O   LIG d   1       5.535  -1.196  -5.122  0.00  0.00    -0.251 OA
BRANCH  41  43
ATOM     43  C   LIG d   1       3.449  -0.465  -4.305  0.00  0.00     0.042 C 
ATOM     44  H   LIG d   1       3.793  -0.101  -3.337  0.00  0.00     0.037 H 
ATOM     45  H   LIG d   1       3.074  -1.482  -4.198  0.00  0.00     0.037 H 
BRANCH  43  46
ATOM     46  C   LIG d   1       2.328   0.440  -4.820  0.00  0.00    -0.055 C 
ATOM     47  H   LIG d   1       2.643   0.914  -5.750  0.00  0.00     0.024 H 
ATOM     48  H   LIG d   1       2.110   1.208  -4.077  0.00  0.00     0.024 H 
ATOM     49  H   LIG d   1       1.433  -0.155  -5.001  0.00  0.00     0.024 H 
ENDBRANCH  43  46
ENDBRANCH  41  43
ENDBRANCH  40  41
ENDBRANCH   1  40
BRANCH   7  50
ATOM     50  C   LIG d   1       3.174   1.214  -8.372  0.00  0.00    -0.056 C 
ATOM     51  H   LIG d   1       2.126   1.094  -8.647  0.00  0.00     0.024 H 
ATOM     52  H   LIG d   1       3.246   1.457  -7.312  0.00  0.00     0.024 H 
ATOM     53  H   LIG d   1       3.615   2.020  -8.960  0.00  0.00     0.024 H 
ENDBRANCH   7  50
BRANCH  22  54
ATOM     54  C   LIG d   1       1.614  -0.757 -11.240  0.00  0.00    -0.056 C 
ATOM     55  H   LIG d   1       0.572  -1.075 -11.267  0.00  0.00     0.024 H 
ATOM     56  H   LIG d   1       1.888  -0.499 -10.217  0.00  0.00     0.024 H 
ATOM     57  H   LIG d   1       1.746   0.112 -11.883  0.00  0.00     0.024 H 
ENDBRANCH  22  54
TORSDOF 6
ENDMDL
MODEL 9
REMARK VINA RESULT:      -5.2      8.520     11.941
REMARK  6 active torsions:
REMARK  status: ('A' for Active; 'I' for Inactive)
REMARK    1  A    between atoms: C_1  and  C_2 
REMARK    2  A    between atoms: C_2  and  C_3 
REMARK    3  A    between atoms: C_3  and  O_5 
REMARK    4  A    between atoms: O_5  and  C_6 
REMARK    5  A    between atoms: C_12  and  C_29 
REMARK    6  A    between atoms: C_27  and  C_28 
ROOT
ATOM      1  C   LIG d   1       9.603   6.820  -8.371  0.00  0.00     0.109 C 
ATOM      2  H   LIG d   1       8.576   6.544  -8.136  0.00  0.00     0.074 H 
ATOM      3  C   LIG d   1       9.703   8.325  -8.698  0.00  0.00    -0.015 C 
ATOM      4  C   LIG d   1       9.948   9.028  -7.353  0.00  0.00    -0.046 C 
ATOM      5  C   LIG d   1      10.442   7.948  -6.358  0.00  0.00    -0.029 C 
ATOM      6  H   LIG d   1      11.436   8.210  -6.001  0.00  0.00     0.031 H 
ATOM      7  C   LIG d   1      10.500   6.651  -7.140  0.00  0.00     0.008 C 
ATOM      8  C   LIG d   1      10.284   5.368  -6.405  0.00  0.00    -0.044 C 
ATOM      9  C   LIG d   1       9.317   5.419  -5.240  0.00  0.00    -0.049 C 
ATOM     10  C   LIG d   1       9.458   6.667  -4.389  0.00  0.00    -0.029 C 
ATOM     11  H   LIG d   1       8.492   6.722  -3.824  0.00  0.00     0.031 H 
ATOM     12  C   LIG d   1       9.463   7.924  -5.198  0.00  0.00    -0.034 C 
ATOM     13  H   LIG d   1       8.465   7.969  -5.667  0.00  0.00     0.031 H 
ATOM     14  C   LIG d   1       9.562   9.192  -4.367  0.00  0.00    -0.046 C 
ATOM     15  C   LIG d   1      10.758   9.139  -3.424  0.00  0.00    -0.030 C 
ATOM     16  C   LIG d   1      10.693   7.870  -2.598  0.00  0.00    -0.060 C 
ATOM     17  C   LIG d   1      10.794   7.987  -1.275  0.00  0.00    -0.019 C 
ATOM     18  C   LIG d   1      10.784   6.806  -0.409  0.00  0.00     0.156 C 
ATOM     19  O   LIG d   1      10.658   6.913   0.797  0.00  0.00    -0.293 OA
ATOM     20  C   LIG d   1      10.938   5.451  -1.062  0.00  0.00     0.011 C 
ATOM     21  C   LIG d   1      10.119   5.431  -2.347  0.00  0.00    -0.037 C 
ATOM     22  C   LIG d   1      10.503   6.558  -3.298  0.00  0.00    -0.007 C 
ATOM     23  H   LIG d   1      10.531   8.513  -9.379  0.00  0.00     0.030 H 
ATOM     24  H   LIG d   1       8.770   8.677  -9.140  0.00  0.00     0.030 H 
ATOM     25  H   LIG d   1       9.019   9.470  -6.992  0.00  0.00     0.027 H 
ATOM     26  H   LIG d   1      10.707   9.801  -7.469  0.00  0.00     0.027 H 
ATOM     27  H   LIG d   1       9.889   4.635  -7.137  0.00  0.00     0.027 H 
ATOM     28  H   LIG d   1      11.248   4.960  -6.090  0.00  0.00     0.027 H 
ATOM     29  H   LIG d   1       8.284   5.370  -5.628  0.00  0.00     0.027 H 
ATOM     30  H   LIG d   1       9.450   4.526  -4.611  0.00  0.00     0.027 H 
ATOM     31  H   LIG d   1       9.663  10.055  -5.028  0.00  0.00     0.027 H 
ATOM     32  H   LIG d   1       8.648   9.310  -3.779  0.00  0.00     0.027 H 
ATOM     33  H   LIG d   1      11.683   9.160  -4.000  0.00  0.00     0.031 H 
ATOM     34  H   LIG d   1      10.734  10.005  -2.758  0.00  0.00     0.031 H 
ATOM     35  H   LIG d   1      10.884   8.971  -0.833  0.00  0.00     0.065 H 
ATOM     36  H   LIG d   1      11.902   5.288  -1.269  0.00  0.00     0.035 H 
ATOM     37  H   LIG d   1      10.571   4.675  -0.382  0.00  0.00     0.035 H 
ATOM     38  H   LIG d   1      10.277   4.478  -2.854  0.00  0.00     0.028 H 
ATOM     39  H   LIG d   1       9.060   5.527  -2.102  0.00  0.00     0.028 H 
ENDROOT
BRANCH   1  40
ATOM     40  O   LIG d   1      10.104   6.025  -9.477  0.00  0.00    -0.461 OA
BRANCH  40  41
ATOM     41  C   LIG d   1       9.237   5.728 -10.457  0.00  0.00     0.307 C 
ATOM     42  O   LIG d   1       8.074   5.528 -10.195  0.00  0.00    -0.251 OA
BRANCH  41  43
ATOM     43  C   LIG d   1       9.712   5.643 -11.885  0.00  0.00     0.042 C 
ATOM     44  H   LIG d   1       9.615   4.618 -12.240  0.00  0.00     0.037 H 
ATOM     45  H   LIG d   1      10.757   5.948 -11.938  0.00  0.00     0.037 H 
BRANCH  43  46
ATOM     46  C   LIG d   1       8.865   6.569 -12.760  0.00  0.00    -0.055 C 
ATOM     47  H   LIG d   1       8.006   6.019 -13.145  0.00  0.00     0.024 H 
ATOM     48  H   LIG d   1       9.467   6.932 -13.594  0.00  0.00     0.024 H 
ATOM     49  H   LIG d   1       8.520   7.415 -12.167  0.00  0.00     0.024 H 
ENDBRANCH  43  46
ENDBRANCH  41  43
ENDBRANCH  40  41
ENDBRANCH   1  40
BRANCH   7  50
ATOM     50  C   LIG d   1      11.931   6.577  -7.697  0.00  0.00    -0.056 C 
ATOM     51  H   LIG d   1      12.620   6.314  -6.895  0.00  0.00     0.024 H 
ATOM     52  H   LIG d   1      11.977   5.818  -8.479  0.00  0.00     0.024 H 
ATOM     53  H   LIG d   1      12.210   7.544  -8.115  0.00  0.00     0.024 H 
ENDBRANCH   7  50
BRANCH  22  54
ATOM     54  C   LIG d   1      11.854   6.191  -3.904  0.00  0.00    -0.056 C 
ATOM     55  H   LIG d   1      11.729   5.970  -4.965  0.00  0.00     0.024 H 
ATOM     56  H   LIG d   1      12.544   7.026  -3.787  0.00  0.00     0.024 H 
ATOM     57  H   LIG d   1      12.254   5.314  -3.396  0.00  0.00     0.024 H 
ENDBRANCH  22  54
TORSDOF 6
ENDMDL
