MODEL 1
REMARK VINA RESULT:      -7.5      0.000      0.000
REMARK  8 active torsions:
REMARK  status: ('A' for Active; 'I' for Inactive)
REMARK    1  A    between atoms: C_1  and  C_2 
REMARK    2  A    between atoms: C_18  and  C_19 
REMARK    3  A    between atoms: C_18  and  N_59 
REMARK    4  A    between atoms: C_19  and  C_21 
REMARK    5  A    between atoms: C_19  and  O_30 
REMARK    6  A    between atoms: C_21  and  O_22 
REMARK    7  A    between atoms: O_22  and  C_23 
REMARK    8  A    between atoms: C_28  and  C_29 
ROOT
ATOM      1  C   LIG d   1      10.845  10.460  -0.305  0.00  0.00    -0.050 A 
ATOM      2  C   LIG d   1      10.962   9.465   0.652  0.00  0.00    -0.057 A 
ATOM      3  C   LIG d   1      10.909   8.121   0.328  0.00  0.00    -0.037 A 
ATOM      4  C   LIG d   1      10.731   7.796  -1.015  0.00  0.00     0.050 A 
ATOM      5  C   LIG d   1      10.614   8.824  -1.997  0.00  0.00     0.004 A 
ATOM      6  C   LIG d   1      10.671  10.174  -1.635  0.00  0.00    -0.049 A 
ATOM      7  C   LIG d   1      10.451   8.152  -3.258  0.00  0.00    -0.013 A 
ATOM      8  C   LIG d   1      10.484   6.831  -2.995  0.00  0.00     0.071 A 
ATOM      9  N   LIG d   1      10.632   6.598  -1.657  0.00  0.00    -0.334 N 
ATOM     10  C   LIG d   1      10.643   5.229  -1.118  0.00  0.00     0.064 C 
ATOM     11  C   LIG d   1      10.871   4.259  -2.284  0.00  0.00    -0.013 C 
ATOM     12  C   LIG d   1      10.346   5.794  -4.086  0.00  0.00     0.021 C 
ATOM     13  H   LIG d   1      11.289   5.672  -4.620  0.00  0.00     0.092 H 
ATOM     14  C   LIG d   1       9.251   6.248  -5.036  0.00  0.00    -0.004 C 
ATOM     15  C   LIG d   1       9.201   7.725  -5.342  0.00  0.00    -0.043 C 
ATOM     16  C   LIG d   1      10.251   8.605  -4.678  0.00  0.00    -0.025 C 
ATOM     17  H   LIG d   1      11.103   9.748   1.685  0.00  0.00     0.062 H 
ATOM     18  H   LIG d   1      11.000   7.356   1.084  0.00  0.00     0.064 H 
ATOM     19  H   LIG d   1      10.581  10.958  -2.371  0.00  0.00     0.063 H 
ATOM     20  H   LIG d   1      11.449   5.126  -0.391  0.00  0.00     0.054 H 
ATOM     21  H   LIG d   1       9.687   5.013  -0.642  0.00  0.00     0.054 H 
ATOM     22  H   LIG d   1      10.703   3.239  -1.937  0.00  0.00     0.083 H 
ATOM     23  H   LIG d   1      11.901   4.354  -2.629  0.00  0.00     0.083 H 
ATOM     24  H   LIG d   1       8.291   5.957  -4.610  0.00  0.00     0.032 H 
ATOM     25  H   LIG d   1       9.377   5.712  -5.977  0.00  0.00     0.032 H 
ATOM     26  H   LIG d   1       8.219   8.095  -5.048  0.00  0.00     0.027 H 
ATOM     27  H   LIG d   1       9.293   7.848  -6.421  0.00  0.00     0.027 H 
ATOM     28  H   LIG d   1       9.915   9.641  -4.686  0.00  0.00     0.031 H 
ATOM     29  H   LIG d   1      11.192   8.523  -5.222  0.00  0.00     0.031 H 
ATOM     30  N   LIG d   1       9.935   4.547  -3.390  0.00  0.00     0.245 N 
ATOM     31  H   LIG d   1       8.992   4.675  -3.006  0.00  0.00     0.204 HD
ENDROOT
BRANCH  30  32
ATOM     32  C   LIG d   1       9.918   3.418  -4.345  0.00  0.00    -0.001 C 
ATOM     33  H   LIG d   1       9.249   3.657  -5.172  0.00  0.00     0.084 H 
ATOM     34  H   LIG d   1      10.920   3.230  -4.730  0.00  0.00     0.084 H 
BRANCH  32  35
ATOM     35  C   LIG d   1       9.407   2.170  -3.621  0.00  0.00     0.129 C 
ATOM     36  H   LIG d   1       9.563   2.283  -2.549  0.00  0.00     0.068 H 
BRANCH  35  37
ATOM     37  C   LIG d   1       7.914   1.992  -3.904  0.00  0.00     0.120 C 
ATOM     38  H   LIG d   1       7.335   2.498  -3.130  0.00  0.00     0.072 H 
ATOM     39  H   LIG d   1       7.674   2.420  -4.877  0.00  0.00     0.072 H 
BRANCH  37  40
ATOM     40  O   LIG d   1       7.592   0.600  -3.904  0.00  0.00    -0.489 OA
BRANCH  40  41
ATOM     41  C   LIG d   1       6.445   0.231  -3.276  0.00  0.00     0.123 A 
ATOM     42  C   LIG d   1       6.128  -1.112  -3.140  0.00  0.00    -0.009 A 
ATOM     43  C   LIG d   1       4.960  -1.484  -2.501  0.00  0.00    -0.055 A 
ATOM     44  C   LIG d   1       4.108  -0.518  -1.999  0.00  0.00    -0.061 A 
ATOM     45  H   LIG d   1       4.713  -2.530  -2.394  0.00  0.00     0.062 H 
ATOM     46  C   LIG d   1       4.422   0.822  -2.133  0.00  0.00    -0.058 A 
ATOM     47  H   LIG d   1       3.196  -0.811  -1.500  0.00  0.00     0.062 H 
ATOM     48  C   LIG d   1       5.590   1.199  -2.766  0.00  0.00    -0.020 A 
ATOM     49  H   LIG d   1       3.755   1.574  -1.739  0.00  0.00     0.062 H 
ATOM     50  H   LIG d   1       5.837   2.245  -2.867  0.00  0.00     0.065 H 
BRANCH  42  51
ATOM     51  C   LIG d   1       7.056  -2.165  -3.687  0.00  0.00    -0.036 C 
ATOM     52  H   LIG d   1       7.370  -1.886  -4.693  0.00  0.00     0.028 H 
ATOM     53  H   LIG d   1       7.932  -2.248  -3.043  0.00  0.00     0.028 H 
ATOM     54  H   LIG d   1       6.540  -3.125  -3.722  0.00  0.00     0.028 H 
ENDBRANCH  42  51
ENDBRANCH  40  41
ENDBRANCH  37  40
ENDBRANCH  35  37
BRANCH  35  55
ATOM     55  O   LIG d   1      10.120   1.023  -4.088  0.00  0.00    -0.383 OA
ATOM     56  H   LIG d   1      10.351   0.393  -3.393  0.00  0.00     0.210 HD
ENDBRANCH  35  55
ENDBRANCH  32  35
ENDBRANCH  30  32
BRANCH   1  57
ATOM     57  C   LIG d   1      10.912  11.901   0.129  0.00  0.00    -0.040 C 
ATOM     58  H   LIG d   1      10.709  11.970   1.197  0.00  0.00     0.028 H 
ATOM     59  H   LIG d   1      11.907  12.296  -0.078  0.00  0.00     0.028 H 
ATOM     60  H   LIG d   1      10.170  12.481  -0.420  0.00  0.00     0.028 H 
ENDBRANCH   1  57
TORSDOF 8
ENDMDL
MODEL 2
REMARK VINA RESULT:      -7.3      7.724      9.997
REMARK  8 active torsions:
REMARK  status: ('A' for Active; 'I' for Inactive)
REMARK    1  A    between atoms: C_1  and  C_2 
REMARK    2  A    between atoms: C_18  and  C_19 
REMARK    3  A    between atoms: C_18  and  N_59 
REMARK    4  A    between atoms: C_19  and  C_21 
REMARK    5  A    between atoms: C_19  and  O_30 
REMARK    6  A    between atoms: C_21  and  O_22 
REMARK    7  A    between atoms: O_22  and  C_23 
REMARK    8  A    between atoms: C_28  and  C_29 
ROOT
ATOM      1  C   LIG d   1       4.708  -0.037  -2.563  0.00  0.00    -0.050 A 
ATOM      2  C   LIG d   1       4.011  -1.233  -2.504  0.00  0.00    -0.057 A 
ATOM      3  C   LIG d   1       4.058  -2.164  -3.526  0.00  0.00    -0.037 A 
ATOM      4  C   LIG d   1       4.844  -1.855  -4.634  0.00  0.00     0.050 A 
ATOM      5  C   LIG d   1       5.563  -0.623  -4.688  0.00  0.00     0.004 A 
ATOM      6  C   LIG d   1       5.492   0.297  -3.637  0.00  0.00    -0.049 A 
ATOM      7  C   LIG d   1       6.265  -0.628  -5.943  0.00  0.00    -0.013 A 
ATOM      8  C   LIG d   1       5.962  -1.794  -6.547  0.00  0.00     0.071 A 
ATOM      9  N   LIG d   1       5.099  -2.533  -5.788  0.00  0.00    -0.334 N 
ATOM     10  C   LIG d   1       4.581  -3.826  -6.262  0.00  0.00     0.064 C 
ATOM     11  C   LIG d   1       5.459  -4.291  -7.431  0.00  0.00    -0.013 C 
ATOM     12  C   LIG d   1       6.523  -2.164  -7.901  0.00  0.00     0.021 C 
ATOM     13  H   LIG d   1       7.548  -2.523  -7.806  0.00  0.00     0.092 H 
ATOM     14  C   LIG d   1       6.471  -0.931  -8.788  0.00  0.00    -0.004 C 
ATOM     15  C   LIG d   1       6.808   0.383  -8.127  0.00  0.00    -0.043 C 
ATOM     16  C   LIG d   1       7.172   0.341  -6.650  0.00  0.00    -0.025 C 
ATOM     17  H   LIG d   1       3.413  -1.446  -1.630  0.00  0.00     0.062 H 
ATOM     18  H   LIG d   1       3.509  -3.091  -3.468  0.00  0.00     0.064 H 
ATOM     19  H   LIG d   1       6.031   1.232  -3.671  0.00  0.00     0.063 H 
ATOM     20  H   LIG d   1       4.625  -4.558  -5.455  0.00  0.00     0.054 H 
ATOM     21  H   LIG d   1       3.552  -3.709  -6.599  0.00  0.00     0.054 H 
ATOM     22  H   LIG d   1       4.989  -5.150  -7.910  0.00  0.00     0.083 H 
ATOM     23  H   LIG d   1       6.435  -4.587  -7.047  0.00  0.00     0.083 H 
ATOM     24  H   LIG d   1       5.466  -0.854  -9.202  0.00  0.00     0.032 H 
ATOM     25  H   LIG d   1       7.165  -1.082  -9.615  0.00  0.00     0.032 H 
ATOM     26  H   LIG d   1       5.952   1.046  -8.243  0.00  0.00     0.027 H 
ATOM     27  H   LIG d   1       7.646   0.825  -8.667  0.00  0.00     0.027 H 
ATOM     28  H   LIG d   1       7.052   1.334  -6.217  0.00  0.00     0.031 H 
ATOM     29  H   LIG d   1       8.207   0.018  -6.538  0.00  0.00     0.031 H 
ATOM     30  N   LIG d   1       5.612  -3.212  -8.428  0.00  0.00     0.245 N 
ATOM     31  H   LIG d   1       4.692  -2.794  -8.612  0.00  0.00     0.204 HD
ENDROOT
BRANCH  30  32
ATOM     32  C   LIG d   1       6.151  -3.762  -9.691  0.00  0.00    -0.001 C 
ATOM     33  H   LIG d   1       7.022  -3.182  -9.992  0.00  0.00     0.084 H 
ATOM     34  H   LIG d   1       6.437  -4.806  -9.559  0.00  0.00     0.084 H 
BRANCH  32  35
ATOM     35  C   LIG d   1       5.072  -3.661 -10.772  0.00  0.00     0.129 C 
ATOM     36  H   LIG d   1       4.934  -4.636 -11.239  0.00  0.00     0.068 H 
BRANCH  35  37
ATOM     37  C   LIG d   1       3.756  -3.208 -10.137  0.00  0.00     0.120 C 
ATOM     38  H   LIG d   1       2.978  -3.941 -10.352  0.00  0.00     0.072 H 
ATOM     39  H   LIG d   1       3.884  -3.118  -9.059  0.00  0.00     0.072 H 
BRANCH  37  40
ATOM     40  O   LIG d   1       3.378  -1.941 -10.679  0.00  0.00    -0.489 OA
BRANCH  40  41
ATOM     41  C   LIG d   1       3.249  -0.909  -9.805  0.00  0.00     0.123 A 
ATOM     42  C   LIG d   1       3.523   0.388 -10.215  0.00  0.00    -0.009 A 
ATOM     43  C   LIG d   1       3.392   1.435  -9.324  0.00  0.00    -0.055 A 
ATOM     44  C   LIG d   1       2.988   1.192  -8.024  0.00  0.00    -0.061 A 
ATOM     45  H   LIG d   1       3.604   2.445  -9.642  0.00  0.00     0.062 H 
ATOM     46  C   LIG d   1       2.715  -0.100  -7.613  0.00  0.00    -0.058 A 
ATOM     47  H   LIG d   1       2.886   2.012  -7.329  0.00  0.00     0.062 H 
ATOM     48  C   LIG d   1       2.839  -1.150  -8.501  0.00  0.00    -0.020 A 
ATOM     49  H   LIG d   1       2.399  -0.287  -6.597  0.00  0.00     0.062 H 
ATOM     50  H   LIG d   1       2.621  -2.158  -8.181  0.00  0.00     0.065 H 
BRANCH  42  51
ATOM     51  C   LIG d   1       3.962   0.653 -11.632  0.00  0.00    -0.036 C 
ATOM     52  H   LIG d   1       4.954   0.229 -11.791  0.00  0.00     0.028 H 
ATOM     53  H   LIG d   1       3.256   0.194 -12.323  0.00  0.00     0.028 H 
ATOM     54  H   LIG d   1       3.995   1.729 -11.807  0.00  0.00     0.028 H 
ENDBRANCH  42  51
ENDBRANCH  40  41
ENDBRANCH  37  40
ENDBRANCH  35  37
BRANCH  35  55
ATOM     55  O   LIG d   1       5.477  -2.711 -11.760  0.00  0.00    -0.383 OA
ATOM     56  H   LIG d   1       6.402  -2.441 -11.691  0.00  0.00     0.210 HD
ENDBRANCH  35  55
ENDBRANCH  32  35
ENDBRANCH  30  32
BRANCH   1  57
ATOM     57  C   LIG d   1       4.604   0.926  -1.408  0.00  0.00    -0.040 C 
ATOM     58  H   LIG d   1       4.381   0.376  -0.494  0.00  0.00     0.028 H 
ATOM     59  H   LIG d   1       5.548   1.457  -1.292  0.00  0.00     0.028 H 
ATOM     60  H   LIG d   1       3.806   1.643  -1.605  0.00  0.00     0.028 H 
ENDBRANCH   1  57
TORSDOF 8
ENDMDL
MODEL 3
REMARK VINA RESULT:      -7.3      7.479     10.637
REMARK  8 active torsions:
REMARK  status: ('A' for Active; 'I' for Inactive)
REMARK    1  A    between atoms: C_1  and  C_2 
REMARK    2  A    between atoms: C_18  and  C_19 
REMARK    3  A    between atoms: C_18  and  N_59 
REMARK    4  A    between atoms: C_19  and  C_21 
REMARK    5  A    between atoms: C_19  and  O_30 
REMARK    6  A    between atoms: C_21  and  O_22 
REMARK    7  A    between atoms: O_22  and  C_23 
REMARK    8  A    between atoms: C_28  and  C_29 
ROOT
ATOM      1  C   LIG d   1       8.097  -6.425  -4.777  0.00  0.00    -0.050 A 
ATOM      2  C   LIG d   1       6.950  -6.884  -5.405  0.00  0.00    -0.057 A 
ATOM      3  C   LIG d   1       6.112  -6.043  -6.115  0.00  0.00    -0.037 A 
ATOM      4  C   LIG d   1       6.466  -4.697  -6.180  0.00  0.00     0.050 A 
ATOM      5  C   LIG d   1       7.650  -4.230  -5.535  0.00  0.00     0.004 A 
ATOM      6  C   LIG d   1       8.474  -5.108  -4.824  0.00  0.00    -0.049 A 
ATOM      7  C   LIG d   1       7.718  -2.819  -5.803  0.00  0.00    -0.013 A 
ATOM      8  C   LIG d   1       6.643  -2.520  -6.558  0.00  0.00     0.071 A 
ATOM      9  N   LIG d   1       5.872  -3.627  -6.779  0.00  0.00    -0.334 N 
ATOM     10  C   LIG d   1       4.613  -3.541  -7.536  0.00  0.00     0.064 C 
ATOM     11  C   LIG d   1       4.601  -2.207  -8.292  0.00  0.00    -0.013 C 
ATOM     12  C   LIG d   1       6.372  -1.116  -7.047  0.00  0.00     0.021 C 
ATOM     13  H   LIG d   1       6.996  -0.884  -7.911  0.00  0.00     0.092 H 
ATOM     14  C   LIG d   1       6.663  -0.154  -5.907  0.00  0.00    -0.004 C 
ATOM     15  C   LIG d   1       7.865  -0.474  -5.051  0.00  0.00    -0.043 C 
ATOM     16  C   LIG d   1       8.664  -1.715  -5.419  0.00  0.00    -0.025 C 
ATOM     17  H   LIG d   1       6.703  -7.934  -5.339  0.00  0.00     0.062 H 
ATOM     18  H   LIG d   1       5.221  -6.414  -6.598  0.00  0.00     0.064 H 
ATOM     19  H   LIG d   1       9.371  -4.762  -4.331  0.00  0.00     0.063 H 
ATOM     20  H   LIG d   1       4.554  -4.367  -8.245  0.00  0.00     0.054 H 
ATOM     21  H   LIG d   1       3.768  -3.582  -6.850  0.00  0.00     0.054 H 
ATOM     22  H   LIG d   1       3.609  -2.044  -8.712  0.00  0.00     0.083 H 
ATOM     23  H   LIG d   1       5.328  -2.252  -9.104  0.00  0.00     0.083 H 
ATOM     24  H   LIG d   1       5.786  -0.120  -5.260  0.00  0.00     0.032 H 
ATOM     25  H   LIG d   1       6.805   0.840  -6.333  0.00  0.00     0.032 H 
ATOM     26  H   LIG d   1       7.523  -0.586  -4.023  0.00  0.00     0.027 H 
ATOM     27  H   LIG d   1       8.538   0.382  -5.086  0.00  0.00     0.027 H 
ATOM     28  H   LIG d   1       9.262  -2.029  -4.564  0.00  0.00     0.031 H 
ATOM     29  H   LIG d   1       9.321  -1.491  -6.260  0.00  0.00     0.031 H 
ATOM     30  N   LIG d   1       4.925  -1.090  -7.382  0.00  0.00     0.245 N 
ATOM     31  H   LIG d   1       4.381  -1.195  -6.517  0.00  0.00     0.204 HD
ENDROOT
BRANCH  30  32
ATOM     32  C   LIG d   1       4.576   0.199  -8.017  0.00  0.00    -0.001 C 
ATOM     33  H   LIG d   1       5.250   0.973  -7.652  0.00  0.00     0.084 H 
ATOM     34  H   LIG d   1       4.661   0.123  -9.101  0.00  0.00     0.084 H 
BRANCH  32  35
ATOM     35  C   LIG d   1       3.136   0.558  -7.642  0.00  0.00     0.129 C 
ATOM     36  H   LIG d   1       2.463   0.229  -8.433  0.00  0.00     0.068 H 
BRANCH  35  37
ATOM     37  C   LIG d   1       2.763  -0.136  -6.331  0.00  0.00     0.120 C 
ATOM     38  H   LIG d   1       1.677  -0.144  -6.221  0.00  0.00     0.072 H 
ATOM     39  H   LIG d   1       3.135  -1.160  -6.342  0.00  0.00     0.072 H 
BRANCH  37  40
ATOM     40  O   LIG d   1       3.346   0.571  -5.235  0.00  0.00    -0.489 OA
BRANCH  40  41
ATOM     41  C   LIG d   1       3.698  -0.161  -4.146  0.00  0.00     0.123 A 
ATOM     42  C   LIG d   1       3.911   0.465  -2.926  0.00  0.00    -0.009 A 
ATOM     43  C   LIG d   1       4.270  -0.281  -1.821  0.00  0.00    -0.055 A 
ATOM     44  C   LIG d   1       4.418  -1.652  -1.929  0.00  0.00    -0.061 A 
ATOM     45  H   LIG d   1       4.435   0.206  -0.871  0.00  0.00     0.062 H 
ATOM     46  C   LIG d   1       4.206  -2.278  -3.144  0.00  0.00    -0.058 A 
ATOM     47  H   LIG d   1       4.698  -2.233  -1.063  0.00  0.00     0.062 H 
ATOM     48  C   LIG d   1       3.842  -1.537  -4.251  0.00  0.00    -0.020 A 
ATOM     49  H   LIG d   1       4.322  -3.349  -3.225  0.00  0.00     0.062 H 
ATOM     50  H   LIG d   1       3.673  -2.028  -5.198  0.00  0.00     0.065 H 
BRANCH  42  51
ATOM     51  C   LIG d   1       3.750   1.959  -2.808  0.00  0.00    -0.036 C 
ATOM     52  H   LIG d   1       2.691   2.206  -2.727  0.00  0.00     0.028 H 
ATOM     53  H   LIG d   1       4.274   2.312  -1.920  0.00  0.00     0.028 H 
ATOM     54  H   LIG d   1       4.168   2.442  -3.692  0.00  0.00     0.028 H 
ENDBRANCH  42  51
ENDBRANCH  40  41
ENDBRANCH  37  40
ENDBRANCH  35  37
BRANCH  35  55
ATOM     55  O   LIG d   1       3.026   1.974  -7.480  0.00  0.00    -0.383 OA
ATOM     56  H   LIG d   1       2.898   2.256  -6.564  0.00  0.00     0.210 HD
ENDBRANCH  35  55
ENDBRANCH  32  35
ENDBRANCH  30  32
BRANCH   1  57
ATOM     57  C   LIG d   1       8.957  -7.405  -4.022  0.00  0.00    -0.040 C 
ATOM     58  H   LIG d   1       9.819  -7.677  -4.629  0.00  0.00     0.028 H 
ATOM     59  H   LIG d   1       9.296  -6.949  -3.092  0.00  0.00     0.028 H 
ATOM     60  H   LIG d   1       8.375  -8.300  -3.796  0.00  0.00     0.028 H 
ENDBRANCH   1  57
TORSDOF 8
ENDMDL
MODEL 4
REMARK VINA RESULT:      -7.2      3.377      5.595
REMARK  8 active torsions:
REMARK  status: ('A' for Active; 'I' for Inactive)
REMARK    1  A    between atoms: C_1  and  C_2 
REMARK    2  A    between atoms: C_18  and  C_19 
REMARK    3  A    between atoms: C_18  and  N_59 
REMARK    4  A    between atoms: C_19  and  C_21 
REMARK    5  A    between atoms: C_19  and  O_30 
REMARK    6  A    between atoms: C_21  and  O_22 
REMARK    7  A    between atoms: O_22  and  C_23 
REMARK    8  A    between atoms: C_28  and  C_29 
ROOT
ATOM      1  C   LIG d   1      10.827   5.207  -4.008  0.00  0.00    -0.050 A 
ATOM      2  C   LIG d   1      10.209   4.495  -2.992  0.00  0.00    -0.057 A 
ATOM      3  C   LIG d   1       9.371   3.424  -3.247  0.00  0.00    -0.037 A 
ATOM      4  C   LIG d   1       9.166   3.079  -4.581  0.00  0.00     0.050 A 
ATOM      5  C   LIG d   1       9.807   3.813  -5.624  0.00  0.00     0.004 A 
ATOM      6  C   LIG d   1      10.648   4.892  -5.330  0.00  0.00    -0.049 A 
ATOM      7  C   LIG d   1       9.392   3.199  -6.855  0.00  0.00    -0.013 A 
ATOM      8  C   LIG d   1       8.576   2.180  -6.519  0.00  0.00     0.071 A 
ATOM      9  N   LIG d   1       8.414   2.104  -5.164  0.00  0.00    -0.334 N 
ATOM     10  C   LIG d   1       7.525   1.101  -4.557  0.00  0.00     0.064 C 
ATOM     11  C   LIG d   1       7.222   0.031  -5.614  0.00  0.00    -0.013 C 
ATOM     12  C   LIG d   1       7.938   1.288  -7.559  0.00  0.00     0.021 C 
ATOM     13  H   LIG d   1       8.653   0.547  -7.920  0.00  0.00     0.092 H 
ATOM     14  C   LIG d   1       7.458   2.164  -8.704  0.00  0.00    -0.004 C 
ATOM     15  C   LIG d   1       8.360   3.310  -9.094  0.00  0.00    -0.043 C 
ATOM     16  C   LIG d   1       9.656   3.467  -8.311  0.00  0.00    -0.025 C 
ATOM     17  H   LIG d   1      10.390   4.785  -1.968  0.00  0.00     0.062 H 
ATOM     18  H   LIG d   1       8.896   2.879  -2.446  0.00  0.00     0.064 H 
ATOM     19  H   LIG d   1      11.134   5.455  -6.113  0.00  0.00     0.063 H 
ATOM     20  H   LIG d   1       8.019   0.642  -3.700  0.00  0.00     0.054 H 
ATOM     21  H   LIG d   1       6.598   1.576  -4.239  0.00  0.00     0.054 H 
ATOM     22  H   LIG d   1       6.428  -0.618  -5.246  0.00  0.00     0.083 H 
ATOM     23  H   LIG d   1       8.119  -0.564  -5.785  0.00  0.00     0.083 H 
ATOM     24  H   LIG d   1       6.486   2.576  -8.431  0.00  0.00     0.032 H 
ATOM     25  H   LIG d   1       7.320   1.529  -9.580  0.00  0.00     0.032 H 
ATOM     26  H   LIG d   1       7.792   4.233  -8.991  0.00  0.00     0.027 H 
ATOM     27  H   LIG d   1       8.616   3.192 -10.147  0.00  0.00     0.027 H 
ATOM     28  H   LIG d   1      10.033   4.482  -8.432  0.00  0.00     0.031 H 
ATOM     29  H   LIG d   1      10.395   2.757  -8.683  0.00  0.00     0.031 H 
ATOM     30  N   LIG d   1       6.779   0.658  -6.876  0.00  0.00     0.245 N 
ATOM     31  H   LIG d   1       6.083   1.382  -6.664  0.00  0.00     0.204 HD
ENDROOT
BRANCH  30  32
ATOM     32  C   LIG d   1       6.165  -0.359  -7.758  0.00  0.00    -0.001 C 
ATOM     33  H   LIG d   1       6.630  -0.309  -8.742  0.00  0.00     0.084 H 
ATOM     34  H   LIG d   1       6.301  -1.356  -7.340  0.00  0.00     0.084 H 
BRANCH  32  35
ATOM     35  C   LIG d   1       4.669  -0.059  -7.885  0.00  0.00     0.129 C 
ATOM     36  H   LIG d   1       4.303  -0.439  -8.838  0.00  0.00     0.068 H 
BRANCH  35  37
ATOM     37  C   LIG d   1       3.914  -0.736  -6.740  0.00  0.00     0.120 C 
ATOM     38  H   LIG d   1       2.890  -0.945  -7.055  0.00  0.00     0.072 H 
ATOM     39  H   LIG d   1       4.412  -1.669  -6.478  0.00  0.00     0.072 H 
BRANCH  37  40
ATOM     40  O   LIG d   1       3.894   0.130  -5.605  0.00  0.00    -0.489 OA
BRANCH  40  41
ATOM     41  C   LIG d   1       4.028  -0.450  -4.384  0.00  0.00     0.123 A 
ATOM     42  C   LIG d   1       3.954   0.324  -3.234  0.00  0.00    -0.009 A 
ATOM     43  C   LIG d   1       4.092  -0.269  -1.994  0.00  0.00    -0.055 A 
ATOM     44  C   LIG d   1       4.302  -1.632  -1.897  0.00  0.00    -0.061 A 
ATOM     45  H   LIG d   1       4.033   0.333  -1.099  0.00  0.00     0.062 H 
ATOM     46  C   LIG d   1       4.376  -2.405  -3.041  0.00  0.00    -0.058 A 
ATOM     47  H   LIG d   1       4.409  -2.093  -0.926  0.00  0.00     0.062 H 
ATOM     48  C   LIG d   1       4.235  -1.819  -4.283  0.00  0.00    -0.020 A 
ATOM     49  H   LIG d   1       4.541  -3.470  -2.962  0.00  0.00     0.062 H 
ATOM     50  H   LIG d   1       4.288  -2.424  -5.176  0.00  0.00     0.065 H 
BRANCH  42  51
ATOM     51  C   LIG d   1       3.724   1.809  -3.339  0.00  0.00    -0.036 C 
ATOM     52  H   LIG d   1       4.103   2.301  -2.443  0.00  0.00     0.028 H 
ATOM     53  H   LIG d   1       4.246   2.197  -4.214  0.00  0.00     0.028 H 
ATOM     54  H   LIG d   1       2.656   2.006  -3.437  0.00  0.00     0.028 H 
ENDBRANCH  42  51
ENDBRANCH  40  41
ENDBRANCH  37  40
ENDBRANCH  35  37
BRANCH  35  55
ATOM     55  O   LIG d   1       4.460   1.354  -7.824  0.00  0.00    -0.383 OA
ATOM     56  H   LIG d   1       3.546   1.609  -7.641  0.00  0.00     0.210 HD
ENDBRANCH  35  55
ENDBRANCH  32  35
ENDBRANCH  30  32
BRANCH   1  57
ATOM     57  C   LIG d   1      11.724   6.362  -3.648  0.00  0.00    -0.040 C 
ATOM     58  H   LIG d   1      12.674   6.263  -4.171  0.00  0.00     0.028 H 
ATOM     59  H   LIG d   1      11.246   7.298  -3.937  0.00  0.00     0.028 H 
ATOM     60  H   LIG d   1      11.901   6.363  -2.571  0.00  0.00     0.028 H 
ENDBRANCH   1  57
TORSDOF 8
ENDMDL
MODEL 5
REMARK VINA RESULT:      -7.0      3.795      6.162
REMARK  8 active torsions:
REMARK  status: ('A' for Active; 'I' for Inactive)
REMARK    1  A    between atoms: C_1  and  C_2 
REMARK    2  A    between atoms: C_18  and  C_19 
REMARK    3  A    between atoms: C_18  and  N_59 
REMARK    4  A    between atoms: C_19  and  C_21 
REMARK    5  A    between atoms: C_19  and  O_30 
REMARK    6  A    between atoms: C_21  and  O_22 
REMARK    7  A    between atoms: O_22  and  C_23 
REMARK    8  A    between atoms: C_28  and  C_29 
ROOT
ATOM      1  C   LIG d   1      10.146   4.929  -4.998  0.00  0.00    -0.050 A 
ATOM      2  C   LIG d   1       9.981   4.362  -3.744  0.00  0.00    -0.057 A 
ATOM      3  C   LIG d   1       9.340   3.149  -3.562  0.00  0.00    -0.037 A 
ATOM      4  C   LIG d   1       8.858   2.506  -4.701  0.00  0.00     0.050 A 
ATOM      5  C   LIG d   1       9.034   3.092  -5.990  0.00  0.00     0.004 A 
ATOM      6  C   LIG d   1       9.686   4.321  -6.137  0.00  0.00    -0.049 A 
ATOM      7  C   LIG d   1       8.436   2.179  -6.926  0.00  0.00    -0.013 A 
ATOM      8  C   LIG d   1       7.965   1.144  -6.204  0.00  0.00     0.071 A 
ATOM      9  N   LIG d   1       8.191   1.330  -4.869  0.00  0.00    -0.334 N 
ATOM     10  C   LIG d   1       7.720   0.356  -3.872  0.00  0.00     0.064 C 
ATOM     11  C   LIG d   1       7.367  -0.944  -4.605  0.00  0.00    -0.013 C 
ATOM     12  C   LIG d   1       7.265  -0.030  -6.849  0.00  0.00     0.021 C 
ATOM     13  H   LIG d   1       7.992  -0.716  -7.287  0.00  0.00     0.092 H 
ATOM     14  C   LIG d   1       6.328   0.506  -7.919  0.00  0.00    -0.004 C 
ATOM     15  C   LIG d   1       6.841   1.666  -8.737  0.00  0.00    -0.043 C 
ATOM     16  C   LIG d   1       8.240   2.173  -8.417  0.00  0.00    -0.025 C 
ATOM     17  H   LIG d   1      10.368   4.883  -2.881  0.00  0.00     0.062 H 
ATOM     18  H   LIG d   1       9.218   2.720  -2.580  0.00  0.00     0.064 H 
ATOM     19  H   LIG d   1       9.821   4.773  -7.109  0.00  0.00     0.063 H 
ATOM     20  H   LIG d   1       8.508   0.165  -3.143  0.00  0.00     0.054 H 
ATOM     21  H   LIG d   1       6.836   0.745  -3.367  0.00  0.00     0.054 H 
ATOM     22  H   LIG d   1       6.849  -1.612  -3.917  0.00  0.00     0.083 H 
ATOM     23  H   LIG d   1       8.286  -1.423  -4.944  0.00  0.00     0.083 H 
ATOM     24  H   LIG d   1       5.403   0.817  -7.433  0.00  0.00     0.032 H 
ATOM     25  H   LIG d   1       6.092  -0.311  -8.600  0.00  0.00     0.032 H 
ATOM     26  H   LIG d   1       6.147   2.496  -8.614  0.00  0.00     0.027 H 
ATOM     27  H   LIG d   1       6.823   1.370  -9.786  0.00  0.00     0.027 H 
ATOM     28  H   LIG d   1       8.358   3.185  -8.804  0.00  0.00     0.031 H 
ATOM     29  H   LIG d   1       8.980   1.518  -8.878  0.00  0.00     0.031 H 
ATOM     30  N   LIG d   1       6.485  -0.668  -5.758  0.00  0.00     0.245 N 
ATOM     31  H   LIG d   1       5.739  -0.027  -5.462  0.00  0.00     0.204 HD
ENDROOT
BRANCH  30  32
ATOM     32  C   LIG d   1       5.875  -1.925  -6.241  0.00  0.00    -0.001 C 
ATOM     33  H   LIG d   1       4.805  -1.774  -6.386  0.00  0.00     0.084 H 
ATOM     34  H   LIG d   1       6.330  -2.231  -7.183  0.00  0.00     0.084 H 
BRANCH  32  35
ATOM     35  C   LIG d   1       6.097  -3.015  -5.190  0.00  0.00     0.129 C 
ATOM     36  H   LIG d   1       6.879  -2.700  -4.500  0.00  0.00     0.068 H 
BRANCH  35  37
ATOM     37  C   LIG d   1       4.798  -3.251  -4.417  0.00  0.00     0.120 C 
ATOM     38  H   LIG d   1       4.339  -4.182  -4.753  0.00  0.00     0.072 H 
ATOM     39  H   LIG d   1       5.015  -3.317  -3.351  0.00  0.00     0.072 H 
BRANCH  37  40
ATOM     40  O   LIG d   1       3.900  -2.166  -4.653  0.00  0.00    -0.489 OA
BRANCH  40  41
ATOM     41  C   LIG d   1       3.920  -1.142  -3.761  0.00  0.00     0.123 A 
ATOM     42  C   LIG d   1       3.406   0.098  -4.112  0.00  0.00    -0.009 A 
ATOM     43  C   LIG d   1       3.429   1.138  -3.203  0.00  0.00    -0.055 A 
ATOM     44  C   LIG d   1       3.963   0.943  -1.942  0.00  0.00    -0.061 A 
ATOM     45  H   LIG d   1       3.029   2.102  -3.476  0.00  0.00     0.062 H 
ATOM     46  C   LIG d   1       4.476  -0.292  -1.590  0.00  0.00    -0.058 A 
ATOM     47  H   LIG d   1       3.980   1.757  -1.233  0.00  0.00     0.062 H 
ATOM     48  C   LIG d   1       4.451  -1.336  -2.493  0.00  0.00    -0.020 A 
ATOM     49  H   LIG d   1       4.893  -0.440  -0.604  0.00  0.00     0.062 H 
ATOM     50  H   LIG d   1       4.848  -2.301  -2.215  0.00  0.00     0.065 H 
BRANCH  42  51
ATOM     51  C   LIG d   1       2.824   0.310  -5.486  0.00  0.00    -0.036 C 
ATOM     52  H   LIG d   1       2.481  -0.644  -5.887  0.00  0.00     0.028 H 
ATOM     53  H   LIG d   1       1.982   1.000  -5.421  0.00  0.00     0.028 H 
ATOM     54  H   LIG d   1       3.586   0.727  -6.144  0.00  0.00     0.028 H 
ENDBRANCH  42  51
ENDBRANCH  40  41
ENDBRANCH  37  40
ENDBRANCH  35  37
BRANCH  35  55
ATOM     55  O   LIG d   1       6.493  -4.227  -5.837  0.00  0.00    -0.383 OA
ATOM     56  H   LIG d   1       6.668  -4.129  -6.782  0.00  0.00     0.210 HD
ENDBRANCH  35  55
ENDBRANCH  32  35
ENDBRANCH  30  32
BRANCH   1  57
ATOM     57  C   LIG d   1      10.854   6.254  -5.111  0.00  0.00    -0.040 C 
ATOM     58  H   LIG d   1      11.854   6.099  -5.516  0.00  0.00     0.028 H 
ATOM     59  H   LIG d   1      10.291   6.911  -5.774  0.00  0.00     0.028 H 
ATOM     60  H   LIG d   1      10.929   6.712  -4.124  0.00  0.00     0.028 H 
ENDBRANCH   1  57
TORSDOF 8
ENDMDL
MODEL 6
REMARK VINA RESULT:      -6.9      4.451      6.590
REMARK  8 active torsions:
REMARK  status: ('A' for Active; 'I' for Inactive)
REMARK    1  A    between atoms: C_1  and  C_2 
REMARK    2  A    between atoms: C_18  and  C_19 
REMARK    3  A    between atoms: C_18  and  N_59 
REMARK    4  A    between atoms: C_19  and  C_21 
REMARK    5  A    between atoms: C_19  and  O_30 
REMARK    6  A    between atoms: C_21  and  O_22 
REMARK    7  A    between atoms: O_22  and  C_23 
REMARK    8  A    between atoms: C_28  and  C_29 
ROOT
ATOM      1  C   LIG d   1      10.761   5.407  -4.844  0.00  0.00    -0.050 A 
ATOM      2  C   LIG d   1      10.338   4.964  -3.601  0.00  0.00    -0.057 A 
ATOM      3  C   LIG d   1       9.513   3.863  -3.453  0.00  0.00    -0.037 A 
ATOM      4  C   LIG d   1       9.117   3.203  -4.615  0.00  0.00     0.050 A 
ATOM      5  C   LIG d   1       9.558   3.661  -5.892  0.00  0.00     0.004 A 
ATOM      6  C   LIG d   1      10.391   4.779  -6.005  0.00  0.00    -0.049 A 
ATOM      7  C   LIG d   1       8.981   2.765  -6.857  0.00  0.00    -0.013 A 
ATOM      8  C   LIG d   1       8.268   1.858  -6.159  0.00  0.00     0.071 A 
ATOM      9  N   LIG d   1       8.323   2.114  -4.818  0.00  0.00    -0.334 N 
ATOM     10  C   LIG d   1       7.579   1.289  -3.853  0.00  0.00     0.064 C 
ATOM     11  C   LIG d   1       7.157  -0.005  -4.559  0.00  0.00    -0.013 C 
ATOM     12  C   LIG d   1       7.512   0.740  -6.838  0.00  0.00     0.021 C 
ATOM     13  H   LIG d   1       8.191  -0.066  -7.120  0.00  0.00     0.092 H 
ATOM     14  C   LIG d   1       6.825   1.311  -8.068  0.00  0.00    -0.004 C 
ATOM     15  C   LIG d   1       7.610   2.328  -8.861  0.00  0.00    -0.043 C 
ATOM     16  C   LIG d   1       9.005   2.671  -8.357  0.00  0.00    -0.025 C 
ATOM     17  H   LIG d   1      10.665   5.494  -2.719  0.00  0.00     0.062 H 
ATOM     18  H   LIG d   1       9.190   3.529  -2.479  0.00  0.00     0.064 H 
ATOM     19  H   LIG d   1      10.728   5.134  -6.968  0.00  0.00     0.063 H 
ATOM     20  H   LIG d   1       8.218   1.053  -3.002  0.00  0.00     0.054 H 
ATOM     21  H   LIG d   1       6.695   1.827  -3.513  0.00  0.00     0.054 H 
ATOM     22  H   LIG d   1       6.456  -0.546  -3.923  0.00  0.00     0.083 H 
ATOM     23  H   LIG d   1       8.039  -0.624  -4.724  0.00  0.00     0.083 H 
ATOM     24  H   LIG d   1       5.892   1.776  -7.749  0.00  0.00     0.032 H 
ATOM     25  H   LIG d   1       6.578   0.482  -8.731  0.00  0.00     0.032 H 
ATOM     26  H   LIG d   1       7.029   3.248  -8.893  0.00  0.00     0.027 H 
ATOM     27  H   LIG d   1       7.703   1.957  -9.882  0.00  0.00     0.027 H 
ATOM     28  H   LIG d   1       9.318   3.626  -8.777  0.00  0.00     0.031 H 
ATOM     29  H   LIG d   1       9.704   1.892  -8.662  0.00  0.00     0.031 H 
ATOM     30  N   LIG d   1       6.499   0.295  -5.847  0.00  0.00     0.245 N 
ATOM     31  H   LIG d   1       5.816   1.048  -5.706  0.00  0.00     0.204 HD
ENDROOT
BRANCH  30  32
ATOM     32  C   LIG d   1       5.795  -0.906  -6.348  0.00  0.00    -0.001 C 
ATOM     33  H   LIG d   1       5.554  -0.767  -7.401  0.00  0.00     0.084 H 
ATOM     34  H   LIG d   1       6.422  -1.790  -6.232  0.00  0.00     0.084 H 
BRANCH  32  35
ATOM     35  C   LIG d   1       4.503  -1.087  -5.548  0.00  0.00     0.129 C 
ATOM     36  H   LIG d   1       4.726  -1.037  -4.483  0.00  0.00     0.068 H 
BRANCH  35  37
ATOM     37  C   LIG d   1       3.515   0.021  -5.917  0.00  0.00     0.120 C 
ATOM     38  H   LIG d   1       2.796   0.150  -5.107  0.00  0.00     0.072 H 
ATOM     39  H   LIG d   1       4.057   0.954  -6.074  0.00  0.00     0.072 H 
BRANCH  37  40
ATOM     40  O   LIG d   1       2.824  -0.337  -7.115  0.00  0.00    -0.489 OA
BRANCH  40  41
ATOM     41  C   LIG d   1       3.151   0.344  -8.243  0.00  0.00     0.123 A 
ATOM     42  C   LIG d   1       3.546  -0.344  -9.381  0.00  0.00    -0.009 A 
ATOM     43  C   LIG d   1       3.879   0.351 -10.528  0.00  0.00    -0.055 A 
ATOM     44  C   LIG d   1       3.820   1.732 -10.542  0.00  0.00    -0.061 A 
ATOM     45  H   LIG d   1       4.186  -0.185 -11.414  0.00  0.00     0.062 H 
ATOM     46  C   LIG d   1       3.427   2.421  -9.409  0.00  0.00    -0.058 A 
ATOM     47  H   LIG d   1       4.081   2.273 -11.439  0.00  0.00     0.062 H 
ATOM     48  C   LIG d   1       3.088   1.731  -8.262  0.00  0.00    -0.020 A 
ATOM     49  H   LIG d   1       3.381   3.500  -9.423  0.00  0.00     0.062 H 
ATOM     50  H   LIG d   1       2.776   2.269  -7.379  0.00  0.00     0.065 H 
BRANCH  42  51
ATOM     51  C   LIG d   1       3.610  -1.850  -9.366  0.00  0.00    -0.036 C 
ATOM     52  H   LIG d   1       3.047  -2.247 -10.212  0.00  0.00     0.028 H 
ATOM     53  H   LIG d   1       4.649  -2.170  -9.440  0.00  0.00     0.028 H 
ATOM     54  H   LIG d   1       3.180  -2.224  -8.437  0.00  0.00     0.028 H 
ENDBRANCH  42  51
ENDBRANCH  40  41
ENDBRANCH  37  40
ENDBRANCH  35  37
BRANCH  35  55
ATOM     55  O   LIG d   1       3.928  -2.359  -5.855  0.00  0.00    -0.383 OA
ATOM     56  H   LIG d   1       3.154  -2.580  -5.321  0.00  0.00     0.210 HD
ENDBRANCH  35  55
ENDBRANCH  32  35
ENDBRANCH  30  32
BRANCH   1  57
ATOM     57  C   LIG d   1      11.658   6.615  -4.920  0.00  0.00    -0.040 C 
ATOM     58  H   LIG d   1      12.633   6.373  -4.500  0.00  0.00     0.028 H 
ATOM     59  H   LIG d   1      11.775   6.915  -5.962  0.00  0.00     0.028 H 
ATOM     60  H   LIG d   1      11.212   7.435  -4.355  0.00  0.00     0.028 H 
ENDBRANCH   1  57
TORSDOF 8
ENDMDL
MODEL 7
REMARK VINA RESULT:      -6.9      2.865      4.280
REMARK  8 active torsions:
REMARK  status: ('A' for Active; 'I' for Inactive)
REMARK    1  A    between atoms: C_1  and  C_2 
REMARK    2  A    between atoms: C_18  and  C_19 
REMARK    3  A    between atoms: C_18  and  N_59 
REMARK    4  A    between atoms: C_19  and  C_21 
REMARK    5  A    between atoms: C_19  and  O_30 
REMARK    6  A    between atoms: C_21  and  O_22 
REMARK    7  A    between atoms: O_22  and  C_23 
REMARK    8  A    between atoms: C_28  and  C_29 
ROOT
ATOM      1  C   LIG d   1       9.850   8.844  -6.400  0.00  0.00    -0.050 A 
ATOM      2  C   LIG d   1       9.792   8.607  -5.036  0.00  0.00    -0.057 A 
ATOM      3  C   LIG d   1       9.728   7.327  -4.514  0.00  0.00    -0.037 A 
ATOM      4  C   LIG d   1       9.724   6.268  -5.419  0.00  0.00     0.050 A 
ATOM      5  C   LIG d   1       9.787   6.518  -6.823  0.00  0.00     0.004 A 
ATOM      6  C   LIG d   1       9.850   7.825  -7.317  0.00  0.00    -0.049 A 
ATOM      7  C   LIG d   1       9.773   5.228  -7.457  0.00  0.00    -0.013 A 
ATOM      8  C   LIG d   1       9.714   4.315  -6.468  0.00  0.00     0.071 A 
ATOM      9  N   LIG d   1       9.665   4.919  -5.242  0.00  0.00    -0.334 N 
ATOM     10  C   LIG d   1       9.544   4.128  -4.007  0.00  0.00     0.064 C 
ATOM     11  C   LIG d   1       9.891   2.671  -4.338  0.00  0.00    -0.013 C 
ATOM     12  C   LIG d   1       9.685   2.830  -6.748  0.00  0.00     0.021 C 
ATOM     13  H   LIG d   1      10.687   2.464  -6.975  0.00  0.00     0.092 H 
ATOM     14  C   LIG d   1       8.752   2.588  -7.923  0.00  0.00    -0.004 C 
ATOM     15  C   LIG d   1       8.806   3.601  -9.040  0.00  0.00    -0.043 C 
ATOM     16  C   LIG d   1       9.790   4.752  -8.883  0.00  0.00    -0.025 C 
ATOM     17  H   LIG d   1       9.800   9.448  -4.359  0.00  0.00     0.062 H 
ATOM     18  H   LIG d   1       9.682   7.157  -3.449  0.00  0.00     0.064 H 
ATOM     19  H   LIG d   1       9.896   8.023  -8.378  0.00  0.00     0.063 H 
ATOM     20  H   LIG d   1      10.237   4.510  -3.257  0.00  0.00     0.054 H 
ATOM     21  H   LIG d   1       8.524   4.187  -3.631  0.00  0.00     0.054 H 
ATOM     22  H   LIG d   1       9.635   2.042  -3.486  0.00  0.00     0.083 H 
ATOM     23  H   LIG d   1      10.962   2.595  -4.529  0.00  0.00     0.083 H 
ATOM     24  H   LIG d   1       7.730   2.557  -7.543  0.00  0.00     0.032 H 
ATOM     25  H   LIG d   1       8.985   1.609  -8.342  0.00  0.00     0.032 H 
ATOM     26  H   LIG d   1       7.809   4.025  -9.157  0.00  0.00     0.027 H 
ATOM     27  H   LIG d   1       9.052   3.072  -9.961  0.00  0.00     0.027 H 
ATOM     28  H   LIG d   1       9.501   5.570  -9.544  0.00  0.00     0.031 H 
ATOM     29  H   LIG d   1      10.793   4.412  -9.141  0.00  0.00     0.031 H 
ATOM     30  N   LIG d   1       9.131   2.211  -5.517  0.00  0.00     0.245 N 
ATOM     31  H   LIG d   1       8.149   2.494  -5.414  0.00  0.00     0.204 HD
ENDROOT
BRANCH  30  32
ATOM     32  C   LIG d   1       9.198   0.737  -5.619  0.00  0.00    -0.001 C 
ATOM     33  H   LIG d   1       9.099   0.444  -6.664  0.00  0.00     0.084 H 
ATOM     34  H   LIG d   1      10.148   0.372  -5.228  0.00  0.00     0.084 H 
BRANCH  32  35
ATOM     35  C   LIG d   1       8.047   0.135  -4.810  0.00  0.00     0.129 C 
ATOM     36  H   LIG d   1       7.739   0.839  -4.037  0.00  0.00     0.068 H 
BRANCH  35  37
ATOM     37  C   LIG d   1       6.866  -0.152  -5.739  0.00  0.00     0.120 C 
ATOM     38  H   LIG d   1       7.011   0.373  -6.684  0.00  0.00     0.072 H 
ATOM     39  H   LIG d   1       6.802  -1.224  -5.925  0.00  0.00     0.072 H 
BRANCH  37  40
ATOM     40  O   LIG d   1       5.657   0.298  -5.125  0.00  0.00    -0.489 OA
BRANCH  40  41
ATOM     41  C   LIG d   1       5.095  -0.519  -4.196  0.00  0.00     0.123 A 
ATOM     42  C   LIG d   1       4.767  -0.024  -2.942  0.00  0.00    -0.009 A 
ATOM     43  C   LIG d   1       4.197  -0.857  -1.999  0.00  0.00    -0.055 A 
ATOM     44  C   LIG d   1       3.951  -2.183  -2.305  0.00  0.00    -0.061 A 
ATOM     45  H   LIG d   1       3.941  -0.473  -1.024  0.00  0.00     0.062 H 
ATOM     46  C   LIG d   1       4.277  -2.679  -3.555  0.00  0.00    -0.058 A 
ATOM     47  H   LIG d   1       3.505  -2.832  -1.566  0.00  0.00     0.062 H 
ATOM     48  C   LIG d   1       4.843  -1.849  -4.502  0.00  0.00    -0.020 A 
ATOM     49  H   LIG d   1       4.084  -3.715  -3.790  0.00  0.00     0.062 H 
ATOM     50  H   LIG d   1       5.092  -2.236  -5.479  0.00  0.00     0.065 H 
BRANCH  42  51
ATOM     51  C   LIG d   1       5.034   1.421  -2.609  0.00  0.00    -0.036 C 
ATOM     52  H   LIG d   1       5.778   1.822  -3.298  0.00  0.00     0.028 H 
ATOM     53  H   LIG d   1       4.110   1.991  -2.700  0.00  0.00     0.028 H 
ATOM     54  H   LIG d   1       5.408   1.496  -1.588  0.00  0.00     0.028 H 
ENDBRANCH  42  51
ENDBRANCH  40  41
ENDBRANCH  37  40
ENDBRANCH  35  37
BRANCH  35  55
ATOM     55  O   LIG d   1       8.480  -1.083  -4.200  0.00  0.00    -0.383 OA
ATOM     56  H   LIG d   1       8.487  -1.058  -3.233  0.00  0.00     0.210 HD
ENDBRANCH  35  55
ENDBRANCH  32  35
ENDBRANCH  30  32
BRANCH   1  57
ATOM     57  C   LIG d   1       9.916  10.268  -6.890  0.00  0.00    -0.040 C 
ATOM     58  H   LIG d   1      10.778  10.766  -6.447  0.00  0.00     0.028 H 
ATOM     59  H   LIG d   1      10.011  10.274  -7.976  0.00  0.00     0.028 H 
ATOM     60  H   LIG d   1       9.005  10.794  -6.603  0.00  0.00     0.028 H 
ENDBRANCH   1  57
TORSDOF 8
ENDMDL
MODEL 8
REMARK VINA RESULT:      -6.9      2.604      3.671
REMARK  8 active torsions:
REMARK  status: ('A' for Active; 'I' for Inactive)
REMARK    1  A    between atoms: C_1  and  C_2 
REMARK    2  A    between atoms: C_18  and  C_19 
REMARK    3  A    between atoms: C_18  and  N_59 
REMARK    4  A    between atoms: C_19  and  C_21 
REMARK    5  A    between atoms: C_19  and  O_30 
REMARK    6  A    between atoms: C_21  and  O_22 
REMARK    7  A    between atoms: O_22  and  C_23 
REMARK    8  A    between atoms: C_28  and  C_29 
ROOT
ATOM      1  C   LIG d   1       9.850  10.637  -6.708  0.00  0.00    -0.050 A 
ATOM      2  C   LIG d   1       9.711  10.443  -5.344  0.00  0.00    -0.057 A 
ATOM      3  C   LIG d   1       9.680   9.181  -4.778  0.00  0.00    -0.037 A 
ATOM      4  C   LIG d   1       9.796   8.093  -5.641  0.00  0.00     0.050 A 
ATOM      5  C   LIG d   1       9.943   8.298  -7.046  0.00  0.00     0.004 A 
ATOM      6  C   LIG d   1       9.969   9.589  -7.584  0.00  0.00    -0.049 A 
ATOM      7  C   LIG d   1      10.042   6.989  -7.631  0.00  0.00    -0.013 A 
ATOM      8  C   LIG d   1       9.964   6.108  -6.613  0.00  0.00     0.071 A 
ATOM      9  N   LIG d   1       9.798   6.749  -5.418  0.00  0.00    -0.334 N 
ATOM     10  C   LIG d   1       9.634   5.996  -4.164  0.00  0.00     0.064 C 
ATOM     11  C   LIG d   1      10.081   4.551  -4.415  0.00  0.00    -0.013 C 
ATOM     12  C   LIG d   1      10.035   4.615  -6.838  0.00  0.00     0.021 C 
ATOM     13  H   LIG d   1      11.069   4.299  -6.983  0.00  0.00     0.092 H 
ATOM     14  C   LIG d   1       9.200   4.281  -8.063  0.00  0.00    -0.004 C 
ATOM     15  C   LIG d   1       9.277   5.256  -9.212  0.00  0.00    -0.043 C 
ATOM     16  C   LIG d   1      10.184   6.466  -9.033  0.00  0.00    -0.025 C 
ATOM     17  H   LIG d   1       9.626  11.306  -4.700  0.00  0.00     0.062 H 
ATOM     18  H   LIG d   1       9.569   9.044  -3.714  0.00  0.00     0.064 H 
ATOM     19  H   LIG d   1      10.077   9.753  -8.646  0.00  0.00     0.063 H 
ATOM     20  H   LIG d   1      10.252   6.442  -3.384  0.00  0.00     0.054 H 
ATOM     21  H   LIG d   1       8.589   6.010  -3.860  0.00  0.00     0.054 H 
ATOM     22  H   LIG d   1       9.801   3.937  -3.559  0.00  0.00     0.083 H 
ATOM     23  H   LIG d   1      11.165   4.528  -4.531  0.00  0.00     0.083 H 
ATOM     24  H   LIG d   1       8.158   4.205  -7.752  0.00  0.00     0.032 H 
ATOM     25  H   LIG d   1       9.514   3.303  -8.428  0.00  0.00     0.032 H 
ATOM     26  H   LIG d   1       8.269   5.619  -9.412  0.00  0.00     0.027 H 
ATOM     27  H   LIG d   1       9.615   4.711 -10.093  0.00  0.00     0.027 H 
ATOM     28  H   LIG d   1       9.898   7.243  -9.742  0.00  0.00     0.031 H 
ATOM     29  H   LIG d   1      11.219   6.175  -9.210  0.00  0.00     0.031 H 
ATOM     30  N   LIG d   1       9.431   4.007  -5.625  0.00  0.00     0.245 N 
ATOM     31  H   LIG d   1       8.430   4.238  -5.599  0.00  0.00     0.204 HD
ENDROOT
BRANCH  30  32
ATOM     32  C   LIG d   1       9.585   2.537  -5.666  0.00  0.00    -0.001 C 
ATOM     33  H   LIG d   1       8.840   2.117  -6.341  0.00  0.00     0.084 H 
ATOM     34  H   LIG d   1      10.583   2.269  -6.014  0.00  0.00     0.084 H 
BRANCH  32  35
ATOM     35  C   LIG d   1       9.367   1.980  -4.257  0.00  0.00     0.129 C 
ATOM     36  H   LIG d   1       9.814   2.655  -3.528  0.00  0.00     0.068 H 
BRANCH  35  37
ATOM     37  C   LIG d   1       7.867   1.854  -3.985  0.00  0.00     0.120 C 
ATOM     38  H   LIG d   1       7.639   2.280  -3.007  0.00  0.00     0.072 H 
ATOM     39  H   LIG d   1       7.311   2.389  -4.754  0.00  0.00     0.072 H 
BRANCH  37  40
ATOM     40  O   LIG d   1       7.495   0.474  -4.000  0.00  0.00    -0.489 OA
BRANCH  40  41
ATOM     41  C   LIG d   1       6.379   0.128  -3.308  0.00  0.00     0.123 A 
ATOM     42  C   LIG d   1       6.027  -1.208  -3.179  0.00  0.00    -0.009 A 
ATOM     43  C   LIG d   1       4.891  -1.557  -2.474  0.00  0.00    -0.055 A 
ATOM     44  C   LIG d   1       4.105  -0.576  -1.898  0.00  0.00    -0.061 A 
ATOM     45  H   LIG d   1       4.617  -2.596  -2.373  0.00  0.00     0.062 H 
ATOM     46  C   LIG d   1       4.454   0.756  -2.026  0.00  0.00    -0.058 A 
ATOM     47  H   LIG d   1       3.218  -0.852  -1.348  0.00  0.00     0.062 H 
ATOM     48  C   LIG d   1       5.591   1.110  -2.724  0.00  0.00    -0.020 A 
ATOM     49  H   LIG d   1       3.837   1.520  -1.574  0.00  0.00     0.062 H 
ATOM     50  H   LIG d   1       5.865   2.151  -2.819  0.00  0.00     0.065 H 
BRANCH  42  51
ATOM     51  C   LIG d   1       6.884  -2.277  -3.806  0.00  0.00    -0.036 C 
ATOM     52  H   LIG d   1       6.372  -2.691  -4.675  0.00  0.00     0.028 H 
ATOM     53  H   LIG d   1       7.835  -1.844  -4.117  0.00  0.00     0.028 H 
ATOM     54  H   LIG d   1       7.066  -3.070  -3.081  0.00  0.00     0.028 H 
ENDBRANCH  42  51
ENDBRANCH  40  41
ENDBRANCH  37  40
ENDBRANCH  35  37
BRANCH  35  55
ATOM     55  O   LIG d   1       9.981   0.693  -4.154  0.00  0.00    -0.383 OA
ATOM     56  H   LIG d   1      10.481   0.560  -3.338  0.00  0.00     0.210 HD
ENDBRANCH  35  55
ENDBRANCH  32  35
ENDBRANCH  30  32
BRANCH   1  57
ATOM     57  C   LIG d   1       9.874  12.045  -7.247  0.00  0.00    -0.040 C 
ATOM     58  H   LIG d   1       9.531  12.045  -8.281  0.00  0.00     0.028 H 
ATOM     59  H   LIG d   1       9.217  12.674  -6.646  0.00  0.00     0.028 H 
ATOM     60  H   LIG d   1      10.892  12.434  -7.201  0.00  0.00     0.028 H 
ENDBRANCH   1  57
TORSDOF 8
ENDMDL
MODEL 9
REMARK VINA RESULT:      -6.7      8.619     10.587
REMARK  8 active torsions:
REMARK  status: ('A' for Active; 'I' for Inactive)
REMARK    1  A    between atoms: C_1  and  C_2 
REMARK    2  A    between atoms: C_18  and  C_19 
REMARK    3  A    between atoms: C_18  and  N_59 
REMARK    4  A    between atoms: C_19  and  C_21 
REMARK    5  A    between atoms: C_19  and  O_30 
REMARK    6  A    between atoms: C_21  and  O_22 
REMARK    7  A    between atoms: O_22  and  C_23 
REMARK    8  A    between atoms: C_28  and  C_29 
ROOT
ATOM      1  C   LIG d   1       9.102  -3.709  -3.442  0.00  0.00    -0.050 A 
ATOM      2  C   LIG d   1       9.318  -3.741  -4.811  0.00  0.00    -0.057 A 
ATOM      3  C   LIG d   1       8.459  -3.129  -5.706  0.00  0.00    -0.037 A 
ATOM      4  C   LIG d   1       7.352  -2.468  -5.178  0.00  0.00     0.050 A 
ATOM      5  C   LIG d   1       7.137  -2.434  -3.767  0.00  0.00     0.004 A 
ATOM      6  C   LIG d   1       8.025  -3.065  -2.890  0.00  0.00    -0.049 A 
ATOM      7  C   LIG d   1       5.931  -1.677  -3.568  0.00  0.00    -0.013 A 
ATOM      8  C   LIG d   1       5.506  -1.304  -4.791  0.00  0.00     0.071 A 
ATOM      9  N   LIG d   1       6.333  -1.783  -5.768  0.00  0.00    -0.334 N 
ATOM     10  C   LIG d   1       6.046  -1.550  -7.192  0.00  0.00     0.064 C 
ATOM     11  C   LIG d   1       5.007  -0.427  -7.291  0.00  0.00    -0.013 C 
ATOM     12  C   LIG d   1       4.254  -0.480  -4.987  0.00  0.00     0.021 C 
ATOM     13  H   LIG d   1       4.451   0.572  -4.776  0.00  0.00     0.092 H 
ATOM     14  C   LIG d   1       3.182  -1.018  -4.054  0.00  0.00    -0.004 C 
ATOM     15  C   LIG d   1       3.641  -1.440  -2.680  0.00  0.00    -0.043 C 
ATOM     16  C   LIG d   1       5.122  -1.277  -2.365  0.00  0.00    -0.025 C 
ATOM     17  H   LIG d   1      10.186  -4.259  -5.190  0.00  0.00     0.062 H 
ATOM     18  H   LIG d   1       8.639  -3.163  -6.770  0.00  0.00     0.064 H 
ATOM     19  H   LIG d   1       7.868  -3.047  -1.822  0.00  0.00     0.063 H 
ATOM     20  H   LIG d   1       6.960  -1.252  -7.707  0.00  0.00     0.054 H 
ATOM     21  H   LIG d   1       5.649  -2.459  -7.641  0.00  0.00     0.054 H 
ATOM     22  H   LIG d   1       4.649  -0.362  -8.319  0.00  0.00     0.083 H 
ATOM     23  H   LIG d   1       5.476   0.519  -7.017  0.00  0.00     0.083 H 
ATOM     24  H   LIG d   1       2.716  -1.878  -4.535  0.00  0.00     0.032 H 
ATOM     25  H   LIG d   1       2.421  -0.246  -3.935  0.00  0.00     0.032 H 
ATOM     26  H   LIG d   1       3.384  -2.490  -2.548  0.00  0.00     0.027 H 
ATOM     27  H   LIG d   1       3.077  -0.864  -1.946  0.00  0.00     0.027 H 
ATOM     28  H   LIG d   1       5.386  -1.913  -1.521  0.00  0.00     0.031 H 
ATOM     29  H   LIG d   1       5.330  -0.237  -2.116  0.00  0.00     0.031 H 
ATOM     30  N   LIG d   1       3.859  -0.700  -6.402  0.00  0.00     0.245 N 
ATOM     31  H   LIG d   1       3.571  -1.678  -6.520  0.00  0.00     0.204 HD
ENDROOT
BRANCH  30  32
ATOM     32  C   LIG d   1       2.725   0.182  -6.753  0.00  0.00    -0.001 C 
ATOM     33  H   LIG d   1       1.858  -0.429  -7.000  0.00  0.00     0.084 H 
ATOM     34  H   LIG d   1       2.482   0.839  -5.918  0.00  0.00     0.084 H 
BRANCH  32  35
ATOM     35  C   LIG d   1       3.117   1.026  -7.969  0.00  0.00     0.129 C 
ATOM     36  H   LIG d   1       4.189   0.941  -8.139  0.00  0.00     0.068 H 
BRANCH  35  37
ATOM     37  C   LIG d   1       2.362   0.525  -9.202  0.00  0.00     0.120 C 
ATOM     38  H   LIG d   1       1.458   1.119  -9.340  0.00  0.00     0.072 H 
ATOM     39  H   LIG d   1       2.999   0.620 -10.081  0.00  0.00     0.072 H 
BRANCH  37  40
ATOM     40  O   LIG d   1       2.006  -0.846  -9.017  0.00  0.00    -0.489 OA
BRANCH  40  41
ATOM     41  C   LIG d   1       1.860  -1.602 -10.136  0.00  0.00     0.123 A 
ATOM     42  C   LIG d   1       2.430  -2.865 -10.203  0.00  0.00    -0.009 A 
ATOM     43  C   LIG d   1       2.280  -3.631 -11.342  0.00  0.00    -0.055 A 
ATOM     44  C   LIG d   1       1.562  -3.140 -12.417  0.00  0.00    -0.061 A 
ATOM     45  H   LIG d   1       2.723  -4.614 -11.394  0.00  0.00     0.062 H 
ATOM     46  C   LIG d   1       0.992  -1.881 -12.354  0.00  0.00    -0.058 A 
ATOM     47  H   LIG d   1       1.446  -3.741 -13.307  0.00  0.00     0.062 H 
ATOM     48  C   LIG d   1       1.135  -1.114 -11.215  0.00  0.00    -0.020 A 
ATOM     49  H   LIG d   1       0.432  -1.501 -13.195  0.00  0.00     0.062 H 
ATOM     50  H   LIG d   1       0.686  -0.132 -11.165  0.00  0.00     0.065 H 
BRANCH  42  51
ATOM     51  C   LIG d   1       3.212  -3.401  -9.031  0.00  0.00    -0.036 C 
ATOM     52  H   LIG d   1       3.340  -2.613  -8.288  0.00  0.00     0.028 H 
ATOM     53  H   LIG d   1       2.672  -4.236  -8.585  0.00  0.00     0.028 H 
ATOM     54  H   LIG d   1       4.190  -3.741  -9.371  0.00  0.00     0.028 H 
ENDBRANCH  42  51
ENDBRANCH  40  41
ENDBRANCH  37  40
ENDBRANCH  35  37
BRANCH  35  55
ATOM     55  O   LIG d   1       2.779   2.394  -7.727  0.00  0.00    -0.383 OA
ATOM     56  H   LIG d   1       3.429   3.025  -8.066  0.00  0.00     0.210 HD
ENDBRANCH  35  55
ENDBRANCH  32  35
ENDBRANCH  30  32
BRANCH   1  57
ATOM     57  C   LIG d   1      10.084  -4.402  -2.533  0.00  0.00    -0.040 C 
ATOM     58  H   LIG d   1      10.981  -3.791  -2.432  0.00  0.00     0.028 H 
ATOM     59  H   LIG d   1       9.631  -4.546  -1.552  0.00  0.00     0.028 H 
ATOM     60  H   LIG d   1      10.350  -5.371  -2.956  0.00  0.00     0.028 H 
ENDBRANCH   1  57
TORSDOF 8
ENDMDL
MODEL 10
REMARK VINA RESULT:      -6.7      8.424     11.830
REMARK  8 active torsions:
REMARK  status: ('A' for Active; 'I' for Inactive)
REMARK    1  A    between atoms: C_1  and  C_2 
REMARK    2  A    between atoms: C_18  and  C_19 
REMARK    3  A    between atoms: C_18  and  N_59 
REMARK    4  A    between atoms: C_19  and  C_21 
REMARK    5  A    between atoms: C_19  and  O_30 
REMARK    6  A    between atoms: C_21  and  O_22 
REMARK    7  A    between atoms: O_22  and  C_23 
REMARK    8  A    between atoms: C_28  and  C_29 
ROOT
ATOM      1  C   LIG d   1       4.412  -0.194  -2.754  0.00  0.00    -0.050 A 
ATOM      2  C   LIG d   1       4.699  -1.522  -2.483  0.00  0.00    -0.057 A 
ATOM      3  C   LIG d   1       4.729  -2.486  -3.475  0.00  0.00    -0.037 A 
ATOM      4  C   LIG d   1       4.458  -2.070  -4.777  0.00  0.00     0.050 A 
ATOM      5  C   LIG d   1       4.166  -0.700  -5.051  0.00  0.00     0.004 A 
ATOM      6  C   LIG d   1       4.143   0.249  -4.024  0.00  0.00    -0.049 A 
ATOM      7  C   LIG d   1       3.947  -0.617  -6.469  0.00  0.00    -0.013 A 
ATOM      8  C   LIG d   1       4.114  -1.863  -6.956  0.00  0.00     0.071 A 
ATOM      9  N   LIG d   1       4.402  -2.749  -5.957  0.00  0.00    -0.334 N 
ATOM     10  C   LIG d   1       4.577  -4.183  -6.235  0.00  0.00     0.064 C 
ATOM     11  C   LIG d   1       4.778  -4.354  -7.746  0.00  0.00    -0.013 C 
ATOM     12  C   LIG d   1       3.965  -2.174  -8.428  0.00  0.00     0.021 C 
ATOM     13  H   LIG d   1       4.863  -1.880  -8.974  0.00  0.00     0.092 H 
ATOM     14  C   LIG d   1       2.754  -1.420  -8.951  0.00  0.00    -0.004 C 
ATOM     15  C   LIG d   1       2.552  -0.024  -8.416  0.00  0.00    -0.043 C 
ATOM     16  C   LIG d   1       3.580   0.490  -7.418  0.00  0.00    -0.025 C 
ATOM     17  H   LIG d   1       4.909  -1.813  -1.465  0.00  0.00     0.062 H 
ATOM     18  H   LIG d   1       4.953  -3.517  -3.249  0.00  0.00     0.064 H 
ATOM     19  H   LIG d   1       3.921   1.287  -4.222  0.00  0.00     0.063 H 
ATOM     20  H   LIG d   1       5.452  -4.557  -5.703  0.00  0.00     0.054 H 
ATOM     21  H   LIG d   1       3.690  -4.730  -5.919  0.00  0.00     0.054 H 
ATOM     22  H   LIG d   1       4.729  -5.414  -7.995  0.00  0.00     0.083 H 
ATOM     23  H   LIG d   1       5.761  -3.968  -8.020  0.00  0.00     0.083 H 
ATOM     24  H   LIG d   1       1.864  -2.005  -8.717  0.00  0.00     0.032 H 
ATOM     25  H   LIG d   1       2.839  -1.358 -10.037  0.00  0.00     0.032 H 
ATOM     26  H   LIG d   1       1.573   0.014  -7.939  0.00  0.00     0.027 H 
ATOM     27  H   LIG d   1       2.535   0.661  -9.264  0.00  0.00     0.027 H 
ATOM     28  H   LIG d   1       3.159   1.325  -6.859  0.00  0.00     0.031 H 
ATOM     29  H   LIG d   1       4.472   0.822  -7.951  0.00  0.00     0.031 H 
ATOM     30  N   LIG d   1       3.725  -3.638  -8.496  0.00  0.00     0.245 N 
ATOM     31  H   LIG d   1       2.813  -3.847  -8.073  0.00  0.00     0.204 HD
ENDROOT
BRANCH  30  32
ATOM     32  C   LIG d   1       3.716  -4.084  -9.906  0.00  0.00    -0.001 C 
ATOM     33  H   LIG d   1       3.477  -3.238 -10.549  0.00  0.00     0.084 H 
ATOM     34  H   LIG d   1       4.689  -4.489 -10.183  0.00  0.00     0.084 H 
BRANCH  32  35
ATOM     35  C   LIG d   1       2.647  -5.167 -10.071  0.00  0.00     0.129 C 
ATOM     36  H   LIG d   1       2.509  -5.689  -9.125  0.00  0.00     0.068 H 
BRANCH  35  37
ATOM     37  C   LIG d   1       1.327  -4.520 -10.495  0.00  0.00     0.120 C 
ATOM     38  H   LIG d   1       0.800  -4.158  -9.611  0.00  0.00     0.072 H 
ATOM     39  H   LIG d   1       1.530  -3.684 -11.165  0.00  0.00     0.072 H 
BRANCH  37  40
ATOM     40  O   LIG d   1       0.518  -5.485 -11.170  0.00  0.00    -0.489 OA
BRANCH  40  41
ATOM     41  C   LIG d   1      -0.619  -5.884 -10.543  0.00  0.00     0.123 A 
ATOM     42  C   LIG d   1      -0.758  -7.199 -10.124  0.00  0.00    -0.009 A 
ATOM     43  C   LIG d   1      -1.917  -7.602  -9.487  0.00  0.00    -0.055 A 
ATOM     44  C   LIG d   1      -2.937  -6.695  -9.267  0.00  0.00    -0.061 A 
ATOM     45  H   LIG d   1      -2.025  -8.625  -9.160  0.00  0.00     0.062 H 
ATOM     46  C   LIG d   1      -2.800  -5.383  -9.683  0.00  0.00    -0.058 A 
ATOM     47  H   LIG d   1      -3.841  -7.012  -8.769  0.00  0.00     0.062 H 
ATOM     48  C   LIG d   1      -1.643  -4.974 -10.315  0.00  0.00    -0.020 A 
ATOM     49  H   LIG d   1      -3.599  -4.677  -9.509  0.00  0.00     0.062 H 
ATOM     50  H   LIG d   1      -1.536  -3.948 -10.636  0.00  0.00     0.065 H 
BRANCH  42  51
ATOM     51  C   LIG d   1       0.354  -8.188 -10.363  0.00  0.00    -0.036 C 
ATOM     52  H   LIG d   1       0.326  -8.960  -9.594  0.00  0.00     0.028 H 
ATOM     53  H   LIG d   1       0.227  -8.646 -11.344  0.00  0.00     0.028 H 
ATOM     54  H   LIG d   1       1.313  -7.672 -10.325  0.00  0.00     0.028 H 
ENDBRANCH  42  51
ENDBRANCH  40  41
ENDBRANCH  37  40
ENDBRANCH  35  37
BRANCH  35  55
ATOM     55  O   LIG d   1       3.064  -6.098 -11.073  0.00  0.00    -0.383 OA
ATOM     56  H   LIG d   1       3.509  -5.691 -11.827  0.00  0.00     0.210 HD
ENDBRANCH  35  55
ENDBRANCH  32  35
ENDBRANCH  30  32
BRANCH   1  57
ATOM     57  C   LIG d   1       4.398   0.796  -1.618  0.00  0.00    -0.040 C 
ATOM     58  H   LIG d   1       5.353   1.317  -1.576  0.00  0.00     0.028 H 
ATOM     59  H   LIG d   1       3.596   1.518  -1.775  0.00  0.00     0.028 H 
ATOM     60  H   LIG d   1       4.230   0.268  -0.678  0.00  0.00     0.028 H 
ENDBRANCH   1  57
TORSDOF 8
ENDMDL
