MODEL 1
REMARK VINA RESULT:      -8.0      0.000      0.000
REMARK  6 active torsions:
REMARK  status: ('A' for Active; 'I' for Inactive)
REMARK    1  A    between atoms: C_1  and  C_2 
REMARK    2  A    between atoms: C_10  and  C_14 
REMARK    3  A    between atoms: C_18  and  C_20 
REMARK    4  A    between atoms: C_20  and  N_21 
REMARK    5  A    between atoms: N_24  and  C_27 
REMARK    6  A    between atoms: C_27  and  C_28 
ROOT
ATOM      1  C   LIG d   1       4.617  -0.226  -2.571  0.00  0.00    -0.073 C 
ATOM      2  C   LIG d   1       5.369  -0.155  -3.628  0.00  0.00    -0.064 C 
ATOM      3  C   LIG d   1       6.295   1.031  -3.796  0.00  0.00    -0.024 C 
ATOM      4  C   LIG d   1       7.735   0.541  -3.988  0.00  0.00     0.014 C 
ATOM      5  H   LIG d   1       8.113   0.238  -3.001  0.00  0.00     0.035 H 
ATOM      6  C   LIG d   1       7.808  -0.577  -5.044  0.00  0.00     0.108 C 
ATOM      7  H   LIG d   1       8.766  -1.116  -5.054  0.00  0.00     0.074 H 
ATOM      8  C   LIG d   1       6.836  -1.707  -4.826  0.00  0.00    -0.006 C 
ATOM      9  C   LIG d   1       5.399  -1.193  -4.714  0.00  0.00    -0.007 C 
ATOM     10  C   LIG d   1       4.438  -2.341  -4.477  0.00  0.00    -0.043 C 
ATOM     11  C   LIG d   1       4.280  -2.632  -2.985  0.00  0.00    -0.049 C 
ATOM     12  C   LIG d   1       3.696  -1.385  -2.310  0.00  0.00    -0.032 C 
ATOM     13  O   LIG d   1       7.624   0.127  -6.303  0.00  0.00    -0.461 OA
ATOM     14  C   LIG d   1       8.340   1.272  -6.222  0.00  0.00     0.312 C 
ATOM     15  O   LIG d   1       8.801   1.877  -7.162  0.00  0.00    -0.251 OA
ATOM     16  C   LIG d   1       8.474   1.675  -4.766  0.00  0.00     0.075 C 
ATOM     17  H   LIG d   1       8.065   2.680  -4.582  0.00  0.00     0.043 H 
ATOM     18  H   LIG d   1       5.989   1.615  -4.676  0.00  0.00     0.031 H 
ATOM     19  H   LIG d   1       6.244   1.666  -2.900  0.00  0.00     0.031 H 
ATOM     20  H   LIG d   1       6.892  -2.407  -5.673  0.00  0.00     0.031 H 
ATOM     21  H   LIG d   1       7.092  -2.236  -3.896  0.00  0.00     0.031 H 
ATOM     22  H   LIG d   1       3.451  -2.086  -4.890  0.00  0.00     0.027 H 
ATOM     23  H   LIG d   1       4.819  -3.247  -4.971  0.00  0.00     0.027 H 
ATOM     24  H   LIG d   1       3.602  -3.487  -2.848  0.00  0.00     0.027 H 
ATOM     25  H   LIG d   1       5.263  -2.869  -2.552  0.00  0.00     0.027 H 
ATOM     26  H   LIG d   1       3.611  -1.550  -1.226  0.00  0.00     0.031 H 
ATOM     27  H   LIG d   1       2.702  -1.164  -2.727  0.00  0.00     0.031 H 
ENDROOT
BRANCH  16  28
ATOM     28  C   LIG d   1       9.947   1.732  -4.358  0.00  0.00     0.012 C 
ATOM     29  H   LIG d   1      10.093   1.161  -3.429  0.00  0.00     0.043 H 
ATOM     30  H   LIG d   1      10.565   1.298  -5.157  0.00  0.00     0.043 H 
BRANCH  28  31
ATOM     31  N   LIG d   1      10.341   3.131  -4.140  0.00  0.00    -0.299 N 
ATOM     32  C   LIG d   1      11.419   3.225  -3.146  0.00  0.00     0.012 C 
ATOM     33  C   LIG d   1      11.853   4.686  -3.007  0.00  0.00     0.012 C 
ATOM     34  H   LIG d   1      11.056   2.856  -2.175  0.00  0.00     0.044 H 
ATOM     35  H   LIG d   1      12.275   2.617  -3.474  0.00  0.00     0.044 H 
ATOM     36  N   LIG d   1      10.698   5.503  -2.606  0.00  0.00    -0.296 N 
ATOM     37  H   LIG d   1      12.242   5.047  -3.970  0.00  0.00     0.044 H 
ATOM     38  H   LIG d   1      12.639   4.765  -2.242  0.00  0.00     0.044 H 
ATOM     39  C   LIG d   1       9.620   5.408  -3.601  0.00  0.00     0.012 C 
ATOM     40  C   LIG d   1       9.186   3.946  -3.741  0.00  0.00     0.012 C 
ATOM     41  H   LIG d   1       9.983   5.776  -4.572  0.00  0.00     0.044 H 
ATOM     42  H   LIG d   1       8.764   6.015  -3.274  0.00  0.00     0.044 H 
ATOM     43  H   LIG d   1       8.400   3.869  -4.505  0.00  0.00     0.044 H 
ATOM     44  H   LIG d   1       8.797   3.586  -2.777  0.00  0.00     0.044 H 
BRANCH  36  45
ATOM     45  C   LIG d   1      11.092   6.901  -2.389  0.00  0.00     0.024 C 
ATOM     46  H   LIG d   1      12.064   7.088  -2.870  0.00  0.00     0.048 H 
ATOM     47  H   LIG d   1      10.333   7.568  -2.824  0.00  0.00     0.048 H 
BRANCH  45  48
ATOM     48  C   LIG d   1      11.205   7.166  -0.910  0.00  0.00    -0.030 A 
ATOM     49  C   LIG d   1      11.073   6.124  -0.011  0.00  0.00    -0.012 A 
ATOM     50  C   LIG d   1      11.176   6.365   1.350  0.00  0.00     0.167 A 
ATOM     51  H   LIG d   1      10.889   5.122  -0.368  0.00  0.00     0.066 H 
ATOM     52  C   LIG d   1      11.415   7.659   1.808  0.00  0.00     0.166 A 
ATOM     53  O   LIG d   1      11.088   5.530   2.426  0.00  0.00    -0.453 OA
ATOM     54  C   LIG d   1      11.546   8.698   0.901  0.00  0.00    -0.016 A 
ATOM     55  O   LIG d   1      11.474   7.634   3.171  0.00  0.00    -0.453 OA
ATOM     56  C   LIG d   1      11.441   8.450  -0.454  0.00  0.00    -0.054 A 
ATOM     57  H   LIG d   1      11.730   9.702   1.253  0.00  0.00     0.066 H 
ATOM     58  H   LIG d   1      11.548   9.261  -1.161  0.00  0.00     0.062 H 
ATOM     59  C   LIG d   1      10.866   6.388   3.561  0.00  0.00     0.233 C 
ATOM     60  H   LIG d   1       9.785   6.490   3.738  0.00  0.00     0.117 H 
ATOM     61  H   LIG d   1      11.344   5.951   4.450  0.00  0.00     0.117 H 
ENDBRANCH  45  48
ENDBRANCH  36  45
ENDBRANCH  28  31
ENDBRANCH  16  28
BRANCH   1  62
ATOM     62  C   LIG d   1       4.672   0.896  -1.567  0.00  0.00    -0.043 C 
ATOM     63  H   LIG d   1       5.692   1.306  -1.530  0.00  0.00     0.027 H 
ATOM     64  H   LIG d   1       4.393   0.514  -0.574  0.00  0.00     0.027 H 
ATOM     65  H   LIG d   1       3.969   1.689  -1.864  0.00  0.00     0.027 H 
ENDBRANCH   1  62
BRANCH   9  66
ATOM     66  C   LIG d   1       5.021  -0.523  -6.037  0.00  0.00    -0.056 C 
ATOM     67  H   LIG d   1       5.023   0.569  -5.908  0.00  0.00     0.024 H 
ATOM     68  H   LIG d   1       4.017  -0.854  -6.342  0.00  0.00     0.024 H 
ATOM     69  H   LIG d   1       5.750  -0.803  -6.811  0.00  0.00     0.024 H 
ENDBRANCH   9  66
TORSDOF 6
ENDMDL
MODEL 2
REMARK VINA RESULT:      -8.0      7.229     13.227
REMARK  6 active torsions:
REMARK  status: ('A' for Active; 'I' for Inactive)
REMARK    1  A    between atoms: C_1  and  C_2 
REMARK    2  A    between atoms: C_10  and  C_14 
REMARK    3  A    between atoms: C_18  and  C_20 
REMARK    4  A    between atoms: C_20  and  N_21 
REMARK    5  A    between atoms: N_24  and  C_27 
REMARK    6  A    between atoms: C_27  and  C_28 
ROOT
ATOM      1  C   LIG d   1       3.239   0.659  -3.775  0.00  0.00    -0.073 C 
ATOM      2  C   LIG d   1       3.721  -0.544  -3.874  0.00  0.00    -0.064 C 
ATOM      3  C   LIG d   1       3.495  -1.326  -5.151  0.00  0.00    -0.024 C 
ATOM      4  C   LIG d   1       4.841  -1.779  -5.727  0.00  0.00     0.014 C 
ATOM      5  H   LIG d   1       5.303  -0.904  -6.207  0.00  0.00     0.035 H 
ATOM      6  C   LIG d   1       5.724  -2.422  -4.642  0.00  0.00     0.108 C 
ATOM      7  H   LIG d   1       6.773  -2.554  -4.944  0.00  0.00     0.074 H 
ATOM      8  C   LIG d   1       5.877  -1.598  -3.390  0.00  0.00    -0.006 C 
ATOM      9  C   LIG d   1       4.517  -1.226  -2.797  0.00  0.00    -0.007 C 
ATOM     10  C   LIG d   1       4.690  -0.382  -1.550  0.00  0.00    -0.043 C 
ATOM     11  C   LIG d   1       4.768   1.105  -1.894  0.00  0.00    -0.049 C 
ATOM     12  C   LIG d   1       3.448   1.516  -2.557  0.00  0.00    -0.032 C 
ATOM     13  O   LIG d   1       5.107  -3.721  -4.423  0.00  0.00    -0.461 OA
ATOM     14  C   LIG d   1       4.762  -4.203  -5.639  0.00  0.00     0.312 C 
ATOM     15  O   LIG d   1       4.654  -5.373  -5.923  0.00  0.00    -0.251 OA
ATOM     16  C   LIG d   1       4.535  -3.043  -6.590  0.00  0.00     0.075 C 
ATOM     17  H   LIG d   1       3.520  -3.056  -7.014  0.00  0.00     0.043 H 
ATOM     18  H   LIG d   1       2.875  -2.208  -4.936  0.00  0.00     0.031 H 
ATOM     19  H   LIG d   1       2.981  -0.688  -5.885  0.00  0.00     0.031 H 
ATOM     20  H   LIG d   1       6.440  -2.173  -2.640  0.00  0.00     0.031 H 
ATOM     21  H   LIG d   1       6.421  -0.671  -3.626  0.00  0.00     0.031 H 
ATOM     22  H   LIG d   1       3.835  -0.542  -0.876  0.00  0.00     0.027 H 
ATOM     23  H   LIG d   1       5.620  -0.671  -1.038  0.00  0.00     0.027 H 
ATOM     24  H   LIG d   1       4.924   1.687  -0.973  0.00  0.00     0.027 H 
ATOM     25  H   LIG d   1       5.607   1.278  -2.584  0.00  0.00     0.027 H 
ATOM     26  H   LIG d   1       3.490   2.573  -2.855  0.00  0.00     0.031 H 
ATOM     27  H   LIG d   1       2.613   1.366  -1.856  0.00  0.00     0.031 H 
ENDROOT
BRANCH  16  28
ATOM     28  C   LIG d   1       5.495  -3.126  -7.777  0.00  0.00     0.012 C 
ATOM     29  H   LIG d   1       6.109  -2.214  -7.817  0.00  0.00     0.043 H 
ATOM     30  H   LIG d   1       6.148  -4.003  -7.660  0.00  0.00     0.043 H 
BRANCH  28  31
ATOM     31  N   LIG d   1       4.724  -3.252  -9.022  0.00  0.00    -0.299 N 
ATOM     32  C   LIG d   1       3.453  -2.520  -8.931  0.00  0.00     0.012 C 
ATOM     33  C   LIG d   1       2.719  -2.611 -10.271  0.00  0.00     0.012 C 
ATOM     34  H   LIG d   1       2.831  -2.963  -8.140  0.00  0.00     0.044 H 
ATOM     35  H   LIG d   1       3.654  -1.465  -8.692  0.00  0.00     0.044 H 
ATOM     36  N   LIG d   1       2.487  -4.023 -10.605  0.00  0.00    -0.296 N 
ATOM     37  H   LIG d   1       3.330  -2.143 -11.057  0.00  0.00     0.044 H 
ATOM     38  H   LIG d   1       1.754  -2.089 -10.197  0.00  0.00     0.044 H 
ATOM     39  C   LIG d   1       3.759  -4.755 -10.696  0.00  0.00     0.012 C 
ATOM     40  C   LIG d   1       4.493  -4.664  -9.356  0.00  0.00     0.012 C 
ATOM     41  H   LIG d   1       4.382  -4.312 -11.486  0.00  0.00     0.044 H 
ATOM     42  H   LIG d   1       3.559  -5.810 -10.934  0.00  0.00     0.044 H 
ATOM     43  H   LIG d   1       5.458  -5.187  -9.430  0.00  0.00     0.044 H 
ATOM     44  H   LIG d   1       3.883  -5.132  -8.570  0.00  0.00     0.044 H 
BRANCH  36  45
ATOM     45  C   LIG d   1       1.717  -4.150 -11.850  0.00  0.00     0.024 C 
ATOM     46  H   LIG d   1       1.791  -3.214 -12.424  0.00  0.00     0.048 H 
ATOM     47  H   LIG d   1       2.121  -4.980 -12.448  0.00  0.00     0.048 H 
BRANCH  45  48
ATOM     48  C   LIG d   1       0.272  -4.424 -11.520  0.00  0.00    -0.030 A 
ATOM     49  C   LIG d   1      -0.057  -5.040 -10.327  0.00  0.00    -0.012 A 
ATOM     50  C   LIG d   1      -1.384  -5.294 -10.021  0.00  0.00     0.167 A 
ATOM     51  H   LIG d   1       0.720  -5.324  -9.633  0.00  0.00     0.066 H 
ATOM     52  C   LIG d   1      -2.384  -4.926 -10.918  0.00  0.00     0.166 A 
ATOM     53  O   LIG d   1      -1.967  -5.876  -8.932  0.00  0.00    -0.453 OA
ATOM     54  C   LIG d   1      -2.046  -4.309 -12.112  0.00  0.00    -0.016 A 
ATOM     55  O   LIG d   1      -3.593  -5.279 -10.392  0.00  0.00    -0.453 OA
ATOM     56  C   LIG d   1      -0.721  -4.060 -12.410  0.00  0.00    -0.054 A 
ATOM     57  H   LIG d   1      -2.819  -4.023 -12.810  0.00  0.00     0.066 H 
ATOM     58  H   LIG d   1      -0.459  -3.575 -13.340  0.00  0.00     0.062 H 
ATOM     59  C   LIG d   1      -3.298  -6.231  -9.353  0.00  0.00     0.233 C 
ATOM     60  H   LIG d   1      -3.301  -7.266  -9.724  0.00  0.00     0.117 H 
ATOM     61  H   LIG d   1      -3.987  -6.144  -8.500  0.00  0.00     0.117 H 
ENDBRANCH  45  48
ENDBRANCH  36  45
ENDBRANCH  28  31
ENDBRANCH  16  28
BRANCH   1  62
ATOM     62  C   LIG d   1       2.441   1.217  -4.925  0.00  0.00    -0.043 C 
ATOM     63  H   LIG d   1       1.383   0.943  -4.804  0.00  0.00     0.027 H 
ATOM     64  H   LIG d   1       2.822   0.804  -5.871  0.00  0.00     0.027 H 
ATOM     65  H   LIG d   1       2.537   2.313  -4.940  0.00  0.00     0.027 H 
ENDBRANCH   1  62
BRANCH   9  66
ATOM     66  C   LIG d   1       3.793  -2.514  -2.401  0.00  0.00    -0.056 C 
ATOM     67  H   LIG d   1       2.707  -2.365  -2.485  0.00  0.00     0.024 H 
ATOM     68  H   LIG d   1       4.049  -2.775  -1.363  0.00  0.00     0.024 H 
ATOM     69  H   LIG d   1       4.104  -3.329  -3.071  0.00  0.00     0.024 H 
ENDBRANCH   9  66
TORSDOF 6
ENDMDL
MODEL 3
REMARK VINA RESULT:      -7.6      2.965      3.877
REMARK  6 active torsions:
REMARK  status: ('A' for Active; 'I' for Inactive)
REMARK    1  A    between atoms: C_1  and  C_2 
REMARK    2  A    between atoms: C_10  and  C_14 
REMARK    3  A    between atoms: C_18  and  C_20 
REMARK    4  A    between atoms: C_20  and  N_21 
REMARK    5  A    between atoms: N_24  and  C_27 
REMARK    6  A    between atoms: C_27  and  C_28 
ROOT
ATOM      1  C   LIG d   1       4.480  -0.110  -2.518  0.00  0.00    -0.073 C 
ATOM      2  C   LIG d   1       5.341   0.014  -3.483  0.00  0.00    -0.064 C 
ATOM      3  C   LIG d   1       6.148   1.290  -3.592  0.00  0.00    -0.024 C 
ATOM      4  C   LIG d   1       7.645   0.958  -3.595  0.00  0.00     0.014 C 
ATOM      5  H   LIG d   1       7.932   0.727  -2.559  0.00  0.00     0.035 H 
ATOM      6  C   LIG d   1       7.963  -0.175  -4.587  0.00  0.00     0.108 C 
ATOM      7  H   LIG d   1       8.968  -0.604  -4.464  0.00  0.00     0.074 H 
ATOM      8  C   LIG d   1       7.098  -1.400  -4.437  0.00  0.00    -0.006 C 
ATOM      9  C   LIG d   1       5.612  -1.046  -4.514  0.00  0.00    -0.007 C 
ATOM     10  C   LIG d   1       4.757  -2.286  -4.342  0.00  0.00    -0.043 C 
ATOM     11  C   LIG d   1       4.454  -2.549  -2.868  0.00  0.00    -0.049 C 
ATOM     12  C   LIG d   1       3.662  -1.357  -2.318  0.00  0.00    -0.032 C 
ATOM     13  O   LIG d   1       7.857   0.468  -5.888  0.00  0.00    -0.461 OA
ATOM     14  C   LIG d   1       8.432   1.687  -5.772  0.00  0.00     0.312 C 
ATOM     15  O   LIG d   1       8.934   2.312  -6.676  0.00  0.00    -0.251 OA
ATOM     16  C   LIG d   1       8.346   2.144  -4.328  0.00  0.00     0.075 C 
ATOM     17  H   LIG d   1       7.813   3.102  -4.234  0.00  0.00     0.043 H 
ATOM     18  H   LIG d   1       5.889   1.811  -4.525  0.00  0.00     0.031 H 
ATOM     19  H   LIG d   1       5.923   1.941  -2.734  0.00  0.00     0.031 H 
ATOM     20  H   LIG d   1       7.330  -2.112  -5.242  0.00  0.00     0.031 H 
ATOM     21  H   LIG d   1       7.295  -1.870  -3.462  0.00  0.00     0.031 H 
ATOM     22  H   LIG d   1       3.805  -2.153  -4.878  0.00  0.00     0.027 H 
ATOM     23  H   LIG d   1       5.290  -3.157  -4.751  0.00  0.00     0.027 H 
ATOM     24  H   LIG d   1       3.859  -3.470  -2.775  0.00  0.00     0.027 H 
ATOM     25  H   LIG d   1       5.397  -2.663  -2.314  0.00  0.00     0.027 H 
ATOM     26  H   LIG d   1       3.467  -1.498  -1.245  0.00  0.00     0.031 H 
ATOM     27  H   LIG d   1       2.708  -1.259  -2.856  0.00  0.00     0.031 H 
ENDROOT
BRANCH  16  28
ATOM     28  C   LIG d   1       9.745   2.376  -3.755  0.00  0.00     0.012 C 
ATOM     29  H   LIG d   1       9.987   1.574  -3.042  0.00  0.00     0.043 H 
ATOM     30  H   LIG d   1      10.481   2.375  -4.572  0.00  0.00     0.043 H 
BRANCH  28  31
ATOM     31  N   LIG d   1       9.782   3.673  -3.065  0.00  0.00    -0.299 N 
ATOM     32  C   LIG d   1       9.576   4.779  -4.011  0.00  0.00     0.012 C 
ATOM     33  C   LIG d   1       9.543   6.103  -3.244  0.00  0.00     0.012 C 
ATOM     34  H   LIG d   1      10.400   4.796  -4.740  0.00  0.00     0.044 H 
ATOM     35  H   LIG d   1       8.622   4.636  -4.540  0.00  0.00     0.044 H 
ATOM     36  N   LIG d   1      10.804   6.271  -2.508  0.00  0.00    -0.296 N 
ATOM     37  H   LIG d   1       8.702   6.095  -2.535  0.00  0.00     0.044 H 
ATOM     38  H   LIG d   1       9.418   6.935  -3.951  0.00  0.00     0.044 H 
ATOM     39  C   LIG d   1      11.010   5.165  -1.562  0.00  0.00     0.012 C 
ATOM     40  C   LIG d   1      11.043   3.841  -2.329  0.00  0.00     0.012 C 
ATOM     41  H   LIG d   1      10.186   5.146  -0.833  0.00  0.00     0.044 H 
ATOM     42  H   LIG d   1      11.964   5.307  -1.034  0.00  0.00     0.044 H 
ATOM     43  H   LIG d   1      11.168   3.009  -1.621  0.00  0.00     0.044 H 
ATOM     44  H   LIG d   1      11.884   3.848  -3.038  0.00  0.00     0.044 H 
BRANCH  36  45
ATOM     45  C   LIG d   1      10.842   7.568  -1.818  0.00  0.00     0.024 C 
ATOM     46  H   LIG d   1       9.927   7.691  -1.219  0.00  0.00     0.048 H 
ATOM     47  H   LIG d   1      11.720   7.606  -1.157  0.00  0.00     0.048 H 
BRANCH  45  48
ATOM     48  C   LIG d   1      10.929   8.675  -2.835  0.00  0.00    -0.030 A 
ATOM     49  C   LIG d   1       9.918   9.615  -2.920  0.00  0.00    -0.012 A 
ATOM     50  C   LIG d   1       9.996  10.634  -3.855  0.00  0.00     0.167 A 
ATOM     51  H   LIG d   1       9.067   9.554  -2.259  0.00  0.00     0.066 H 
ATOM     52  C   LIG d   1      11.096  10.710  -4.707  0.00  0.00     0.166 A 
ATOM     53  O   LIG d   1       9.151  11.668  -4.140  0.00  0.00    -0.453 OA
ATOM     54  C   LIG d   1      12.104   9.766  -4.616  0.00  0.00    -0.016 A 
ATOM     55  O   LIG d   1      10.938  11.791  -5.526  0.00  0.00    -0.453 OA
ATOM     56  C   LIG d   1      12.020   8.751  -3.682  0.00  0.00    -0.054 A 
ATOM     57  H   LIG d   1      12.958   9.821  -5.276  0.00  0.00     0.066 H 
ATOM     58  H   LIG d   1      12.810   8.017  -3.609  0.00  0.00     0.062 H 
ATOM     59  C   LIG d   1       9.543  12.137  -5.444  0.00  0.00     0.233 C 
ATOM     60  H   LIG d   1       8.942  11.629  -6.212  0.00  0.00     0.117 H 
ATOM     61  H   LIG d   1       9.379  13.223  -5.507  0.00  0.00     0.117 H 
ENDBRANCH  45  48
ENDBRANCH  36  45
ENDBRANCH  28  31
ENDBRANCH  16  28
BRANCH   1  62
ATOM     62  C   LIG d   1       4.293   1.040  -1.562  0.00  0.00    -0.043 C 
ATOM     63  H   LIG d   1       4.327   0.666  -0.528  0.00  0.00     0.027 H 
ATOM     64  H   LIG d   1       3.320   1.518  -1.747  0.00  0.00     0.027 H 
ATOM     65  H   LIG d   1       5.097   1.776  -1.712  0.00  0.00     0.027 H 
ENDBRANCH   1  62
BRANCH   9  66
ATOM     66  C   LIG d   1       5.325  -0.460  -5.898  0.00  0.00    -0.056 C 
ATOM     67  H   LIG d   1       4.517  -1.031  -6.378  0.00  0.00     0.024 H 
ATOM     68  H   LIG d   1       6.233  -0.519  -6.516  0.00  0.00     0.024 H 
ATOM     69  H   LIG d   1       5.020   0.592  -5.794  0.00  0.00     0.024 H 
ENDBRANCH   9  66
TORSDOF 6
ENDMDL
MODEL 4
REMARK VINA RESULT:      -7.4      1.616      2.273
REMARK  6 active torsions:
REMARK  status: ('A' for Active; 'I' for Inactive)
REMARK    1  A    between atoms: C_1  and  C_2 
REMARK    2  A    between atoms: C_10  and  C_14 
REMARK    3  A    between atoms: C_18  and  C_20 
REMARK    4  A    between atoms: C_20  and  N_21 
REMARK    5  A    between atoms: N_24  and  C_27 
REMARK    6  A    between atoms: C_27  and  C_28 
ROOT
ATOM      1  C   LIG d   1       4.591  -0.123  -2.553  0.00  0.00    -0.073 C 
ATOM      2  C   LIG d   1       5.382  -0.057  -3.581  0.00  0.00    -0.064 C 
ATOM      3  C   LIG d   1       6.303   1.135  -3.728  0.00  0.00    -0.024 C 
ATOM      4  C   LIG d   1       7.754   0.657  -3.858  0.00  0.00     0.014 C 
ATOM      5  H   LIG d   1       8.096   0.370  -2.853  0.00  0.00     0.035 H 
ATOM      6  C   LIG d   1       7.878  -0.473  -4.895  0.00  0.00     0.108 C 
ATOM      7  H   LIG d   1       8.841  -1.003  -4.862  0.00  0.00     0.074 H 
ATOM      8  C   LIG d   1       6.909  -1.611  -4.700  0.00  0.00    -0.006 C 
ATOM      9  C   LIG d   1       5.464  -1.110  -4.651  0.00  0.00    -0.007 C 
ATOM     10  C   LIG d   1       4.505  -2.264  -4.436  0.00  0.00    -0.043 C 
ATOM     11  C   LIG d   1       4.293  -2.537  -2.948  0.00  0.00    -0.049 C 
ATOM     12  C   LIG d   1       3.670  -1.288  -2.312  0.00  0.00    -0.032 C 
ATOM     13  O   LIG d   1       7.737   0.213  -6.170  0.00  0.00    -0.461 OA
ATOM     14  C   LIG d   1       8.438   1.366  -6.077  0.00  0.00     0.312 C 
ATOM     15  O   LIG d   1       8.929   1.963  -7.005  0.00  0.00    -0.251 OA
ATOM     16  C   LIG d   1       8.511   1.789  -4.621  0.00  0.00     0.075 C 
ATOM     17  H   LIG d   1       8.086   2.791  -4.466  0.00  0.00     0.043 H 
ATOM     18  H   LIG d   1       6.025   1.705  -4.627  0.00  0.00     0.031 H 
ATOM     19  H   LIG d   1       6.211   1.781  -2.843  0.00  0.00     0.031 H 
ATOM     20  H   LIG d   1       7.005  -2.320  -5.536  0.00  0.00     0.031 H 
ATOM     21  H   LIG d   1       7.133  -2.125  -3.754  0.00  0.00     0.031 H 
ATOM     22  H   LIG d   1       3.533  -2.023  -4.891  0.00  0.00     0.027 H 
ATOM     23  H   LIG d   1       4.914  -3.172  -4.904  0.00  0.00     0.027 H 
ATOM     24  H   LIG d   1       3.618  -3.397  -2.826  0.00  0.00     0.027 H 
ATOM     25  H   LIG d   1       5.260  -2.759  -2.474  0.00  0.00     0.027 H 
ATOM     26  H   LIG d   1       3.545  -1.439  -1.231  0.00  0.00     0.031 H 
ATOM     27  H   LIG d   1       2.692  -1.081  -2.770  0.00  0.00     0.031 H 
ENDROOT
BRANCH  16  28
ATOM     28  C   LIG d   1       9.967   1.866  -4.158  0.00  0.00     0.012 C 
ATOM     29  H   LIG d   1      10.031   1.568  -3.101  0.00  0.00     0.043 H 
ATOM     30  H   LIG d   1      10.582   1.188  -4.768  0.00  0.00     0.043 H 
BRANCH  28  31
ATOM     31  N   LIG d   1      10.457   3.242  -4.310  0.00  0.00    -0.299 N 
ATOM     32  C   LIG d   1      11.608   3.491  -3.430  0.00  0.00     0.012 C 
ATOM     33  C   LIG d   1      12.137   4.907  -3.676  0.00  0.00     0.012 C 
ATOM     34  H   LIG d   1      11.295   3.392  -2.380  0.00  0.00     0.044 H 
ATOM     35  H   LIG d   1      12.401   2.760  -3.647  0.00  0.00     0.044 H 
ATOM     36  N   LIG d   1      11.064   5.879  -3.422  0.00  0.00    -0.296 N 
ATOM     37  H   LIG d   1      12.475   4.997  -4.718  0.00  0.00     0.044 H 
ATOM     38  H   LIG d   1      12.979   5.107  -2.999  0.00  0.00     0.044 H 
ATOM     39  C   LIG d   1       9.912   5.629  -4.302  0.00  0.00     0.012 C 
ATOM     40  C   LIG d   1       9.384   4.213  -4.056  0.00  0.00     0.012 C 
ATOM     41  H   LIG d   1      10.225   5.727  -5.352  0.00  0.00     0.044 H 
ATOM     42  H   LIG d   1       9.120   6.359  -4.085  0.00  0.00     0.044 H 
ATOM     43  H   LIG d   1       8.541   4.014  -4.733  0.00  0.00     0.044 H 
ATOM     44  H   LIG d   1       9.046   4.123  -3.014  0.00  0.00     0.044 H 
BRANCH  36  45
ATOM     45  C   LIG d   1      11.554   7.255  -3.574  0.00  0.00     0.024 C 
ATOM     46  H   LIG d   1      12.652   7.249  -3.630  0.00  0.00     0.048 H 
ATOM     47  H   LIG d   1      11.142   7.691  -4.496  0.00  0.00     0.048 H 
BRANCH  45  48
ATOM     48  C   LIG d   1      11.115   8.078  -2.390  0.00  0.00    -0.030 A 
ATOM     49  C   LIG d   1      10.925   9.440  -2.531  0.00  0.00    -0.012 A 
ATOM     50  C   LIG d   1      10.522  10.199  -1.443  0.00  0.00     0.167 A 
ATOM     51  H   LIG d   1      11.091   9.913  -3.486  0.00  0.00     0.066 H 
ATOM     52  C   LIG d   1      10.309   9.585  -0.211  0.00  0.00     0.166 A 
ATOM     53  O   LIG d   1      10.267  11.534  -1.316  0.00  0.00    -0.453 OA
ATOM     54  C   LIG d   1      10.501   8.220  -0.079  0.00  0.00    -0.016 A 
ATOM     55  O   LIG d   1       9.921  10.537   0.688  0.00  0.00    -0.453 OA
ATOM     56  C   LIG d   1      10.904   7.469  -1.167  0.00  0.00    -0.054 A 
ATOM     57  H   LIG d   1      10.337   7.741   0.875  0.00  0.00     0.066 H 
ATOM     58  H   LIG d   1      11.050   6.404  -1.063  0.00  0.00     0.062 H 
ATOM     59  C   LIG d   1      10.293  11.797   0.100  0.00  0.00     0.233 C 
ATOM     60  H   LIG d   1      11.304  12.112   0.395  0.00  0.00     0.117 H 
ATOM     61  H   LIG d   1       9.575  12.595   0.337  0.00  0.00     0.117 H 
ENDBRANCH  45  48
ENDBRANCH  36  45
ENDBRANCH  28  31
ENDBRANCH  16  28
BRANCH   1  62
ATOM     62  C   LIG d   1       4.595   1.013  -1.562  0.00  0.00    -0.043 C 
ATOM     63  H   LIG d   1       3.820   0.839  -0.801  0.00  0.00     0.027 H 
ATOM     64  H   LIG d   1       4.390   1.958  -2.085  0.00  0.00     0.027 H 
ATOM     65  H   LIG d   1       5.580   1.070  -1.074  0.00  0.00     0.027 H 
ENDBRANCH   1  62
BRANCH   9  66
ATOM     66  C   LIG d   1       5.131  -0.460  -5.996  0.00  0.00    -0.056 C 
ATOM     67  H   LIG d   1       5.581  -1.049  -6.808  0.00  0.00     0.024 H 
ATOM     68  H   LIG d   1       5.534   0.563  -6.018  0.00  0.00     0.024 H 
ATOM     69  H   LIG d   1       4.040  -0.428  -6.127  0.00  0.00     0.024 H 
ENDBRANCH   9  66
TORSDOF 6
ENDMDL
MODEL 5
REMARK VINA RESULT:      -7.4      7.454     11.653
REMARK  6 active torsions:
REMARK  status: ('A' for Active; 'I' for Inactive)
REMARK    1  A    between atoms: C_1  and  C_2 
REMARK    2  A    between atoms: C_10  and  C_14 
REMARK    3  A    between atoms: C_18  and  C_20 
REMARK    4  A    between atoms: C_20  and  N_21 
REMARK    5  A    between atoms: N_24  and  C_27 
REMARK    6  A    between atoms: C_27  and  C_28 
ROOT
ATOM      1  C   LIG d   1       9.385  -9.941  -1.100  0.00  0.00    -0.073 C 
ATOM      2  C   LIG d   1       8.236 -10.253  -1.619  0.00  0.00    -0.064 C 
ATOM      3  C   LIG d   1       7.505  -9.230  -2.463  0.00  0.00    -0.024 C 
ATOM      4  C   LIG d   1       7.200  -9.819  -3.844  0.00  0.00     0.014 C 
ATOM      5  H   LIG d   1       8.136  -9.800  -4.423  0.00  0.00     0.035 H 
ATOM      6  C   LIG d   1       6.579 -11.223  -3.727  0.00  0.00     0.108 C 
ATOM      7  H   LIG d   1       6.555 -11.778  -4.676  0.00  0.00     0.074 H 
ATOM      8  C   LIG d   1       7.347 -12.175  -2.847  0.00  0.00    -0.006 C 
ATOM      9  C   LIG d   1       7.569 -11.589  -1.452  0.00  0.00    -0.007 C 
ATOM     10  C   LIG d   1       8.358 -12.552  -0.587  0.00  0.00    -0.043 C 
ATOM     11  C   LIG d   1       9.862 -12.333  -0.744  0.00  0.00    -0.049 C 
ATOM     12  C   LIG d   1      10.192 -10.909  -0.279  0.00  0.00    -0.032 C 
ATOM     13  O   LIG d   1       5.222 -10.961  -3.274  0.00  0.00    -0.461 OA
ATOM     14  C   LIG d   1       4.777  -9.886  -3.964  0.00  0.00     0.312 C 
ATOM     15  O   LIG d   1       3.619  -9.643  -4.209  0.00  0.00    -0.251 OA
ATOM     16  C   LIG d   1       5.962  -9.036  -4.382  0.00  0.00     0.075 C 
ATOM     17  H   LIG d   1       5.884  -8.009  -3.995  0.00  0.00     0.043 H 
ATOM     18  H   LIG d   1       6.562  -8.952  -1.969  0.00  0.00     0.031 H 
ATOM     19  H   LIG d   1       8.134  -8.335  -2.580  0.00  0.00     0.031 H 
ATOM     20  H   LIG d   1       6.783 -13.115  -2.747  0.00  0.00     0.031 H 
ATOM     21  H   LIG d   1       8.328 -12.382  -3.300  0.00  0.00     0.031 H 
ATOM     22  H   LIG d   1       8.090 -12.402   0.470  0.00  0.00     0.027 H 
ATOM     23  H   LIG d   1       8.123 -13.586  -0.881  0.00  0.00     0.027 H 
ATOM     24  H   LIG d   1      10.405 -13.064  -0.128  0.00  0.00     0.027 H 
ATOM     25  H   LIG d   1      10.143 -12.459  -1.800  0.00  0.00     0.027 H 
ATOM     26  H   LIG d   1      11.263 -10.707  -0.421  0.00  0.00     0.031 H 
ATOM     27  H   LIG d   1       9.933 -10.791   0.784  0.00  0.00     0.031 H 
ENDROOT
BRANCH  16  28
ATOM     28  C   LIG d   1       6.025  -8.915  -5.905  0.00  0.00     0.012 C 
ATOM     29  H   LIG d   1       6.942  -9.398  -6.274  0.00  0.00     0.043 H 
ATOM     30  H   LIG d   1       5.147  -9.408  -6.348  0.00  0.00     0.043 H 
BRANCH  28  31
ATOM     31  N   LIG d   1       6.032  -7.495  -6.284  0.00  0.00    -0.299 N 
ATOM     32  C   LIG d   1       6.968  -6.732  -5.446  0.00  0.00     0.012 C 
ATOM     33  C   LIG d   1       7.004  -5.278  -5.922  0.00  0.00     0.012 C 
ATOM     34  H   LIG d   1       6.634  -6.767  -4.398  0.00  0.00     0.044 H 
ATOM     35  H   LIG d   1       7.973  -7.171  -5.526  0.00  0.00     0.044 H 
ATOM     36  N   LIG d   1       5.652  -4.707  -5.851  0.00  0.00    -0.296 N 
ATOM     37  H   LIG d   1       7.364  -5.241  -6.961  0.00  0.00     0.044 H 
ATOM     38  H   LIG d   1       7.681  -4.697  -5.279  0.00  0.00     0.044 H 
ATOM     39  C   LIG d   1       4.716  -5.471  -6.689  0.00  0.00     0.012 C 
ATOM     40  C   LIG d   1       4.679  -6.925  -6.212  0.00  0.00     0.012 C 
ATOM     41  H   LIG d   1       5.050  -5.437  -7.737  0.00  0.00     0.044 H 
ATOM     42  H   LIG d   1       3.711  -5.033  -6.609  0.00  0.00     0.044 H 
ATOM     43  H   LIG d   1       4.002  -7.505  -6.855  0.00  0.00     0.044 H 
ATOM     44  H   LIG d   1       4.320  -6.962  -5.174  0.00  0.00     0.044 H 
BRANCH  36  45
ATOM     45  C   LIG d   1       5.659  -3.287  -6.229  0.00  0.00     0.024 C 
ATOM     46  H   LIG d   1       6.697  -2.951  -6.374  0.00  0.00     0.048 H 
ATOM     47  H   LIG d   1       5.097  -3.155  -7.166  0.00  0.00     0.048 H 
BRANCH  45  48
ATOM     48  C   LIG d   1       5.014  -2.474  -5.137  0.00  0.00    -0.030 A 
ATOM     49  C   LIG d   1       4.722  -1.140  -5.354  0.00  0.00    -0.012 A 
ATOM     50  C   LIG d   1       4.129  -0.389  -4.351  0.00  0.00     0.167 A 
ATOM     51  H   LIG d   1       4.955  -0.682  -6.303  0.00  0.00     0.066 H 
ATOM     52  C   LIG d   1       3.829  -0.982  -3.127  0.00  0.00     0.166 A 
ATOM     53  O   LIG d   1       3.744   0.920  -4.308  0.00  0.00    -0.453 OA
ATOM     54  C   LIG d   1       4.125  -2.319  -2.918  0.00  0.00    -0.016 A 
ATOM     55  O   LIG d   1       3.256  -0.044  -2.317  0.00  0.00    -0.453 OA
ATOM     56  C   LIG d   1       4.717  -3.061  -3.922  0.00  0.00    -0.054 A 
ATOM     57  H   LIG d   1       3.894  -2.781  -1.970  0.00  0.00     0.066 H 
ATOM     58  H   LIG d   1       4.944  -4.105  -3.759  0.00  0.00     0.062 H 
ATOM     59  C   LIG d   1       3.581   1.227  -2.911  0.00  0.00     0.233 C 
ATOM     60  H   LIG d   1       4.519   1.644  -2.516  0.00  0.00     0.117 H 
ATOM     61  H   LIG d   1       2.772   1.962  -2.789  0.00  0.00     0.117 H 
ENDBRANCH  45  48
ENDBRANCH  36  45
ENDBRANCH  28  31
ENDBRANCH  16  28
BRANCH   1  62
ATOM     62  C   LIG d   1       9.932  -8.556  -1.331  0.00  0.00    -0.043 C 
ATOM     63  H   LIG d   1      10.740  -8.356  -0.612  0.00  0.00     0.027 H 
ATOM     64  H   LIG d   1       9.129  -7.816  -1.196  0.00  0.00     0.027 H 
ATOM     65  H   LIG d   1      10.328  -8.484  -2.356  0.00  0.00     0.027 H 
ENDBRANCH   1  62
BRANCH   9  66
ATOM     66  C   LIG d   1       6.204 -11.371  -0.796  0.00  0.00    -0.056 C 
ATOM     67  H   LIG d   1       5.877 -12.303  -0.311  0.00  0.00     0.024 H 
ATOM     68  H   LIG d   1       5.471 -11.080  -1.563  0.00  0.00     0.024 H 
ATOM     69  H   LIG d   1       6.283 -10.574  -0.043  0.00  0.00     0.024 H 
ENDBRANCH   9  66
TORSDOF 6
ENDMDL
MODEL 6
REMARK VINA RESULT:      -7.3      3.643     10.013
REMARK  6 active torsions:
REMARK  status: ('A' for Active; 'I' for Inactive)
REMARK    1  A    between atoms: C_1  and  C_2 
REMARK    2  A    between atoms: C_10  and  C_14 
REMARK    3  A    between atoms: C_18  and  C_20 
REMARK    4  A    between atoms: C_20  and  N_21 
REMARK    5  A    between atoms: N_24  and  C_27 
REMARK    6  A    between atoms: C_27  and  C_28 
ROOT
ATOM      1  C   LIG d   1       9.897  10.232  -6.950  0.00  0.00    -0.073 C 
ATOM      2  C   LIG d   1       9.890   9.983  -5.675  0.00  0.00    -0.064 C 
ATOM      3  C   LIG d   1       9.595   8.576  -5.200  0.00  0.00    -0.024 C 
ATOM      4  C   LIG d   1      10.739   8.079  -4.309  0.00  0.00     0.014 C 
ATOM      5  H   LIG d   1      11.574   7.806  -4.971  0.00  0.00     0.035 H 
ATOM      6  C   LIG d   1      11.115   9.128  -3.247  0.00  0.00     0.108 C 
ATOM      7  H   LIG d   1      12.068   8.922  -2.738  0.00  0.00     0.074 H 
ATOM      8  C   LIG d   1      11.365  10.510  -3.793  0.00  0.00    -0.006 C 
ATOM      9  C   LIG d   1      10.174  11.009  -4.613  0.00  0.00    -0.007 C 
ATOM     10  C   LIG d   1      10.449  12.392  -5.170  0.00  0.00    -0.043 C 
ATOM     11  C   LIG d   1      11.147  12.313  -6.527  0.00  0.00    -0.049 C 
ATOM     12  C   LIG d   1      10.215  11.592  -7.508  0.00  0.00    -0.032 C 
ATOM     13  O   LIG d   1      10.020   9.057  -2.292  0.00  0.00    -0.461 OA
ATOM     14  C   LIG d   1       9.723   7.748  -2.130  0.00  0.00     0.312 C 
ATOM     15  O   LIG d   1       9.222   7.261  -1.144  0.00  0.00    -0.251 OA
ATOM     16  C   LIG d   1      10.119   6.988  -3.382  0.00  0.00     0.075 C 
ATOM     17  H   LIG d   1       9.261   6.461  -3.828  0.00  0.00     0.043 H 
ATOM     18  H   LIG d   1       8.658   8.572  -4.625  0.00  0.00     0.031 H 
ATOM     19  H   LIG d   1       9.495   7.909  -6.068  0.00  0.00     0.031 H 
ATOM     20  H   LIG d   1      11.531  11.208  -2.959  0.00  0.00     0.031 H 
ATOM     21  H   LIG d   1      12.254  10.493  -4.441  0.00  0.00     0.031 H 
ATOM     22  H   LIG d   1       9.500  12.933  -5.294  0.00  0.00     0.027 H 
ATOM     23  H   LIG d   1      11.098  12.944  -4.474  0.00  0.00     0.027 H 
ATOM     24  H   LIG d   1      11.360  13.330  -6.889  0.00  0.00     0.027 H 
ATOM     25  H   LIG d   1      12.090  11.755  -6.423  0.00  0.00     0.027 H 
ATOM     26  H   LIG d   1      10.709  11.483  -8.484  0.00  0.00     0.031 H 
ATOM     27  H   LIG d   1       9.283  12.164  -7.630  0.00  0.00     0.031 H 
ENDROOT
BRANCH  16  28
ATOM     28  C   LIG d   1      11.155   5.912  -3.052  0.00  0.00     0.012 C 
ATOM     29  H   LIG d   1      12.128   6.197  -3.481  0.00  0.00     0.043 H 
ATOM     30  H   LIG d   1      11.249   5.816  -1.961  0.00  0.00     0.043 H 
BRANCH  28  31
ATOM     31  N   LIG d   1      10.726   4.628  -3.622  0.00  0.00    -0.299 N 
ATOM     32  C   LIG d   1       9.440   4.765  -4.319  0.00  0.00     0.012 C 
ATOM     33  C   LIG d   1       9.067   3.427  -4.963  0.00  0.00     0.012 C 
ATOM     34  H   LIG d   1       8.661   5.055  -3.599  0.00  0.00     0.044 H 
ATOM     35  H   LIG d   1       9.525   5.537  -5.098  0.00  0.00     0.044 H 
ATOM     36  N   LIG d   1       8.993   2.390  -3.924  0.00  0.00    -0.296 N 
ATOM     37  H   LIG d   1       9.832   3.151  -5.704  0.00  0.00     0.044 H 
ATOM     38  H   LIG d   1       8.091   3.517  -5.461  0.00  0.00     0.044 H 
ATOM     39  C   LIG d   1      10.279   2.253  -3.227  0.00  0.00     0.012 C 
ATOM     40  C   LIG d   1      10.652   3.591  -2.583  0.00  0.00     0.012 C 
ATOM     41  H   LIG d   1      11.059   1.964  -3.948  0.00  0.00     0.044 H 
ATOM     42  H   LIG d   1      10.195   1.482  -2.448  0.00  0.00     0.044 H 
ATOM     43  H   LIG d   1      11.627   3.500  -2.085  0.00  0.00     0.044 H 
ATOM     44  H   LIG d   1       9.887   3.868  -1.843  0.00  0.00     0.044 H 
BRANCH  36  45
ATOM     45  C   LIG d   1       8.564   1.105  -4.494  0.00  0.00     0.024 C 
ATOM     46  H   LIG d   1       8.389   1.222  -5.574  0.00  0.00     0.048 H 
ATOM     47  H   LIG d   1       9.348   0.351  -4.329  0.00  0.00     0.048 H 
BRANCH  45  48
ATOM     48  C   LIG d   1       7.289   0.660  -3.824  0.00  0.00    -0.030 A 
ATOM     49  C   LIG d   1       6.991  -0.688  -3.738  0.00  0.00    -0.012 A 
ATOM     50  C   LIG d   1       5.820  -1.100  -3.122  0.00  0.00     0.167 A 
ATOM     51  H   LIG d   1       7.669  -1.419  -4.149  0.00  0.00     0.066 H 
ATOM     52  C   LIG d   1       4.946  -0.154  -2.591  0.00  0.00     0.166 A 
ATOM     53  O   LIG d   1       5.299  -2.343  -2.908  0.00  0.00    -0.453 OA
ATOM     54  C   LIG d   1       5.252   1.194  -2.681  0.00  0.00    -0.016 A 
ATOM     55  O   LIG d   1       3.878  -0.805  -2.044  0.00  0.00    -0.453 OA
ATOM     56  C   LIG d   1       6.422   1.598  -3.297  0.00  0.00    -0.054 A 
ATOM     57  H   LIG d   1       4.577   1.930  -2.271  0.00  0.00     0.066 H 
ATOM     58  H   LIG d   1       6.661   2.650  -3.363  0.00  0.00     0.062 H 
ATOM     59  C   LIG d   1       3.907  -2.131  -2.606  0.00  0.00     0.233 C 
ATOM     60  H   LIG d   1       3.317  -2.204  -3.530  0.00  0.00     0.117 H 
ATOM     61  H   LIG d   1       3.567  -2.893  -1.891  0.00  0.00     0.117 H 
ENDBRANCH  45  48
ENDBRANCH  36  45
ENDBRANCH  28  31
ENDBRANCH  16  28
BRANCH   1  62
ATOM     62  C   LIG d   1       9.577   9.114  -7.908  0.00  0.00    -0.043 C 
ATOM     63  H   LIG d   1      10.192   8.235  -7.665  0.00  0.00     0.027 H 
ATOM     64  H   LIG d   1       9.790   9.438  -8.937  0.00  0.00     0.027 H 
ATOM     65  H   LIG d   1       8.512   8.850  -7.821  0.00  0.00     0.027 H 
ENDBRANCH   1  62
BRANCH   9  66
ATOM     66  C   LIG d   1       8.956  11.102  -3.692  0.00  0.00    -0.056 C 
ATOM     67  H   LIG d   1       8.773  10.122  -3.226  0.00  0.00     0.024 H 
ATOM     68  H   LIG d   1       8.074  11.399  -4.278  0.00  0.00     0.024 H 
ATOM     69  H   LIG d   1       9.146  11.850  -2.909  0.00  0.00     0.024 H 
ENDBRANCH   9  66
TORSDOF 6
ENDMDL
MODEL 7
REMARK VINA RESULT:      -7.2      2.204      3.455
REMARK  6 active torsions:
REMARK  status: ('A' for Active; 'I' for Inactive)
REMARK    1  A    between atoms: C_1  and  C_2 
REMARK    2  A    between atoms: C_10  and  C_14 
REMARK    3  A    between atoms: C_18  and  C_20 
REMARK    4  A    between atoms: C_20  and  N_21 
REMARK    5  A    between atoms: N_24  and  C_27 
REMARK    6  A    between atoms: C_27  and  C_28 
ROOT
ATOM      1  C   LIG d   1       3.478  -0.202  -5.354  0.00  0.00    -0.073 C 
ATOM      2  C   LIG d   1       4.467  -0.918  -4.908  0.00  0.00    -0.064 C 
ATOM      3  C   LIG d   1       5.712  -1.067  -5.757  0.00  0.00    -0.024 C 
ATOM      4  C   LIG d   1       6.940  -0.619  -4.957  0.00  0.00     0.014 C 
ATOM      5  H   LIG d   1       6.940   0.480  -4.943  0.00  0.00     0.035 H 
ATOM      6  C   LIG d   1       6.953  -1.252  -3.554  0.00  0.00     0.108 C 
ATOM      7  H   LIG d   1       7.678  -0.792  -2.866  0.00  0.00     0.074 H 
ATOM      8  C   LIG d   1       5.669  -1.089  -2.782  0.00  0.00    -0.006 C 
ATOM      9  C   LIG d   1       4.471  -1.614  -3.576  0.00  0.00    -0.007 C 
ATOM     10  C   LIG d   1       3.187  -1.425  -2.793  0.00  0.00    -0.043 C 
ATOM     11  C   LIG d   1       2.567  -0.056  -3.069  0.00  0.00    -0.049 C 
ATOM     12  C   LIG d   1       2.221   0.025  -4.561  0.00  0.00    -0.032 C 
ATOM     13  O   LIG d   1       7.321  -2.637  -3.804  0.00  0.00    -0.461 OA
ATOM     14  C   LIG d   1       8.296  -2.621  -4.742  0.00  0.00     0.312 C 
ATOM     15  O   LIG d   1       9.143  -3.471  -4.884  0.00  0.00    -0.251 OA
ATOM     16  C   LIG d   1       8.157  -1.368  -5.586  0.00  0.00     0.075 C 
ATOM     17  H   LIG d   1       8.030  -1.606  -6.652  0.00  0.00     0.043 H 
ATOM     18  H   LIG d   1       5.832  -2.119  -6.051  0.00  0.00     0.031 H 
ATOM     19  H   LIG d   1       5.618  -0.443  -6.658  0.00  0.00     0.031 H 
ATOM     20  H   LIG d   1       5.736  -1.650  -1.838  0.00  0.00     0.031 H 
ATOM     21  H   LIG d   1       5.505  -0.023  -2.565  0.00  0.00     0.031 H 
ATOM     22  H   LIG d   1       2.464  -2.202  -3.081  0.00  0.00     0.027 H 
ATOM     23  H   LIG d   1       3.400  -1.502  -1.716  0.00  0.00     0.027 H 
ATOM     24  H   LIG d   1       1.655   0.062  -2.465  0.00  0.00     0.027 H 
ATOM     25  H   LIG d   1       3.287   0.733  -2.806  0.00  0.00     0.027 H 
ATOM     26  H   LIG d   1       1.811   1.017  -4.798  0.00  0.00     0.031 H 
ATOM     27  H   LIG d   1       1.482  -0.749  -4.817  0.00  0.00     0.031 H 
ENDROOT
BRANCH  16  28
ATOM     28  C   LIG d   1       9.421  -0.513  -5.488  0.00  0.00     0.012 C 
ATOM     29  H   LIG d   1       9.998  -0.811  -4.600  0.00  0.00     0.043 H 
ATOM     30  H   LIG d   1      10.033  -0.659  -6.390  0.00  0.00     0.043 H 
BRANCH  28  31
ATOM     31  N   LIG d   1       9.047   0.904  -5.375  0.00  0.00    -0.299 N 
ATOM     32  C   LIG d   1       9.644   1.694  -6.460  0.00  0.00     0.012 C 
ATOM     33  C   LIG d   1       9.168   3.145  -6.353  0.00  0.00     0.012 C 
ATOM     34  H   LIG d   1      10.741   1.661  -6.378  0.00  0.00     0.044 H 
ATOM     35  H   LIG d   1       9.337   1.277  -7.431  0.00  0.00     0.044 H 
ATOM     36  N   LIG d   1       9.547   3.686  -5.040  0.00  0.00    -0.296 N 
ATOM     37  H   LIG d   1       8.074   3.181  -6.463  0.00  0.00     0.044 H 
ATOM     38  H   LIG d   1       9.636   3.745  -7.146  0.00  0.00     0.044 H 
ATOM     39  C   LIG d   1       8.949   2.895  -3.955  0.00  0.00     0.012 C 
ATOM     40  C   LIG d   1       9.425   1.445  -4.062  0.00  0.00     0.012 C 
ATOM     41  H   LIG d   1       7.852   2.928  -4.038  0.00  0.00     0.044 H 
ATOM     42  H   LIG d   1       9.256   3.312  -2.985  0.00  0.00     0.044 H 
ATOM     43  H   LIG d   1       8.957   0.845  -3.269  0.00  0.00     0.044 H 
ATOM     44  H   LIG d   1      10.519   1.408  -3.952  0.00  0.00     0.044 H 
BRANCH  36  45
ATOM     45  C   LIG d   1       9.172   5.103  -4.927  0.00  0.00     0.024 C 
ATOM     46  H   LIG d   1       9.410   5.621  -5.868  0.00  0.00     0.048 H 
ATOM     47  H   LIG d   1       8.093   5.181  -4.728  0.00  0.00     0.048 H 
BRANCH  45  48
ATOM     48  C   LIG d   1       9.940   5.736  -3.796  0.00  0.00    -0.030 A 
ATOM     49  C   LIG d   1       9.260   6.287  -2.726  0.00  0.00    -0.012 A 
ATOM     50  C   LIG d   1       9.963   6.871  -1.684  0.00  0.00     0.167 A 
ATOM     51  H   LIG d   1       8.181   6.264  -2.701  0.00  0.00     0.066 H 
ATOM     52  C   LIG d   1      11.356   6.898  -1.718  0.00  0.00     0.166 A 
ATOM     53  O   LIG d   1       9.543   7.473  -0.533  0.00  0.00    -0.453 OA
ATOM     54  C   LIG d   1      12.030   6.344  -2.794  0.00  0.00    -0.016 A 
ATOM     55  O   LIG d   1      11.807   7.519  -0.589  0.00  0.00    -0.453 OA
ATOM     56  C   LIG d   1      11.322   5.765  -3.830  0.00  0.00    -0.054 A 
ATOM     57  H   LIG d   1      13.109   6.365  -2.824  0.00  0.00     0.066 H 
ATOM     58  H   LIG d   1      11.849   5.329  -4.666  0.00  0.00     0.062 H 
ATOM     59  C   LIG d   1      10.672   8.232  -0.062  0.00  0.00     0.233 C 
ATOM     60  H   LIG d   1      10.610   9.260  -0.448  0.00  0.00     0.117 H 
ATOM     61  H   LIG d   1      10.668   8.252   1.037  0.00  0.00     0.117 H 
ENDBRANCH  45  48
ENDBRANCH  36  45
ENDBRANCH  28  31
ENDBRANCH  16  28
BRANCH   1  62
ATOM     62  C   LIG d   1       3.597   0.426  -6.719  0.00  0.00    -0.043 C 
ATOM     63  H   LIG d   1       2.630   0.863  -7.006  0.00  0.00     0.027 H 
ATOM     64  H   LIG d   1       3.887  -0.340  -7.452  0.00  0.00     0.027 H 
ATOM     65  H   LIG d   1       4.363   1.217  -6.693  0.00  0.00     0.027 H 
ENDBRANCH   1  62
BRANCH   9  66
ATOM     66  C   LIG d   1       4.667  -3.113  -3.812  0.00  0.00    -0.056 C 
ATOM     67  H   LIG d   1       5.732  -3.365  -3.704  0.00  0.00     0.024 H 
ATOM     68  H   LIG d   1       4.330  -3.371  -4.827  0.00  0.00     0.024 H 
ATOM     69  H   LIG d   1       4.079  -3.679  -3.075  0.00  0.00     0.024 H 
ENDBRANCH   9  66
TORSDOF 6
ENDMDL
MODEL 8
REMARK VINA RESULT:      -7.1      2.309      2.589
REMARK  6 active torsions:
REMARK  status: ('A' for Active; 'I' for Inactive)
REMARK    1  A    between atoms: C_1  and  C_2 
REMARK    2  A    between atoms: C_10  and  C_14 
REMARK    3  A    between atoms: C_18  and  C_20 
REMARK    4  A    between atoms: C_20  and  N_21 
REMARK    5  A    between atoms: N_24  and  C_27 
REMARK    6  A    between atoms: C_27  and  C_28 
ROOT
ATOM      1  C   LIG d   1       4.495   0.074  -3.037  0.00  0.00    -0.073 C 
ATOM      2  C   LIG d   1       5.369  -0.371  -3.890  0.00  0.00    -0.064 C 
ATOM      3  C   LIG d   1       6.407   0.580  -4.446  0.00  0.00    -0.024 C 
ATOM      4  C   LIG d   1       7.812   0.025  -4.185  0.00  0.00     0.014 C 
ATOM      5  H   LIG d   1       8.044   0.207  -3.125  0.00  0.00     0.035 H 
ATOM      6  C   LIG d   1       7.911  -1.457  -4.589  0.00  0.00     0.108 C 
ATOM      7  H   LIG d   1       8.814  -1.960  -4.214  0.00  0.00     0.074 H 
ATOM      8  C   LIG d   1       6.826  -2.334  -4.020  0.00  0.00    -0.006 C 
ATOM      9  C   LIG d   1       5.436  -1.796  -4.363  0.00  0.00    -0.007 C 
ATOM     10  C   LIG d   1       4.358  -2.680  -3.768  0.00  0.00    -0.043 C 
ATOM     11  C   LIG d   1       4.003  -2.240  -2.348  0.00  0.00    -0.049 C 
ATOM     12  C   LIG d   1       3.453  -0.810  -2.410  0.00  0.00    -0.032 C 
ATOM     13  O   LIG d   1       7.937  -1.415  -6.043  0.00  0.00    -0.461 OA
ATOM     14  C   LIG d   1       8.734  -0.380  -6.393  0.00  0.00     0.312 C 
ATOM     15  O   LIG d   1       9.352  -0.292  -7.427  0.00  0.00    -0.251 OA
ATOM     16  C   LIG d   1       8.731   0.651  -5.279  0.00  0.00     0.075 C 
ATOM     17  H   LIG d   1       8.392   1.634  -5.636  0.00  0.00     0.043 H 
ATOM     18  H   LIG d   1       6.257   0.694  -5.530  0.00  0.00     0.031 H 
ATOM     19  H   LIG d   1       6.307   1.560  -3.958  0.00  0.00     0.031 H 
ATOM     20  H   LIG d   1       6.920  -3.349  -4.436  0.00  0.00     0.031 H 
ATOM     21  H   LIG d   1       6.925  -2.376  -2.925  0.00  0.00     0.031 H 
ATOM     22  H   LIG d   1       3.452  -2.624  -4.390  0.00  0.00     0.027 H 
ATOM     23  H   LIG d   1       4.715  -3.720  -3.733  0.00  0.00     0.027 H 
ATOM     24  H   LIG d   1       3.242  -2.918  -1.934  0.00  0.00     0.027 H 
ATOM     25  H   LIG d   1       4.904  -2.271  -1.719  0.00  0.00     0.027 H 
ATOM     26  H   LIG d   1       3.228  -0.450  -1.396  0.00  0.00     0.031 H 
ATOM     27  H   LIG d   1       2.537  -0.785  -3.020  0.00  0.00     0.031 H 
ENDROOT
BRANCH  16  28
ATOM     28  C   LIG d   1      10.146   0.858  -4.736  0.00  0.00     0.012 C 
ATOM     29  H   LIG d   1      10.134   0.771  -3.640  0.00  0.00     0.043 H 
ATOM     30  H   LIG d   1      10.816   0.094  -5.158  0.00  0.00     0.043 H 
BRANCH  28  31
ATOM     31  N   LIG d   1      10.626   2.194  -5.117  0.00  0.00    -0.299 N 
ATOM     32  C   LIG d   1      11.525   2.742  -4.092  0.00  0.00     0.012 C 
ATOM     33  C   LIG d   1      12.063   4.096  -4.561  0.00  0.00     0.012 C 
ATOM     34  H   LIG d   1      10.970   2.874  -3.151  0.00  0.00     0.044 H 
ATOM     35  H   LIG d   1      12.363   2.048  -3.929  0.00  0.00     0.044 H 
ATOM     36  N   LIG d   1      10.938   5.007  -4.814  0.00  0.00    -0.296 N 
ATOM     37  H   LIG d   1      12.641   3.959  -5.487  0.00  0.00     0.044 H 
ATOM     38  H   LIG d   1      12.713   4.523  -3.784  0.00  0.00     0.044 H 
ATOM     39  C   LIG d   1      10.040   4.458  -5.840  0.00  0.00     0.012 C 
ATOM     40  C   LIG d   1       9.501   3.104  -5.370  0.00  0.00     0.012 C 
ATOM     41  H   LIG d   1      10.594   4.325  -6.781  0.00  0.00     0.044 H 
ATOM     42  H   LIG d   1       9.201   5.150  -6.002  0.00  0.00     0.044 H 
ATOM     43  H   LIG d   1       8.852   2.678  -6.148  0.00  0.00     0.044 H 
ATOM     44  H   LIG d   1       8.923   3.240  -4.444  0.00  0.00     0.044 H 
BRANCH  36  45
ATOM     45  C   LIG d   1      11.418   6.342  -5.195  0.00  0.00     0.024 C 
ATOM     46  H   LIG d   1      12.517   6.333  -5.260  0.00  0.00     0.048 H 
ATOM     47  H   LIG d   1      10.996   6.618  -6.172  0.00  0.00     0.048 H 
BRANCH  45  48
ATOM     48  C   LIG d   1      10.985   7.346  -4.158  0.00  0.00    -0.030 A 
ATOM     49  C   LIG d   1      10.191   6.944  -3.100  0.00  0.00    -0.012 A 
ATOM     50  C   LIG d   1       9.791   7.865  -2.145  0.00  0.00     0.167 A 
ATOM     51  H   LIG d   1       9.882   5.913  -3.017  0.00  0.00     0.066 H 
ATOM     52  C   LIG d   1      10.191   9.195  -2.255  0.00  0.00     0.166 A 
ATOM     53  O   LIG d   1       9.023   7.731  -1.024  0.00  0.00    -0.453 OA
ATOM     54  C   LIG d   1      10.986   9.590  -3.318  0.00  0.00    -0.016 A 
ATOM     55  O   LIG d   1       9.673   9.893  -1.202  0.00  0.00    -0.453 OA
ATOM     56  C   LIG d   1      11.381   8.666  -4.267  0.00  0.00    -0.054 A 
ATOM     57  H   LIG d   1      11.297  10.620  -3.406  0.00  0.00     0.066 H 
ATOM     58  H   LIG d   1      12.005   8.975  -5.093  0.00  0.00     0.062 H 
ATOM     59  C   LIG d   1       8.618   9.068  -0.673  0.00  0.00     0.233 C 
ATOM     60  H   LIG d   1       7.645   9.289  -1.134  0.00  0.00     0.117 H 
ATOM     61  H   LIG d   1       8.534   9.150   0.420  0.00  0.00     0.117 H 
ENDBRANCH  45  48
ENDBRANCH  36  45
ENDBRANCH  28  31
ENDBRANCH  16  28
BRANCH   1  62
ATOM     62  C   LIG d   1       4.529   1.533  -2.661  0.00  0.00    -0.043 C 
ATOM     63  H   LIG d   1       4.895   1.638  -1.630  0.00  0.00     0.027 H 
ATOM     64  H   LIG d   1       3.515   1.955  -2.735  0.00  0.00     0.027 H 
ATOM     65  H   LIG d   1       5.201   2.073  -3.345  0.00  0.00     0.027 H 
ENDBRANCH   1  62
BRANCH   9  66
ATOM     66  C   LIG d   1       5.274  -1.809  -5.885  0.00  0.00    -0.056 C 
ATOM     67  H   LIG d   1       5.640  -0.859  -6.300  0.00  0.00     0.024 H 
ATOM     68  H   LIG d   1       4.211  -1.935  -6.139  0.00  0.00     0.024 H 
ATOM     69  H   LIG d   1       5.853  -2.642  -6.307  0.00  0.00     0.024 H 
ENDBRANCH   9  66
TORSDOF 6
ENDMDL
MODEL 9
REMARK VINA RESULT:      -7.1      6.434      8.254
REMARK  6 active torsions:
REMARK  status: ('A' for Active; 'I' for Inactive)
REMARK    1  A    between atoms: C_1  and  C_2 
REMARK    2  A    between atoms: C_10  and  C_14 
REMARK    3  A    between atoms: C_18  and  C_20 
REMARK    4  A    between atoms: C_20  and  N_21 
REMARK    5  A    between atoms: N_24  and  C_27 
REMARK    6  A    between atoms: C_27  and  C_28 
ROOT
ATOM      1  C   LIG d   1       3.350   0.678  -3.810  0.00  0.00    -0.073 C 
ATOM      2  C   LIG d   1       4.024  -0.401  -4.075  0.00  0.00    -0.064 C 
ATOM      3  C   LIG d   1       4.096  -0.893  -5.505  0.00  0.00    -0.024 C 
ATOM      4  C   LIG d   1       5.561  -1.032  -5.932  0.00  0.00     0.014 C 
ATOM      5  H   LIG d   1       5.941  -0.020  -6.138  0.00  0.00     0.035 H 
ATOM      6  C   LIG d   1       6.381  -1.792  -4.874  0.00  0.00     0.108 C 
ATOM      7  H   LIG d   1       7.469  -1.720  -5.019  0.00  0.00     0.074 H 
ATOM      8  C   LIG d   1       6.235  -1.262  -3.471  0.00  0.00    -0.006 C 
ATOM      9  C   LIG d   1       4.766  -1.207  -3.046  0.00  0.00    -0.007 C 
ATOM     10  C   LIG d   1       4.636  -0.656  -1.640  0.00  0.00    -0.043 C 
ATOM     11  C   LIG d   1       4.525   0.868  -1.652  0.00  0.00    -0.049 C 
ATOM     12  C   LIG d   1       3.257   1.253  -2.424  0.00  0.00    -0.032 C 
ATOM     13  O   LIG d   1       5.953  -3.172  -5.033  0.00  0.00    -0.461 OA
ATOM     14  C   LIG d   1       5.854  -3.403  -6.363  0.00  0.00     0.312 C 
ATOM     15  O   LIG d   1       5.969  -4.481  -6.897  0.00  0.00    -0.251 OA
ATOM     16  C   LIG d   1       5.576  -2.093  -7.077  0.00  0.00     0.075 C 
ATOM     17  H   LIG d   1       4.642  -2.135  -7.656  0.00  0.00     0.043 H 
ATOM     18  H   LIG d   1       3.600  -1.871  -5.583  0.00  0.00     0.031 H 
ATOM     19  H   LIG d   1       3.592  -0.173  -6.167  0.00  0.00     0.031 H 
ATOM     20  H   LIG d   1       6.776  -1.920  -2.774  0.00  0.00     0.031 H 
ATOM     21  H   LIG d   1       6.653  -0.246  -3.417  0.00  0.00     0.031 H 
ATOM     22  H   LIG d   1       3.735  -1.070  -1.165  0.00  0.00     0.027 H 
ATOM     23  H   LIG d   1       5.523  -0.937  -1.053  0.00  0.00     0.027 H 
ATOM     24  H   LIG d   1       4.463   1.239  -0.618  0.00  0.00     0.027 H 
ATOM     25  H   LIG d   1       5.410   1.297  -2.143  0.00  0.00     0.027 H 
ATOM     26  H   LIG d   1       3.172   2.348  -2.485  0.00  0.00     0.031 H 
ATOM     27  H   LIG d   1       2.370   0.845  -1.917  0.00  0.00     0.031 H 
ENDROOT
BRANCH  16  28
ATOM     28  C   LIG d   1       6.687  -1.783  -8.081  0.00  0.00     0.012 C 
ATOM     29  H   LIG d   1       7.530  -2.471  -7.919  0.00  0.00     0.043 H 
ATOM     30  H   LIG d   1       6.302  -1.909  -9.104  0.00  0.00     0.043 H 
BRANCH  28  31
ATOM     31  N   LIG d   1       7.142  -0.398  -7.896  0.00  0.00    -0.299 N 
ATOM     32  C   LIG d   1       6.687   0.457  -9.001  0.00  0.00     0.012 C 
ATOM     33  C   LIG d   1       7.113   1.902  -8.732  0.00  0.00     0.012 C 
ATOM     34  H   LIG d   1       7.138   0.110  -9.943  0.00  0.00     0.044 H 
ATOM     35  H   LIG d   1       5.591   0.404  -9.079  0.00  0.00     0.044 H 
ATOM     36  N   LIG d   1       8.574   1.962  -8.591  0.00  0.00    -0.296 N 
ATOM     37  H   LIG d   1       6.639   2.258  -7.805  0.00  0.00     0.044 H 
ATOM     38  H   LIG d   1       6.800   2.540  -9.571  0.00  0.00     0.044 H 
ATOM     39  C   LIG d   1       9.029   1.106  -7.485  0.00  0.00     0.012 C 
ATOM     40  C   LIG d   1       8.603  -0.340  -7.754  0.00  0.00     0.012 C 
ATOM     41  H   LIG d   1       8.577   1.452  -6.543  0.00  0.00     0.044 H 
ATOM     42  H   LIG d   1      10.124   1.157  -7.408  0.00  0.00     0.044 H 
ATOM     43  H   LIG d   1       8.916  -0.977  -6.915  0.00  0.00     0.044 H 
ATOM     44  H   LIG d   1       9.076  -0.695  -8.681  0.00  0.00     0.044 H 
BRANCH  36  45
ATOM     45  C   LIG d   1       9.029   3.346  -8.406  0.00  0.00     0.024 C 
ATOM     46  H   LIG d   1       8.219   3.943  -7.961  0.00  0.00     0.048 H 
ATOM     47  H   LIG d   1       9.903   3.359  -7.738  0.00  0.00     0.048 H 
BRANCH  45  48
ATOM     48  C   LIG d   1       9.409   3.932  -9.741  0.00  0.00    -0.030 A 
ATOM     49  C   LIG d   1       9.140   5.261 -10.011  0.00  0.00    -0.012 A 
ATOM     50  C   LIG d   1       9.488   5.803 -11.239  0.00  0.00     0.167 A 
ATOM     51  H   LIG d   1       8.659   5.878  -9.267  0.00  0.00     0.066 H 
ATOM     52  C   LIG d   1      10.110   5.005 -12.197  0.00  0.00     0.166 A 
ATOM     53  O   LIG d   1       9.339   7.061 -11.748  0.00  0.00    -0.453 OA
ATOM     54  C   LIG d   1      10.375   3.674 -11.918  0.00  0.00    -0.016 A 
ATOM     55  O   LIG d   1      10.348   5.763 -13.307  0.00  0.00    -0.453 OA
ATOM     56  C   LIG d   1      10.025   3.141 -10.693  0.00  0.00    -0.054 A 
ATOM     57  H   LIG d   1      10.856   3.053 -12.659  0.00  0.00     0.066 H 
ATOM     58  H   LIG d   1      10.237   2.104 -10.475  0.00  0.00     0.062 H 
ATOM     59  C   LIG d   1       9.502   6.921 -13.172  0.00  0.00     0.233 C 
ATOM     60  H   LIG d   1       8.518   6.773 -13.641  0.00  0.00     0.117 H 
ATOM     61  H   LIG d   1       9.970   7.828 -13.578  0.00  0.00     0.117 H 
ENDBRANCH  45  48
ENDBRANCH  36  45
ENDBRANCH  28  31
ENDBRANCH  16  28
BRANCH   1  62
ATOM     62  C   LIG d   1       2.636   1.380  -4.935  0.00  0.00    -0.043 C 
ATOM     63  H   LIG d   1       2.355   2.394  -4.615  0.00  0.00     0.027 H 
ATOM     64  H   LIG d   1       1.730   0.817  -5.204  0.00  0.00     0.027 H 
ATOM     65  H   LIG d   1       3.301   1.444  -5.810  0.00  0.00     0.027 H 
ENDBRANCH   1  62
BRANCH   9  66
ATOM     66  C   LIG d   1       4.207  -2.632  -3.051  0.00  0.00    -0.056 C 
ATOM     67  H   LIG d   1       3.151  -2.612  -2.744  0.00  0.00     0.024 H 
ATOM     68  H   LIG d   1       4.782  -3.253  -2.348  0.00  0.00     0.024 H 
ATOM     69  H   LIG d   1       4.287  -3.053  -4.064  0.00  0.00     0.024 H 
ENDBRANCH   9  66
TORSDOF 6
ENDMDL
MODEL 10
REMARK VINA RESULT:      -7.0      7.160     13.052
REMARK  6 active torsions:
REMARK  status: ('A' for Active; 'I' for Inactive)
REMARK    1  A    between atoms: C_1  and  C_2 
REMARK    2  A    between atoms: C_10  and  C_14 
REMARK    3  A    between atoms: C_18  and  C_20 
REMARK    4  A    between atoms: C_20  and  N_21 
REMARK    5  A    between atoms: N_24  and  C_27 
REMARK    6  A    between atoms: C_27  and  C_28 
ROOT
ATOM      1  C   LIG d   1       3.277   0.770  -3.689  0.00  0.00    -0.073 C 
ATOM      2  C   LIG d   1       3.783  -0.402  -3.928  0.00  0.00    -0.064 C 
ATOM      3  C   LIG d   1       3.632  -1.003  -5.310  0.00  0.00    -0.024 C 
ATOM      4  C   LIG d   1       5.013  -1.360  -5.873  0.00  0.00     0.014 C 
ATOM      5  H   LIG d   1       5.484  -0.423  -6.205  0.00  0.00     0.035 H 
ATOM      6  C   LIG d   1       5.851  -2.138  -4.844  0.00  0.00     0.108 C 
ATOM      7  H   LIG d   1       6.916  -2.217  -5.107  0.00  0.00     0.074 H 
ATOM      8  C   LIG d   1       5.930  -1.493  -3.484  0.00  0.00    -0.006 C 
ATOM      9  C   LIG d   1       4.536  -1.219  -2.916  0.00  0.00    -0.007 C 
ATOM     10  C   LIG d   1       4.634  -0.553  -1.557  0.00  0.00    -0.043 C 
ATOM     11  C   LIG d   1       4.705   0.967  -1.690  0.00  0.00    -0.049 C 
ATOM     12  C   LIG d   1       3.412   1.454  -2.356  0.00  0.00    -0.032 C 
ATOM     13  O   LIG d   1       5.246  -3.461  -4.837  0.00  0.00    -0.461 OA
ATOM     14  C   LIG d   1       4.969  -3.774  -6.124  0.00  0.00     0.312 C 
ATOM     15  O   LIG d   1       4.894  -4.894  -6.570  0.00  0.00    -0.251 OA
ATOM     16  C   LIG d   1       4.770  -2.495  -6.916  0.00  0.00     0.075 C 
ATOM     17  H   LIG d   1       3.777  -2.460  -7.389  0.00  0.00     0.043 H 
ATOM     18  H   LIG d   1       3.018  -1.913  -5.250  0.00  0.00     0.031 H 
ATOM     19  H   LIG d   1       3.145  -0.275  -5.975  0.00  0.00     0.031 H 
ATOM     20  H   LIG d   1       6.465  -2.161  -2.793  0.00  0.00     0.031 H 
ATOM     21  H   LIG d   1       6.470  -0.537  -3.563  0.00  0.00     0.031 H 
ATOM     22  H   LIG d   1       3.750  -0.813  -0.956  0.00  0.00     0.027 H 
ATOM     23  H   LIG d   1       5.543  -0.902  -1.043  0.00  0.00     0.027 H 
ATOM     24  H   LIG d   1       4.805   1.418  -0.691  0.00  0.00     0.027 H 
ATOM     25  H   LIG d   1       5.573   1.242  -2.307  0.00  0.00     0.027 H 
ATOM     26  H   LIG d   1       3.452   2.542  -2.504  0.00  0.00     0.031 H 
ATOM     27  H   LIG d   1       2.546   1.200  -1.726  0.00  0.00     0.031 H 
ENDROOT
BRANCH  16  28
ATOM     28  C   LIG d   1       5.788  -2.405  -8.054  0.00  0.00     0.012 C 
ATOM     29  H   LIG d   1       6.510  -1.603  -7.837  0.00  0.00     0.043 H 
ATOM     30  H   LIG d   1       6.321  -3.363  -8.146  0.00  0.00     0.043 H 
BRANCH  28  31
ATOM     31  N   LIG d   1       5.091  -2.110  -9.313  0.00  0.00    -0.299 N 
ATOM     32  C   LIG d   1       3.783  -1.491  -9.057  0.00  0.00     0.012 C 
ATOM     33  C   LIG d   1       3.125  -1.128 -10.391  0.00  0.00     0.012 C 
ATOM     34  H   LIG d   1       3.142  -2.200  -8.512  0.00  0.00     0.044 H 
ATOM     35  H   LIG d   1       3.919  -0.581  -8.454  0.00  0.00     0.044 H 
ATOM     36  N   LIG d   1       2.980  -2.340 -11.209  0.00  0.00    -0.296 N 
ATOM     37  H   LIG d   1       3.752  -0.398 -10.923  0.00  0.00     0.044 H 
ATOM     38  H   LIG d   1       2.133  -0.692 -10.205  0.00  0.00     0.044 H 
ATOM     39  C   LIG d   1       4.289  -2.959 -11.464  0.00  0.00     0.012 C 
ATOM     40  C   LIG d   1       4.947  -3.322 -10.131  0.00  0.00     0.012 C 
ATOM     41  H   LIG d   1       4.931  -2.250 -12.008  0.00  0.00     0.044 H 
ATOM     42  H   LIG d   1       4.154  -3.869 -12.066  0.00  0.00     0.044 H 
ATOM     43  H   LIG d   1       5.939  -3.758 -10.317  0.00  0.00     0.044 H 
ATOM     44  H   LIG d   1       4.320  -4.052  -9.598  0.00  0.00     0.044 H 
BRANCH  36  45
ATOM     45  C   LIG d   1       2.283  -2.045 -12.468  0.00  0.00     0.024 C 
ATOM     46  H   LIG d   1       2.172  -0.956 -12.580  0.00  0.00     0.048 H 
ATOM     47  H   LIG d   1       2.867  -2.442 -13.312  0.00  0.00     0.048 H 
BRANCH  45  48
ATOM     48  C   LIG d   1       0.921  -2.690 -12.451  0.00  0.00    -0.030 A 
ATOM     49  C   LIG d   1      -0.093  -2.178 -13.239  0.00  0.00    -0.012 A 
ATOM     50  C   LIG d   1      -1.347  -2.769 -13.225  0.00  0.00     0.167 A 
ATOM     51  H   LIG d   1       0.090  -1.318 -13.865  0.00  0.00     0.066 H 
ATOM     52  C   LIG d   1      -1.580  -3.879 -12.416  0.00  0.00     0.166 A 
ATOM     53  O   LIG d   1      -2.497  -2.467 -13.895  0.00  0.00    -0.453 OA
ATOM     54  C   LIG d   1      -0.558  -4.386 -11.630  0.00  0.00    -0.016 A 
ATOM     55  O   LIG d   1      -2.877  -4.272 -12.579  0.00  0.00    -0.453 OA
ATOM     56  C   LIG d   1       0.689  -3.791 -11.648  0.00  0.00    -0.054 A 
ATOM     57  H   LIG d   1      -0.737  -5.246 -11.001  0.00  0.00     0.066 H 
ATOM     58  H   LIG d   1       1.486  -4.190 -11.037  0.00  0.00     0.062 H 
ATOM     59  C   LIG d   1      -3.547  -3.148 -13.182  0.00  0.00     0.233 C 
ATOM     60  H   LIG d   1      -3.980  -2.471 -12.432  0.00  0.00     0.117 H 
ATOM     61  H   LIG d   1      -4.328  -3.460 -13.890  0.00  0.00     0.117 H 
ENDBRANCH  45  48
ENDBRANCH  36  45
ENDBRANCH  28  31
ENDBRANCH  16  28
BRANCH   1  62
ATOM     62  C   LIG d   1       2.528   1.474  -4.791  0.00  0.00    -0.043 C 
ATOM     63  H   LIG d   1       2.965   2.470  -4.954  0.00  0.00     0.027 H 
ATOM     64  H   LIG d   1       1.470   1.579  -4.507  0.00  0.00     0.027 H 
ATOM     65  H   LIG d   1       2.601   0.886  -5.719  0.00  0.00     0.027 H 
ENDBRANCH   1  62
BRANCH   9  66
ATOM     66  C   LIG d   1       3.815  -2.557  -2.738  0.00  0.00    -0.056 C 
ATOM     67  H   LIG d   1       3.081  -2.687  -3.546  0.00  0.00     0.024 H 
ATOM     68  H   LIG d   1       3.298  -2.568  -1.767  0.00  0.00     0.024 H 
ATOM     69  H   LIG d   1       4.549  -3.375  -2.773  0.00  0.00     0.024 H 
ENDBRANCH   9  66
TORSDOF 6
ENDMDL
