MODEL 1
REMARK VINA RESULT:      -6.3      0.000      0.000
REMARK  11 active torsions:
REMARK  status: ('A' for Active; 'I' for Inactive)
REMARK    1  A    between atoms: C_1  and  C_2 
REMARK    2  A    between atoms: C_4  and  N_13 
REMARK    3  A    between atoms: N_8  and  S_9 
REMARK       I    between atoms: N_13  and  C_14 
REMARK    4  A    between atoms: C_14  and  C_16 
REMARK    5  A    between atoms: C_16  and  C_25 
REMARK    6  A    between atoms: N_17  and  O_18 
REMARK    7  A    between atoms: O_18  and  C_19 
REMARK    8  A    between atoms: C_19  and  C_20 
REMARK    9  A    between atoms: C_19  and  C_21 
REMARK   10  A    between atoms: C_19  and  C_22 
REMARK   11  A    between atoms: C_28  and  N_30 
ROOT
ATOM      1  C   LIG d   1       7.552   1.098  -4.405  0.00  0.00     0.190 C 
ATOM      2  N   LIG d   1       6.800   0.741  -3.402  0.00  0.00    -0.077 NA
ENDROOT
BRANCH   1   3
ATOM      3  C   LIG d   1       7.425   0.405  -5.709  0.00  0.00     0.268 C 
ATOM      4  N   LIG d   1       6.348   0.625  -6.488  0.00  0.00    -0.297 N 
ATOM      5  H   LIG d   1       5.619   1.176  -6.163  0.00  0.00     0.150 HD
ATOM      6  O   LIG d   1       8.294  -0.362  -6.075  0.00  0.00    -0.268 OA
BRANCH   4   7
ATOM      7  C   LIG d   1       6.279   0.032  -7.826  0.00  0.00     0.121 A 
ATOM      8  C   LIG d   1       4.886  -0.460  -8.226  0.00  0.00     0.072 A 
ATOM      9  H   LIG d   1       4.145  -0.327  -7.439  0.00  0.00     0.054 H 
ATOM     10  N   LIG d   1       4.808   0.568  -9.265  0.00  0.00    -0.179 N 
ATOM     11  C   LIG d   1       6.030   1.021  -8.933  0.00  0.00     0.256 A 
ATOM     12  O   LIG d   1       6.707   1.924  -9.379  0.00  0.00    -0.272 OA
ATOM     13  H   LIG d   1       7.081  -0.677  -8.029  0.00  0.00     0.061 H 
BRANCH   8  14
ATOM     14  C   LIG d   1       4.892  -1.881  -8.790  0.00  0.00    -0.043 C 
ATOM     15  H   LIG d   1       4.162  -1.956  -9.596  0.00  0.00     0.025 H 
ATOM     16  H   LIG d   1       5.885  -2.115  -9.176  0.00  0.00     0.025 H 
ATOM     17  H   LIG d   1       4.635  -2.587  -8.001  0.00  0.00     0.025 H 
ENDBRANCH   8  14
BRANCH  10  18
ATOM     18  S   LIG d   1       3.675   1.000 -10.394  0.00  0.00     0.003 S 
ATOM     19  O   LIG d   1       4.199   0.604 -11.692  0.00  0.00    -0.166 OA
ATOM     20  O   LIG d   1       2.453   0.285 -10.060  0.00  0.00    -0.166 OA
ATOM     21  O   LIG d   1       3.507   2.442 -10.292  0.00  0.00    -0.708 OA
ENDBRANCH  10  18
ENDBRANCH   4   7
ENDBRANCH   1   3
BRANCH   1  22
ATOM     22  C   LIG d   1       8.530   2.194  -4.243  0.00  0.00     0.107 A 
ATOM     23  N   LIG d   1       9.239   2.306  -3.121  0.00  0.00    -0.223 NA
ATOM     24  C   LIG d   1      10.120   3.276  -2.963  0.00  0.00     0.156 A 
ATOM     25  S   LIG d   1       9.968   4.155  -4.512  0.00  0.00    -0.060 SA
ATOM     26  C   LIG d   1       8.715   3.112  -5.244  0.00  0.00     0.007 A 
ATOM     27  H   LIG d   1       8.235   3.184  -6.208  0.00  0.00     0.072 H 
BRANCH  24  28
ATOM     28  N   LIG d   1      10.942   3.544  -1.882  0.00  0.00    -0.338 N 
ATOM     29  H   LIG d   1      10.966   2.936  -1.127  0.00  0.00     0.144 HD
ATOM     30  H   LIG d   1      11.494   4.342  -1.880  0.00  0.00     0.144 HD
ENDBRANCH  24  28
ENDBRANCH   1  22
BRANCH   2  31
ATOM     31  O   LIG d   1       5.943  -0.379  -3.523  0.00  0.00    -0.381 OA
BRANCH  31  32
ATOM     32  C   LIG d   1       4.695  -0.231  -2.844  0.00  0.00     0.172 C 
BRANCH  32  33
ATOM     33  C   LIG d   1       4.415  -1.484  -2.013  0.00  0.00    -0.017 C 
ATOM     34  H   LIG d   1       5.005  -2.316  -2.398  0.00  0.00     0.027 H 
ATOM     35  H   LIG d   1       4.685  -1.299  -0.973  0.00  0.00     0.027 H 
ATOM     36  H   LIG d   1       3.354  -1.732  -2.075  0.00  0.00     0.027 H 
ENDBRANCH  32  33
BRANCH  32  37
ATOM     37  C   LIG d   1       4.757   0.989  -1.923  0.00  0.00    -0.017 C 
ATOM     38  H   LIG d   1       5.797   1.217  -1.693  0.00  0.00     0.027 H 
ATOM     39  H   LIG d   1       4.298   1.843  -2.420  0.00  0.00     0.027 H 
ATOM     40  H   LIG d   1       4.219   0.775  -1.000  0.00  0.00     0.027 H 
ENDBRANCH  32  37
BRANCH  32  41
ATOM     41  C   LIG d   1       3.592  -0.041  -3.854  0.00  0.00     0.087 C 
ATOM     42  O   LIG d   1       3.813   0.559  -4.893  0.00  0.00    -0.546 OA
ATOM     43  O   LIG d   1       2.479  -0.488  -3.633  0.00  0.00    -0.546 OA
ENDBRANCH  32  41
ENDBRANCH  31  32
ENDBRANCH   2  31
TORSDOF 11
ENDMDL
MODEL 2
REMARK VINA RESULT:      -6.0      2.628      6.144
REMARK  11 active torsions:
REMARK  status: ('A' for Active; 'I' for Inactive)
REMARK    1  A    between atoms: C_1  and  C_2 
REMARK    2  A    between atoms: C_4  and  N_13 
REMARK    3  A    between atoms: N_8  and  S_9 
REMARK       I    between atoms: N_13  and  C_14 
REMARK    4  A    between atoms: C_14  and  C_16 
REMARK    5  A    between atoms: C_16  and  C_25 
REMARK    6  A    between atoms: N_17  and  O_18 
REMARK    7  A    between atoms: O_18  and  C_19 
REMARK    8  A    between atoms: C_19  and  C_20 
REMARK    9  A    between atoms: C_19  and  C_21 
REMARK   10  A    between atoms: C_19  and  C_22 
REMARK   11  A    between atoms: C_28  and  N_30 
ROOT
ATOM      1  C   LIG d   1       5.032  -0.335  -6.337  0.00  0.00     0.190 C 
ATOM      2  N   LIG d   1       4.429  -0.767  -5.265  0.00  0.00    -0.077 NA
ENDROOT
BRANCH   1   3
ATOM      3  C   LIG d   1       6.484  -0.042  -6.303  0.00  0.00     0.268 C 
ATOM      4  N   LIG d   1       6.936   1.055  -5.664  0.00  0.00    -0.297 N 
ATOM      5  H   LIG d   1       6.307   1.695  -5.294  0.00  0.00     0.150 HD
ATOM      6  O   LIG d   1       7.268  -0.792  -6.850  0.00  0.00    -0.268 OA
BRANCH   4   7
ATOM      7  C   LIG d   1       8.377   1.283  -5.530  0.00  0.00     0.121 A 
ATOM      8  C   LIG d   1       8.965   2.235  -6.573  0.00  0.00     0.072 A 
ATOM      9  H   LIG d   1       8.227   2.585  -7.295  0.00  0.00     0.054 H 
ATOM     10  N   LIG d   1       9.257   3.218  -5.530  0.00  0.00    -0.179 N 
ATOM     11  C   LIG d   1       8.745   2.402  -4.592  0.00  0.00     0.256 A 
ATOM     12  O   LIG d   1       8.622   2.525  -3.391  0.00  0.00    -0.272 OA
ATOM     13  H   LIG d   1       8.949   0.368  -5.384  0.00  0.00     0.061 H 
BRANCH   8  14
ATOM     14  C   LIG d   1      10.223   1.683  -7.245  0.00  0.00    -0.043 C 
ATOM     15  H   LIG d   1      11.084   2.289  -6.959  0.00  0.00     0.025 H 
ATOM     16  H   LIG d   1      10.383   0.653  -6.926  0.00  0.00     0.025 H 
ATOM     17  H   LIG d   1      10.101   1.713  -8.327  0.00  0.00     0.025 H 
ENDBRANCH   8  14
BRANCH  10  18
ATOM     18  S   LIG d   1       9.941   4.727  -5.510  0.00  0.00     0.003 S 
ATOM     19  O   LIG d   1      11.307   4.565  -5.036  0.00  0.00    -0.166 OA
ATOM     20  O   LIG d   1       9.895   5.230  -6.874  0.00  0.00    -0.166 OA
ATOM     21  O   LIG d   1       9.144   5.539  -4.603  0.00  0.00    -0.708 OA
ENDBRANCH  10  18
ENDBRANCH   4   7
ENDBRANCH   1   3
BRANCH   1  22
ATOM     22  C   LIG d   1       4.268  -0.136  -7.587  0.00  0.00     0.107 A 
ATOM     23  N   LIG d   1       4.314   1.031  -8.227  0.00  0.00    -0.223 NA
ATOM     24  C   LIG d   1       3.641   1.223  -9.347  0.00  0.00     0.156 A 
ATOM     25  S   LIG d   1       2.837  -0.359  -9.558  0.00  0.00    -0.060 SA
ATOM     26  C   LIG d   1       3.499  -1.148  -8.097  0.00  0.00     0.007 A 
ATOM     27  H   LIG d   1       3.336  -2.147  -7.721  0.00  0.00     0.072 H 
BRANCH  24  28
ATOM     28  N   LIG d   1       3.573   2.353 -10.145  0.00  0.00    -0.338 N 
ATOM     29  H   LIG d   1       3.613   2.269 -11.110  0.00  0.00     0.144 HD
ATOM     30  H   LIG d   1       3.485   3.228  -9.737  0.00  0.00     0.144 HD
ENDBRANCH  24  28
ENDBRANCH   1  22
BRANCH   2  31
ATOM     31  O   LIG d   1       5.135  -0.852  -4.042  0.00  0.00    -0.381 OA
BRANCH  31  32
ATOM     32  C   LIG d   1       4.377  -0.436  -2.904  0.00  0.00     0.172 C 
BRANCH  32  33
ATOM     33  C   LIG d   1       2.923  -0.201  -3.317  0.00  0.00    -0.017 C 
ATOM     34  H   LIG d   1       2.860  -0.135  -4.404  0.00  0.00     0.027 H 
ATOM     35  H   LIG d   1       2.307  -1.029  -2.967  0.00  0.00     0.027 H 
ATOM     36  H   LIG d   1       2.566   0.730  -2.875  0.00  0.00     0.027 H 
ENDBRANCH  32  33
BRANCH  32  37
ATOM     37  C   LIG d   1       4.432  -1.524  -1.829  0.00  0.00    -0.017 C 
ATOM     38  H   LIG d   1       4.797  -1.096  -0.897  0.00  0.00     0.027 H 
ATOM     39  H   LIG d   1       3.434  -1.935  -1.676  0.00  0.00     0.027 H 
ATOM     40  H   LIG d   1       5.106  -2.319  -2.152  0.00  0.00     0.027 H 
ENDBRANCH  32  37
BRANCH  32  41
ATOM     41  C   LIG d   1       4.957   0.842  -2.354  0.00  0.00     0.087 C 
ATOM     42  O   LIG d   1       5.600   1.582  -3.079  0.00  0.00    -0.546 OA
ATOM     43  O   LIG d   1       4.782   1.137  -1.183  0.00  0.00    -0.546 OA
ENDBRANCH  32  41
ENDBRANCH  31  32
ENDBRANCH   2  31
TORSDOF 11
ENDMDL
MODEL 3
REMARK VINA RESULT:      -5.9      5.010      8.247
REMARK  11 active torsions:
REMARK  status: ('A' for Active; 'I' for Inactive)
REMARK    1  A    between atoms: C_1  and  C_2 
REMARK    2  A    between atoms: C_4  and  N_13 
REMARK    3  A    between atoms: N_8  and  S_9 
REMARK       I    between atoms: N_13  and  C_14 
REMARK    4  A    between atoms: C_14  and  C_16 
REMARK    5  A    between atoms: C_16  and  C_25 
REMARK    6  A    between atoms: N_17  and  O_18 
REMARK    7  A    between atoms: O_18  and  C_19 
REMARK    8  A    between atoms: C_19  and  C_20 
REMARK    9  A    between atoms: C_19  and  C_21 
REMARK   10  A    between atoms: C_19  and  C_22 
REMARK   11  A    between atoms: C_28  and  N_30 
ROOT
ATOM      1  C   LIG d   1       4.248  -5.002  -6.656  0.00  0.00     0.190 C 
ATOM      2  N   LIG d   1       4.049  -6.288  -6.582  0.00  0.00    -0.077 NA
ENDROOT
BRANCH   1   3
ATOM      3  C   LIG d   1       4.945  -4.296  -5.556  0.00  0.00     0.268 C 
ATOM      4  N   LIG d   1       4.299  -3.350  -4.846  0.00  0.00    -0.297 N 
ATOM      5  H   LIG d   1       3.405  -3.076  -5.104  0.00  0.00     0.150 HD
ATOM      6  O   LIG d   1       6.099  -4.570  -5.294  0.00  0.00    -0.268 OA
BRANCH   4   7
ATOM      7  C   LIG d   1       4.948  -2.735  -3.685  0.00  0.00     0.121 A 
ATOM      8  C   LIG d   1       5.834  -1.534  -4.020  0.00  0.00     0.072 A 
ATOM      9  H   LIG d   1       5.882  -1.325  -5.088  0.00  0.00     0.054 H 
ATOM     10  N   LIG d   1       4.919  -0.644  -3.304  0.00  0.00    -0.179 N 
ATOM     11  C   LIG d   1       4.122  -1.682  -2.996  0.00  0.00     0.256 A 
ATOM     12  O   LIG d   1       3.084  -1.748  -2.370  0.00  0.00    -0.272 OA
ATOM     13  H   LIG d   1       5.408  -3.458  -3.011  0.00  0.00     0.061 H 
BRANCH   8  14
ATOM     14  C   LIG d   1       7.219  -1.613  -3.376  0.00  0.00    -0.043 C 
ATOM     15  H   LIG d   1       7.597  -2.632  -3.451  0.00  0.00     0.025 H 
ATOM     16  H   LIG d   1       7.898  -0.934  -3.892  0.00  0.00     0.025 H 
ATOM     17  H   LIG d   1       7.149  -1.327  -2.327  0.00  0.00     0.025 H 
ENDBRANCH   8  14
BRANCH  10  18
ATOM     18  S   LIG d   1       4.880   0.983  -2.996  0.00  0.00     0.003 S 
ATOM     19  O   LIG d   1       6.066   1.559  -3.610  0.00  0.00    -0.166 OA
ATOM     20  O   LIG d   1       3.656   1.498  -3.591  0.00  0.00    -0.166 OA
ATOM     21  O   LIG d   1       4.887   1.138  -1.549  0.00  0.00    -0.708 OA
ENDBRANCH  10  18
ENDBRANCH   4   7
ENDBRANCH   1   3
BRANCH   1  22
ATOM     22  C   LIG d   1       3.778  -4.247  -7.837  0.00  0.00     0.107 A 
ATOM     23  N   LIG d   1       3.886  -2.920  -7.876  0.00  0.00    -0.223 NA
ATOM     24  C   LIG d   1       3.475  -2.233  -8.925  0.00  0.00     0.156 A 
ATOM     25  S   LIG d   1       2.855  -3.531  -9.986  0.00  0.00    -0.060 SA
ATOM     26  C   LIG d   1       3.219  -4.904  -8.901  0.00  0.00     0.007 A 
ATOM     27  H   LIG d   1       3.047  -5.960  -9.046  0.00  0.00     0.072 H 
BRANCH  24  28
ATOM     28  N   LIG d   1       3.511  -0.866  -9.145  0.00  0.00    -0.338 N 
ATOM     29  H   LIG d   1       3.292  -0.252  -8.426  0.00  0.00     0.144 HD
ATOM     30  H   LIG d   1       3.756  -0.522 -10.019  0.00  0.00     0.144 HD
ENDBRANCH  24  28
ENDBRANCH   1  22
BRANCH   2  31
ATOM     31  O   LIG d   1       4.399  -6.992  -5.405  0.00  0.00    -0.381 OA
BRANCH  31  32
ATOM     32  C   LIG d   1       5.095  -8.217  -5.646  0.00  0.00     0.172 C 
BRANCH  32  33
ATOM     33  C   LIG d   1       4.596  -8.838  -6.951  0.00  0.00    -0.017 C 
ATOM     34  H   LIG d   1       3.508  -8.908  -6.929  0.00  0.00     0.027 H 
ATOM     35  H   LIG d   1       4.902  -8.215  -7.792  0.00  0.00     0.027 H 
ATOM     36  H   LIG d   1       5.022  -9.836  -7.065  0.00  0.00     0.027 H 
ENDBRANCH  32  33
BRANCH  32  37
ATOM     37  C   LIG d   1       6.596  -7.938  -5.754  0.00  0.00    -0.017 C 
ATOM     38  H   LIG d   1       6.814  -6.957  -5.336  0.00  0.00     0.027 H 
ATOM     39  H   LIG d   1       7.147  -8.700  -5.202  0.00  0.00     0.027 H 
ATOM     40  H   LIG d   1       6.895  -7.962  -6.802  0.00  0.00     0.027 H 
ENDBRANCH  32  37
BRANCH  32  41
ATOM     41  C   LIG d   1       4.842  -9.171  -4.506  0.00  0.00     0.087 C 
ATOM     42  O   LIG d   1       3.716  -9.594  -4.304  0.00  0.00    -0.546 OA
ATOM     43  O   LIG d   1       5.763  -9.519  -3.787  0.00  0.00    -0.546 OA
ENDBRANCH  32  41
ENDBRANCH  31  32
ENDBRANCH   2  31
TORSDOF 11
ENDMDL
MODEL 4
REMARK VINA RESULT:      -5.8      3.408      4.104
REMARK  11 active torsions:
REMARK  status: ('A' for Active; 'I' for Inactive)
REMARK    1  A    between atoms: C_1  and  C_2 
REMARK    2  A    between atoms: C_4  and  N_13 
REMARK    3  A    between atoms: N_8  and  S_9 
REMARK       I    between atoms: N_13  and  C_14 
REMARK    4  A    between atoms: C_14  and  C_16 
REMARK    5  A    between atoms: C_16  and  C_25 
REMARK    6  A    between atoms: N_17  and  O_18 
REMARK    7  A    between atoms: O_18  and  C_19 
REMARK    8  A    between atoms: C_19  and  C_20 
REMARK    9  A    between atoms: C_19  and  C_21 
REMARK   10  A    between atoms: C_19  and  C_22 
REMARK   11  A    between atoms: C_28  and  N_30 
ROOT
ATOM      1  C   LIG d   1       7.406   0.422  -4.164  0.00  0.00     0.190 C 
ATOM      2  N   LIG d   1       6.394   0.521  -3.349  0.00  0.00    -0.077 NA
ENDROOT
BRANCH   1   3
ATOM      3  C   LIG d   1       7.715  -0.877  -4.806  0.00  0.00     0.268 C 
ATOM      4  N   LIG d   1       6.733  -1.590  -5.393  0.00  0.00    -0.297 N 
ATOM      5  H   LIG d   1       5.812  -1.292  -5.328  0.00  0.00     0.150 HD
ATOM      6  O   LIG d   1       8.855  -1.300  -4.804  0.00  0.00    -0.268 OA
BRANCH   4   7
ATOM      7  C   LIG d   1       7.056  -2.815  -6.128  0.00  0.00     0.121 A 
ATOM      8  C   LIG d   1       6.818  -4.105  -5.340  0.00  0.00     0.072 A 
ATOM      9  H   LIG d   1       6.470  -3.925  -4.324  0.00  0.00     0.054 H 
ATOM     10  N   LIG d   1       5.740  -4.480  -6.257  0.00  0.00    -0.179 N 
ATOM     11  C   LIG d   1       5.928  -3.354  -6.967  0.00  0.00     0.256 A 
ATOM     12  O   LIG d   1       5.374  -2.917  -7.954  0.00  0.00    -0.272 OA
ATOM     13  H   LIG d   1       8.017  -2.773  -6.640  0.00  0.00     0.061 H 
BRANCH   8  14
ATOM     14  C   LIG d   1       8.007  -5.065  -5.390  0.00  0.00    -0.043 C 
ATOM     15  H   LIG d   1       8.770  -4.737  -4.683  0.00  0.00     0.025 H 
ATOM     16  H   LIG d   1       7.675  -6.069  -5.125  0.00  0.00     0.025 H 
ATOM     17  H   LIG d   1       8.426  -5.075  -6.396  0.00  0.00     0.025 H 
ENDBRANCH   8  14
BRANCH  10  18
ATOM     18  S   LIG d   1       4.708  -5.770  -6.374  0.00  0.00     0.003 S 
ATOM     19  O   LIG d   1       5.072  -6.701  -5.318  0.00  0.00    -0.166 OA
ATOM     20  O   LIG d   1       3.360  -5.250  -6.200  0.00  0.00    -0.166 OA
ATOM     21  O   LIG d   1       4.901  -6.345  -7.697  0.00  0.00    -0.708 OA
ENDBRANCH  10  18
ENDBRANCH   4   7
ENDBRANCH   1   3
BRANCH   1  22
ATOM     22  C   LIG d   1       8.247   1.605  -4.448  0.00  0.00     0.107 A 
ATOM     23  N   LIG d   1       8.734   2.341  -3.451  0.00  0.00    -0.223 NA
ATOM     24  C   LIG d   1       9.490   3.397  -3.688  0.00  0.00     0.156 A 
ATOM     25  S   LIG d   1       9.542   3.408  -5.475  0.00  0.00    -0.060 SA
ATOM     26  C   LIG d   1       8.529   1.959  -5.740  0.00  0.00     0.007 A 
ATOM     27  H   LIG d   1       8.223   1.493  -6.665  0.00  0.00     0.072 H 
BRANCH  24  28
ATOM     28  N   LIG d   1      10.082   4.269  -2.790  0.00  0.00    -0.338 N 
ATOM     29  H   LIG d   1      10.661   3.927  -2.091  0.00  0.00     0.144 HD
ATOM     30  H   LIG d   1       9.918   5.223  -2.862  0.00  0.00     0.144 HD
ENDBRANCH  24  28
ENDBRANCH   1  22
BRANCH   2  31
ATOM     31  O   LIG d   1       5.658  -0.633  -2.991  0.00  0.00    -0.381 OA
BRANCH  31  32
ATOM     32  C   LIG d   1       4.245  -0.425  -2.931  0.00  0.00     0.172 C 
BRANCH  32  33
ATOM     33  C   LIG d   1       3.562  -1.701  -2.436  0.00  0.00    -0.017 C 
ATOM     34  H   LIG d   1       2.754  -1.969  -3.117  0.00  0.00     0.027 H 
ATOM     35  H   LIG d   1       4.290  -2.512  -2.399  0.00  0.00     0.027 H 
ATOM     36  H   LIG d   1       3.155  -1.532  -1.438  0.00  0.00     0.027 H 
ENDBRANCH  32  33
BRANCH  32  37
ATOM     37  C   LIG d   1       3.940   0.724  -1.968  0.00  0.00    -0.017 C 
ATOM     38  H   LIG d   1       4.873   1.157  -1.611  0.00  0.00     0.027 H 
ATOM     39  H   LIG d   1       3.359   1.487  -2.486  0.00  0.00     0.027 H 
ATOM     40  H   LIG d   1       3.367   0.345  -1.121  0.00  0.00     0.027 H 
ENDBRANCH  32  37
BRANCH  32  41
ATOM     41  C   LIG d   1       3.729  -0.079  -4.304  0.00  0.00     0.087 C 
ATOM     42  O   LIG d   1       3.134   0.970  -4.486  0.00  0.00    -0.546 OA
ATOM     43  O   LIG d   1       3.907  -0.848  -5.234  0.00  0.00    -0.546 OA
ENDBRANCH  32  41
ENDBRANCH  31  32
ENDBRANCH   2  31
TORSDOF 11
ENDMDL
MODEL 5
REMARK VINA RESULT:      -5.8      3.570      7.931
REMARK  11 active torsions:
REMARK  status: ('A' for Active; 'I' for Inactive)
REMARK    1  A    between atoms: C_1  and  C_2 
REMARK    2  A    between atoms: C_4  and  N_13 
REMARK    3  A    between atoms: N_8  and  S_9 
REMARK       I    between atoms: N_13  and  C_14 
REMARK    4  A    between atoms: C_14  and  C_16 
REMARK    5  A    between atoms: C_16  and  C_25 
REMARK    6  A    between atoms: N_17  and  O_18 
REMARK    7  A    between atoms: O_18  and  C_19 
REMARK    8  A    between atoms: C_19  and  C_20 
REMARK    9  A    between atoms: C_19  and  C_21 
REMARK   10  A    between atoms: C_19  and  C_22 
REMARK   11  A    between atoms: C_28  and  N_30 
ROOT
ATOM      1  C   LIG d   1       4.513  -2.463  -8.740  0.00  0.00     0.190 C 
ATOM      2  N   LIG d   1       4.649  -1.395  -9.474  0.00  0.00    -0.077 NA
ENDROOT
BRANCH   1   3
ATOM      3  C   LIG d   1       4.914  -2.438  -7.314  0.00  0.00     0.268 C 
ATOM      4  N   LIG d   1       4.170  -1.763  -6.416  0.00  0.00    -0.297 N 
ATOM      5  H   LIG d   1       3.416  -1.229  -6.713  0.00  0.00     0.150 HD
ATOM      6  O   LIG d   1       5.915  -3.027  -6.955  0.00  0.00    -0.268 OA
BRANCH   4   7
ATOM      7  C   LIG d   1       4.501  -1.833  -4.990  0.00  0.00     0.121 A 
ATOM      8  C   LIG d   1       5.643  -0.910  -4.561  0.00  0.00     0.072 A 
ATOM      9  H   LIG d   1       6.073  -0.351  -5.391  0.00  0.00     0.054 H 
ATOM     10  N   LIG d   1       4.714  -0.116  -3.756  0.00  0.00    -0.179 N 
ATOM     11  C   LIG d   1       3.692  -0.911  -4.117  0.00  0.00     0.256 A 
ATOM     12  O   LIG d   1       2.512  -0.892  -3.835  0.00  0.00    -0.272 OA
ATOM     13  H   LIG d   1       4.581  -2.853  -4.614  0.00  0.00     0.061 H 
BRANCH   8  14
ATOM     14  C   LIG d   1       6.705  -1.623  -3.722  0.00  0.00    -0.043 C 
ATOM     15  H   LIG d   1       7.595  -1.790  -4.328  0.00  0.00     0.025 H 
ATOM     16  H   LIG d   1       6.962  -1.005  -2.861  0.00  0.00     0.025 H 
ATOM     17  H   LIG d   1       6.315  -2.580  -3.378  0.00  0.00     0.025 H 
ENDBRANCH   8  14
BRANCH  10  18
ATOM     18  S   LIG d   1       4.861   1.221  -2.788  0.00  0.00     0.003 S 
ATOM     19  O   LIG d   1       3.840   2.165  -3.213  0.00  0.00    -0.166 OA
ATOM     20  O   LIG d   1       4.655   0.776  -1.419  0.00  0.00    -0.166 OA
ATOM     21  O   LIG d   1       6.204   1.743  -2.993  0.00  0.00    -0.708 OA
ENDBRANCH  10  18
ENDBRANCH   4   7
ENDBRANCH   1   3
BRANCH   1  22
ATOM     22  C   LIG d   1       3.958  -3.701  -9.329  0.00  0.00     0.107 A 
ATOM     23  N   LIG d   1       2.641  -3.873  -9.421  0.00  0.00    -0.223 NA
ATOM     24  C   LIG d   1       2.130  -4.969  -9.949  0.00  0.00     0.156 A 
ATOM     25  S   LIG d   1       3.606  -5.890 -10.362  0.00  0.00    -0.060 SA
ATOM     26  C   LIG d   1       4.794  -4.687  -9.782  0.00  0.00     0.007 A 
ATOM     27  H   LIG d   1       5.873  -4.728  -9.786  0.00  0.00     0.072 H 
BRANCH  24  28
ATOM     28  N   LIG d   1       0.802  -5.318 -10.131  0.00  0.00    -0.338 N 
ATOM     29  H   LIG d   1       0.164  -5.190  -9.412  0.00  0.00     0.144 HD
ATOM     30  H   LIG d   1       0.511  -5.689 -10.979  0.00  0.00     0.144 HD
ENDBRANCH  24  28
ENDBRANCH   1  22
BRANCH   2  31
ATOM     31  O   LIG d   1       5.281  -0.246  -8.942  0.00  0.00    -0.381 OA
BRANCH  31  32
ATOM     32  C   LIG d   1       4.658   0.985  -9.315  0.00  0.00     0.172 C 
BRANCH  32  33
ATOM     33  C   LIG d   1       5.635   2.140  -9.091  0.00  0.00    -0.017 C 
ATOM     34  H   LIG d   1       5.529   2.868  -9.895  0.00  0.00     0.027 H 
ATOM     35  H   LIG d   1       5.418   2.619  -8.135  0.00  0.00     0.027 H 
ATOM     36  H   LIG d   1       6.656   1.756  -9.081  0.00  0.00     0.027 H 
ENDBRANCH  32  33
BRANCH  32  37
ATOM     37  C   LIG d   1       4.264   0.929 -10.793  0.00  0.00    -0.017 C 
ATOM     38  H   LIG d   1       4.711   0.050 -11.255  0.00  0.00     0.027 H 
ATOM     39  H   LIG d   1       3.179   0.873 -10.877  0.00  0.00     0.027 H 
ATOM     40  H   LIG d   1       4.621   1.826 -11.298  0.00  0.00     0.027 H 
ENDBRANCH  32  37
BRANCH  32  41
ATOM     41  C   LIG d   1       3.425   1.199  -8.475  0.00  0.00     0.087 C 
ATOM     42  O   LIG d   1       2.391   1.585  -8.996  0.00  0.00    -0.546 OA
ATOM     43  O   LIG d   1       3.460   0.987  -7.275  0.00  0.00    -0.546 OA
ENDBRANCH  32  41
ENDBRANCH  31  32
ENDBRANCH   2  31
TORSDOF 11
ENDMDL
MODEL 6
REMARK VINA RESULT:      -5.6      2.929      6.556
REMARK  11 active torsions:
REMARK  status: ('A' for Active; 'I' for Inactive)
REMARK    1  A    between atoms: C_1  and  C_2 
REMARK    2  A    between atoms: C_4  and  N_13 
REMARK    3  A    between atoms: N_8  and  S_9 
REMARK       I    between atoms: N_13  and  C_14 
REMARK    4  A    between atoms: C_14  and  C_16 
REMARK    5  A    between atoms: C_16  and  C_25 
REMARK    6  A    between atoms: N_17  and  O_18 
REMARK    7  A    between atoms: O_18  and  C_19 
REMARK    8  A    between atoms: C_19  and  C_20 
REMARK    9  A    between atoms: C_19  and  C_21 
REMARK   10  A    between atoms: C_19  and  C_22 
REMARK   11  A    between atoms: C_28  and  N_30 
ROOT
ATOM      1  C   LIG d   1       4.411  -0.717  -6.551  0.00  0.00     0.190 C 
ATOM      2  N   LIG d   1       3.691  -0.334  -5.535  0.00  0.00    -0.077 NA
ENDROOT
BRANCH   1   3
ATOM      3  C   LIG d   1       5.889  -0.621  -6.489  0.00  0.00     0.268 C 
ATOM      4  N   LIG d   1       6.495   0.570  -6.665  0.00  0.00    -0.297 N 
ATOM      5  H   LIG d   1       5.971   1.349  -6.909  0.00  0.00     0.150 HD
ATOM      6  O   LIG d   1       6.554  -1.616  -6.279  0.00  0.00    -0.268 OA
BRANCH   4   7
ATOM      7  C   LIG d   1       7.945   0.687  -6.489  0.00  0.00     0.121 A 
ATOM      8  C   LIG d   1       8.505   2.079  -6.788  0.00  0.00     0.072 A 
ATOM      9  H   LIG d   1       7.744   2.782  -7.125  0.00  0.00     0.054 H 
ATOM     10  N   LIG d   1       8.862   2.252  -5.379  0.00  0.00    -0.179 N 
ATOM     11  C   LIG d   1       8.375   1.032  -5.088  0.00  0.00     0.256 A 
ATOM     12  O   LIG d   1       8.307   0.416  -4.046  0.00  0.00    -0.272 OA
ATOM     13  H   LIG d   1       8.504  -0.130  -6.943  0.00  0.00     0.061 H 
BRANCH   8  14
ATOM     14  C   LIG d   1       9.722   2.047  -7.714  0.00  0.00    -0.043 C 
ATOM     15  H   LIG d   1       9.565   2.734  -8.546  0.00  0.00     0.025 H 
ATOM     16  H   LIG d   1      10.610   2.348  -7.158  0.00  0.00     0.025 H 
ATOM     17  H   LIG d   1       9.860   1.037  -8.099  0.00  0.00     0.025 H 
ENDBRANCH   8  14
BRANCH  10  18
ATOM     18  S   LIG d   1       9.576   3.459  -4.499  0.00  0.00     0.003 S 
ATOM     19  O   LIG d   1      11.014   3.280  -4.624  0.00  0.00    -0.166 OA
ATOM     20  O   LIG d   1       9.134   4.720  -5.072  0.00  0.00    -0.166 OA
ATOM     21  O   LIG d   1       9.127   3.300  -3.124  0.00  0.00    -0.708 OA
ENDBRANCH  10  18
ENDBRANCH   4   7
ENDBRANCH   1   3
BRANCH   1  22
ATOM     22  C   LIG d   1       3.756  -1.249  -7.765  0.00  0.00     0.107 A 
ATOM     23  N   LIG d   1       2.679  -0.648  -8.267  0.00  0.00    -0.223 NA
ATOM     24  C   LIG d   1       2.085  -1.106  -9.353  0.00  0.00     0.156 A 
ATOM     25  S   LIG d   1       3.094  -2.531  -9.740  0.00  0.00    -0.060 SA
ATOM     26  C   LIG d   1       4.245  -2.368  -8.382  0.00  0.00     0.007 A 
ATOM     27  H   LIG d   1       5.093  -2.984  -8.122  0.00  0.00     0.072 H 
BRANCH  24  28
ATOM     28  N   LIG d   1       0.973  -0.617 -10.016  0.00  0.00    -0.338 N 
ATOM     29  H   LIG d   1       1.074  -0.173 -10.873  0.00  0.00     0.144 HD
ATOM     30  H   LIG d   1       0.091  -0.718  -9.623  0.00  0.00     0.144 HD
ENDBRANCH  24  28
ENDBRANCH   1  22
BRANCH   2  31
ATOM     31  O   LIG d   1       4.310   0.277  -4.418  0.00  0.00    -0.381 OA
BRANCH  31  32
ATOM     32  C   LIG d   1       3.973  -0.325  -3.166  0.00  0.00     0.172 C 
BRANCH  32  33
ATOM     33  C   LIG d   1       4.405   0.595  -2.024  0.00  0.00    -0.017 C 
ATOM     34  H   LIG d   1       3.555   0.788  -1.370  0.00  0.00     0.027 H 
ATOM     35  H   LIG d   1       5.202   0.117  -1.453  0.00  0.00     0.027 H 
ATOM     36  H   LIG d   1       4.768   1.538  -2.435  0.00  0.00     0.027 H 
ENDBRANCH  32  33
BRANCH  32  37
ATOM     37  C   LIG d   1       2.460  -0.548  -3.098  0.00  0.00    -0.017 C 
ATOM     38  H   LIG d   1       2.207  -1.475  -3.610  0.00  0.00     0.027 H 
ATOM     39  H   LIG d   1       2.149  -0.609  -2.056  0.00  0.00     0.027 H 
ATOM     40  H   LIG d   1       1.949   0.285  -3.581  0.00  0.00     0.027 H 
ENDBRANCH  32  37
BRANCH  32  41
ATOM     41  C   LIG d   1       4.681  -1.650  -3.039  0.00  0.00     0.087 C 
ATOM     42  O   LIG d   1       5.898  -1.686  -2.958  0.00  0.00    -0.546 OA
ATOM     43  O   LIG d   1       4.038  -2.686  -3.017  0.00  0.00    -0.546 OA
ENDBRANCH  32  41
ENDBRANCH  31  32
ENDBRANCH   2  31
TORSDOF 11
ENDMDL
MODEL 7
REMARK VINA RESULT:      -5.5      4.483      6.875
REMARK  11 active torsions:
REMARK  status: ('A' for Active; 'I' for Inactive)
REMARK    1  A    between atoms: C_1  and  C_2 
REMARK    2  A    between atoms: C_4  and  N_13 
REMARK    3  A    between atoms: N_8  and  S_9 
REMARK       I    between atoms: N_13  and  C_14 
REMARK    4  A    between atoms: C_14  and  C_16 
REMARK    5  A    between atoms: C_16  and  C_25 
REMARK    6  A    between atoms: N_17  and  O_18 
REMARK    7  A    between atoms: O_18  and  C_19 
REMARK    8  A    between atoms: C_19  and  C_20 
REMARK    9  A    between atoms: C_19  and  C_21 
REMARK   10  A    between atoms: C_19  and  C_22 
REMARK   11  A    between atoms: C_28  and  N_30 
ROOT
ATOM      1  C   LIG d   1       4.373  -0.727  -6.700  0.00  0.00     0.190 C 
ATOM      2  N   LIG d   1       4.057  -0.232  -5.537  0.00  0.00    -0.077 NA
ENDROOT
BRANCH   1   3
ATOM      3  C   LIG d   1       5.357  -1.831  -6.793  0.00  0.00     0.268 C 
ATOM      4  N   LIG d   1       4.958  -3.107  -6.620  0.00  0.00    -0.297 N 
ATOM      5  H   LIG d   1       4.044  -3.298  -6.358  0.00  0.00     0.150 HD
ATOM      6  O   LIG d   1       6.525  -1.586  -7.025  0.00  0.00    -0.268 OA
BRANCH   4   7
ATOM      7  C   LIG d   1       5.906  -4.205  -6.826  0.00  0.00     0.121 A 
ATOM      8  C   LIG d   1       5.935  -5.234  -5.695  0.00  0.00     0.072 A 
ATOM      9  H   LIG d   1       5.264  -4.984  -4.873  0.00  0.00     0.054 H 
ATOM     10  N   LIG d   1       5.387  -6.253  -6.591  0.00  0.00    -0.179 N 
ATOM     11  C   LIG d   1       5.350  -5.369  -7.603  0.00  0.00     0.256 A 
ATOM     12  O   LIG d   1       4.990  -5.474  -8.757  0.00  0.00    -0.272 OA
ATOM     13  H   LIG d   1       6.890  -3.873  -7.156  0.00  0.00     0.061 H 
BRANCH   8  14
ATOM     14  C   LIG d   1       7.351  -5.557  -5.215  0.00  0.00    -0.043 C 
ATOM     15  H   LIG d   1       7.329  -6.451  -4.591  0.00  0.00     0.025 H 
ATOM     16  H   LIG d   1       7.995  -5.731  -6.077  0.00  0.00     0.025 H 
ATOM     17  H   LIG d   1       7.739  -4.719  -4.636  0.00  0.00     0.025 H 
ENDBRANCH   8  14
BRANCH  10  18
ATOM     18  S   LIG d   1       4.979  -7.850  -6.427  0.00  0.00     0.003 S 
ATOM     19  O   LIG d   1       4.561  -8.041  -5.047  0.00  0.00    -0.166 OA
ATOM     20  O   LIG d   1       3.896  -8.108  -7.363  0.00  0.00    -0.166 OA
ATOM     21  O   LIG d   1       6.169  -8.624  -6.746  0.00  0.00    -0.708 OA
ENDBRANCH  10  18
ENDBRANCH   4   7
ENDBRANCH   1   3
BRANCH   1  22
ATOM     22  C   LIG d   1       3.750  -0.189  -7.928  0.00  0.00     0.107 A 
ATOM     23  N   LIG d   1       2.651  -0.751  -8.429  0.00  0.00    -0.223 NA
ATOM     24  C   LIG d   1       2.080  -0.278  -9.521  0.00  0.00     0.156 A 
ATOM     25  S   LIG d   1       3.163   1.084  -9.933  0.00  0.00    -0.060 SA
ATOM     26  C   LIG d   1       4.299   0.891  -8.567  0.00  0.00     0.007 A 
ATOM     27  H   LIG d   1       5.177   1.467  -8.316  0.00  0.00     0.072 H 
BRANCH  24  28
ATOM     28  N   LIG d   1       0.945  -0.723 -10.178  0.00  0.00    -0.338 N 
ATOM     29  H   LIG d   1       0.549  -0.185 -10.882  0.00  0.00     0.144 HD
ATOM     30  H   LIG d   1       0.546  -1.573  -9.934  0.00  0.00     0.144 HD
ENDBRANCH  24  28
ENDBRANCH   1  22
BRANCH   2  31
ATOM     31  O   LIG d   1       4.734  -0.671  -4.374  0.00  0.00    -0.381 OA
BRANCH  31  32
ATOM     32  C   LIG d   1       4.080  -0.316  -3.153  0.00  0.00     0.172 C 
BRANCH  32  33
ATOM     33  C   LIG d   1       2.568  -0.463  -3.323  0.00  0.00    -0.017 C 
ATOM     34  H   LIG d   1       2.059   0.040  -2.500  0.00  0.00     0.027 H 
ATOM     35  H   LIG d   1       2.262  -0.013  -4.268  0.00  0.00     0.027 H 
ATOM     36  H   LIG d   1       2.303  -1.521  -3.321  0.00  0.00     0.027 H 
ENDBRANCH  32  33
BRANCH  32  37
ATOM     37  C   LIG d   1       4.561  -1.239  -2.031  0.00  0.00    -0.017 C 
ATOM     38  H   LIG d   1       4.393  -2.276  -2.316  0.00  0.00     0.027 H 
ATOM     39  H   LIG d   1       5.625  -1.076  -1.857  0.00  0.00     0.027 H 
ATOM     40  H   LIG d   1       4.007  -1.018  -1.118  0.00  0.00     0.027 H 
ENDBRANCH  32  37
BRANCH  32  41
ATOM     41  C   LIG d   1       4.411   1.113  -2.803  0.00  0.00     0.087 C 
ATOM     42  O   LIG d   1       5.428   1.369  -2.181  0.00  0.00    -0.546 OA
ATOM     43  O   LIG d   1       3.661   2.013  -3.143  0.00  0.00    -0.546 OA
ENDBRANCH  32  41
ENDBRANCH  31  32
ENDBRANCH   2  31
TORSDOF 11
ENDMDL
MODEL 8
REMARK VINA RESULT:      -5.4      3.940      6.225
REMARK  11 active torsions:
REMARK  status: ('A' for Active; 'I' for Inactive)
REMARK    1  A    between atoms: C_1  and  C_2 
REMARK    2  A    between atoms: C_4  and  N_13 
REMARK    3  A    between atoms: N_8  and  S_9 
REMARK       I    between atoms: N_13  and  C_14 
REMARK    4  A    between atoms: C_14  and  C_16 
REMARK    5  A    between atoms: C_16  and  C_25 
REMARK    6  A    between atoms: N_17  and  O_18 
REMARK    7  A    between atoms: O_18  and  C_19 
REMARK    8  A    between atoms: C_19  and  C_20 
REMARK    9  A    between atoms: C_19  and  C_21 
REMARK   10  A    between atoms: C_19  and  C_22 
REMARK   11  A    between atoms: C_28  and  N_30 
ROOT
ATOM      1  C   LIG d   1       7.585  -2.003  -4.030  0.00  0.00     0.190 C 
ATOM      2  N   LIG d   1       6.524  -1.719  -3.328  0.00  0.00    -0.077 NA
ENDROOT
BRANCH   1   3
ATOM      3  C   LIG d   1       8.239  -0.951  -4.842  0.00  0.00     0.268 C 
ATOM      4  N   LIG d   1       8.875   0.071  -4.236  0.00  0.00    -0.297 N 
ATOM      5  H   LIG d   1       8.838   0.161  -3.270  0.00  0.00     0.150 HD
ATOM      6  O   LIG d   1       8.203  -1.010  -6.055  0.00  0.00    -0.268 OA
BRANCH   4   7
ATOM      7  C   LIG d   1       9.621   1.047  -5.034  0.00  0.00     0.121 A 
ATOM      8  C   LIG d   1       8.875   2.360  -5.283  0.00  0.00     0.072 A 
ATOM      9  H   LIG d   1       7.874   2.369  -4.855  0.00  0.00     0.054 H 
ATOM     10  N   LIG d   1       9.853   3.083  -4.469  0.00  0.00    -0.179 N 
ATOM     11  C   LIG d   1      10.527   1.944  -4.234  0.00  0.00     0.256 A 
ATOM     12  O   LIG d   1      11.531   1.715  -3.592  0.00  0.00    -0.272 OA
ATOM     13  H   LIG d   1      10.083   0.618  -5.923  0.00  0.00     0.061 H 
BRANCH   8  14
ATOM     14  C   LIG d   1       8.887   2.785  -6.752  0.00  0.00    -0.043 C 
ATOM     15  H   LIG d   1       8.662   1.925  -7.383  0.00  0.00     0.025 H 
ATOM     16  H   LIG d   1       8.136   3.559  -6.913  0.00  0.00     0.025 H 
ATOM     17  H   LIG d   1       9.871   3.176  -7.010  0.00  0.00     0.025 H 
ENDBRANCH   8  14
BRANCH  10  18
ATOM     18  S   LIG d   1      10.051   4.665  -4.021  0.00  0.00     0.003 S 
ATOM     19  O   LIG d   1       9.924   4.714  -2.573  0.00  0.00    -0.166 OA
ATOM     20  O   LIG d   1      11.377   5.068  -4.464  0.00  0.00    -0.166 OA
ATOM     21  O   LIG d   1       9.003   5.426  -4.684  0.00  0.00    -0.708 OA
ENDBRANCH  10  18
ENDBRANCH   4   7
ENDBRANCH   1   3
BRANCH   1  22
ATOM     22  C   LIG d   1       8.135  -3.375  -4.016  0.00  0.00     0.107 A 
ATOM     23  N   LIG d   1       9.072  -3.718  -3.134  0.00  0.00    -0.223 NA
ATOM     24  C   LIG d   1       9.570  -4.940  -3.106  0.00  0.00     0.156 A 
ATOM     25  S   LIG d   1       8.676  -5.723  -4.441  0.00  0.00    -0.060 SA
ATOM     26  C   LIG d   1       7.692  -4.308  -4.916  0.00  0.00     0.007 A 
ATOM     27  H   LIG d   1       6.952  -4.215  -5.697  0.00  0.00     0.072 H 
BRANCH  24  28
ATOM     28  N   LIG d   1      10.534  -5.474  -2.267  0.00  0.00    -0.338 N 
ATOM     29  H   LIG d   1      10.619  -5.149  -1.357  0.00  0.00     0.144 HD
ATOM     30  H   LIG d   1      11.123  -6.173  -2.590  0.00  0.00     0.144 HD
ENDBRANCH  24  28
ENDBRANCH   1  22
BRANCH   2  31
ATOM     31  O   LIG d   1       5.933  -0.437  -3.427  0.00  0.00    -0.381 OA
BRANCH  31  32
ATOM     32  C   LIG d   1       4.642  -0.344  -2.820  0.00  0.00     0.172 C 
BRANCH  32  33
ATOM     33  C   LIG d   1       4.342  -1.636  -2.060  0.00  0.00    -0.017 C 
ATOM     34  H   LIG d   1       3.267  -1.721  -1.897  0.00  0.00     0.027 H 
ATOM     35  H   LIG d   1       4.689  -2.490  -2.643  0.00  0.00     0.027 H 
ATOM     36  H   LIG d   1       4.855  -1.620  -1.098  0.00  0.00     0.027 H 
ENDBRANCH  32  33
BRANCH  32  37
ATOM     37  C   LIG d   1       4.620   0.838  -1.847  0.00  0.00    -0.017 C 
ATOM     38  H   LIG d   1       3.772   0.737  -1.172  0.00  0.00     0.027 H 
ATOM     39  H   LIG d   1       5.545   0.851  -1.271  0.00  0.00     0.027 H 
ATOM     40  H   LIG d   1       4.530   1.768  -2.409  0.00  0.00     0.027 H 
ENDBRANCH  32  37
BRANCH  32  41
ATOM     41  C   LIG d   1       3.599  -0.134  -3.887  0.00  0.00     0.087 C 
ATOM     42  O   LIG d   1       3.910   0.372  -4.953  0.00  0.00    -0.546 OA
ATOM     43  O   LIG d   1       2.444  -0.469  -3.686  0.00  0.00    -0.546 OA
ENDBRANCH  32  41
ENDBRANCH  31  32
ENDBRANCH   2  31
TORSDOF 11
ENDMDL
MODEL 9
REMARK VINA RESULT:      -5.4      3.508      4.393
REMARK  11 active torsions:
REMARK  status: ('A' for Active; 'I' for Inactive)
REMARK    1  A    between atoms: C_1  and  C_2 
REMARK    2  A    between atoms: C_4  and  N_13 
REMARK    3  A    between atoms: N_8  and  S_9 
REMARK       I    between atoms: N_13  and  C_14 
REMARK    4  A    between atoms: C_14  and  C_16 
REMARK    5  A    between atoms: C_16  and  C_25 
REMARK    6  A    between atoms: N_17  and  O_18 
REMARK    7  A    between atoms: O_18  and  C_19 
REMARK    8  A    between atoms: C_19  and  C_20 
REMARK    9  A    between atoms: C_19  and  C_21 
REMARK   10  A    between atoms: C_19  and  C_22 
REMARK   11  A    between atoms: C_28  and  N_30 
ROOT
ATOM      1  C   LIG d   1       7.097   0.505  -4.757  0.00  0.00     0.190 C 
ATOM      2  N   LIG d   1       6.070   0.847  -4.030  0.00  0.00    -0.077 NA
ENDROOT
BRANCH   1   3
ATOM      3  C   LIG d   1       6.930  -0.466  -5.863  0.00  0.00     0.268 C 
ATOM      4  N   LIG d   1       6.988  -1.789  -5.614  0.00  0.00    -0.297 N 
ATOM      5  H   LIG d   1       7.216  -2.106  -4.726  0.00  0.00     0.150 HD
ATOM      6  O   LIG d   1       6.740  -0.069  -6.996  0.00  0.00    -0.268 OA
BRANCH   4   7
ATOM      7  C   LIG d   1       6.708  -2.750  -6.684  0.00  0.00     0.121 A 
ATOM      8  C   LIG d   1       6.977  -4.208  -6.309  0.00  0.00     0.072 A 
ATOM      9  H   LIG d   1       7.373  -4.323  -5.301  0.00  0.00     0.054 H 
ATOM     10  N   LIG d   1       5.547  -4.507  -6.400  0.00  0.00    -0.179 N 
ATOM     11  C   LIG d   1       5.283  -3.231  -6.731  0.00  0.00     0.256 A 
ATOM     12  O   LIG d   1       4.243  -2.659  -6.983  0.00  0.00    -0.272 OA
ATOM     13  H   LIG d   1       7.114  -2.452  -7.651  0.00  0.00     0.061 H 
BRANCH   8  14
ATOM     14  C   LIG d   1       7.811  -4.951  -7.354  0.00  0.00    -0.043 C 
ATOM     15  H   LIG d   1       7.715  -4.452  -8.319  0.00  0.00     0.025 H 
ATOM     16  H   LIG d   1       8.858  -4.952  -7.049  0.00  0.00     0.025 H 
ATOM     17  H   LIG d   1       7.457  -5.978  -7.439  0.00  0.00     0.025 H 
ENDBRANCH   8  14
BRANCH  10  18
ATOM     18  S   LIG d   1       4.626  -5.867  -6.184  0.00  0.00     0.003 S 
ATOM     19  O   LIG d   1       3.752  -5.974  -7.342  0.00  0.00    -0.166 OA
ATOM     20  O   LIG d   1       5.546  -6.991  -6.092  0.00  0.00    -0.166 OA
ATOM     21  O   LIG d   1       3.876  -5.677  -4.952  0.00  0.00    -0.708 OA
ENDBRANCH  10  18
ENDBRANCH   4   7
ENDBRANCH   1   3
BRANCH   1  22
ATOM     22  C   LIG d   1       8.428   1.085  -4.477  0.00  0.00     0.107 A 
ATOM     23  N   LIG d   1       9.529   0.508  -4.956  0.00  0.00    -0.223 NA
ATOM     24  C   LIG d   1      10.724   1.017  -4.720  0.00  0.00     0.156 A 
ATOM     25  S   LIG d   1      10.317   2.440  -3.718  0.00  0.00    -0.060 SA
ATOM     26  C   LIG d   1       8.544   2.218  -3.717  0.00  0.00     0.007 A 
ATOM     27  H   LIG d   1       7.775   2.814  -3.247  0.00  0.00     0.072 H 
BRANCH  24  28
ATOM     28  N   LIG d   1      11.965   0.564  -5.135  0.00  0.00    -0.338 N 
ATOM     29  H   LIG d   1      12.446  -0.088  -4.603  0.00  0.00     0.144 HD
ATOM     30  H   LIG d   1      12.353   0.901  -5.958  0.00  0.00     0.144 HD
ENDBRANCH  24  28
ENDBRANCH   1  22
BRANCH   2  31
ATOM     31  O   LIG d   1       4.821   0.210  -4.225  0.00  0.00    -0.381 OA
BRANCH  31  32
ATOM     32  C   LIG d   1       4.223  -0.276  -3.021  0.00  0.00     0.172 C 
BRANCH  32  33
ATOM     33  C   LIG d   1       4.708   0.560  -1.837  0.00  0.00    -0.017 C 
ATOM     34  H   LIG d   1       3.914   0.634  -1.093  0.00  0.00     0.027 H 
ATOM     35  H   LIG d   1       5.582   0.085  -1.389  0.00  0.00     0.027 H 
ATOM     36  H   LIG d   1       4.975   1.560  -2.182  0.00  0.00     0.027 H 
ENDBRANCH  32  33
BRANCH  32  37
ATOM     37  C   LIG d   1       2.700  -0.172  -3.131  0.00  0.00    -0.017 C 
ATOM     38  H   LIG d   1       2.431   0.182  -4.125  0.00  0.00     0.027 H 
ATOM     39  H   LIG d   1       2.256  -1.152  -2.961  0.00  0.00     0.027 H 
ATOM     40  H   LIG d   1       2.330   0.529  -2.383  0.00  0.00     0.027 H 
ENDBRANCH  32  37
BRANCH  32  41
ATOM     41  C   LIG d   1       4.613  -1.717  -2.813  0.00  0.00     0.087 C 
ATOM     42  O   LIG d   1       5.782  -2.052  -2.907  0.00  0.00    -0.546 OA
ATOM     43  O   LIG d   1       3.760  -2.548  -2.549  0.00  0.00    -0.546 OA
ENDBRANCH  32  41
ENDBRANCH  31  32
ENDBRANCH   2  31
TORSDOF 11
ENDMDL
MODEL 10
REMARK VINA RESULT:      -5.4      3.884      6.599
REMARK  11 active torsions:
REMARK  status: ('A' for Active; 'I' for Inactive)
REMARK    1  A    between atoms: C_1  and  C_2 
REMARK    2  A    between atoms: C_4  and  N_13 
REMARK    3  A    between atoms: N_8  and  S_9 
REMARK       I    between atoms: N_13  and  C_14 
REMARK    4  A    between atoms: C_14  and  C_16 
REMARK    5  A    between atoms: C_16  and  C_25 
REMARK    6  A    between atoms: N_17  and  O_18 
REMARK    7  A    between atoms: O_18  and  C_19 
REMARK    8  A    between atoms: C_19  and  C_20 
REMARK    9  A    between atoms: C_19  and  C_21 
REMARK   10  A    between atoms: C_19  and  C_22 
REMARK   11  A    between atoms: C_28  and  N_30 
ROOT
ATOM      1  C   LIG d   1       7.068  -2.139  -4.371  0.00  0.00     0.190 C 
ATOM      2  N   LIG d   1       5.870  -2.041  -3.866  0.00  0.00    -0.077 NA
ENDROOT
BRANCH   1   3
ATOM      3  C   LIG d   1       7.669  -0.985  -5.080  0.00  0.00     0.268 C 
ATOM      4  N   LIG d   1       8.217   0.026  -4.378  0.00  0.00    -0.297 N 
ATOM      5  H   LIG d   1       8.149   0.038  -3.411  0.00  0.00     0.150 HD
ATOM      6  O   LIG d   1       7.669  -0.952  -6.295  0.00  0.00    -0.268 OA
BRANCH   4   7
ATOM      7  C   LIG d   1       8.914   1.109  -5.077  0.00  0.00     0.121 A 
ATOM      8  C   LIG d   1       9.446   2.212  -4.160  0.00  0.00     0.072 A 
ATOM      9  H   LIG d   1       9.199   2.049  -3.111  0.00  0.00     0.054 H 
ATOM     10  N   LIG d   1      10.822   1.838  -4.488  0.00  0.00    -0.179 N 
ATOM     11  C   LIG d   1      10.382   0.862  -5.301  0.00  0.00     0.256 A 
ATOM     12  O   LIG d   1      10.971   0.052  -5.986  0.00  0.00    -0.272 OA
ATOM     13  H   LIG d   1       8.381   1.473  -5.955  0.00  0.00     0.061 H 
BRANCH   8  14
ATOM     14  C   LIG d   1       9.077   3.617  -4.637  0.00  0.00    -0.043 C 
ATOM     15  H   LIG d   1       8.527   4.135  -3.851  0.00  0.00     0.025 H 
ATOM     16  H   LIG d   1       9.985   4.172  -4.870  0.00  0.00     0.025 H 
ATOM     17  H   LIG d   1       8.455   3.547  -5.529  0.00  0.00     0.025 H 
ENDBRANCH   8  14
BRANCH  10  18
ATOM     18  S   LIG d   1      12.318   2.394  -4.043  0.00  0.00     0.003 S 
ATOM     19  O   LIG d   1      13.029   1.271  -3.454  0.00  0.00    -0.166 OA
ATOM     20  O   LIG d   1      12.968   2.876  -5.252  0.00  0.00    -0.166 OA
ATOM     21  O   LIG d   1      12.100   3.464  -3.081  0.00  0.00    -0.708 OA
ENDBRANCH  10  18
ENDBRANCH   4   7
ENDBRANCH   1   3
BRANCH   1  22
ATOM     22  C   LIG d   1       7.826  -3.401  -4.237  0.00  0.00     0.107 A 
ATOM     23  N   LIG d   1       8.802  -3.510  -3.337  0.00  0.00    -0.223 NA
ATOM     24  C   LIG d   1       9.485  -4.631  -3.202  0.00  0.00     0.156 A 
ATOM     25  S   LIG d   1       8.730  -5.664  -4.450  0.00  0.00    -0.060 SA
ATOM     26  C   LIG d   1       7.539  -4.471  -5.043  0.00  0.00     0.007 A 
ATOM     27  H   LIG d   1       6.797  -4.567  -5.822  0.00  0.00     0.072 H 
BRANCH  24  28
ATOM     28  N   LIG d   1      10.517  -4.928  -2.327  0.00  0.00    -0.338 N 
ATOM     29  H   LIG d   1      11.238  -5.513  -2.607  0.00  0.00     0.144 HD
ATOM     30  H   LIG d   1      10.518  -4.549  -1.434  0.00  0.00     0.144 HD
ENDBRANCH  24  28
ENDBRANCH   1  22
BRANCH   2  31
ATOM     31  O   LIG d   1       5.101  -0.874  -4.089  0.00  0.00    -0.381 OA
BRANCH  31  32
ATOM     32  C   LIG d   1       4.394  -0.415  -2.935  0.00  0.00     0.172 C 
BRANCH  32  33
ATOM     33  C   LIG d   1       2.953  -0.079  -3.321  0.00  0.00    -0.017 C 
ATOM     34  H   LIG d   1       2.280  -0.828  -2.902  0.00  0.00     0.027 H 
ATOM     35  H   LIG d   1       2.691   0.904  -2.929  0.00  0.00     0.027 H 
ATOM     36  H   LIG d   1       2.859  -0.074  -4.408  0.00  0.00     0.027 H 
ENDBRANCH  32  33
BRANCH  32  37
ATOM     37  C   LIG d   1       4.395  -1.512  -1.868  0.00  0.00    -0.017 C 
ATOM     38  H   LIG d   1       4.624  -2.470  -2.331  0.00  0.00     0.027 H 
ATOM     39  H   LIG d   1       5.146  -1.283  -1.112  0.00  0.00     0.027 H 
ATOM     40  H   LIG d   1       3.412  -1.562  -1.398  0.00  0.00     0.027 H 
ENDBRANCH  32  37
BRANCH  32  41
ATOM     41  C   LIG d   1       5.068   0.817  -2.389  0.00  0.00     0.087 C 
ATOM     42  O   LIG d   1       4.811   1.204  -1.261  0.00  0.00    -0.546 OA
ATOM     43  O   LIG d   1       5.872   1.427  -3.074  0.00  0.00    -0.546 OA
ENDBRANCH  32  41
ENDBRANCH  31  32
ENDBRANCH   2  31
TORSDOF 11
ENDMDL
