MODEL 1
REMARK VINA RESULT:      -6.5      0.000      0.000
REMARK  9 active torsions:
REMARK  status: ('A' for Active; 'I' for Inactive)
REMARK    1  A    between atoms: C_1  and  N_55 
REMARK    2  A    between atoms: C_2  and  N_55 
REMARK    3  A    between atoms: C_3  and  C_4 
REMARK    4  A    between atoms: C_3  and  N_55 
REMARK       I    between atoms: C_4  and  N_6 
REMARK    5  A    between atoms: N_6  and  C_7 
REMARK       I    between atoms: N_21  and  C_23 
REMARK    6  A    between atoms: C_23  and  C_25 
REMARK    7  A    between atoms: C_25  and  C_26 
REMARK    8  A    between atoms: C_26  and  O_27 
REMARK    9  A    between atoms: O_27  and  C_28 
ROOT
ATOM      1  C   LIG d   1       4.254  -0.770  -7.267  0.00  0.00     0.099 A 
ATOM      2  C   LIG d   1       5.051  -1.869  -7.086  0.00  0.00    -0.034 A 
ATOM      3  C   LIG d   1       5.237  -2.361  -5.791  0.00  0.00    -0.040 A 
ATOM      4  C   LIG d   1       4.612  -1.781  -4.732  0.00  0.00     0.027 A 
ATOM      5  N   LIG d   1       3.758  -0.746  -4.918  0.00  0.00    -0.310 N 
ATOM      6  C   LIG d   1       3.636  -0.183  -6.145  0.00  0.00     0.273 A 
ATOM      7  O   LIG d   1       2.981   0.838  -6.281  0.00  0.00    -0.266 OA
ATOM      8  C   LIG d   1       2.912  -0.204  -3.855  0.00  0.00     0.031 C 
ATOM      9  C   LIG d   1       3.415  -0.569  -2.470  0.00  0.00    -0.006 C 
ATOM     10  H   LIG d   1       2.612  -0.377  -1.757  0.00  0.00     0.033 H 
ATOM     11  C   LIG d   1       3.751  -2.059  -2.415  0.00  0.00    -0.037 C 
ATOM     12  C   LIG d   1       4.927  -2.325  -3.357  0.00  0.00     0.016 C 
ATOM     13  H   LIG d   1       5.128  -3.395  -3.414  0.00  0.00     0.038 H 
ATOM     14  C   LIG d   1       6.155  -1.566  -2.824  0.00  0.00     0.023 C 
ATOM     15  N   LIG d   1       5.805  -0.138  -2.823  0.00  0.00    -0.300 N 
ATOM     16  C   LIG d   1       4.615   0.278  -2.070  0.00  0.00     0.019 C 
ATOM     17  C   LIG d   1       6.562   0.768  -3.471  0.00  0.00     0.218 C 
ATOM     18  O   LIG d   1       6.264   1.943  -3.436  0.00  0.00    -0.276 OA
ATOM     19  H   LIG d   1       5.528  -2.346  -7.930  0.00  0.00     0.064 H 
ATOM     20  H   LIG d   1       5.884  -3.211  -5.630  0.00  0.00     0.064 H 
ATOM     21  H   LIG d   1       1.901  -0.591  -3.976  0.00  0.00     0.050 H 
ATOM     22  H   LIG d   1       2.885   0.882  -3.944  0.00  0.00     0.050 H 
ATOM     23  H   LIG d   1       2.886  -2.642  -2.733  0.00  0.00     0.028 H 
ATOM     24  H   LIG d   1       4.026  -2.337  -1.397  0.00  0.00     0.028 H 
ATOM     25  H   LIG d   1       6.397  -1.911  -1.819  0.00  0.00     0.047 H 
ATOM     26  H   LIG d   1       7.006  -1.726  -3.486  0.00  0.00     0.047 H 
ATOM     27  H   LIG d   1       4.403   1.326  -2.281  0.00  0.00     0.047 H 
ATOM     28  H   LIG d   1       4.802   0.158  -1.003  0.00  0.00     0.047 H 
ENDROOT
BRANCH   1  29
ATOM     29  N   LIG d   1       4.060  -0.235  -8.547  0.00  0.00    -0.277 N 
ATOM     30  C   LIG d   1       3.139  -0.773  -9.371  0.00  0.00     0.263 C 
ATOM     31  O   LIG d   1       2.542  -1.776  -9.040  0.00  0.00    -0.270 OA
ATOM     32  H   LIG d   1       4.588   0.524  -8.842  0.00  0.00     0.155 HD
BRANCH  30  33
ATOM     33  C   LIG d   1       2.850  -0.131 -10.702  0.00  0.00     0.046 C 
ATOM     34  H   LIG d   1       1.777   0.040 -10.798  0.00  0.00     0.091 H 
ATOM     35  H   LIG d   1       3.375   0.822 -10.768  0.00  0.00     0.091 H 
BRANCH  33  36
ATOM     36  N   LIG d   1       3.331  -1.022 -11.778  0.00  0.00     0.237 N 
ATOM     37  H   LIG d   1       3.795  -1.834 -11.355  0.00  0.00     0.203 HD
BRANCH  36  38
ATOM     38  C   LIG d   1       2.189  -1.493 -12.591  0.00  0.00    -0.043 C 
ATOM     39  H   LIG d   1       2.526  -1.806 -13.579  0.00  0.00     0.078 H 
ATOM     40  H   LIG d   1       1.718  -2.337 -12.085  0.00  0.00     0.078 H 
ATOM     41  H   LIG d   1       1.468  -0.682 -12.692  0.00  0.00     0.078 H 
ENDBRANCH  36  38
BRANCH  36  42
ATOM     42  C   LIG d   1       4.298  -0.305 -12.635  0.00  0.00    -0.043 C 
ATOM     43  H   LIG d   1       4.536   0.654 -12.173  0.00  0.00     0.078 H 
ATOM     44  H   LIG d   1       5.207  -0.902 -12.719  0.00  0.00     0.078 H 
ATOM     45  H   LIG d   1       3.880  -0.137 -13.626  0.00  0.00     0.078 H 
ENDBRANCH  36  42
ENDBRANCH  33  36
ENDBRANCH  30  33
ENDBRANCH   1  29
BRANCH  17  46
ATOM     46  C   LIG d   1       7.779   0.323  -4.238  0.00  0.00     0.048 C 
ATOM     47  H   LIG d   1       8.650   0.341  -3.583  0.00  0.00     0.038 H 
ATOM     48  H   LIG d   1       7.624  -0.692  -4.608  0.00  0.00     0.038 H 
BRANCH  46  49
ATOM     49  C   LIG d   1       8.011   1.266  -5.421  0.00  0.00     0.056 C 
ATOM     50  H   LIG d   1       7.955   2.298  -5.078  0.00  0.00     0.056 H 
ATOM     51  H   LIG d   1       8.995   1.076  -5.849  0.00  0.00     0.056 H 
BRANCH  49  52
ATOM     52  O   LIG d   1       7.009   1.039  -6.415  0.00  0.00    -0.383 OA
BRANCH  52  53
ATOM     53  C   LIG d   1       7.417   1.381  -7.740  0.00  0.00     0.036 C 
ATOM     54  H   LIG d   1       8.066   0.599  -8.134  0.00  0.00     0.052 H 
ATOM     55  H   LIG d   1       6.539   1.479  -8.378  0.00  0.00     0.052 H 
ATOM     56  H   LIG d   1       7.958   2.328  -7.720  0.00  0.00     0.052 H 
ENDBRANCH  52  53
ENDBRANCH  49  52
ENDBRANCH  46  49
ENDBRANCH  17  46
TORSDOF 9
ENDMDL
MODEL 2
REMARK VINA RESULT:      -5.0      2.171      3.836
REMARK  9 active torsions:
REMARK  status: ('A' for Active; 'I' for Inactive)
REMARK    1  A    between atoms: C_1  and  N_55 
REMARK    2  A    between atoms: C_2  and  N_55 
REMARK    3  A    between atoms: C_3  and  C_4 
REMARK    4  A    between atoms: C_3  and  N_55 
REMARK       I    between atoms: C_4  and  N_6 
REMARK    5  A    between atoms: N_6  and  C_7 
REMARK       I    between atoms: N_21  and  C_23 
REMARK    6  A    between atoms: C_23  and  C_25 
REMARK    7  A    between atoms: C_25  and  C_26 
REMARK    8  A    between atoms: C_26  and  O_27 
REMARK    9  A    between atoms: O_27  and  C_28 
ROOT
ATOM      1  C   LIG d   1       4.326  -0.264  -7.708  0.00  0.00     0.099 A 
ATOM      2  C   LIG d   1       3.227  -0.257  -6.892  0.00  0.00    -0.034 A 
ATOM      3  C   LIG d   1       3.417  -0.214  -5.507  0.00  0.00    -0.040 A 
ATOM      4  C   LIG d   1       4.668  -0.146  -4.980  0.00  0.00     0.027 A 
ATOM      5  N   LIG d   1       5.753  -0.070  -5.787  0.00  0.00    -0.310 N 
ATOM      6  C   LIG d   1       5.608  -0.212  -7.128  0.00  0.00     0.273 A 
ATOM      7  O   LIG d   1       6.597  -0.290  -7.839  0.00  0.00    -0.266 OA
ATOM      8  C   LIG d   1       7.103   0.196  -5.292  0.00  0.00     0.031 C 
ATOM      9  C   LIG d   1       7.246  -0.096  -3.809  0.00  0.00    -0.006 C 
ATOM     10  H   LIG d   1       8.166   0.373  -3.460  0.00  0.00     0.033 H 
ATOM     11  C   LIG d   1       6.077   0.524  -3.043  0.00  0.00    -0.037 C 
ATOM     12  C   LIG d   1       4.788  -0.181  -3.473  0.00  0.00     0.016 C 
ATOM     13  H   LIG d   1       3.926   0.304  -3.016  0.00  0.00     0.038 H 
ATOM     14  C   LIG d   1       4.877  -1.655  -3.045  0.00  0.00     0.023 C 
ATOM     15  N   LIG d   1       6.038  -2.231  -3.739  0.00  0.00    -0.300 N 
ATOM     16  C   LIG d   1       7.345  -1.590  -3.542  0.00  0.00     0.019 C 
ATOM     17  C   LIG d   1       5.918  -3.326  -4.515  0.00  0.00     0.218 C 
ATOM     18  O   LIG d   1       6.895  -3.794  -5.059  0.00  0.00    -0.276 OA
ATOM     19  H   LIG d   1       2.231  -0.286  -7.310  0.00  0.00     0.064 H 
ATOM     20  H   LIG d   1       2.560  -0.233  -4.850  0.00  0.00     0.064 H 
ATOM     21  H   LIG d   1       7.344   1.244  -5.470  0.00  0.00     0.050 H 
ATOM     22  H   LIG d   1       7.809  -0.424  -5.843  0.00  0.00     0.050 H 
ATOM     23  H   LIG d   1       6.009   1.587  -3.274  0.00  0.00     0.028 H 
ATOM     24  H   LIG d   1       6.228   0.390  -1.971  0.00  0.00     0.028 H 
ATOM     25  H   LIG d   1       4.995  -1.721  -1.963  0.00  0.00     0.047 H 
ATOM     26  H   LIG d   1       3.976  -2.186  -3.353  0.00  0.00     0.047 H 
ATOM     27  H   LIG d   1       8.070  -2.032  -4.225  0.00  0.00     0.047 H 
ATOM     28  H   LIG d   1       7.675  -1.753  -2.516  0.00  0.00     0.047 H 
ENDROOT
BRANCH   1  29
ATOM     29  N   LIG d   1       4.177  -0.329  -9.100  0.00  0.00    -0.277 N 
ATOM     30  C   LIG d   1       4.110   0.805  -9.825  0.00  0.00     0.263 C 
ATOM     31  O   LIG d   1       4.086   1.882  -9.265  0.00  0.00    -0.270 OA
ATOM     32  H   LIG d   1       4.122  -1.190  -9.543  0.00  0.00     0.155 HD
BRANCH  30  33
ATOM     33  C   LIG d   1       4.064   0.739 -11.329  0.00  0.00     0.046 C 
ATOM     34  H   LIG d   1       3.095   1.095 -11.679  0.00  0.00     0.091 H 
ATOM     35  H   LIG d   1       4.852   1.366 -11.745  0.00  0.00     0.091 H 
BRANCH  33  36
ATOM     36  N   LIG d   1       4.286  -0.659 -11.752  0.00  0.00     0.237 N 
ATOM     37  H   LIG d   1       4.309  -1.260 -10.920  0.00  0.00     0.203 HD
BRANCH  36  38
ATOM     38  C   LIG d   1       3.181  -1.102 -12.631  0.00  0.00    -0.043 C 
ATOM     39  H   LIG d   1       2.222  -0.767 -12.236  0.00  0.00     0.078 H 
ATOM     40  H   LIG d   1       3.330  -0.682 -13.626  0.00  0.00     0.078 H 
ATOM     41  H   LIG d   1       3.190  -2.190 -12.689  0.00  0.00     0.078 H 
ENDBRANCH  36  38
BRANCH  36  42
ATOM     42  C   LIG d   1       5.574  -0.774 -12.466  0.00  0.00    -0.043 C 
ATOM     43  H   LIG d   1       5.394  -1.193 -13.457  0.00  0.00     0.078 H 
ATOM     44  H   LIG d   1       6.013   0.219 -12.566  0.00  0.00     0.078 H 
ATOM     45  H   LIG d   1       6.259  -1.420 -11.918  0.00  0.00     0.078 H 
ENDBRANCH  36  42
ENDBRANCH  33  36
ENDBRANCH  30  33
ENDBRANCH   1  29
BRANCH  17  46
ATOM     46  C   LIG d   1       4.569  -3.969  -4.706  0.00  0.00     0.048 C 
ATOM     47  H   LIG d   1       4.538  -4.916  -4.167  0.00  0.00     0.038 H 
ATOM     48  H   LIG d   1       3.793  -3.306  -4.322  0.00  0.00     0.038 H 
BRANCH  46  49
ATOM     49  C   LIG d   1       4.330  -4.222  -6.196  0.00  0.00     0.056 C 
ATOM     50  H   LIG d   1       3.761  -3.395  -6.618  0.00  0.00     0.056 H 
ATOM     51  H   LIG d   1       5.289  -4.303  -6.708  0.00  0.00     0.056 H 
BRANCH  49  52
ATOM     52  O   LIG d   1       3.598  -5.438  -6.362  0.00  0.00    -0.383 OA
BRANCH  52  53
ATOM     53  C   LIG d   1       4.371  -6.512  -6.902  0.00  0.00     0.036 C 
ATOM     54  H   LIG d   1       4.824  -6.197  -7.841  0.00  0.00     0.052 H 
ATOM     55  H   LIG d   1       5.153  -6.788  -6.196  0.00  0.00     0.052 H 
ATOM     56  H   LIG d   1       3.723  -7.371  -7.080  0.00  0.00     0.052 H 
ENDBRANCH  52  53
ENDBRANCH  49  52
ENDBRANCH  46  49
ENDBRANCH  17  46
TORSDOF 9
ENDMDL
MODEL 3
REMARK VINA RESULT:      -5.0      2.566      6.626
REMARK  9 active torsions:
REMARK  status: ('A' for Active; 'I' for Inactive)
REMARK    1  A    between atoms: C_1  and  N_55 
REMARK    2  A    between atoms: C_2  and  N_55 
REMARK    3  A    between atoms: C_3  and  C_4 
REMARK    4  A    between atoms: C_3  and  N_55 
REMARK       I    between atoms: C_4  and  N_6 
REMARK    5  A    between atoms: N_6  and  C_7 
REMARK       I    between atoms: N_21  and  C_23 
REMARK    6  A    between atoms: C_23  and  C_25 
REMARK    7  A    between atoms: C_25  and  C_26 
REMARK    8  A    between atoms: C_26  and  O_27 
REMARK    9  A    between atoms: O_27  and  C_28 
ROOT
ATOM      1  C   LIG d   1       8.459   0.443  -5.442  0.00  0.00     0.099 A 
ATOM      2  C   LIG d   1       8.533  -0.798  -4.869  0.00  0.00    -0.034 A 
ATOM      3  C   LIG d   1       7.713  -1.817  -5.363  0.00  0.00    -0.040 A 
ATOM      4  C   LIG d   1       6.882  -1.591  -6.415  0.00  0.00     0.027 A 
ATOM      5  N   LIG d   1       6.867  -0.387  -7.035  0.00  0.00    -0.310 N 
ATOM      6  C   LIG d   1       7.573   0.648  -6.517  0.00  0.00     0.273 A 
ATOM      7  O   LIG d   1       7.445   1.766  -6.990  0.00  0.00    -0.266 OA
ATOM      8  C   LIG d   1       6.144  -0.136  -8.281  0.00  0.00     0.031 C 
ATOM      9  C   LIG d   1       5.060  -1.168  -8.541  0.00  0.00    -0.006 C 
ATOM     10  H   LIG d   1       4.759  -1.085  -9.586  0.00  0.00     0.033 H 
ATOM     11  C   LIG d   1       5.617  -2.574  -8.318  0.00  0.00    -0.037 C 
ATOM     12  C   LIG d   1       5.973  -2.723  -6.837  0.00  0.00     0.016 C 
ATOM     13  H   LIG d   1       6.463  -3.682  -6.664  0.00  0.00     0.038 H 
ATOM     14  C   LIG d   1       4.678  -2.616  -6.014  0.00  0.00     0.023 C 
ATOM     15  N   LIG d   1       4.116  -1.283  -6.279  0.00  0.00    -0.300 N 
ATOM     16  C   LIG d   1       3.834  -0.920  -7.674  0.00  0.00     0.019 C 
ATOM     17  C   LIG d   1       3.842  -0.427  -5.276  0.00  0.00     0.218 C 
ATOM     18  O   LIG d   1       3.357   0.658  -5.519  0.00  0.00    -0.276 OA
ATOM     19  H   LIG d   1       9.211  -0.986  -4.050  0.00  0.00     0.064 H 
ATOM     20  H   LIG d   1       7.742  -2.795  -4.905  0.00  0.00     0.064 H 
ATOM     21  H   LIG d   1       6.851  -0.152  -9.110  0.00  0.00     0.050 H 
ATOM     22  H   LIG d   1       5.685   0.851  -8.231  0.00  0.00     0.050 H 
ATOM     23  H   LIG d   1       6.510  -2.716  -8.927  0.00  0.00     0.028 H 
ATOM     24  H   LIG d   1       4.865  -3.314  -8.591  0.00  0.00     0.028 H 
ATOM     25  H   LIG d   1       3.983  -3.400  -6.312  0.00  0.00     0.047 H 
ATOM     26  H   LIG d   1       4.905  -2.704  -4.952  0.00  0.00     0.047 H 
ATOM     27  H   LIG d   1       3.564   0.135  -7.725  0.00  0.00     0.047 H 
ATOM     28  H   LIG d   1       3.003  -1.521  -8.043  0.00  0.00     0.047 H 
ENDROOT
BRANCH   1  29
ATOM     29  N   LIG d   1       9.250   1.496  -4.960  0.00  0.00    -0.277 N 
ATOM     30  C   LIG d   1       8.834   2.224  -3.905  0.00  0.00     0.263 C 
ATOM     31  O   LIG d   1       7.735   2.029  -3.429  0.00  0.00    -0.270 OA
ATOM     32  H   LIG d   1      10.097   1.701  -5.387  0.00  0.00     0.155 HD
BRANCH  30  33
ATOM     33  C   LIG d   1       9.732   3.280  -3.317  0.00  0.00     0.046 C 
ATOM     34  H   LIG d   1       9.162   3.895  -2.619  0.00  0.00     0.091 H 
ATOM     35  H   LIG d   1      10.556   2.803  -2.788  0.00  0.00     0.091 H 
BRANCH  33  36
ATOM     36  N   LIG d   1      10.277   4.110  -4.412  0.00  0.00     0.237 N 
ATOM     37  H   LIG d   1      10.343   3.537  -5.262  0.00  0.00     0.203 HD
BRANCH  36  38
ATOM     38  C   LIG d   1       9.377   5.254  -4.673  0.00  0.00    -0.043 C 
ATOM     39  H   LIG d   1       8.594   5.305  -3.917  0.00  0.00     0.078 H 
ATOM     40  H   LIG d   1       9.961   6.175  -4.654  0.00  0.00     0.078 H 
ATOM     41  H   LIG d   1       8.926   5.131  -5.657  0.00  0.00     0.078 H 
ENDBRANCH  36  38
BRANCH  36  42
ATOM     42  C   LIG d   1      11.625   4.598  -4.054  0.00  0.00    -0.043 C 
ATOM     43  H   LIG d   1      11.535   5.593  -3.617  0.00  0.00     0.078 H 
ATOM     44  H   LIG d   1      12.065   3.919  -3.323  0.00  0.00     0.078 H 
ATOM     45  H   LIG d   1      12.261   4.645  -4.937  0.00  0.00     0.078 H 
ENDBRANCH  36  42
ENDBRANCH  33  36
ENDBRANCH  30  33
ENDBRANCH   1  29
BRANCH  17  46
ATOM     46  C   LIG d   1       4.138  -0.817  -3.851  0.00  0.00     0.048 C 
ATOM     47  H   LIG d   1       4.346  -1.885  -3.802  0.00  0.00     0.038 H 
ATOM     48  H   LIG d   1       5.005  -0.260  -3.494  0.00  0.00     0.038 H 
BRANCH  46  49
ATOM     49  C   LIG d   1       2.928  -0.493  -2.972  0.00  0.00     0.056 C 
ATOM     50  H   LIG d   1       2.055  -0.325  -3.602  0.00  0.00     0.056 H 
ATOM     51  H   LIG d   1       2.735  -1.328  -2.298  0.00  0.00     0.056 H 
BRANCH  49  52
ATOM     52  O   LIG d   1       3.197   0.684  -2.207  0.00  0.00    -0.383 OA
BRANCH  52  53
ATOM     53  C   LIG d   1       4.555   0.801  -1.779  0.00  0.00     0.036 C 
ATOM     54  H   LIG d   1       4.939   1.784  -2.050  0.00  0.00     0.052 H 
ATOM     55  H   LIG d   1       4.608   0.676  -0.698  0.00  0.00     0.052 H 
ATOM     56  H   LIG d   1       5.156   0.030  -2.263  0.00  0.00     0.052 H 
ENDBRANCH  52  53
ENDBRANCH  49  52
ENDBRANCH  46  49
ENDBRANCH  17  46
TORSDOF 9
ENDMDL
MODEL 4
REMARK VINA RESULT:      -5.0      3.011      7.059
REMARK  9 active torsions:
REMARK  status: ('A' for Active; 'I' for Inactive)
REMARK    1  A    between atoms: C_1  and  N_55 
REMARK    2  A    between atoms: C_2  and  N_55 
REMARK    3  A    between atoms: C_3  and  C_4 
REMARK    4  A    between atoms: C_3  and  N_55 
REMARK       I    between atoms: C_4  and  N_6 
REMARK    5  A    between atoms: N_6  and  C_7 
REMARK       I    between atoms: N_21  and  C_23 
REMARK    6  A    between atoms: C_23  and  C_25 
REMARK    7  A    between atoms: C_25  and  C_26 
REMARK    8  A    between atoms: C_26  and  O_27 
REMARK    9  A    between atoms: O_27  and  C_28 
ROOT
ATOM      1  C   LIG d   1       7.648   1.408  -4.434  0.00  0.00     0.099 A 
ATOM      2  C   LIG d   1       6.754   1.091  -3.447  0.00  0.00    -0.034 A 
ATOM      3  C   LIG d   1       6.285  -0.223  -3.359  0.00  0.00    -0.040 A 
ATOM      4  C   LIG d   1       6.734  -1.179  -4.216  0.00  0.00     0.027 A 
ATOM      5  N   LIG d   1       7.680  -0.886  -5.140  0.00  0.00    -0.310 N 
ATOM      6  C   LIG d   1       8.078   0.398  -5.316  0.00  0.00     0.273 A 
ATOM      7  O   LIG d   1       8.820   0.680  -6.243  0.00  0.00    -0.266 OA
ATOM      8  C   LIG d   1       8.342  -1.902  -5.958  0.00  0.00     0.031 C 
ATOM      9  C   LIG d   1       7.555  -3.199  -6.022  0.00  0.00    -0.006 C 
ATOM     10  H   LIG d   1       8.216  -3.977  -6.404  0.00  0.00     0.033 H 
ATOM     11  C   LIG d   1       7.108  -3.605  -4.618  0.00  0.00    -0.037 C 
ATOM     12  C   LIG d   1       6.119  -2.555  -4.103  0.00  0.00     0.016 C 
ATOM     13  H   LIG d   1       5.856  -2.765  -3.066  0.00  0.00     0.038 H 
ATOM     14  C   LIG d   1       4.870  -2.585  -5.000  0.00  0.00     0.023 C 
ATOM     15  N   LIG d   1       5.317  -2.252  -6.361  0.00  0.00    -0.300 N 
ATOM     16  C   LIG d   1       6.365  -3.085  -6.964  0.00  0.00     0.019 C 
ATOM     17  C   LIG d   1       4.768  -1.232  -7.048  0.00  0.00     0.218 C 
ATOM     18  O   LIG d   1       5.137  -0.992  -8.177  0.00  0.00    -0.276 OA
ATOM     19  H   LIG d   1       6.415   1.844  -2.750  0.00  0.00     0.064 H 
ATOM     20  H   LIG d   1       5.559  -0.482  -2.602  0.00  0.00     0.064 H 
ATOM     21  H   LIG d   1       9.326  -2.107  -5.540  0.00  0.00     0.050 H 
ATOM     22  H   LIG d   1       8.465  -1.515  -6.969  0.00  0.00     0.050 H 
ATOM     23  H   LIG d   1       7.972  -3.651  -3.956  0.00  0.00     0.028 H 
ATOM     24  H   LIG d   1       6.621  -4.580  -4.655  0.00  0.00     0.028 H 
ATOM     25  H   LIG d   1       4.414  -3.575  -4.969  0.00  0.00     0.047 H 
ATOM     26  H   LIG d   1       4.154  -1.835  -4.664  0.00  0.00     0.047 H 
ATOM     27  H   LIG d   1       6.690  -2.633  -7.902  0.00  0.00     0.047 H 
ATOM     28  H   LIG d   1       5.967  -4.079  -7.165  0.00  0.00     0.047 H 
ENDROOT
BRANCH   1  29
ATOM     29  N   LIG d   1       8.125   2.719  -4.567  0.00  0.00    -0.277 N 
ATOM     30  C   LIG d   1       9.235   3.104  -3.908  0.00  0.00     0.263 C 
ATOM     31  O   LIG d   1       9.771   2.344  -3.128  0.00  0.00    -0.270 OA
ATOM     32  H   LIG d   1       7.656   3.351  -5.135  0.00  0.00     0.155 HD
BRANCH  30  33
ATOM     33  C   LIG d   1       9.812   4.476  -4.138  0.00  0.00     0.046 C 
ATOM     34  H   LIG d   1      10.628   4.411  -4.858  0.00  0.00     0.091 H 
ATOM     35  H   LIG d   1       9.037   5.136  -4.528  0.00  0.00     0.091 H 
BRANCH  33  36
ATOM     36  N   LIG d   1      10.300   5.012  -2.850  0.00  0.00     0.237 N 
ATOM     37  H   LIG d   1      10.079   4.341  -2.105  0.00  0.00     0.203 HD
BRANCH  36  38
ATOM     38  C   LIG d   1      11.766   5.201  -2.905  0.00  0.00    -0.043 C 
ATOM     39  H   LIG d   1      12.123   5.682  -1.994  0.00  0.00     0.078 H 
ATOM     40  H   LIG d   1      12.244   4.227  -3.012  0.00  0.00     0.078 H 
ATOM     41  H   LIG d   1      12.010   5.823  -3.765  0.00  0.00     0.078 H 
ENDBRANCH  36  38
BRANCH  36  42
ATOM     42  C   LIG d   1       9.636   6.298  -2.553  0.00  0.00    -0.043 C 
ATOM     43  H   LIG d   1       9.623   6.448  -1.473  0.00  0.00     0.078 H 
ATOM     44  H   LIG d   1      10.199   7.105  -3.024  0.00  0.00     0.078 H 
ATOM     45  H   LIG d   1       8.615   6.298  -2.932  0.00  0.00     0.078 H 
ENDBRANCH  36  42
ENDBRANCH  33  36
ENDBRANCH  30  33
ENDBRANCH   1  29
BRANCH  17  46
ATOM     46  C   LIG d   1       3.692  -0.389  -6.413  0.00  0.00     0.048 C 
ATOM     47  H   LIG d   1       3.080  -1.011  -5.761  0.00  0.00     0.038 H 
ATOM     48  H   LIG d   1       4.153   0.407  -5.827  0.00  0.00     0.038 H 
BRANCH  46  49
ATOM     49  C   LIG d   1       2.814   0.226  -7.504  0.00  0.00     0.056 C 
ATOM     50  H   LIG d   1       3.081  -0.203  -8.470  0.00  0.00     0.056 H 
ATOM     51  H   LIG d   1       1.766   0.015  -7.289  0.00  0.00     0.056 H 
BRANCH  49  52
ATOM     52  O   LIG d   1       3.016   1.640  -7.538  0.00  0.00    -0.383 OA
BRANCH  52  53
ATOM     53  C   LIG d   1       3.288   2.157  -8.843  0.00  0.00     0.036 C 
ATOM     54  H   LIG d   1       4.281   1.842  -9.159  0.00  0.00     0.052 H 
ATOM     55  H   LIG d   1       2.545   1.779  -9.545  0.00  0.00     0.052 H 
ATOM     56  H   LIG d   1       3.242   3.247  -8.818  0.00  0.00     0.052 H 
ENDBRANCH  52  53
ENDBRANCH  49  52
ENDBRANCH  46  49
ENDBRANCH  17  46
TORSDOF 9
ENDMDL
MODEL 5
REMARK VINA RESULT:      -4.8      2.626      6.580
REMARK  9 active torsions:
REMARK  status: ('A' for Active; 'I' for Inactive)
REMARK    1  A    between atoms: C_1  and  N_55 
REMARK    2  A    between atoms: C_2  and  N_55 
REMARK    3  A    between atoms: C_3  and  C_4 
REMARK    4  A    between atoms: C_3  and  N_55 
REMARK       I    between atoms: C_4  and  N_6 
REMARK    5  A    between atoms: N_6  and  C_7 
REMARK       I    between atoms: N_21  and  C_23 
REMARK    6  A    between atoms: C_23  and  C_25 
REMARK    7  A    between atoms: C_25  and  C_26 
REMARK    8  A    between atoms: C_26  and  O_27 
REMARK    9  A    between atoms: O_27  and  C_28 
ROOT
ATOM      1  C   LIG d   1       7.583   0.879  -8.120  0.00  0.00     0.099 A 
ATOM      2  C   LIG d   1       7.589  -0.451  -7.796  0.00  0.00    -0.034 A 
ATOM      3  C   LIG d   1       6.548  -1.262  -8.258  0.00  0.00    -0.040 A 
ATOM      4  C   LIG d   1       5.564  -0.748  -9.043  0.00  0.00     0.027 A 
ATOM      5  N   LIG d   1       5.600   0.549  -9.432  0.00  0.00    -0.310 N 
ATOM      6  C   LIG d   1       6.538   1.382  -8.919  0.00  0.00     0.273 A 
ATOM      7  O   LIG d   1       6.481   2.578  -9.156  0.00  0.00    -0.266 OA
ATOM      8  C   LIG d   1       4.685   1.114 -10.424  0.00  0.00     0.031 C 
ATOM      9  C   LIG d   1       3.434   0.273 -10.604  0.00  0.00    -0.006 C 
ATOM     10  H   LIG d   1       2.944   0.590 -11.525  0.00  0.00     0.033 H 
ATOM     11  C   LIG d   1       3.814  -1.200 -10.752  0.00  0.00    -0.037 C 
ATOM     12  C   LIG d   1       4.435  -1.673  -9.435  0.00  0.00     0.016 C 
ATOM     13  H   LIG d   1       4.805  -2.693  -9.541  0.00  0.00     0.038 H 
ATOM     14  C   LIG d   1       3.361  -1.593  -8.337  0.00  0.00     0.023 C 
ATOM     15  N   LIG d   1       2.956  -0.183  -8.241  0.00  0.00    -0.300 N 
ATOM     16  C   LIG d   1       2.456   0.474  -9.455  0.00  0.00     0.019 C 
ATOM     17  C   LIG d   1       3.017   0.485  -7.072  0.00  0.00     0.218 C 
ATOM     18  O   LIG d   1       2.656   1.641  -7.014  0.00  0.00    -0.276 OA
ATOM     19  H   LIG d   1       8.384  -0.867  -7.194  0.00  0.00     0.064 H 
ATOM     20  H   LIG d   1       6.526  -2.308  -7.989  0.00  0.00     0.064 H 
ATOM     21  H   LIG d   1       5.202   1.186 -11.380  0.00  0.00     0.050 H 
ATOM     22  H   LIG d   1       4.394   2.115 -10.106  0.00  0.00     0.050 H 
ATOM     23  H   LIG d   1       4.537  -1.314 -11.560  0.00  0.00     0.028 H 
ATOM     24  H   LIG d   1       2.923  -1.789 -10.970  0.00  0.00     0.028 H 
ATOM     25  H   LIG d   1       2.513  -2.226  -8.599  0.00  0.00     0.047 H 
ATOM     26  H   LIG d   1       3.781  -1.911  -7.383  0.00  0.00     0.047 H 
ATOM     27  H   LIG d   1       2.337   1.541  -9.265  0.00  0.00     0.047 H 
ATOM     28  H   LIG d   1       1.490   0.048  -9.725  0.00  0.00     0.047 H 
ENDROOT
BRANCH   1  29
ATOM     29  N   LIG d   1       8.598   1.728  -7.658  0.00  0.00    -0.277 N 
ATOM     30  C   LIG d   1       8.594   2.150  -6.378  0.00  0.00     0.263 C 
ATOM     31  O   LIG d   1       7.664   1.870  -5.650  0.00  0.00    -0.270 OA
ATOM     32  H   LIG d   1       9.305   2.011  -8.259  0.00  0.00     0.155 HD
BRANCH  30  33
ATOM     33  C   LIG d   1       9.743   2.968  -5.850  0.00  0.00     0.046 C 
ATOM     34  H   LIG d   1       9.384   3.636  -5.066  0.00  0.00     0.091 H 
ATOM     35  H   LIG d   1      10.504   2.304  -5.439  0.00  0.00     0.091 H 
BRANCH  33  36
ATOM     36  N   LIG d   1      10.329   3.744  -6.962  0.00  0.00     0.237 N 
ATOM     37  H   LIG d   1       9.991   3.358  -7.852  0.00  0.00     0.203 HD
BRANCH  36  38
ATOM     38  C   LIG d   1       9.910   5.160  -6.866  0.00  0.00    -0.043 C 
ATOM     39  H   LIG d   1      10.693   5.759  -6.402  0.00  0.00     0.078 H 
ATOM     40  H   LIG d   1       9.709   5.538  -7.868  0.00  0.00     0.078 H 
ATOM     41  H   LIG d   1       9.002   5.219  -6.266  0.00  0.00     0.078 H 
ENDBRANCH  36  38
BRANCH  36  42
ATOM     42  C   LIG d   1      11.803   3.651  -6.924  0.00  0.00    -0.043 C 
ATOM     43  H   LIG d   1      12.093   2.984  -6.111  0.00  0.00     0.078 H 
ATOM     44  H   LIG d   1      12.156   3.243  -7.871  0.00  0.00     0.078 H 
ATOM     45  H   LIG d   1      12.244   4.633  -6.763  0.00  0.00     0.078 H 
ENDBRANCH  36  42
ENDBRANCH  33  36
ENDBRANCH  30  33
ENDBRANCH   1  29
BRANCH  17  46
ATOM     46  C   LIG d   1       3.533  -0.206  -5.836  0.00  0.00     0.048 C 
ATOM     47  H   LIG d   1       3.404  -1.283  -5.941  0.00  0.00     0.038 H 
ATOM     48  H   LIG d   1       4.591   0.023  -5.707  0.00  0.00     0.038 H 
BRANCH  46  49
ATOM     49  C   LIG d   1       2.753   0.285  -4.614  0.00  0.00     0.056 C 
ATOM     50  H   LIG d   1       1.828   0.758  -4.940  0.00  0.00     0.056 H 
ATOM     51  H   LIG d   1       2.522  -0.562  -3.968  0.00  0.00     0.056 H 
BRANCH  49  52
ATOM     52  O   LIG d   1       3.545   1.231  -3.893  0.00  0.00    -0.383 OA
BRANCH  52  53
ATOM     53  C   LIG d   1       4.567   0.640  -3.088  0.00  0.00     0.036 C 
ATOM     54  H   LIG d   1       4.185   0.473  -2.081  0.00  0.00     0.052 H 
ATOM     55  H   LIG d   1       4.869  -0.312  -3.524  0.00  0.00     0.052 H 
ATOM     56  H   LIG d   1       5.427   1.309  -3.045  0.00  0.00     0.052 H 
ENDBRANCH  52  53
ENDBRANCH  49  52
ENDBRANCH  46  49
ENDBRANCH  17  46
TORSDOF 9
ENDMDL
MODEL 6
REMARK VINA RESULT:      -4.7      3.026      6.348
REMARK  9 active torsions:
REMARK  status: ('A' for Active; 'I' for Inactive)
REMARK    1  A    between atoms: C_1  and  N_55 
REMARK    2  A    between atoms: C_2  and  N_55 
REMARK    3  A    between atoms: C_3  and  C_4 
REMARK    4  A    between atoms: C_3  and  N_55 
REMARK       I    between atoms: C_4  and  N_6 
REMARK    5  A    between atoms: N_6  and  C_7 
REMARK       I    between atoms: N_21  and  C_23 
REMARK    6  A    between atoms: C_23  and  C_25 
REMARK    7  A    between atoms: C_25  and  C_26 
REMARK    8  A    between atoms: C_26  and  O_27 
REMARK    9  A    between atoms: O_27  and  C_28 
ROOT
ATOM      1  C   LIG d   1       7.382   1.343  -8.905  0.00  0.00     0.099 A 
ATOM      2  C   LIG d   1       7.743   0.022  -8.899  0.00  0.00    -0.034 A 
ATOM      3  C   LIG d   1       6.791  -0.939  -9.254  0.00  0.00    -0.040 A 
ATOM      4  C   LIG d   1       5.539  -0.568  -9.631  0.00  0.00     0.027 A 
ATOM      5  N   LIG d   1       5.204   0.742  -9.718  0.00  0.00    -0.310 N 
ATOM      6  C   LIG d   1       6.070   1.690  -9.283  0.00  0.00     0.273 A 
ATOM      7  O   LIG d   1       5.713   2.856  -9.225  0.00  0.00    -0.266 OA
ATOM      8  C   LIG d   1       3.945   1.211 -10.297  0.00  0.00     0.031 C 
ATOM      9  C   LIG d   1       2.886   0.124 -10.340  0.00  0.00    -0.006 C 
ATOM     10  H   LIG d   1       2.094   0.451 -11.014  0.00  0.00     0.033 H 
ATOM     11  C   LIG d   1       3.486  -1.164 -10.903  0.00  0.00    -0.037 C 
ATOM     12  C   LIG d   1       4.548  -1.671  -9.924  0.00  0.00     0.016 C 
ATOM     13  H   LIG d   1       5.062  -2.536 -10.344  0.00  0.00     0.038 H 
ATOM     14  C   LIG d   1       3.852  -2.038  -8.602  0.00  0.00     0.023 C 
ATOM     15  N   LIG d   1       3.226  -0.808  -8.096  0.00  0.00    -0.300 N 
ATOM     16  C   LIG d   1       2.272  -0.112  -8.968  0.00  0.00     0.019 C 
ATOM     17  C   LIG d   1       3.497  -0.342  -6.861  0.00  0.00     0.218 C 
ATOM     18  O   LIG d   1       2.951   0.662  -6.458  0.00  0.00    -0.276 OA
ATOM     19  H   LIG d   1       8.745  -0.272  -8.623  0.00  0.00     0.064 H 
ATOM     20  H   LIG d   1       7.054  -1.986  -9.228  0.00  0.00     0.064 H 
ATOM     21  H   LIG d   1       4.132   1.562 -11.311  0.00  0.00     0.050 H 
ATOM     22  H   LIG d   1       3.571   2.043  -9.701  0.00  0.00     0.050 H 
ATOM     23  H   LIG d   1       3.945  -0.963 -11.871  0.00  0.00     0.028 H 
ATOM     24  H   LIG d   1       2.703  -1.915 -11.017  0.00  0.00     0.028 H 
ATOM     25  H   LIG d   1       3.105  -2.813  -8.779  0.00  0.00     0.047 H 
ATOM     26  H   LIG d   1       4.589  -2.390  -7.880  0.00  0.00     0.047 H 
ATOM     27  H   LIG d   1       2.007   0.847  -8.521  0.00  0.00     0.047 H 
ATOM     28  H   LIG d   1       1.371  -0.717  -9.075  0.00  0.00     0.047 H 
ENDROOT
BRANCH   1  29
ATOM     29  N   LIG d   1       8.301   2.333  -8.535  0.00  0.00    -0.277 N 
ATOM     30  C   LIG d   1       9.149   2.842  -9.450  0.00  0.00     0.263 C 
ATOM     31  O   LIG d   1       9.180   2.380 -10.572  0.00  0.00    -0.270 OA
ATOM     32  H   LIG d   1       8.328   2.653  -7.619  0.00  0.00     0.155 HD
BRANCH  30  33
ATOM     33  C   LIG d   1      10.060   3.985  -9.082  0.00  0.00     0.046 C 
ATOM     34  H   LIG d   1      10.757   3.660  -8.309  0.00  0.00     0.091 H 
ATOM     35  H   LIG d   1      10.618   4.303  -9.963  0.00  0.00     0.091 H 
BRANCH  33  36
ATOM     36  N   LIG d   1       9.239   5.113  -8.598  0.00  0.00     0.237 N 
ATOM     37  H   LIG d   1       8.509   4.751  -7.973  0.00  0.00     0.203 HD
BRANCH  36  38
ATOM     38  C   LIG d   1      10.084   6.065  -7.844  0.00  0.00    -0.043 C 
ATOM     39  H   LIG d   1      10.586   6.752  -8.525  0.00  0.00     0.078 H 
ATOM     40  H   LIG d   1       9.454   6.631  -7.157  0.00  0.00     0.078 H 
ATOM     41  H   LIG d   1      10.828   5.506  -7.278  0.00  0.00     0.078 H 
ENDBRANCH  36  38
BRANCH  36  42
ATOM     42  C   LIG d   1       8.598   5.800  -9.738  0.00  0.00    -0.043 C 
ATOM     43  H   LIG d   1       9.351   6.389 -10.264  0.00  0.00     0.078 H 
ATOM     44  H   LIG d   1       8.185   5.052 -10.415  0.00  0.00     0.078 H 
ATOM     45  H   LIG d   1       7.802   6.457  -9.391  0.00  0.00     0.078 H 
ENDBRANCH  36  42
ENDBRANCH  33  36
ENDBRANCH  30  33
ENDBRANCH   1  29
BRANCH  17  46
ATOM     46  C   LIG d   1       4.479  -1.070  -5.981  0.00  0.00     0.048 C 
ATOM     47  H   LIG d   1       4.028  -1.254  -5.006  0.00  0.00     0.038 H 
ATOM     48  H   LIG d   1       4.746  -2.022  -6.443  0.00  0.00     0.038 H 
BRANCH  46  49
ATOM     49  C   LIG d   1       5.739  -0.218  -5.807  0.00  0.00     0.056 C 
ATOM     50  H   LIG d   1       6.618  -0.861  -5.830  0.00  0.00     0.056 H 
ATOM     51  H   LIG d   1       5.798   0.510  -6.616  0.00  0.00     0.056 H 
BRANCH  49  52
ATOM     52  O   LIG d   1       5.681   0.467  -4.554  0.00  0.00    -0.383 OA
BRANCH  52  53
ATOM     53  C   LIG d   1       5.259  -0.354  -3.463  0.00  0.00     0.036 C 
ATOM     54  H   LIG d   1       4.640   0.233  -2.785  0.00  0.00     0.052 H 
ATOM     55  H   LIG d   1       4.683  -1.196  -3.843  0.00  0.00     0.052 H 
ATOM     56  H   LIG d   1       6.134  -0.724  -2.927  0.00  0.00     0.052 H 
ENDBRANCH  52  53
ENDBRANCH  49  52
ENDBRANCH  46  49
ENDBRANCH  17  46
TORSDOF 9
ENDMDL
MODEL 7
REMARK VINA RESULT:      -4.7      3.676      5.101
REMARK  9 active torsions:
REMARK  status: ('A' for Active; 'I' for Inactive)
REMARK    1  A    between atoms: C_1  and  N_55 
REMARK    2  A    between atoms: C_2  and  N_55 
REMARK    3  A    between atoms: C_3  and  C_4 
REMARK    4  A    between atoms: C_3  and  N_55 
REMARK       I    between atoms: C_4  and  N_6 
REMARK    5  A    between atoms: N_6  and  C_7 
REMARK       I    between atoms: N_21  and  C_23 
REMARK    6  A    between atoms: C_23  and  C_25 
REMARK    7  A    between atoms: C_25  and  C_26 
REMARK    8  A    between atoms: C_26  and  O_27 
REMARK    9  A    between atoms: O_27  and  C_28 
ROOT
ATOM      1  C   LIG d   1       6.599  -4.441  -5.207  0.00  0.00     0.099 A 
ATOM      2  C   LIG d   1       7.684  -3.648  -4.944  0.00  0.00    -0.034 A 
ATOM      3  C   LIG d   1       7.494  -2.463  -4.228  0.00  0.00    -0.040 A 
ATOM      4  C   LIG d   1       6.261  -2.118  -3.771  0.00  0.00     0.027 A 
ATOM      5  N   LIG d   1       5.202  -2.941  -3.958  0.00  0.00    -0.310 N 
ATOM      6  C   LIG d   1       5.333  -4.045  -4.734  0.00  0.00     0.273 A 
ATOM      7  O   LIG d   1       4.347  -4.705  -5.022  0.00  0.00    -0.266 OA
ATOM      8  C   LIG d   1       3.898  -2.725  -3.331  0.00  0.00     0.031 C 
ATOM      9  C   LIG d   1       3.708  -1.292  -2.867  0.00  0.00    -0.006 C 
ATOM     10  H   LIG d   1       2.859  -1.268  -2.183  0.00  0.00     0.033 H 
ATOM     11  C   LIG d   1       4.946  -0.825  -2.102  0.00  0.00    -0.037 C 
ATOM     12  C   LIG d   1       6.128  -0.784  -3.073  0.00  0.00     0.016 C 
ATOM     13  H   LIG d   1       7.046  -0.547  -2.536  0.00  0.00     0.038 H 
ATOM     14  C   LIG d   1       5.834   0.278  -4.147  0.00  0.00     0.023 C 
ATOM     15  N   LIG d   1       4.609  -0.146  -4.840  0.00  0.00    -0.300 N 
ATOM     16  C   LIG d   1       3.402  -0.363  -4.033  0.00  0.00     0.019 C 
ATOM     17  C   LIG d   1       4.581  -0.307  -6.177  0.00  0.00     0.218 C 
ATOM     18  O   LIG d   1       3.552  -0.636  -6.728  0.00  0.00    -0.276 OA
ATOM     19  H   LIG d   1       8.668  -3.934  -5.285  0.00  0.00     0.064 H 
ATOM     20  H   LIG d   1       8.336  -1.814  -4.036  0.00  0.00     0.064 H 
ATOM     21  H   LIG d   1       3.804  -3.389  -2.472  0.00  0.00     0.050 H 
ATOM     22  H   LIG d   1       3.116  -2.969  -4.049  0.00  0.00     0.050 H 
ATOM     23  H   LIG d   1       5.161  -1.522  -1.291  0.00  0.00     0.028 H 
ATOM     24  H   LIG d   1       4.772   0.171  -1.693  0.00  0.00     0.028 H 
ATOM     25  H   LIG d   1       5.702   1.253  -3.678  0.00  0.00     0.047 H 
ATOM     26  H   LIG d   1       6.656   0.319  -4.863  0.00  0.00     0.047 H 
ATOM     27  H   LIG d   1       2.627  -0.810  -4.656  0.00  0.00     0.047 H 
ATOM     28  H   LIG d   1       3.046   0.593  -3.649  0.00  0.00     0.047 H 
ENDROOT
BRANCH   1  29
ATOM     29  N   LIG d   1       6.746  -5.627  -5.940  0.00  0.00    -0.277 N 
ATOM     30  C   LIG d   1       6.764  -5.589  -7.287  0.00  0.00     0.263 C 
ATOM     31  O   LIG d   1       6.562  -4.543  -7.867  0.00  0.00    -0.270 OA
ATOM     32  H   LIG d   1       6.835  -6.476  -5.478  0.00  0.00     0.155 HD
BRANCH  30  33
ATOM     33  C   LIG d   1       7.035  -6.845  -8.073  0.00  0.00     0.046 C 
ATOM     34  H   LIG d   1       6.238  -6.997  -8.802  0.00  0.00     0.091 H 
ATOM     35  H   LIG d   1       7.988  -6.749  -8.594  0.00  0.00     0.091 H 
BRANCH  33  36
ATOM     36  N   LIG d   1       7.108  -7.988  -7.139  0.00  0.00     0.237 N 
ATOM     37  H   LIG d   1       7.020  -7.638  -6.178  0.00  0.00     0.203 HD
BRANCH  36  38
ATOM     38  C   LIG d   1       6.002  -8.931  -7.409  0.00  0.00    -0.043 C 
ATOM     39  H   LIG d   1       5.928  -9.671  -6.612  0.00  0.00     0.078 H 
ATOM     40  H   LIG d   1       5.068  -8.372  -7.473  0.00  0.00     0.078 H 
ATOM     41  H   LIG d   1       6.190  -9.435  -8.357  0.00  0.00     0.078 H 
ENDBRANCH  36  38
BRANCH  36  42
ATOM     42  C   LIG d   1       8.407  -8.678  -7.284  0.00  0.00    -0.043 C 
ATOM     43  H   LIG d   1       9.083  -8.324  -6.505  0.00  0.00     0.078 H 
ATOM     44  H   LIG d   1       8.252  -9.751  -7.170  0.00  0.00     0.078 H 
ATOM     45  H   LIG d   1       8.841  -8.474  -8.262  0.00  0.00     0.078 H 
ENDBRANCH  36  42
ENDBRANCH  33  36
ENDBRANCH  30  33
ENDBRANCH   1  29
BRANCH  17  46
ATOM     46  C   LIG d   1       5.830  -0.079  -6.989  0.00  0.00     0.048 C 
ATOM     47  H   LIG d   1       6.428   0.705  -6.525  0.00  0.00     0.038 H 
ATOM     48  H   LIG d   1       6.410  -1.002  -7.031  0.00  0.00     0.038 H 
BRANCH  46  49
ATOM     49  C   LIG d   1       5.446   0.345  -8.408  0.00  0.00     0.056 C 
ATOM     50  H   LIG d   1       6.162  -0.068  -9.118  0.00  0.00     0.056 H 
ATOM     51  H   LIG d   1       4.448  -0.028  -8.640  0.00  0.00     0.056 H 
BRANCH  49  52
ATOM     52  O   LIG d   1       5.454   1.771  -8.498  0.00  0.00    -0.383 OA
BRANCH  52  53
ATOM     53  C   LIG d   1       4.450   2.305  -9.363  0.00  0.00     0.036 C 
ATOM     54  H   LIG d   1       3.744   2.895  -8.781  0.00  0.00     0.052 H 
ATOM     55  H   LIG d   1       4.918   2.938 -10.116  0.00  0.00     0.052 H 
ATOM     56  H   LIG d   1       3.922   1.486  -9.855  0.00  0.00     0.052 H 
ENDBRANCH  52  53
ENDBRANCH  49  52
ENDBRANCH  46  49
ENDBRANCH  17  46
TORSDOF 9
ENDMDL
MODEL 8
REMARK VINA RESULT:      -4.7      8.575     11.708
REMARK  9 active torsions:
REMARK  status: ('A' for Active; 'I' for Inactive)
REMARK    1  A    between atoms: C_1  and  N_55 
REMARK    2  A    between atoms: C_2  and  N_55 
REMARK    3  A    between atoms: C_3  and  C_4 
REMARK    4  A    between atoms: C_3  and  N_55 
REMARK       I    between atoms: C_4  and  N_6 
REMARK    5  A    between atoms: N_6  and  C_7 
REMARK       I    between atoms: N_21  and  C_23 
REMARK    6  A    between atoms: C_23  and  C_25 
REMARK    7  A    between atoms: C_25  and  C_26 
REMARK    8  A    between atoms: C_26  and  O_27 
REMARK    9  A    between atoms: O_27  and  C_28 
ROOT
ATOM      1  C   LIG d   1      11.926   5.552  -1.153  0.00  0.00     0.099 A 
ATOM      2  C   LIG d   1      12.989   6.060  -1.849  0.00  0.00    -0.034 A 
ATOM      3  C   LIG d   1      13.469   7.330  -1.513  0.00  0.00    -0.040 A 
ATOM      4  C   LIG d   1      12.913   8.034  -0.492  0.00  0.00     0.027 A 
ATOM      5  N   LIG d   1      11.915   7.498   0.251  0.00  0.00    -0.310 N 
ATOM      6  C   LIG d   1      11.361   6.316  -0.114  0.00  0.00     0.273 A 
ATOM      7  O   LIG d   1      10.369   5.907   0.467  0.00  0.00    -0.266 OA
ATOM      8  C   LIG d   1      11.406   8.118   1.474  0.00  0.00     0.031 C 
ATOM      9  C   LIG d   1      11.746   9.595   1.562  0.00  0.00    -0.006 C 
ATOM     10  H   LIG d   1      11.585   9.918   2.591  0.00  0.00     0.033 H 
ATOM     11  C   LIG d   1      13.221   9.810   1.223  0.00  0.00    -0.037 C 
ATOM     12  C   LIG d   1      13.440   9.429  -0.244  0.00  0.00     0.016 C 
ATOM     13  H   LIG d   1      14.500   9.479  -0.489  0.00  0.00     0.038 H 
ATOM     14  C   LIG d   1      12.629  10.398  -1.122  0.00  0.00     0.023 C 
ATOM     15  N   LIG d   1      11.217  10.229  -0.749  0.00  0.00    -0.300 N 
ATOM     16  C   LIG d   1      10.849  10.429   0.659  0.00  0.00     0.019 C 
ATOM     17  C   LIG d   1      10.282   9.926  -1.669  0.00  0.00     0.218 C 
ATOM     18  O   LIG d   1       9.120   9.815  -1.340  0.00  0.00    -0.276 OA
ATOM     19  H   LIG d   1      13.448   5.491  -2.644  0.00  0.00     0.064 H 
ATOM     20  H   LIG d   1      14.291   7.755  -2.070  0.00  0.00     0.064 H 
ATOM     21  H   LIG d   1      11.835   7.606   2.335  0.00  0.00     0.050 H 
ATOM     22  H   LIG d   1      10.322   8.004   1.503  0.00  0.00     0.050 H 
ATOM     23  H   LIG d   1      13.840   9.180   1.862  0.00  0.00     0.028 H 
ATOM     24  H   LIG d   1      13.483  10.857   1.373  0.00  0.00     0.028 H 
ATOM     25  H   LIG d   1      12.961  11.422  -0.948  0.00  0.00     0.047 H 
ATOM     26  H   LIG d   1      12.756  10.140  -2.173  0.00  0.00     0.047 H 
ATOM     27  H   LIG d   1       9.810  10.130   0.806  0.00  0.00     0.047 H 
ATOM     28  H   LIG d   1      10.958  11.483   0.915  0.00  0.00     0.047 H 
ENDROOT
BRANCH   1  29
ATOM     29  N   LIG d   1      11.403   4.292  -1.475  0.00  0.00    -0.277 N 
ATOM     30  C   LIG d   1      10.534   4.163  -2.497  0.00  0.00     0.263 C 
ATOM     31  O   LIG d   1      10.133   5.148  -3.081  0.00  0.00    -0.270 OA
ATOM     32  H   LIG d   1      11.666   3.511  -0.962  0.00  0.00     0.155 HD
BRANCH  30  33
ATOM     33  C   LIG d   1      10.059   2.796  -2.916  0.00  0.00     0.046 C 
ATOM     34  H   LIG d   1      10.920   2.148  -3.084  0.00  0.00     0.091 H 
ATOM     35  H   LIG d   1       9.434   2.372  -2.130  0.00  0.00     0.091 H 
BRANCH  33  36
ATOM     36  N   LIG d   1       9.259   2.925  -4.152  0.00  0.00     0.237 N 
ATOM     37  H   LIG d   1       8.973   3.905  -4.262  0.00  0.00     0.203 HD
BRANCH  36  38
ATOM     38  C   LIG d   1      10.072   2.529  -5.322  0.00  0.00    -0.043 C 
ATOM     39  H   LIG d   1      11.109   2.367  -5.030  0.00  0.00     0.078 H 
ATOM     40  H   LIG d   1       9.664   1.607  -5.740  0.00  0.00     0.078 H 
ATOM     41  H   LIG d   1      10.024   3.319  -6.070  0.00  0.00     0.078 H 
ENDBRANCH  36  38
BRANCH  36  42
ATOM     42  C   LIG d   1       8.052   2.078  -4.064  0.00  0.00    -0.043 C 
ATOM     43  H   LIG d   1       8.145   1.256  -4.775  0.00  0.00     0.078 H 
ATOM     44  H   LIG d   1       7.973   1.677  -3.054  0.00  0.00     0.078 H 
ATOM     45  H   LIG d   1       7.160   2.659  -4.296  0.00  0.00     0.078 H 
ENDBRANCH  36  42
ENDBRANCH  33  36
ENDBRANCH  30  33
ENDBRANCH   1  29
BRANCH  17  46
ATOM     46  C   LIG d   1      10.679   9.725  -3.109  0.00  0.00     0.048 C 
ATOM     47  H   LIG d   1      10.192  10.477  -3.729  0.00  0.00     0.038 H 
ATOM     48  H   LIG d   1      11.761   9.820  -3.204  0.00  0.00     0.038 H 
BRANCH  46  49
ATOM     49  C   LIG d   1      10.248   8.330  -3.567  0.00  0.00     0.056 C 
ATOM     50  H   LIG d   1      11.106   7.658  -3.541  0.00  0.00     0.056 H 
ATOM     51  H   LIG d   1       9.471   7.954  -2.902  0.00  0.00     0.056 H 
BRANCH  49  52
ATOM     52  O   LIG d   1       9.740   8.402  -4.901  0.00  0.00    -0.383 OA
BRANCH  52  53
ATOM     53  C   LIG d   1       9.493   9.734  -5.357  0.00  0.00     0.036 C 
ATOM     54  H   LIG d   1       9.102  10.333  -4.534  0.00  0.00     0.052 H 
ATOM     55  H   LIG d   1      10.422  10.174  -5.717  0.00  0.00     0.052 H 
ATOM     56  H   LIG d   1       8.764   9.710  -6.168  0.00  0.00     0.052 H 
ENDBRANCH  52  53
ENDBRANCH  49  52
ENDBRANCH  46  49
ENDBRANCH  17  46
TORSDOF 9
ENDMDL
MODEL 9
REMARK VINA RESULT:      -4.5      8.877     10.765
REMARK  9 active torsions:
REMARK  status: ('A' for Active; 'I' for Inactive)
REMARK    1  A    between atoms: C_1  and  N_55 
REMARK    2  A    between atoms: C_2  and  N_55 
REMARK    3  A    between atoms: C_3  and  C_4 
REMARK    4  A    between atoms: C_3  and  N_55 
REMARK       I    between atoms: C_4  and  N_6 
REMARK    5  A    between atoms: N_6  and  C_7 
REMARK       I    between atoms: N_21  and  C_23 
REMARK    6  A    between atoms: C_23  and  C_25 
REMARK    7  A    between atoms: C_25  and  C_26 
REMARK    8  A    between atoms: C_26  and  O_27 
REMARK    9  A    between atoms: O_27  and  C_28 
ROOT
ATOM      1  C   LIG d   1      11.260   7.182  -5.114  0.00  0.00     0.099 A 
ATOM      2  C   LIG d   1      12.333   7.987  -4.840  0.00  0.00    -0.034 A 
ATOM      3  C   LIG d   1      12.939   7.898  -3.583  0.00  0.00    -0.040 A 
ATOM      4  C   LIG d   1      12.493   7.005  -2.659  0.00  0.00     0.027 A 
ATOM      5  N   LIG d   1      11.484   6.152  -2.957  0.00  0.00    -0.310 N 
ATOM      6  C   LIG d   1      10.812   6.282  -4.128  0.00  0.00     0.273 A 
ATOM      7  O   LIG d   1       9.813   5.611  -4.331  0.00  0.00    -0.266 OA
ATOM      8  C   LIG d   1      11.086   5.046  -2.086  0.00  0.00     0.031 C 
ATOM      9  C   LIG d   1      11.560   5.235  -0.656  0.00  0.00    -0.006 C 
ATOM     10  H   LIG d   1      11.474   4.277  -0.142  0.00  0.00     0.033 H 
ATOM     11  C   LIG d   1      13.032   5.648  -0.646  0.00  0.00    -0.037 C 
ATOM     12  C   LIG d   1      13.152   7.027  -1.299  0.00  0.00     0.016 C 
ATOM     13  H   LIG d   1      14.201   7.306  -1.395  0.00  0.00     0.038 H 
ATOM     14  C   LIG d   1      12.394   8.043  -0.428  0.00  0.00     0.023 C 
ATOM     15  N   LIG d   1      10.990   7.607  -0.392  0.00  0.00    -0.300 N 
ATOM     16  C   LIG d   1      10.703   6.249   0.087  0.00  0.00     0.019 C 
ATOM     17  C   LIG d   1       9.991   8.432  -0.763  0.00  0.00     0.218 C 
ATOM     18  O   LIG d   1       8.840   8.057  -0.702  0.00  0.00    -0.276 OA
ATOM     19  H   LIG d   1      12.705   8.679  -5.582  0.00  0.00     0.064 H 
ATOM     20  H   LIG d   1      13.770   8.544  -3.344  0.00  0.00     0.064 H 
ATOM     21  H   LIG d   1      11.505   4.120  -2.476  0.00  0.00     0.050 H 
ATOM     22  H   LIG d   1       9.999   4.968  -2.089  0.00  0.00     0.050 H 
ATOM     23  H   LIG d   1      13.620   4.922  -1.209  0.00  0.00     0.028 H 
ATOM     24  H   LIG d   1      13.393   5.696   0.381  0.00  0.00     0.028 H 
ATOM     25  H   LIG d   1      12.822   8.065   0.574  0.00  0.00     0.047 H 
ATOM     26  H   LIG d   1      12.451   9.033  -0.879  0.00  0.00     0.047 H 
ATOM     27  H   LIG d   1       9.649   6.023  -0.080  0.00  0.00     0.047 H 
ATOM     28  H   LIG d   1      10.916   6.190   1.155  0.00  0.00     0.047 H 
ENDROOT
BRANCH   1  29
ATOM     29  N   LIG d   1      10.613   7.258  -6.355  0.00  0.00    -0.277 N 
ATOM     30  C   LIG d   1       9.645   8.173  -6.556  0.00  0.00     0.263 C 
ATOM     31  O   LIG d   1       9.269   8.871  -5.638  0.00  0.00    -0.270 OA
ATOM     32  H   LIG d   1      10.863   6.651  -7.070  0.00  0.00     0.155 HD
BRANCH  30  33
ATOM     33  C   LIG d   1       9.028   8.331  -7.922  0.00  0.00     0.046 C 
ATOM     34  H   LIG d   1       7.975   8.053  -7.879  0.00  0.00     0.091 H 
ATOM     35  H   LIG d   1       9.116   9.369  -8.242  0.00  0.00     0.091 H 
BRANCH  33  36
ATOM     36  N   LIG d   1       9.754   7.468  -8.877  0.00  0.00     0.237 N 
ATOM     37  H   LIG d   1      10.531   7.008  -8.387  0.00  0.00     0.203 HD
BRANCH  36  38
ATOM     38  C   LIG d   1       8.845   6.432  -9.412  0.00  0.00    -0.043 C 
ATOM     39  H   LIG d   1       9.136   6.154 -10.424  0.00  0.00     0.078 H 
ATOM     40  H   LIG d   1       8.890   5.554  -8.767  0.00  0.00     0.078 H 
ATOM     41  H   LIG d   1       7.828   6.824  -9.421  0.00  0.00     0.078 H 
ENDBRANCH  36  38
BRANCH  36  42
ATOM     42  C   LIG d   1      10.297   8.283  -9.983  0.00  0.00    -0.043 C 
ATOM     43  H   LIG d   1      10.533   9.279  -9.606  0.00  0.00     0.078 H 
ATOM     44  H   LIG d   1      11.207   7.812 -10.357  0.00  0.00     0.078 H 
ATOM     45  H   LIG d   1       9.571   8.364 -10.791  0.00  0.00     0.078 H 
ENDBRANCH  36  42
ENDBRANCH  33  36
ENDBRANCH  30  33
ENDBRANCH   1  29
BRANCH  17  46
ATOM     46  C   LIG d   1      10.306   9.822  -1.252  0.00  0.00     0.048 C 
ATOM     47  H   LIG d   1       9.851  10.554  -0.584  0.00  0.00     0.038 H 
ATOM     48  H   LIG d   1      11.387   9.966  -1.267  0.00  0.00     0.038 H 
BRANCH  46  49
ATOM     49  C   LIG d   1       9.748  10.004  -2.665  0.00  0.00     0.056 C 
ATOM     50  H   LIG d   1      10.562  10.244  -3.348  0.00  0.00     0.056 H 
ATOM     51  H   LIG d   1       9.263   9.082  -2.985  0.00  0.00     0.056 H 
BRANCH  49  52
ATOM     52  O   LIG d   1       8.795  11.069  -2.667  0.00  0.00    -0.383 OA
BRANCH  52  53
ATOM     53  C   LIG d   1       8.880  11.923  -3.810  0.00  0.00     0.036 C 
ATOM     54  H   LIG d   1       9.026  11.319  -4.705  0.00  0.00     0.052 H 
ATOM     55  H   LIG d   1       7.958  12.495  -3.906  0.00  0.00     0.052 H 
ATOM     56  H   LIG d   1       9.721  12.607  -3.691  0.00  0.00     0.052 H 
ENDBRANCH  52  53
ENDBRANCH  49  52
ENDBRANCH  46  49
ENDBRANCH  17  46
TORSDOF 9
ENDMDL
