MODEL 1
REMARK VINA RESULT:      -6.8      0.000      0.000
REMARK  5 active torsions:
REMARK  status: ('A' for Active; 'I' for Inactive)
REMARK    1  A    between atoms: C_1  and  O_2 
REMARK    2  A    between atoms: O_2  and  C_3 
REMARK    3  A    between atoms: C_7  and  C_9 
REMARK    4  A    between atoms: C_19  and  O_27 
REMARK    5  A    between atoms: O_27  and  C_28 
ROOT
ATOM      1  C   LIG d   1       4.887  -7.529  -6.507  0.00  0.00     0.028 A 
ATOM      2  C   LIG d   1       4.454  -8.011  -7.695  0.00  0.00     0.101 A 
ATOM      3  O   LIG d   1       4.032  -7.001  -8.473  0.00  0.00    -0.462 OA
ATOM      4  C   LIG d   1       4.163  -5.812  -7.847  0.00  0.00     0.139 A 
ATOM      5  C   LIG d   1       4.707  -6.067  -6.575  0.00  0.00     0.029 A 
ATOM      6  C   LIG d   1       4.956  -5.021  -5.697  0.00  0.00    -0.039 A 
ATOM      7  C   LIG d   1       4.665  -3.718  -6.084  0.00  0.00     0.026 A 
ATOM      8  C   LIG d   1       4.922  -2.590  -5.167  0.00  0.00    -0.000 A 
ATOM      9  C   LIG d   1       5.457  -2.779  -3.899  0.00  0.00    -0.050 A 
ATOM     10  C   LIG d   1       5.678  -1.691  -3.081  0.00  0.00    -0.019 A 
ATOM     11  C   LIG d   1       5.368  -0.406  -3.514  0.00  0.00     0.121 A 
ATOM     12  C   LIG d   1       4.829  -0.199  -4.773  0.00  0.00    -0.005 A 
ATOM     13  C   LIG d   1       4.606  -1.288  -5.612  0.00  0.00     0.071 A 
ATOM     14  C   LIG d   1       4.040  -1.125  -6.959  0.00  0.00     0.345 A 
ATOM     15  O   LIG d   1       3.760  -0.013  -7.366  0.00  0.00    -0.244 OA
ATOM     16  O   LIG d   1       3.831  -2.194  -7.742  0.00  0.00    -0.422 OA
ATOM     17  C   LIG d   1       4.120  -3.458  -7.353  0.00  0.00     0.143 A 
ATOM     18  C   LIG d   1       3.875  -4.509  -8.223  0.00  0.00     0.024 A 
ATOM     19  H   LIG d   1       4.448  -9.053  -7.975  0.00  0.00     0.104 H 
ATOM     20  H   LIG d   1       5.374  -5.217  -4.721  0.00  0.00     0.063 H 
ATOM     21  H   LIG d   1       5.700  -3.775  -3.557  0.00  0.00     0.062 H 
ATOM     22  H   LIG d   1       6.095  -1.838  -2.095  0.00  0.00     0.065 H 
ATOM     23  H   LIG d   1       4.586   0.800  -5.102  0.00  0.00     0.066 H 
ATOM     24  H   LIG d   1       3.457  -4.312  -9.200  0.00  0.00     0.069 H 
ENDROOT
BRANCH   1  25
ATOM     25  C   LIG d   1       5.431  -8.311  -5.372  0.00  0.00    -0.011 A 
ATOM     26  C   LIG d   1       6.759  -8.144  -4.979  0.00  0.00    -0.054 A 
ATOM     27  C   LIG d   1       7.261  -8.869  -3.918  0.00  0.00    -0.058 A 
ATOM     28  H   LIG d   1       7.393  -7.444  -5.503  0.00  0.00     0.062 H 
ATOM     29  C   LIG d   1       6.455  -9.770  -3.248  0.00  0.00    -0.020 A 
ATOM     30  H   LIG d   1       8.289  -8.735  -3.613  0.00  0.00     0.062 H 
ATOM     31  C   LIG d   1       5.133  -9.946  -3.635  0.00  0.00     0.121 A 
ATOM     32  H   LIG d   1       6.855 -10.338  -2.421  0.00  0.00     0.065 H 
ATOM     33  C   LIG d   1       4.619  -9.220  -4.696  0.00  0.00    -0.012 A 
ATOM     34  H   LIG d   1       3.592  -9.356  -4.998  0.00  0.00     0.066 H 
BRANCH  31  35
ATOM     35  O   LIG d   1       4.345 -10.834  -2.973  0.00  0.00    -0.495 OA
BRANCH  35  36
ATOM     36  C   LIG d   1       3.033 -11.052  -3.495  0.00  0.00     0.079 C 
ATOM     37  H   LIG d   1       2.384 -10.225  -3.207  0.00  0.00     0.066 H 
ATOM     38  H   LIG d   1       3.081 -11.115  -4.583  0.00  0.00     0.066 H 
ATOM     39  H   LIG d   1       2.633 -11.984  -3.094  0.00  0.00     0.066 H 
ENDBRANCH  35  36
ENDBRANCH  31  35
ENDBRANCH   1  25
BRANCH  11  40
ATOM     40  O   LIG d   1       5.592   0.654  -2.695  0.00  0.00    -0.495 OA
BRANCH  40  41
ATOM     41  C   LIG d   1       4.579   0.954  -1.732  0.00  0.00     0.079 C 
ATOM     42  H   LIG d   1       5.034   1.063  -0.747  0.00  0.00     0.066 H 
ATOM     43  H   LIG d   1       3.850   0.144  -1.707  0.00  0.00     0.066 H 
ATOM     44  H   LIG d   1       4.080   1.883  -2.006  0.00  0.00     0.066 H 
ENDBRANCH  40  41
ENDBRANCH  11  40
TORSDOF 5
ENDMDL
MODEL 2
REMARK VINA RESULT:      -6.6      5.677     11.046
REMARK  5 active torsions:
REMARK  status: ('A' for Active; 'I' for Inactive)
REMARK    1  A    between atoms: C_1  and  O_2 
REMARK    2  A    between atoms: O_2  and  C_3 
REMARK    3  A    between atoms: C_7  and  C_9 
REMARK    4  A    between atoms: C_19  and  O_27 
REMARK    5  A    between atoms: O_27  and  C_28 
ROOT
ATOM      1  C   LIG d   1      10.840   3.899  -3.971  0.00  0.00     0.028 A 
ATOM      2  C   LIG d   1      11.989   3.748  -4.668  0.00  0.00     0.101 A 
ATOM      3  O   LIG d   1      11.995   2.558  -5.292  0.00  0.00    -0.462 OA
ATOM      4  C   LIG d   1      10.861   1.870  -5.043  0.00  0.00     0.139 A 
ATOM      5  C   LIG d   1      10.064   2.665  -4.199  0.00  0.00     0.029 A 
ATOM      6  C   LIG d   1       8.825   2.210  -3.771  0.00  0.00    -0.039 A 
ATOM      7  C   LIG d   1       8.374   0.961  -4.183  0.00  0.00     0.026 A 
ATOM      8  C   LIG d   1       7.059   0.457  -3.741  0.00  0.00    -0.000 A 
ATOM      9  C   LIG d   1       6.230   1.197  -2.907  0.00  0.00    -0.050 A 
ATOM     10  C   LIG d   1       5.011   0.680  -2.523  0.00  0.00    -0.019 A 
ATOM     11  C   LIG d   1       4.605  -0.576  -2.962  0.00  0.00     0.121 A 
ATOM     12  C   LIG d   1       5.420  -1.330  -3.789  0.00  0.00    -0.005 A 
ATOM     13  C   LIG d   1       6.652  -0.818  -4.189  0.00  0.00     0.071 A 
ATOM     14  C   LIG d   1       7.556  -1.574  -5.069  0.00  0.00     0.345 A 
ATOM     15  O   LIG d   1       7.229  -2.674  -5.470  0.00  0.00    -0.244 OA
ATOM     16  O   LIG d   1       8.739  -1.056  -5.434  0.00  0.00    -0.422 OA
ATOM     17  C   LIG d   1       9.166   0.162  -5.025  0.00  0.00     0.143 A 
ATOM     18  C   LIG d   1      10.403   0.625  -5.448  0.00  0.00     0.024 A 
ATOM     19  H   LIG d   1      12.785   4.475  -4.715  0.00  0.00     0.104 H 
ATOM     20  H   LIG d   1       8.214   2.821  -3.123  0.00  0.00     0.063 H 
ATOM     21  H   LIG d   1       6.539   2.173  -2.563  0.00  0.00     0.062 H 
ATOM     22  H   LIG d   1       4.364   1.255  -1.875  0.00  0.00     0.065 H 
ATOM     23  H   LIG d   1       5.103  -2.306  -4.122  0.00  0.00     0.066 H 
ATOM     24  H   LIG d   1      11.013   0.013  -6.096  0.00  0.00     0.069 H 
ENDROOT
BRANCH   1  25
ATOM     25  C   LIG d   1      10.442   5.066  -3.148  0.00  0.00    -0.011 A 
ATOM     26  C   LIG d   1       9.917   6.205  -3.757  0.00  0.00    -0.054 A 
ATOM     27  C   LIG d   1       9.543   7.288  -2.987  0.00  0.00    -0.058 A 
ATOM     28  H   LIG d   1       9.801   6.239  -4.830  0.00  0.00     0.062 H 
ATOM     29  C   LIG d   1       9.695   7.251  -1.614  0.00  0.00    -0.020 A 
ATOM     30  H   LIG d   1       9.133   8.169  -3.461  0.00  0.00     0.062 H 
ATOM     31  C   LIG d   1      10.221   6.122  -1.000  0.00  0.00     0.121 A 
ATOM     32  H   LIG d   1       9.405   8.103  -1.018  0.00  0.00     0.065 H 
ATOM     33  C   LIG d   1      10.596   5.029  -1.763  0.00  0.00    -0.012 A 
ATOM     34  H   LIG d   1      11.005   4.151  -1.287  0.00  0.00     0.066 H 
BRANCH  31  35
ATOM     35  O   LIG d   1      10.369   6.091   0.351  0.00  0.00    -0.495 OA
BRANCH  35  36
ATOM     36  C   LIG d   1      11.211   7.087   0.935  0.00  0.00     0.079 C 
ATOM     37  H   LIG d   1      11.817   6.635   1.721  0.00  0.00     0.066 H 
ATOM     38  H   LIG d   1      11.864   7.506   0.169  0.00  0.00     0.066 H 
ATOM     39  H   LIG d   1      10.595   7.878   1.361  0.00  0.00     0.066 H 
ENDBRANCH  35  36
ENDBRANCH  31  35
ENDBRANCH   1  25
BRANCH  11  40
ATOM     40  O   LIG d   1       3.400  -1.071  -2.573  0.00  0.00    -0.495 OA
BRANCH  40  41
ATOM     41  C   LIG d   1       2.264  -0.700  -3.357  0.00  0.00     0.079 C 
ATOM     42  H   LIG d   1       2.583  -0.067  -4.184  0.00  0.00     0.066 H 
ATOM     43  H   LIG d   1       1.555  -0.154  -2.734  0.00  0.00     0.066 H 
ATOM     44  H   LIG d   1       1.785  -1.597  -3.750  0.00  0.00     0.066 H 
ENDBRANCH  40  41
ENDBRANCH  11  40
TORSDOF 5
ENDMDL
MODEL 3
REMARK VINA RESULT:      -6.6      5.908     11.356
REMARK  5 active torsions:
REMARK  status: ('A' for Active; 'I' for Inactive)
REMARK    1  A    between atoms: C_1  and  O_2 
REMARK    2  A    between atoms: O_2  and  C_3 
REMARK    3  A    between atoms: C_7  and  C_9 
REMARK    4  A    between atoms: C_19  and  O_27 
REMARK    5  A    between atoms: O_27  and  C_28 
ROOT
ATOM      1  C   LIG d   1      10.353   5.145  -4.572  0.00  0.00     0.028 A 
ATOM      2  C   LIG d   1      10.978   5.735  -5.616  0.00  0.00     0.101 A 
ATOM      3  O   LIG d   1      10.704   5.071  -6.751  0.00  0.00    -0.462 OA
ATOM      4  C   LIG d   1       9.891   4.018  -6.516  0.00  0.00     0.139 A 
ATOM      5  C   LIG d   1       9.619   3.997  -5.137  0.00  0.00     0.029 A 
ATOM      6  C   LIG d   1       8.801   3.014  -4.598  0.00  0.00    -0.039 A 
ATOM      7  C   LIG d   1       8.249   2.049  -5.433  0.00  0.00     0.026 A 
ATOM      8  C   LIG d   1       7.374   0.995  -4.883  0.00  0.00    -0.000 A 
ATOM      9  C   LIG d   1       7.071   0.923  -3.529  0.00  0.00    -0.050 A 
ATOM     10  C   LIG d   1       6.249  -0.083  -3.066  0.00  0.00    -0.019 A 
ATOM     11  C   LIG d   1       5.722  -1.025  -3.942  0.00  0.00     0.121 A 
ATOM     12  C   LIG d   1       6.018  -0.973  -5.294  0.00  0.00    -0.005 A 
ATOM     13  C   LIG d   1       6.843   0.041  -5.776  0.00  0.00     0.071 A 
ATOM     14  C   LIG d   1       7.186   0.147  -7.203  0.00  0.00     0.345 A 
ATOM     15  O   LIG d   1       6.740  -0.663  -7.993  0.00  0.00    -0.244 OA
ATOM     16  O   LIG d   1       7.988   1.132  -7.637  0.00  0.00    -0.422 OA
ATOM     17  C   LIG d   1       8.518   2.065  -6.813  0.00  0.00     0.143 A 
ATOM     18  C   LIG d   1       9.337   3.051  -7.341  0.00  0.00     0.024 A 
ATOM     19  H   LIG d   1      11.606   6.611  -5.548  0.00  0.00     0.104 H 
ATOM     20  H   LIG d   1       8.593   2.999  -3.539  0.00  0.00     0.063 H 
ATOM     21  H   LIG d   1       7.476   1.653  -2.844  0.00  0.00     0.062 H 
ATOM     22  H   LIG d   1       6.012  -0.138  -2.013  0.00  0.00     0.065 H 
ATOM     23  H   LIG d   1       5.611  -1.710  -5.969  0.00  0.00     0.066 H 
ATOM     24  H   LIG d   1       9.545   3.066  -8.401  0.00  0.00     0.069 H 
ENDROOT
BRANCH   1  25
ATOM     25  C   LIG d   1      10.397   5.567  -3.151  0.00  0.00    -0.011 A 
ATOM     26  C   LIG d   1      11.318   4.989  -2.278  0.00  0.00    -0.054 A 
ATOM     27  C   LIG d   1      11.360   5.388  -0.957  0.00  0.00    -0.058 A 
ATOM     28  H   LIG d   1      12.000   4.232  -2.636  0.00  0.00     0.062 H 
ATOM     29  C   LIG d   1      10.485   6.352  -0.493  0.00  0.00    -0.020 A 
ATOM     30  H   LIG d   1      12.077   4.941  -0.283  0.00  0.00     0.062 H 
ATOM     31  C   LIG d   1       9.562   6.929  -1.355  0.00  0.00     0.121 A 
ATOM     32  H   LIG d   1      10.519   6.656   0.542  0.00  0.00     0.065 H 
ATOM     33  C   LIG d   1       9.515   6.539  -2.683  0.00  0.00    -0.012 A 
ATOM     34  H   LIG d   1       8.797   6.987  -3.354  0.00  0.00     0.066 H 
BRANCH  31  35
ATOM     35  O   LIG d   1       8.703   7.876  -0.894  0.00  0.00    -0.495 OA
BRANCH  35  36
ATOM     36  C   LIG d   1       9.155   9.232  -0.924  0.00  0.00     0.079 C 
ATOM     37  H   LIG d   1       8.698   9.785  -0.104  0.00  0.00     0.066 H 
ATOM     38  H   LIG d   1      10.240   9.255  -0.818  0.00  0.00     0.066 H 
ATOM     39  H   LIG d   1       8.872   9.688  -1.872  0.00  0.00     0.066 H 
ENDBRANCH  35  36
ENDBRANCH  31  35
ENDBRANCH   1  25
BRANCH  11  40
ATOM     40  O   LIG d   1       4.914  -2.010  -3.468  0.00  0.00    -0.495 OA
BRANCH  40  41
ATOM     41  C   LIG d   1       4.217  -1.746  -2.249  0.00  0.00     0.079 C 
ATOM     42  H   LIG d   1       3.783  -2.671  -1.870  0.00  0.00     0.066 H 
ATOM     43  H   LIG d   1       3.423  -1.021  -2.433  0.00  0.00     0.066 H 
ATOM     44  H   LIG d   1       4.913  -1.343  -1.513  0.00  0.00     0.066 H 
ENDBRANCH  40  41
ENDBRANCH  11  40
TORSDOF 5
ENDMDL
MODEL 4
REMARK VINA RESULT:      -6.5      1.051      1.832
REMARK  5 active torsions:
REMARK  status: ('A' for Active; 'I' for Inactive)
REMARK    1  A    between atoms: C_1  and  O_2 
REMARK    2  A    between atoms: O_2  and  C_3 
REMARK    3  A    between atoms: C_7  and  C_9 
REMARK    4  A    between atoms: C_19  and  O_27 
REMARK    5  A    between atoms: O_27  and  C_28 
ROOT
ATOM      1  C   LIG d   1       4.810  -8.000  -6.205  0.00  0.00     0.028 A 
ATOM      2  C   LIG d   1       4.421  -8.564  -7.371  0.00  0.00     0.101 A 
ATOM      3  O   LIG d   1       4.053  -7.611  -8.242  0.00  0.00    -0.462 OA
ATOM      4  C   LIG d   1       4.178  -6.380  -7.702  0.00  0.00     0.139 A 
ATOM      5  C   LIG d   1       4.660  -6.545  -6.391  0.00  0.00     0.029 A 
ATOM      6  C   LIG d   1       4.888  -5.439  -5.584  0.00  0.00    -0.039 A 
ATOM      7  C   LIG d   1       4.638  -4.165  -6.080  0.00  0.00     0.026 A 
ATOM      8  C   LIG d   1       4.875  -2.974  -5.241  0.00  0.00    -0.000 A 
ATOM      9  C   LIG d   1       5.349  -3.075  -3.938  0.00  0.00    -0.050 A 
ATOM     10  C   LIG d   1       5.553  -1.931  -3.196  0.00  0.00    -0.019 A 
ATOM     11  C   LIG d   1       5.287  -0.678  -3.738  0.00  0.00     0.121 A 
ATOM     12  C   LIG d   1       4.808  -0.559  -5.032  0.00  0.00    -0.005 A 
ATOM     13  C   LIG d   1       4.603  -1.706  -5.796  0.00  0.00     0.071 A 
ATOM     14  C   LIG d   1       4.100  -1.637  -7.176  0.00  0.00     0.345 A 
ATOM     15  O   LIG d   1       3.860  -0.556  -7.678  0.00  0.00    -0.244 OA
ATOM     16  O   LIG d   1       3.908  -2.760  -7.886  0.00  0.00    -0.422 OA
ATOM     17  C   LIG d   1       4.156  -3.995  -7.390  0.00  0.00     0.143 A 
ATOM     18  C   LIG d   1       3.930  -5.105  -8.188  0.00  0.00     0.024 A 
ATOM     19  H   LIG d   1       4.408  -9.625  -7.572  0.00  0.00     0.104 H 
ATOM     20  H   LIG d   1       5.258  -5.566  -4.577  0.00  0.00     0.063 H 
ATOM     21  H   LIG d   1       5.559  -4.045  -3.512  0.00  0.00     0.062 H 
ATOM     22  H   LIG d   1       5.923  -2.009  -2.183  0.00  0.00     0.065 H 
ATOM     23  H   LIG d   1       4.599   0.415  -5.447  0.00  0.00     0.066 H 
ATOM     24  H   LIG d   1       3.560  -4.977  -9.195  0.00  0.00     0.069 H 
ENDROOT
BRANCH   1  25
ATOM     25  C   LIG d   1       5.288  -8.702  -4.990  0.00  0.00    -0.011 A 
ATOM     26  C   LIG d   1       4.396  -9.437  -4.209  0.00  0.00    -0.054 A 
ATOM     27  C   LIG d   1       4.845 -10.093  -3.082  0.00  0.00    -0.058 A 
ATOM     28  H   LIG d   1       3.355  -9.494  -4.489  0.00  0.00     0.062 H 
ATOM     29  C   LIG d   1       6.176 -10.017  -2.716  0.00  0.00    -0.020 A 
ATOM     30  H   LIG d   1       4.153 -10.666  -2.480  0.00  0.00     0.062 H 
ATOM     31  C   LIG d   1       7.070  -9.284  -3.485  0.00  0.00     0.121 A 
ATOM     32  H   LIG d   1       6.521 -10.529  -1.830  0.00  0.00     0.065 H 
ATOM     33  C   LIG d   1       6.630  -8.626  -4.620  0.00  0.00    -0.012 A 
ATOM     34  H   LIG d   1       7.323  -8.054  -5.219  0.00  0.00     0.066 H 
BRANCH  31  35
ATOM     35  O   LIG d   1       8.378  -9.212  -3.121  0.00  0.00    -0.495 OA
BRANCH  35  36
ATOM     36  C   LIG d   1       8.906  -7.912  -2.852  0.00  0.00     0.079 C 
ATOM     37  H   LIG d   1       8.091  -7.190  -2.808  0.00  0.00     0.066 H 
ATOM     38  H   LIG d   1       9.433  -7.925  -1.897  0.00  0.00     0.066 H 
ATOM     39  H   LIG d   1       9.599  -7.630  -3.645  0.00  0.00     0.066 H 
ENDBRANCH  35  36
ENDBRANCH  31  35
ENDBRANCH   1  25
BRANCH  11  40
ATOM     40  O   LIG d   1       5.493   0.438  -2.992  0.00  0.00    -0.495 OA
BRANCH  40  41
ATOM     41  C   LIG d   1       4.573   0.684  -1.925  0.00  0.00     0.079 C 
ATOM     42  H   LIG d   1       5.066   0.498  -0.971  0.00  0.00     0.066 H 
ATOM     43  H   LIG d   1       3.714   0.020  -2.026  0.00  0.00     0.066 H 
ATOM     44  H   LIG d   1       4.238   1.720  -1.966  0.00  0.00     0.066 H 
ENDBRANCH  40  41
ENDBRANCH  11  40
TORSDOF 5
ENDMDL
MODEL 5
REMARK VINA RESULT:      -6.4     13.150     16.832
REMARK  5 active torsions:
REMARK  status: ('A' for Active; 'I' for Inactive)
REMARK    1  A    between atoms: C_1  and  O_2 
REMARK    2  A    between atoms: O_2  and  C_3 
REMARK    3  A    between atoms: C_7  and  C_9 
REMARK    4  A    between atoms: C_19  and  O_27 
REMARK    5  A    between atoms: O_27  and  C_28 
ROOT
ATOM      1  C   LIG d   1       9.651   8.471  -4.803  0.00  0.00     0.028 A 
ATOM      2  C   LIG d   1       9.266   7.317  -5.393  0.00  0.00     0.101 A 
ATOM      3  O   LIG d   1       9.327   6.307  -4.509  0.00  0.00    -0.462 OA
ATOM      4  C   LIG d   1       9.751   6.738  -3.302  0.00  0.00     0.139 A 
ATOM      5  C   LIG d   1       9.981   8.122  -3.408  0.00  0.00     0.029 A 
ATOM      6  C   LIG d   1      10.429   8.844  -2.311  0.00  0.00    -0.039 A 
ATOM      7  C   LIG d   1      10.647   8.191  -1.103  0.00  0.00     0.026 A 
ATOM      8  C   LIG d   1      11.120   8.939   0.077  0.00  0.00    -0.000 A 
ATOM      9  C   LIG d   1      11.366  10.306   0.032  0.00  0.00    -0.050 A 
ATOM     10  C   LIG d   1      11.809  10.958   1.164  0.00  0.00    -0.019 A 
ATOM     11  C   LIG d   1      12.013  10.258   2.349  0.00  0.00     0.121 A 
ATOM     12  C   LIG d   1      11.779   8.895   2.411  0.00  0.00    -0.005 A 
ATOM     13  C   LIG d   1      11.326   8.225   1.277  0.00  0.00     0.071 A 
ATOM     14  C   LIG d   1      11.057   6.779   1.288  0.00  0.00     0.345 A 
ATOM     15  O   LIG d   1      11.226   6.141   2.309  0.00  0.00    -0.244 OA
ATOM     16  O   LIG d   1      10.627   6.160   0.178  0.00  0.00    -0.422 OA
ATOM     17  C   LIG d   1      10.418   6.808  -0.992  0.00  0.00     0.143 A 
ATOM     18  C   LIG d   1       9.972   6.095  -2.094  0.00  0.00     0.024 A 
ATOM     19  H   LIG d   1       8.957   7.220  -6.423  0.00  0.00     0.104 H 
ATOM     20  H   LIG d   1      10.605   9.906  -2.394  0.00  0.00     0.063 H 
ATOM     21  H   LIG d   1      11.209  10.855  -0.885  0.00  0.00     0.062 H 
ATOM     22  H   LIG d   1      12.000  12.021   1.130  0.00  0.00     0.065 H 
ATOM     23  H   LIG d   1      11.943   8.357   3.332  0.00  0.00     0.066 H 
ATOM     24  H   LIG d   1       9.794   5.032  -2.010  0.00  0.00     0.069 H 
ENDROOT
BRANCH   1  25
ATOM     25  C   LIG d   1       9.726   9.813  -5.430  0.00  0.00    -0.011 A 
ATOM     26  C   LIG d   1      10.053   9.936  -6.780  0.00  0.00    -0.054 A 
ATOM     27  C   LIG d   1      10.116  11.186  -7.362  0.00  0.00    -0.058 A 
ATOM     28  H   LIG d   1      10.254   9.054  -7.370  0.00  0.00     0.062 H 
ATOM     29  C   LIG d   1       9.866  12.317  -6.610  0.00  0.00    -0.020 A 
ATOM     30  H   LIG d   1      10.366  11.280  -8.410  0.00  0.00     0.062 H 
ATOM     31  C   LIG d   1       9.545  12.203  -5.263  0.00  0.00     0.121 A 
ATOM     32  H   LIG d   1       9.922  13.293  -7.069  0.00  0.00     0.065 H 
ATOM     33  C   LIG d   1       9.474  10.954  -4.672  0.00  0.00    -0.012 A 
ATOM     34  H   LIG d   1       9.225  10.864  -3.625  0.00  0.00     0.066 H 
BRANCH  31  35
ATOM     35  O   LIG d   1       9.300  13.320  -4.527  0.00  0.00    -0.495 OA
BRANCH  35  36
ATOM     36  C   LIG d   1       8.520  13.157  -3.341  0.00  0.00     0.079 C 
ATOM     37  H   LIG d   1       8.252  14.136  -2.945  0.00  0.00     0.066 H 
ATOM     38  H   LIG d   1       7.613  12.599  -3.576  0.00  0.00     0.066 H 
ATOM     39  H   LIG d   1       9.100  12.612  -2.597  0.00  0.00     0.066 H 
ENDBRANCH  35  36
ENDBRANCH  31  35
ENDBRANCH   1  25
BRANCH  11  40
ATOM     40  O   LIG d   1      12.450  10.917   3.454  0.00  0.00    -0.495 OA
BRANCH  40  41
ATOM     41  C   LIG d   1      12.570  10.155   4.658  0.00  0.00     0.079 C 
ATOM     42  H   LIG d   1      12.658   9.097   4.411  0.00  0.00     0.066 H 
ATOM     43  H   LIG d   1      11.686  10.311   5.277  0.00  0.00     0.066 H 
ATOM     44  H   LIG d   1      13.457  10.475   5.204  0.00  0.00     0.066 H 
ENDBRANCH  40  41
ENDBRANCH  11  40
TORSDOF 5
ENDMDL
MODEL 6
REMARK VINA RESULT:      -6.4     12.837     16.496
REMARK  5 active torsions:
REMARK  status: ('A' for Active; 'I' for Inactive)
REMARK    1  A    between atoms: C_1  and  O_2 
REMARK    2  A    between atoms: O_2  and  C_3 
REMARK    3  A    between atoms: C_7  and  C_9 
REMARK    4  A    between atoms: C_19  and  O_27 
REMARK    5  A    between atoms: O_27  and  C_28 
ROOT
ATOM      1  C   LIG d   1       9.701   7.944  -4.794  0.00  0.00     0.028 A 
ATOM      2  C   LIG d   1       9.324   6.748  -5.302  0.00  0.00     0.101 A 
ATOM      3  O   LIG d   1       9.377   5.806  -4.346  0.00  0.00    -0.462 OA
ATOM      4  C   LIG d   1       9.786   6.326  -3.169  0.00  0.00     0.139 A 
ATOM      5  C   LIG d   1      10.015   7.698  -3.374  0.00  0.00     0.029 A 
ATOM      6  C   LIG d   1      10.449   8.500  -2.327  0.00  0.00    -0.039 A 
ATOM      7  C   LIG d   1      10.654   7.938  -1.073  0.00  0.00     0.026 A 
ATOM      8  C   LIG d   1      11.113   8.772   0.055  0.00  0.00    -0.000 A 
ATOM      9  C   LIG d   1      11.357  10.133  -0.087  0.00  0.00    -0.050 A 
ATOM     10  C   LIG d   1      11.786  10.867   0.998  0.00  0.00    -0.019 A 
ATOM     11  C   LIG d   1      11.977  10.257   2.234  0.00  0.00     0.121 A 
ATOM     12  C   LIG d   1      11.745   8.901   2.393  0.00  0.00    -0.005 A 
ATOM     13  C   LIG d   1      11.306   8.148   1.306  0.00  0.00     0.071 A 
ATOM     14  C   LIG d   1      11.040   6.706   1.420  0.00  0.00     0.345 A 
ATOM     15  O   LIG d   1      11.197   6.146   2.487  0.00  0.00    -0.244 OA
ATOM     16  O   LIG d   1      10.623   6.006   0.354  0.00  0.00    -0.422 OA
ATOM     17  C   LIG d   1      10.427   6.567  -0.863  0.00  0.00     0.143 A 
ATOM     18  C   LIG d   1       9.994   5.773  -1.914  0.00  0.00     0.024 A 
ATOM     19  H   LIG d   1       9.027   6.576  -6.325  0.00  0.00     0.104 H 
ATOM     20  H   LIG d   1      10.625   9.554  -2.486  0.00  0.00     0.063 H 
ATOM     21  H   LIG d   1      11.210  10.612  -1.044  0.00  0.00     0.062 H 
ATOM     22  H   LIG d   1      11.975  11.925   0.889  0.00  0.00     0.065 H 
ATOM     23  H   LIG d   1      11.900   8.432   3.352  0.00  0.00     0.066 H 
ATOM     24  H   LIG d   1       9.818   4.719  -1.755  0.00  0.00     0.069 H 
ENDROOT
BRANCH   1  25
ATOM     25  C   LIG d   1       9.780   9.236  -5.517  0.00  0.00    -0.011 A 
ATOM     26  C   LIG d   1       9.403  10.418  -4.880  0.00  0.00    -0.054 A 
ATOM     27  C   LIG d   1       9.484  11.620  -5.553  0.00  0.00    -0.058 A 
ATOM     28  H   LIG d   1       9.052  10.393  -3.859  0.00  0.00     0.062 H 
ATOM     29  C   LIG d   1       9.927  11.656  -6.862  0.00  0.00    -0.020 A 
ATOM     30  H   LIG d   1       9.195  12.535  -5.057  0.00  0.00     0.062 H 
ATOM     31  C   LIG d   1      10.300  10.482  -7.505  0.00  0.00     0.121 A 
ATOM     32  H   LIG d   1       9.984  12.598  -7.385  0.00  0.00     0.065 H 
ATOM     33  C   LIG d   1      10.227   9.273  -6.836  0.00  0.00    -0.012 A 
ATOM     34  H   LIG d   1      10.516   8.360  -7.335  0.00  0.00     0.066 H 
BRANCH  31  35
ATOM     35  O   LIG d   1      10.735  10.523  -8.792  0.00  0.00    -0.495 OA
BRANCH  35  36
ATOM     36  C   LIG d   1      12.139  10.696  -8.997  0.00  0.00     0.079 C 
ATOM     37  H   LIG d   1      12.680  10.356  -8.115  0.00  0.00     0.066 H 
ATOM     38  H   LIG d   1      12.453  10.113  -9.864  0.00  0.00     0.066 H 
ATOM     39  H   LIG d   1      12.353  11.750  -9.171  0.00  0.00     0.066 H 
ENDBRANCH  35  36
ENDBRANCH  31  35
ENDBRANCH   1  25
BRANCH  11  40
ATOM     40  O   LIG d   1      12.401  10.995   3.293  0.00  0.00    -0.495 OA
BRANCH  40  41
ATOM     41  C   LIG d   1      13.184  12.156   3.002  0.00  0.00     0.079 C 
ATOM     42  H   LIG d   1      12.655  13.046   3.344  0.00  0.00     0.066 H 
ATOM     43  H   LIG d   1      13.349  12.223   1.927  0.00  0.00     0.066 H 
ATOM     44  H   LIG d   1      14.143  12.084   3.514  0.00  0.00     0.066 H 
ENDBRANCH  40  41
ENDBRANCH  11  40
TORSDOF 5
ENDMDL
MODEL 7
REMARK VINA RESULT:      -6.4     11.325     14.722
REMARK  5 active torsions:
REMARK  status: ('A' for Active; 'I' for Inactive)
REMARK    1  A    between atoms: C_1  and  O_2 
REMARK    2  A    between atoms: O_2  and  C_3 
REMARK    3  A    between atoms: C_7  and  C_9 
REMARK    4  A    between atoms: C_19  and  O_27 
REMARK    5  A    between atoms: O_27  and  C_28 
ROOT
ATOM      1  C   LIG d   1       9.904   5.629  -5.370  0.00  0.00     0.028 A 
ATOM      2  C   LIG d   1       9.923   4.280  -5.466  0.00  0.00     0.101 A 
ATOM      3  O   LIG d   1      10.169   3.737  -4.263  0.00  0.00    -0.462 OA
ATOM      4  C   LIG d   1      10.324   4.690  -3.319  0.00  0.00     0.139 A 
ATOM      5  C   LIG d   1      10.167   5.936  -3.951  0.00  0.00     0.029 A 
ATOM      6  C   LIG d   1      10.275   7.111  -3.221  0.00  0.00    -0.039 A 
ATOM      7  C   LIG d   1      10.536   7.049  -1.857  0.00  0.00     0.026 A 
ATOM      8  C   LIG d   1      10.653   8.286  -1.060  0.00  0.00    -0.000 A 
ATOM      9  C   LIG d   1      10.509   9.545  -1.630  0.00  0.00    -0.050 A 
ATOM     10  C   LIG d   1      10.628  10.669  -0.841  0.00  0.00    -0.019 A 
ATOM     11  C   LIG d   1      10.892  10.554   0.520  0.00  0.00     0.121 A 
ATOM     12  C   LIG d   1      11.043   9.308   1.104  0.00  0.00    -0.005 A 
ATOM     13  C   LIG d   1      10.920   8.163   0.320  0.00  0.00     0.071 A 
ATOM     14  C   LIG d   1      11.068   6.815   0.889  0.00  0.00     0.345 A 
ATOM     15  O   LIG d   1      11.298   6.682   2.076  0.00  0.00    -0.244 OA
ATOM     16  O   LIG d   1      10.949   5.731   0.107  0.00  0.00    -0.422 OA
ATOM     17  C   LIG d   1      10.694   5.806  -1.220  0.00  0.00     0.143 A 
ATOM     18  C   LIG d   1      10.586   4.637  -1.957  0.00  0.00     0.024 A 
ATOM     19  H   LIG d   1       9.765   3.722  -6.376  0.00  0.00     0.104 H 
ATOM     20  H   LIG d   1      10.155   8.068  -3.708  0.00  0.00     0.063 H 
ATOM     21  H   LIG d   1      10.304   9.641  -2.686  0.00  0.00     0.062 H 
ATOM     22  H   LIG d   1      10.516  11.649  -1.283  0.00  0.00     0.065 H 
ATOM     23  H   LIG d   1      11.253   9.224   2.160  0.00  0.00     0.066 H 
ATOM     24  H   LIG d   1      10.705   3.681  -1.470  0.00  0.00     0.069 H 
ENDROOT
BRANCH   1  25
ATOM     25  C   LIG d   1       9.667   6.599  -6.465  0.00  0.00    -0.011 A 
ATOM     26  C   LIG d   1       9.401   7.936  -6.170  0.00  0.00    -0.054 A 
ATOM     27  C   LIG d   1       9.185   8.838  -7.193  0.00  0.00    -0.058 A 
ATOM     28  H   LIG d   1       9.366   8.265  -5.143  0.00  0.00     0.062 H 
ATOM     29  C   LIG d   1       9.223   8.419  -8.509  0.00  0.00    -0.020 A 
ATOM     30  H   LIG d   1       8.983   9.874  -6.963  0.00  0.00     0.062 H 
ATOM     31  C   LIG d   1       9.482   7.088  -8.811  0.00  0.00     0.121 A 
ATOM     32  H   LIG d   1       9.049   9.128  -9.305  0.00  0.00     0.065 H 
ATOM     33  C   LIG d   1       9.704   6.177  -7.793  0.00  0.00    -0.012 A 
ATOM     34  H   LIG d   1       9.906   5.142  -8.026  0.00  0.00     0.066 H 
BRANCH  31  35
ATOM     35  O   LIG d   1       9.518   6.681 -10.108  0.00  0.00    -0.495 OA
BRANCH  35  36
ATOM     36  C   LIG d   1       9.981   5.353 -10.359  0.00  0.00     0.079 C 
ATOM     37  H   LIG d   1      10.910   5.183  -9.814  0.00  0.00     0.066 H 
ATOM     38  H   LIG d   1       9.229   4.637 -10.028  0.00  0.00     0.066 H 
ATOM     39  H   LIG d   1      10.159   5.227 -11.427  0.00  0.00     0.066 H 
ENDBRANCH  35  36
ENDBRANCH  31  35
ENDBRANCH   1  25
BRANCH  11  40
ATOM     40  O   LIG d   1      11.006  11.673   1.283  0.00  0.00    -0.495 OA
BRANCH  40  41
ATOM     41  C   LIG d   1      10.567  12.902   0.700  0.00  0.00     0.079 C 
ATOM     42  H   LIG d   1       9.644  12.732   0.146  0.00  0.00     0.066 H 
ATOM     43  H   LIG d   1      11.334  13.278   0.022  0.00  0.00     0.066 H 
ATOM     44  H   LIG d   1      10.389  13.634   1.488  0.00  0.00     0.066 H 
ENDBRANCH  40  41
ENDBRANCH  11  40
TORSDOF 5
ENDMDL
MODEL 8
REMARK VINA RESULT:      -6.4     11.521     15.376
REMARK  5 active torsions:
REMARK  status: ('A' for Active; 'I' for Inactive)
REMARK    1  A    between atoms: C_1  and  O_2 
REMARK    2  A    between atoms: O_2  and  C_3 
REMARK    3  A    between atoms: C_7  and  C_9 
REMARK    4  A    between atoms: C_19  and  O_27 
REMARK    5  A    between atoms: O_27  and  C_28 
ROOT
ATOM      1  C   LIG d   1       9.771   6.032  -5.111  0.00  0.00     0.028 A 
ATOM      2  C   LIG d   1       9.616   4.694  -5.238  0.00  0.00     0.101 A 
ATOM      3  O   LIG d   1       9.787   4.097  -4.047  0.00  0.00    -0.462 OA
ATOM      4  C   LIG d   1      10.061   5.000  -3.082  0.00  0.00     0.139 A 
ATOM      5  C   LIG d   1      10.068   6.270  -3.686  0.00  0.00     0.029 A 
ATOM      6  C   LIG d   1      10.324   7.405  -2.929  0.00  0.00    -0.039 A 
ATOM      7  C   LIG d   1      10.572   7.279  -1.567  0.00  0.00     0.026 A 
ATOM      8  C   LIG d   1      10.845   8.472  -0.742  0.00  0.00    -0.000 A 
ATOM      9  C   LIG d   1      10.867   9.751  -1.283  0.00  0.00    -0.050 A 
ATOM     10  C   LIG d   1      11.129  10.833  -0.469  0.00  0.00    -0.019 A 
ATOM     11  C   LIG d   1      11.371  10.654   0.889  0.00  0.00     0.121 A 
ATOM     12  C   LIG d   1      11.360   9.386   1.445  0.00  0.00    -0.005 A 
ATOM     13  C   LIG d   1      11.092   8.284   0.635  0.00  0.00     0.071 A 
ATOM     14  C   LIG d   1      11.063   6.916   1.173  0.00  0.00     0.345 A 
ATOM     15  O   LIG d   1      11.270   6.728   2.356  0.00  0.00    -0.244 OA
ATOM     16  O   LIG d   1      10.807   5.874   0.367  0.00  0.00    -0.422 OA
ATOM     17  C   LIG d   1      10.566   6.012  -0.958  0.00  0.00     0.143 A 
ATOM     18  C   LIG d   1      10.310   4.884  -1.722  0.00  0.00     0.024 A 
ATOM     19  H   LIG d   1       9.389   4.182  -6.160  0.00  0.00     0.104 H 
ATOM     20  H   LIG d   1      10.330   8.380  -3.394  0.00  0.00     0.063 H 
ATOM     21  H   LIG d   1      10.678   9.897  -2.337  0.00  0.00     0.062 H 
ATOM     22  H   LIG d   1      11.144  11.828  -0.889  0.00  0.00     0.065 H 
ATOM     23  H   LIG d   1      11.554   9.252   2.498  0.00  0.00     0.066 H 
ATOM     24  H   LIG d   1      10.304   3.909  -1.257  0.00  0.00     0.069 H 
ENDROOT
BRANCH   1  25
ATOM     25  C   LIG d   1       9.663   7.049  -6.184  0.00  0.00    -0.011 A 
ATOM     26  C   LIG d   1       9.577   6.651  -7.518  0.00  0.00    -0.054 A 
ATOM     27  C   LIG d   1       9.471   7.600  -8.515  0.00  0.00    -0.058 A 
ATOM     28  H   LIG d   1       9.589   5.602  -7.771  0.00  0.00     0.062 H 
ATOM     29  C   LIG d   1       9.461   8.945  -8.196  0.00  0.00    -0.020 A 
ATOM     30  H   LIG d   1       9.400   7.290  -9.548  0.00  0.00     0.062 H 
ATOM     31  C   LIG d   1       9.552   9.349  -6.871  0.00  0.00     0.121 A 
ATOM     32  H   LIG d   1       9.383   9.683  -8.980  0.00  0.00     0.065 H 
ATOM     33  C   LIG d   1       9.653   8.405  -5.864  0.00  0.00    -0.012 A 
ATOM     34  H   LIG d   1       9.724   8.718  -4.833  0.00  0.00     0.066 H 
BRANCH  31  35
ATOM     35  O   LIG d   1       9.541  10.673  -6.563  0.00  0.00    -0.495 OA
BRANCH  35  36
ATOM     36  C   LIG d   1       9.514  11.018  -5.177  0.00  0.00     0.079 C 
ATOM     37  H   LIG d   1      10.512  11.318  -4.857  0.00  0.00     0.066 H 
ATOM     38  H   LIG d   1       8.819  11.843  -5.021  0.00  0.00     0.066 H 
ATOM     39  H   LIG d   1       9.192  10.155  -4.594  0.00  0.00     0.066 H 
ENDBRANCH  35  36
ENDBRANCH  31  35
ENDBRANCH   1  25
BRANCH  11  40
ATOM     40  O   LIG d   1      11.628  11.731   1.677  0.00  0.00    -0.495 OA
BRANCH  40  41
ATOM     41  C   LIG d   1      11.511  13.020   1.070  0.00  0.00     0.079 C 
ATOM     42  H   LIG d   1      12.366  13.634   1.353  0.00  0.00     0.066 H 
ATOM     43  H   LIG d   1      10.592  13.499   1.409  0.00  0.00     0.066 H 
ATOM     44  H   LIG d   1      11.485  12.910  -0.014  0.00  0.00     0.066 H 
ENDBRANCH  40  41
ENDBRANCH  11  40
TORSDOF 5
ENDMDL
MODEL 9
REMARK VINA RESULT:      -6.1      5.019      7.923
REMARK  5 active torsions:
REMARK  status: ('A' for Active; 'I' for Inactive)
REMARK    1  A    between atoms: C_1  and  O_2 
REMARK    2  A    between atoms: O_2  and  C_3 
REMARK    3  A    between atoms: C_7  and  C_9 
REMARK    4  A    between atoms: C_19  and  O_27 
REMARK    5  A    between atoms: O_27  and  C_28 
ROOT
ATOM      1  C   LIG d   1       6.610  -2.130  -4.368  0.00  0.00     0.028 A 
ATOM      2  C   LIG d   1       6.960  -3.420  -4.574  0.00  0.00     0.101 A 
ATOM      3  O   LIG d   1       8.249  -3.493  -4.944  0.00  0.00    -0.462 OA
ATOM      4  C   LIG d   1       8.811  -2.267  -5.001  0.00  0.00     0.139 A 
ATOM      5  C   LIG d   1       7.821  -1.334  -4.645  0.00  0.00     0.029 A 
ATOM      6  C   LIG d   1       8.114   0.022  -4.615  0.00  0.00    -0.039 A 
ATOM      7  C   LIG d   1       9.395   0.454  -4.940  0.00  0.00     0.026 A 
ATOM      8  C   LIG d   1       9.730   1.891  -4.913  0.00  0.00    -0.000 A 
ATOM      9  C   LIG d   1       8.793   2.859  -4.570  0.00  0.00    -0.050 A 
ATOM     10  C   LIG d   1       9.157   4.189  -4.562  0.00  0.00    -0.019 A 
ATOM     11  C   LIG d   1      10.453   4.570  -4.895  0.00  0.00     0.121 A 
ATOM     12  C   LIG d   1      11.397   3.620  -5.246  0.00  0.00    -0.005 A 
ATOM     13  C   LIG d   1      11.045   2.272  -5.253  0.00  0.00     0.071 A 
ATOM     14  C   LIG d   1      12.010   1.222  -5.613  0.00  0.00     0.345 A 
ATOM     15  O   LIG d   1      13.150   1.524  -5.908  0.00  0.00    -0.244 OA
ATOM     16  O   LIG d   1      11.639  -0.068  -5.616  0.00  0.00    -0.422 OA
ATOM     17  C   LIG d   1      10.388  -0.475  -5.297  0.00  0.00     0.143 A 
ATOM     18  C   LIG d   1      10.086  -1.827  -5.325  0.00  0.00     0.024 A 
ATOM     19  H   LIG d   1       6.300  -4.266  -4.458  0.00  0.00     0.104 H 
ATOM     20  H   LIG d   1       7.353   0.738  -4.341  0.00  0.00     0.063 H 
ATOM     21  H   LIG d   1       7.786   2.569  -4.309  0.00  0.00     0.062 H 
ATOM     22  H   LIG d   1       8.429   4.941  -4.294  0.00  0.00     0.065 H 
ATOM     23  H   LIG d   1      12.400   3.922  -5.509  0.00  0.00     0.066 H 
ATOM     24  H   LIG d   1      10.848  -2.543  -5.598  0.00  0.00     0.069 H 
ENDROOT
BRANCH   1  25
ATOM     25  C   LIG d   1       5.282  -1.620  -3.951  0.00  0.00    -0.011 A 
ATOM     26  C   LIG d   1       4.765  -1.956  -2.700  0.00  0.00    -0.054 A 
ATOM     27  C   LIG d   1       3.531  -1.476  -2.312  0.00  0.00    -0.058 A 
ATOM     28  H   LIG d   1       5.333  -2.589  -2.034  0.00  0.00     0.062 H 
ATOM     29  C   LIG d   1       2.799  -0.670  -3.163  0.00  0.00    -0.020 A 
ATOM     30  H   LIG d   1       3.134  -1.734  -1.340  0.00  0.00     0.062 H 
ATOM     31  C   LIG d   1       3.304  -0.335  -4.413  0.00  0.00     0.121 A 
ATOM     32  H   LIG d   1       1.832  -0.301  -2.857  0.00  0.00     0.065 H 
ATOM     33  C   LIG d   1       4.543  -0.808  -4.809  0.00  0.00    -0.012 A 
ATOM     34  H   LIG d   1       4.936  -0.549  -5.781  0.00  0.00     0.066 H 
BRANCH  31  35
ATOM     35  O   LIG d   1       2.580   0.457  -5.247  0.00  0.00    -0.495 OA
BRANCH  35  36
ATOM     36  C   LIG d   1       2.793   0.290  -6.650  0.00  0.00     0.079 C 
ATOM     37  H   LIG d   1       2.833  -0.773  -6.887  0.00  0.00     0.066 H 
ATOM     38  H   LIG d   1       1.974   0.755  -7.200  0.00  0.00     0.066 H 
ATOM     39  H   LIG d   1       3.735   0.760  -6.933  0.00  0.00     0.066 H 
ENDBRANCH  35  36
ENDBRANCH  31  35
ENDBRANCH   1  25
BRANCH  11  40
ATOM     40  O   LIG d   1      10.793   5.885  -4.883  0.00  0.00    -0.495 OA
BRANCH  40  41
ATOM     41  C   LIG d   1      11.630   6.328  -3.812  0.00  0.00     0.079 C 
ATOM     42  H   LIG d   1      11.940   5.470  -3.214  0.00  0.00     0.066 H 
ATOM     43  H   LIG d   1      11.077   7.027  -3.183  0.00  0.00     0.066 H 
ATOM     44  H   LIG d   1      12.510   6.824  -4.219  0.00  0.00     0.066 H 
ENDBRANCH  40  41
ENDBRANCH  11  40
TORSDOF 5
ENDMDL
MODEL 10
REMARK VINA RESULT:      -6.0     10.031     14.667
REMARK  5 active torsions:
REMARK  status: ('A' for Active; 'I' for Inactive)
REMARK    1  A    between atoms: C_1  and  O_2 
REMARK    2  A    between atoms: O_2  and  C_3 
REMARK    3  A    between atoms: C_7  and  C_9 
REMARK    4  A    between atoms: C_19  and  O_27 
REMARK    5  A    between atoms: O_27  and  C_28 
ROOT
ATOM      1  C   LIG d   1      10.746   5.950  -1.530  0.00  0.00     0.028 A 
ATOM      2  C   LIG d   1      10.632   5.933  -0.182  0.00  0.00     0.101 A 
ATOM      3  O   LIG d   1      10.276   7.148   0.265  0.00  0.00    -0.462 OA
ATOM      4  C   LIG d   1      10.139   8.023  -0.754  0.00  0.00     0.139 A 
ATOM      5  C   LIG d   1      10.424   7.329  -1.944  0.00  0.00     0.029 A 
ATOM      6  C   LIG d   1      10.362   7.981  -3.168  0.00  0.00    -0.039 A 
ATOM      7  C   LIG d   1      10.014   9.326  -3.211  0.00  0.00     0.026 A 
ATOM      8  C   LIG d   1       9.940  10.039  -4.501  0.00  0.00    -0.000 A 
ATOM      9  C   LIG d   1      10.213   9.406  -5.708  0.00  0.00    -0.050 A 
ATOM     10  C   LIG d   1      10.130  10.118  -6.886  0.00  0.00    -0.019 A 
ATOM     11  C   LIG d   1       9.778  11.464  -6.876  0.00  0.00     0.121 A 
ATOM     12  C   LIG d   1       9.510  12.112  -5.683  0.00  0.00    -0.005 A 
ATOM     13  C   LIG d   1       9.584  11.404  -4.486  0.00  0.00     0.071 A 
ATOM     14  C   LIG d   1       9.305  12.042  -3.190  0.00  0.00     0.345 A 
ATOM     15  O   LIG d   1       8.994  13.217  -3.150  0.00  0.00    -0.244 OA
ATOM     16  O   LIG d   1       9.389  11.334  -2.053  0.00  0.00    -0.422 OA
ATOM     17  C   LIG d   1       9.729  10.024  -2.025  0.00  0.00     0.143 A 
ATOM     18  C   LIG d   1       9.794   9.365  -0.807  0.00  0.00     0.024 A 
ATOM     19  H   LIG d   1      10.802   5.069   0.443  0.00  0.00     0.104 H 
ATOM     20  H   LIG d   1      10.581   7.447  -4.081  0.00  0.00     0.063 H 
ATOM     21  H   LIG d   1      10.485   8.361  -5.722  0.00  0.00     0.062 H 
ATOM     22  H   LIG d   1      10.340   9.626  -7.825  0.00  0.00     0.065 H 
ATOM     23  H   LIG d   1       9.242  13.158  -5.680  0.00  0.00     0.066 H 
ATOM     24  H   LIG d   1       9.573   9.899   0.106  0.00  0.00     0.069 H 
ENDROOT
BRANCH   1  25
ATOM     25  C   LIG d   1      11.118   4.816  -2.409  0.00  0.00    -0.011 A 
ATOM     26  C   LIG d   1      12.400   4.746  -2.954  0.00  0.00    -0.054 A 
ATOM     27  C   LIG d   1      12.745   3.686  -3.768  0.00  0.00    -0.058 A 
ATOM     28  H   LIG d   1      13.123   5.518  -2.737  0.00  0.00     0.062 H 
ATOM     29  C   LIG d   1      11.822   2.698  -4.053  0.00  0.00    -0.020 A 
ATOM     30  H   LIG d   1      13.741   3.630  -4.186  0.00  0.00     0.062 H 
ATOM     31  C   LIG d   1      10.542   2.764  -3.519  0.00  0.00     0.121 A 
ATOM     32  H   LIG d   1      12.096   1.874  -4.695  0.00  0.00     0.065 H 
ATOM     33  C   LIG d   1      10.187   3.820  -2.698  0.00  0.00    -0.012 A 
ATOM     34  H   LIG d   1       9.192   3.873  -2.282  0.00  0.00     0.066 H 
BRANCH  31  35
ATOM     35  O   LIG d   1       9.637   1.790  -3.803  0.00  0.00    -0.495 OA
BRANCH  35  36
ATOM     36  C   LIG d   1       8.303   2.209  -4.098  0.00  0.00     0.079 C 
ATOM     37  H   LIG d   1       8.055   1.934  -5.124  0.00  0.00     0.066 H 
ATOM     38  H   LIG d   1       7.609   1.721  -3.413  0.00  0.00     0.066 H 
ATOM     39  H   LIG d   1       8.228   3.290  -3.984  0.00  0.00     0.066 H 
ENDBRANCH  35  36
ENDBRANCH  31  35
ENDBRANCH   1  25
BRANCH  11  40
ATOM     40  O   LIG d   1       9.703  12.150  -8.047  0.00  0.00    -0.495 OA
BRANCH  40  41
ATOM     41  C   LIG d   1      10.530  13.309  -8.173  0.00  0.00     0.079 C 
ATOM     42  H   LIG d   1       9.928  14.204  -8.017  0.00  0.00     0.066 H 
ATOM     43  H   LIG d   1      10.968  13.336  -9.171  0.00  0.00     0.066 H 
ATOM     44  H   LIG d   1      11.325  13.271  -7.429  0.00  0.00     0.066 H 
ENDBRANCH  40  41
ENDBRANCH  11  40
TORSDOF 5
ENDMDL
