MODEL 1
REMARK VINA RESULT:      -5.7      0.000      0.000
REMARK  8 active torsions:
REMARK  status: ('A' for Active; 'I' for Inactive)
REMARK    1  A    between atoms: C_1  and  O_2 
REMARK    2  A    between atoms: O_2  and  C_3 
REMARK    3  A    between atoms: C_6  and  C_11 
REMARK    4  A    between atoms: C_8  and  O_9 
REMARK    5  A    between atoms: O_9  and  C_10 
REMARK    6  A    between atoms: C_16  and  O_22 
REMARK    7  A    between atoms: O_22  and  C_23 
REMARK    8  A    between atoms: C_23  and  C_24 
ROOT
ATOM      1  C   LIG d   1       8.456   1.469  -4.134  0.00  0.00     0.067 A 
ATOM      2  C   LIG d   1       7.273   1.220  -3.490  0.00  0.00    -0.036 A 
ATOM      3  C   LIG d   1       6.618  -0.018  -3.715  0.00  0.00     0.018 A 
ATOM      4  C   LIG d   1       5.405  -0.301  -3.069  0.00  0.00    -0.048 A 
ATOM      5  C   LIG d   1       4.779  -1.493  -3.287  0.00  0.00    -0.019 A 
ATOM      6  C   LIG d   1       5.337  -2.435  -4.150  0.00  0.00     0.125 A 
ATOM      7  C   LIG d   1       6.534  -2.173  -4.795  0.00  0.00     0.023 A 
ATOM      8  C   LIG d   1       7.185  -0.965  -4.586  0.00  0.00     0.143 A 
ATOM      9  O   LIG d   1       8.352  -0.711  -5.216  0.00  0.00    -0.422 OA
ATOM     10  C   LIG d   1       9.005   0.449  -5.032  0.00  0.00     0.345 A 
ATOM     11  O   LIG d   1      10.055   0.653  -5.612  0.00  0.00    -0.244 OA
ATOM     12  H   LIG d   1       6.846   1.954  -2.824  0.00  0.00     0.063 H 
ATOM     13  H   LIG d   1       4.967   0.425  -2.400  0.00  0.00     0.063 H 
ATOM     14  H   LIG d   1       3.845  -1.707  -2.790  0.00  0.00     0.065 H 
ATOM     15  H   LIG d   1       6.960  -2.909  -5.462  0.00  0.00     0.069 H 
ENDROOT
BRANCH   1  16
ATOM     16  C   LIG d   1       9.170   2.750  -3.926  0.00  0.00    -0.007 A 
ATOM     17  C   LIG d   1      10.092   2.875  -2.887  0.00  0.00    -0.050 A 
ATOM     18  C   LIG d   1      10.758   4.068  -2.695  0.00  0.00    -0.016 A 
ATOM     19  H   LIG d   1      10.286   2.037  -2.234  0.00  0.00     0.062 H 
ATOM     20  C   LIG d   1      10.512   5.145  -3.533  0.00  0.00     0.162 A 
ATOM     21  H   LIG d   1      11.472   4.163  -1.891  0.00  0.00     0.066 H 
ATOM     22  C   LIG d   1       9.592   5.026  -4.572  0.00  0.00     0.162 A 
ATOM     23  C   LIG d   1       8.927   3.830  -4.773  0.00  0.00    -0.008 A 
ATOM     24  H   LIG d   1       8.217   3.735  -5.582  0.00  0.00     0.066 H 
BRANCH  20  25
ATOM     25  O   LIG d   1      11.170   6.320  -3.340  0.00  0.00    -0.491 OA
BRANCH  25  26
ATOM     26  C   LIG d   1      10.770   7.110  -2.218  0.00  0.00     0.079 C 
ATOM     27  H   LIG d   1       9.777   6.802  -1.893  0.00  0.00     0.066 H 
ATOM     28  H   LIG d   1      11.479   6.969  -1.403  0.00  0.00     0.066 H 
ATOM     29  H   LIG d   1      10.749   8.162  -2.504  0.00  0.00     0.066 H 
ENDBRANCH  25  26
ENDBRANCH  20  25
BRANCH  22  30
ATOM     30  O   LIG d   1       9.354   6.084  -5.394  0.00  0.00    -0.491 OA
BRANCH  30  31
ATOM     31  C   LIG d   1       9.979   6.060  -6.678  0.00  0.00     0.079 C 
ATOM     32  H   LIG d   1       9.885   5.064  -7.110  0.00  0.00     0.066 H 
ATOM     33  H   LIG d   1       9.494   6.786  -7.332  0.00  0.00     0.066 H 
ATOM     34  H   LIG d   1      11.034   6.314  -6.574  0.00  0.00     0.066 H 
ENDBRANCH  30  31
ENDBRANCH  22  30
ENDBRANCH   1  16
BRANCH   6  35
ATOM     35  O   LIG d   1       4.704  -3.617  -4.357  0.00  0.00    -0.486 OA
BRANCH  35  36
ATOM     36  C   LIG d   1       5.323  -4.534  -5.261  0.00  0.00     0.129 C 
ATOM     37  H   LIG d   1       5.650  -4.001  -6.153  0.00  0.00     0.076 H 
ATOM     38  H   LIG d   1       6.183  -4.997  -4.778  0.00  0.00     0.076 H 
BRANCH  36  39
ATOM     39  C   LIG d   1       4.333  -5.603  -5.649  0.00  0.00     0.079 C 
ATOM     40  O   LIG d   1       3.359  -5.314  -6.303  0.00  0.00    -0.546 OA
ATOM     41  O   LIG d   1       4.534  -6.875  -5.269  0.00  0.00    -0.546 OA
ENDBRANCH  36  39
ENDBRANCH  35  36
ENDBRANCH   6  35
TORSDOF 8
ENDMDL
MODEL 2
REMARK VINA RESULT:      -5.6      0.930      1.933
REMARK  8 active torsions:
REMARK  status: ('A' for Active; 'I' for Inactive)
REMARK    1  A    between atoms: C_1  and  O_2 
REMARK    2  A    between atoms: O_2  and  C_3 
REMARK    3  A    between atoms: C_6  and  C_11 
REMARK    4  A    between atoms: C_8  and  O_9 
REMARK    5  A    between atoms: O_9  and  C_10 
REMARK    6  A    between atoms: C_16  and  O_22 
REMARK    7  A    between atoms: O_22  and  C_23 
REMARK    8  A    between atoms: C_23  and  C_24 
ROOT
ATOM      1  C   LIG d   1       8.473   1.715  -4.157  0.00  0.00     0.067 A 
ATOM      2  C   LIG d   1       7.267   1.531  -3.535  0.00  0.00    -0.036 A 
ATOM      3  C   LIG d   1       6.604   0.285  -3.682  0.00  0.00     0.018 A 
ATOM      4  C   LIG d   1       5.367   0.067  -3.057  0.00  0.00    -0.048 A 
ATOM      5  C   LIG d   1       4.733  -1.132  -3.200  0.00  0.00    -0.019 A 
ATOM      6  C   LIG d   1       5.307  -2.146  -3.965  0.00  0.00     0.125 A 
ATOM      7  C   LIG d   1       6.527  -1.949  -4.589  0.00  0.00     0.023 A 
ATOM      8  C   LIG d   1       7.186  -0.735  -4.455  0.00  0.00     0.143 A 
ATOM      9  O   LIG d   1       8.377  -0.543  -5.064  0.00  0.00    -0.422 OA
ATOM     10  C   LIG d   1       9.038   0.621  -4.951  0.00  0.00     0.345 A 
ATOM     11  O   LIG d   1      10.109   0.767  -5.511  0.00  0.00    -0.244 OA
ATOM     12  H   LIG d   1       6.828   2.320  -2.944  0.00  0.00     0.063 H 
ATOM     13  H   LIG d   1       4.916   0.848  -2.463  0.00  0.00     0.063 H 
ATOM     14  H   LIG d   1       3.780  -1.297  -2.718  0.00  0.00     0.065 H 
ATOM     15  H   LIG d   1       6.965  -2.740  -5.180  0.00  0.00     0.069 H 
ENDROOT
BRANCH   1  16
ATOM     16  C   LIG d   1       9.196   3.001  -4.028  0.00  0.00    -0.007 A 
ATOM     17  C   LIG d   1       8.976   4.023  -4.953  0.00  0.00    -0.050 A 
ATOM     18  C   LIG d   1       9.649   5.220  -4.831  0.00  0.00    -0.016 A 
ATOM     19  H   LIG d   1       8.277   3.876  -5.762  0.00  0.00     0.062 H 
ATOM     20  C   LIG d   1      10.546   5.412  -3.791  0.00  0.00     0.162 A 
ATOM     21  H   LIG d   1       9.477   6.010  -5.546  0.00  0.00     0.066 H 
ATOM     22  C   LIG d   1      10.771   4.396  -2.865  0.00  0.00     0.162 A 
ATOM     23  C   LIG d   1      10.094   3.195  -2.979  0.00  0.00    -0.008 A 
ATOM     24  H   LIG d   1      10.263   2.408  -2.259  0.00  0.00     0.066 H 
BRANCH  20  25
ATOM     25  O   LIG d   1      11.209   6.595  -3.675  0.00  0.00    -0.491 OA
BRANCH  25  26
ATOM     26  C   LIG d   1      10.438   7.787  -3.837  0.00  0.00     0.079 C 
ATOM     27  H   LIG d   1      11.035   8.538  -4.354  0.00  0.00     0.066 H 
ATOM     28  H   LIG d   1       9.545   7.566  -4.421  0.00  0.00     0.066 H 
ATOM     29  H   LIG d   1      10.146   8.167  -2.857  0.00  0.00     0.066 H 
ENDBRANCH  25  26
ENDBRANCH  20  25
BRANCH  22  30
ATOM     30  O   LIG d   1      11.651   4.587  -1.846  0.00  0.00    -0.491 OA
BRANCH  30  31
ATOM     31  C   LIG d   1      11.155   5.243  -0.677  0.00  0.00     0.079 C 
ATOM     32  H   LIG d   1      10.314   5.882  -0.947  0.00  0.00     0.066 H 
ATOM     33  H   LIG d   1      10.827   4.498   0.047  0.00  0.00     0.066 H 
ATOM     34  H   LIG d   1      11.947   5.851  -0.238  0.00  0.00     0.066 H 
ENDBRANCH  30  31
ENDBRANCH  22  30
ENDBRANCH   1  16
BRANCH   6  35
ATOM     35  O   LIG d   1       4.666  -3.334  -4.099  0.00  0.00    -0.486 OA
BRANCH  35  36
ATOM     36  C   LIG d   1       5.200  -4.256  -5.051  0.00  0.00     0.129 C 
ATOM     37  H   LIG d   1       6.156  -3.886  -5.419  0.00  0.00     0.076 H 
ATOM     38  H   LIG d   1       5.345  -5.227  -4.577  0.00  0.00     0.076 H 
BRANCH  36  39
ATOM     39  C   LIG d   1       4.239  -4.402  -6.203  0.00  0.00     0.079 C 
ATOM     40  O   LIG d   1       4.268  -3.611  -7.117  0.00  0.00    -0.546 OA
ATOM     41  O   LIG d   1       3.353  -5.410  -6.216  0.00  0.00    -0.546 OA
ENDBRANCH  36  39
ENDBRANCH  35  36
ENDBRANCH   6  35
TORSDOF 8
ENDMDL
MODEL 3
REMARK VINA RESULT:      -5.5      6.777      8.903
REMARK  8 active torsions:
REMARK  status: ('A' for Active; 'I' for Inactive)
REMARK    1  A    between atoms: C_1  and  O_2 
REMARK    2  A    between atoms: O_2  and  C_3 
REMARK    3  A    between atoms: C_6  and  C_11 
REMARK    4  A    between atoms: C_8  and  O_9 
REMARK    5  A    between atoms: O_9  and  C_10 
REMARK    6  A    between atoms: C_16  and  O_22 
REMARK    7  A    between atoms: O_22  and  C_23 
REMARK    8  A    between atoms: C_23  and  C_24 
ROOT
ATOM      1  C   LIG d   1       3.688  -0.290  -8.185  0.00  0.00     0.067 A 
ATOM      2  C   LIG d   1       2.918  -1.168  -8.901  0.00  0.00    -0.036 A 
ATOM      3  C   LIG d   1       3.021  -1.172 -10.316  0.00  0.00     0.018 A 
ATOM      4  C   LIG d   1       2.245  -2.059 -11.077  0.00  0.00    -0.048 A 
ATOM      5  C   LIG d   1       2.347  -2.061 -12.436  0.00  0.00    -0.019 A 
ATOM      6  C   LIG d   1       3.220  -1.184 -13.078  0.00  0.00     0.125 A 
ATOM      7  C   LIG d   1       3.994  -0.302 -12.344  0.00  0.00     0.023 A 
ATOM      8  C   LIG d   1       3.903  -0.286 -10.960  0.00  0.00     0.143 A 
ATOM      9  O   LIG d   1       4.658   0.576 -10.244  0.00  0.00    -0.422 OA
ATOM     10  C   LIG d   1       4.591   0.612  -8.903  0.00  0.00     0.345 A 
ATOM     11  O   LIG d   1       5.283   1.399  -8.282  0.00  0.00    -0.244 OA
ATOM     12  H   LIG d   1       2.244  -1.844  -8.398  0.00  0.00     0.063 H 
ATOM     13  H   LIG d   1       1.566  -2.741 -10.585  0.00  0.00     0.063 H 
ATOM     14  H   LIG d   1       1.748  -2.744 -13.019  0.00  0.00     0.065 H 
ATOM     15  H   LIG d   1       4.669   0.375 -12.850  0.00  0.00     0.069 H 
ENDROOT
BRANCH   1  16
ATOM     16  C   LIG d   1       3.609  -0.255  -6.706  0.00  0.00    -0.007 A 
ATOM     17  C   LIG d   1       2.651   0.540  -6.076  0.00  0.00    -0.050 A 
ATOM     18  C   LIG d   1       2.578   0.572  -4.699  0.00  0.00    -0.016 A 
ATOM     19  H   LIG d   1       1.967   1.131  -6.667  0.00  0.00     0.062 H 
ATOM     20  C   LIG d   1       3.455  -0.186  -3.938  0.00  0.00     0.162 A 
ATOM     21  H   LIG d   1       1.836   1.187  -4.212  0.00  0.00     0.066 H 
ATOM     22  C   LIG d   1       4.413  -0.983  -4.561  0.00  0.00     0.162 A 
ATOM     23  C   LIG d   1       4.487  -1.022  -5.942  0.00  0.00    -0.008 A 
ATOM     24  H   LIG d   1       5.226  -1.643  -6.426  0.00  0.00     0.066 H 
BRANCH  20  25
ATOM     25  O   LIG d   1       3.380  -0.153  -2.580  0.00  0.00    -0.491 OA
BRANCH  25  26
ATOM     26  C   LIG d   1       4.099   0.889  -1.917  0.00  0.00     0.079 C 
ATOM     27  H   LIG d   1       4.146   0.677  -0.850  0.00  0.00     0.066 H 
ATOM     28  H   LIG d   1       5.110   0.946  -2.321  0.00  0.00     0.066 H 
ATOM     29  H   LIG d   1       3.591   1.840  -2.077  0.00  0.00     0.066 H 
ENDBRANCH  25  26
ENDBRANCH  20  25
BRANCH  22  30
ATOM     30  O   LIG d   1       5.271  -1.726  -3.812  0.00  0.00    -0.491 OA
BRANCH  30  31
ATOM     31  C   LIG d   1       6.611  -1.246  -3.693  0.00  0.00     0.079 C 
ATOM     32  H   LIG d   1       7.233  -1.710  -4.460  0.00  0.00     0.066 H 
ATOM     33  H   LIG d   1       6.623  -0.163  -3.823  0.00  0.00     0.066 H 
ATOM     34  H   LIG d   1       7.002  -1.497  -2.707  0.00  0.00     0.066 H 
ENDBRANCH  30  31
ENDBRANCH  22  30
ENDBRANCH   1  16
BRANCH   6  35
ATOM     35  O   LIG d   1       3.312  -1.196 -14.432  0.00  0.00    -0.486 OA
BRANCH  35  36
ATOM     36  C   LIG d   1       4.408  -0.486 -15.014  0.00  0.00     0.129 C 
ATOM     37  H   LIG d   1       4.800   0.230 -14.294  0.00  0.00     0.076 H 
ATOM     38  H   LIG d   1       5.193  -1.190 -15.290  0.00  0.00     0.076 H 
BRANCH  36  39
ATOM     39  C   LIG d   1       3.936   0.245 -16.245  0.00  0.00     0.079 C 
ATOM     40  O   LIG d   1       4.427   1.309 -16.540  0.00  0.00    -0.546 OA
ATOM     41  O   LIG d   1       2.972  -0.287 -17.013  0.00  0.00    -0.546 OA
ENDBRANCH  36  39
ENDBRANCH  35  36
ENDBRANCH   6  35
TORSDOF 8
ENDMDL
MODEL 4
REMARK VINA RESULT:      -5.4      4.042     10.883
REMARK  8 active torsions:
REMARK  status: ('A' for Active; 'I' for Inactive)
REMARK    1  A    between atoms: C_1  and  O_2 
REMARK    2  A    between atoms: O_2  and  C_3 
REMARK    3  A    between atoms: C_6  and  C_11 
REMARK    4  A    between atoms: C_8  and  O_9 
REMARK    5  A    between atoms: O_9  and  C_10 
REMARK    6  A    between atoms: C_16  and  O_22 
REMARK    7  A    between atoms: O_22  and  C_23 
REMARK    8  A    between atoms: C_23  and  C_24 
ROOT
ATOM      1  C   LIG d   1       5.470  -5.790  -5.786  0.00  0.00     0.067 A 
ATOM      2  C   LIG d   1       6.532  -5.082  -5.290  0.00  0.00    -0.036 A 
ATOM      3  C   LIG d   1       6.393  -3.682  -5.101  0.00  0.00     0.018 A 
ATOM      4  C   LIG d   1       7.464  -2.930  -4.595  0.00  0.00    -0.048 A 
ATOM      5  C   LIG d   1       7.327  -1.585  -4.415  0.00  0.00    -0.019 A 
ATOM      6  C   LIG d   1       6.127  -0.950  -4.732  0.00  0.00     0.125 A 
ATOM      7  C   LIG d   1       5.059  -1.676  -5.232  0.00  0.00     0.023 A 
ATOM      8  C   LIG d   1       5.181  -3.046  -5.422  0.00  0.00     0.143 A 
ATOM      9  O   LIG d   1       4.139  -3.754  -5.911  0.00  0.00    -0.422 OA
ATOM     10  C   LIG d   1       4.228  -5.080  -6.105  0.00  0.00     0.345 A 
ATOM     11  O   LIG d   1       3.275  -5.694  -6.547  0.00  0.00    -0.244 OA
ATOM     12  H   LIG d   1       7.458  -5.579  -5.047  0.00  0.00     0.063 H 
ATOM     13  H   LIG d   1       8.396  -3.416  -4.348  0.00  0.00     0.063 H 
ATOM     14  H   LIG d   1       8.153  -1.009  -4.025  0.00  0.00     0.065 H 
ATOM     15  H   LIG d   1       4.133  -1.176  -5.475  0.00  0.00     0.069 H 
ENDROOT
BRANCH   1  16
ATOM     16  C   LIG d   1       5.575  -7.252  -5.997  0.00  0.00    -0.007 A 
ATOM     17  C   LIG d   1       6.137  -7.750  -7.173  0.00  0.00    -0.050 A 
ATOM     18  C   LIG d   1       6.235  -9.112  -7.368  0.00  0.00    -0.016 A 
ATOM     19  H   LIG d   1       6.497  -7.069  -7.929  0.00  0.00     0.062 H 
ATOM     20  C   LIG d   1       5.775  -9.989  -6.398  0.00  0.00     0.162 A 
ATOM     21  H   LIG d   1       6.672  -9.496  -8.278  0.00  0.00     0.066 H 
ATOM     22  C   LIG d   1       5.212  -9.498  -5.222  0.00  0.00     0.162 A 
ATOM     23  C   LIG d   1       5.117  -8.133  -5.019  0.00  0.00    -0.008 A 
ATOM     24  H   LIG d   1       4.685  -7.751  -4.105  0.00  0.00     0.066 H 
BRANCH  20  25
ATOM     25  O   LIG d   1       5.873 -11.332  -6.594  0.00  0.00    -0.491 OA
BRANCH  25  26
ATOM     26  C   LIG d   1       4.943 -11.923  -7.503  0.00  0.00     0.079 C 
ATOM     27  H   LIG d   1       4.726 -11.222  -8.308  0.00  0.00     0.066 H 
ATOM     28  H   LIG d   1       5.372 -12.835  -7.920  0.00  0.00     0.066 H 
ATOM     29  H   LIG d   1       4.021 -12.166  -6.973  0.00  0.00     0.066 H 
ENDBRANCH  25  26
ENDBRANCH  20  25
BRANCH  22  30
ATOM     30  O   LIG d   1       4.763 -10.361  -4.271  0.00  0.00    -0.491 OA
BRANCH  30  31
ATOM     31  C   LIG d   1       3.752  -9.879  -3.384  0.00  0.00     0.079 C 
ATOM     32  H   LIG d   1       4.214  -9.284  -2.596  0.00  0.00     0.066 H 
ATOM     33  H   LIG d   1       3.046  -9.260  -3.938  0.00  0.00     0.066 H 
ATOM     34  H   LIG d   1       3.225 -10.723  -2.940  0.00  0.00     0.066 H 
ENDBRANCH  30  31
ENDBRANCH  22  30
ENDBRANCH   1  16
BRANCH   6  35
ATOM     35  O   LIG d   1       6.004   0.388  -4.547  0.00  0.00    -0.486 OA
BRANCH  35  36
ATOM     36  C   LIG d   1       6.279   0.890  -3.237  0.00  0.00     0.129 C 
ATOM     37  H   LIG d   1       6.727   0.103  -2.632  0.00  0.00     0.076 H 
ATOM     38  H   LIG d   1       6.969   1.731  -3.306  0.00  0.00     0.076 H 
BRANCH  36  39
ATOM     39  C   LIG d   1       4.995   1.349  -2.595  0.00  0.00     0.079 C 
ATOM     40  O   LIG d   1       4.174   1.948  -3.248  0.00  0.00    -0.546 OA
ATOM     41  O   LIG d   1       4.763   1.089  -1.298  0.00  0.00    -0.546 OA
ENDBRANCH  36  39
ENDBRANCH  35  36
ENDBRANCH   6  35
TORSDOF 8
ENDMDL
MODEL 5
REMARK VINA RESULT:      -5.3      3.865      8.065
REMARK  8 active torsions:
REMARK  status: ('A' for Active; 'I' for Inactive)
REMARK    1  A    between atoms: C_1  and  O_2 
REMARK    2  A    between atoms: O_2  and  C_3 
REMARK    3  A    between atoms: C_6  and  C_11 
REMARK    4  A    between atoms: C_8  and  O_9 
REMARK    5  A    between atoms: O_9  and  C_10 
REMARK    6  A    between atoms: C_16  and  O_22 
REMARK    7  A    between atoms: O_22  and  C_23 
REMARK    8  A    between atoms: C_23  and  C_24 
ROOT
ATOM      1  C   LIG d   1      10.468   7.943  -1.100  0.00  0.00     0.067 A 
ATOM      2  C   LIG d   1      10.198   7.895  -2.441  0.00  0.00    -0.036 A 
ATOM      3  C   LIG d   1       9.976   6.633  -3.050  0.00  0.00     0.018 A 
ATOM      4  C   LIG d   1       9.697   6.551  -4.423  0.00  0.00    -0.048 A 
ATOM      5  C   LIG d   1       9.484   5.336  -5.004  0.00  0.00    -0.019 A 
ATOM      6  C   LIG d   1       9.542   4.170  -4.242  0.00  0.00     0.125 A 
ATOM      7  C   LIG d   1       9.815   4.231  -2.886  0.00  0.00     0.023 A 
ATOM      8  C   LIG d   1      10.035   5.459  -2.278  0.00  0.00     0.143 A 
ATOM      9  O   LIG d   1      10.303   5.518  -0.954  0.00  0.00    -0.422 OA
ATOM     10  C   LIG d   1      10.519   6.692  -0.339  0.00  0.00     0.345 A 
ATOM     11  O   LIG d   1      10.758   6.717   0.854  0.00  0.00    -0.244 OA
ATOM     12  H   LIG d   1      10.155   8.801  -3.026  0.00  0.00     0.063 H 
ATOM     13  H   LIG d   1       9.651   7.451  -5.019  0.00  0.00     0.063 H 
ATOM     14  H   LIG d   1       9.270   5.276  -6.061  0.00  0.00     0.065 H 
ATOM     15  H   LIG d   1       9.858   3.323  -2.302  0.00  0.00     0.069 H 
ENDROOT
BRANCH   1  16
ATOM     16  C   LIG d   1      10.706   9.241  -0.428  0.00  0.00    -0.007 A 
ATOM     17  C   LIG d   1       9.628  10.059  -0.086  0.00  0.00    -0.050 A 
ATOM     18  C   LIG d   1       9.851  11.268   0.541  0.00  0.00    -0.016 A 
ATOM     19  H   LIG d   1       8.620   9.745  -0.312  0.00  0.00     0.062 H 
ATOM     20  C   LIG d   1      11.144  11.673   0.833  0.00  0.00     0.162 A 
ATOM     21  H   LIG d   1       9.016  11.899   0.805  0.00  0.00     0.066 H 
ATOM     22  C   LIG d   1      12.224  10.861   0.494  0.00  0.00     0.162 A 
ATOM     23  C   LIG d   1      12.006   9.645  -0.129  0.00  0.00    -0.008 A 
ATOM     24  H   LIG d   1      12.843   9.013  -0.387  0.00  0.00     0.066 H 
BRANCH  20  25
ATOM     25  O   LIG d   1      11.360  12.865   1.451  0.00  0.00    -0.491 OA
BRANCH  25  26
ATOM     26  C   LIG d   1      10.715  14.011   0.890  0.00  0.00     0.079 C 
ATOM     27  H   LIG d   1      10.385  14.671   1.692  0.00  0.00     0.066 H 
ATOM     28  H   LIG d   1      11.416  14.543   0.247  0.00  0.00     0.066 H 
ATOM     29  H   LIG d   1       9.854  13.693   0.303  0.00  0.00     0.066 H 
ENDBRANCH  25  26
ENDBRANCH  20  25
BRANCH  22  30
ATOM     30  O   LIG d   1      13.492  11.260   0.783  0.00  0.00    -0.491 OA
BRANCH  30  31
ATOM     31  C   LIG d   1      14.155  10.588   1.856  0.00  0.00     0.079 C 
ATOM     32  H   LIG d   1      14.942   9.950   1.454  0.00  0.00     0.066 H 
ATOM     33  H   LIG d   1      14.594  11.323   2.531  0.00  0.00     0.066 H 
ATOM     34  H   LIG d   1      13.436   9.978   2.402  0.00  0.00     0.066 H 
ENDBRANCH  30  31
ENDBRANCH  22  30
ENDBRANCH   1  16
BRANCH   6  35
ATOM     35  O   LIG d   1       9.327   2.968  -4.833  0.00  0.00    -0.486 OA
BRANCH  35  36
ATOM     36  C   LIG d   1       8.942   1.886  -3.981  0.00  0.00     0.129 C 
ATOM     37  H   LIG d   1       9.560   1.016  -4.198  0.00  0.00     0.076 H 
ATOM     38  H   LIG d   1       9.077   2.177  -2.939  0.00  0.00     0.076 H 
BRANCH  36  39
ATOM     39  C   LIG d   1       7.493   1.547  -4.223  0.00  0.00     0.079 C 
ATOM     40  O   LIG d   1       6.688   1.667  -3.329  0.00  0.00    -0.546 OA
ATOM     41  O   LIG d   1       7.097   1.114  -5.430  0.00  0.00    -0.546 OA
ENDBRANCH  36  39
ENDBRANCH  35  36
ENDBRANCH   6  35
TORSDOF 8
ENDMDL
MODEL 6
REMARK VINA RESULT:      -5.3      3.466     10.411
REMARK  8 active torsions:
REMARK  status: ('A' for Active; 'I' for Inactive)
REMARK    1  A    between atoms: C_1  and  O_2 
REMARK    2  A    between atoms: O_2  and  C_3 
REMARK    3  A    between atoms: C_6  and  C_11 
REMARK    4  A    between atoms: C_8  and  O_9 
REMARK    5  A    between atoms: O_9  and  C_10 
REMARK    6  A    between atoms: C_16  and  O_22 
REMARK    7  A    between atoms: O_22  and  C_23 
REMARK    8  A    between atoms: C_23  and  C_24 
ROOT
ATOM      1  C   LIG d   1       9.880   4.985  -3.321  0.00  0.00     0.067 A 
ATOM      2  C   LIG d   1      10.398   4.819  -2.065  0.00  0.00    -0.036 A 
ATOM      3  C   LIG d   1      10.560   5.958  -1.235  0.00  0.00     0.018 A 
ATOM      4  C   LIG d   1      11.088   5.820   0.057  0.00  0.00    -0.048 A 
ATOM      5  C   LIG d   1      11.242   6.917   0.852  0.00  0.00    -0.019 A 
ATOM      6  C   LIG d   1      10.876   8.180   0.388  0.00  0.00     0.125 A 
ATOM      7  C   LIG d   1      10.352   8.336  -0.884  0.00  0.00     0.023 A 
ATOM      8  C   LIG d   1      10.190   7.230  -1.707  0.00  0.00     0.143 A 
ATOM      9  O   LIG d   1       9.679   7.383  -2.948  0.00  0.00    -0.422 OA
ATOM     10  C   LIG d   1       9.510   6.331  -3.766  0.00  0.00     0.345 A 
ATOM     11  O   LIG d   1       9.048   6.497  -4.880  0.00  0.00    -0.244 OA
ATOM     12  H   LIG d   1      10.679   3.838  -1.712  0.00  0.00     0.063 H 
ATOM     13  H   LIG d   1      11.374   4.844   0.423  0.00  0.00     0.063 H 
ATOM     14  H   LIG d   1      11.649   6.808   1.846  0.00  0.00     0.065 H 
ATOM     15  H   LIG d   1      10.071   9.318  -1.235  0.00  0.00     0.069 H 
ENDROOT
BRANCH   1  16
ATOM     16  C   LIG d   1       9.696   3.820  -4.218  0.00  0.00    -0.007 A 
ATOM     17  C   LIG d   1      10.705   3.459  -5.111  0.00  0.00    -0.050 A 
ATOM     18  C   LIG d   1      10.533   2.374  -5.945  0.00  0.00    -0.016 A 
ATOM     19  H   LIG d   1      11.622   4.029  -5.148  0.00  0.00     0.062 H 
ATOM     20  C   LIG d   1       9.357   1.640  -5.898  0.00  0.00     0.162 A 
ATOM     21  H   LIG d   1      11.315   2.095  -6.634  0.00  0.00     0.066 H 
ATOM     22  C   LIG d   1       8.346   1.996  -5.009  0.00  0.00     0.162 A 
ATOM     23  C   LIG d   1       8.516   3.080  -4.167  0.00  0.00    -0.008 A 
ATOM     24  H   LIG d   1       7.734   3.353  -3.474  0.00  0.00     0.066 H 
BRANCH  20  25
ATOM     25  O   LIG d   1       9.191   0.570  -6.722  0.00  0.00    -0.491 OA
BRANCH  25  26
ATOM     26  C   LIG d   1       9.845  -0.644  -6.348  0.00  0.00     0.079 C 
ATOM     27  H   LIG d   1      10.912  -0.560  -6.553  0.00  0.00     0.066 H 
ATOM     28  H   LIG d   1       9.693  -0.825  -5.284  0.00  0.00     0.066 H 
ATOM     29  H   LIG d   1       9.428  -1.472  -6.921  0.00  0.00     0.066 H 
ENDBRANCH  25  26
ENDBRANCH  20  25
BRANCH  22  30
ATOM     30  O   LIG d   1       7.194   1.273  -4.965  0.00  0.00    -0.491 OA
BRANCH  30  31
ATOM     31  C   LIG d   1       6.897   0.602  -3.740  0.00  0.00     0.079 C 
ATOM     32  H   LIG d   1       7.783   0.073  -3.391  0.00  0.00     0.066 H 
ATOM     33  H   LIG d   1       6.591   1.332  -2.990  0.00  0.00     0.066 H 
ATOM     34  H   LIG d   1       6.088  -0.110  -3.902  0.00  0.00     0.066 H 
ENDBRANCH  30  31
ENDBRANCH  22  30
ENDBRANCH   1  16
BRANCH   6  35
ATOM     35  O   LIG d   1      11.033   9.264   1.190  0.00  0.00    -0.486 OA
BRANCH  35  36
ATOM     36  C   LIG d   1      12.334   9.479   1.743  0.00  0.00     0.129 C 
ATOM     37  H   LIG d   1      12.972   8.626   1.514  0.00  0.00     0.076 H 
ATOM     38  H   LIG d   1      12.767  10.382   1.313  0.00  0.00     0.076 H 
BRANCH  36  39
ATOM     39  C   LIG d   1      12.225   9.639   3.237  0.00  0.00     0.079 C 
ATOM     40  O   LIG d   1      12.205  10.744   3.726  0.00  0.00    -0.546 OA
ATOM     41  O   LIG d   1      12.148   8.554   4.025  0.00  0.00    -0.546 OA
ENDBRANCH  36  39
ENDBRANCH  35  36
ENDBRANCH   6  35
TORSDOF 8
ENDMDL
MODEL 7
REMARK VINA RESULT:      -5.3      5.430      7.359
REMARK  8 active torsions:
REMARK  status: ('A' for Active; 'I' for Inactive)
REMARK    1  A    between atoms: C_1  and  O_2 
REMARK    2  A    between atoms: O_2  and  C_3 
REMARK    3  A    between atoms: C_6  and  C_11 
REMARK    4  A    between atoms: C_8  and  O_9 
REMARK    5  A    between atoms: O_9  and  C_10 
REMARK    6  A    between atoms: C_16  and  O_22 
REMARK    7  A    between atoms: O_22  and  C_23 
REMARK    8  A    between atoms: C_23  and  C_24 
ROOT
ATOM      1  C   LIG d   1       5.536  -4.101  -4.979  0.00  0.00     0.067 A 
ATOM      2  C   LIG d   1       4.800  -5.190  -5.362  0.00  0.00    -0.036 A 
ATOM      3  C   LIG d   1       5.477  -6.388  -5.704  0.00  0.00     0.018 A 
ATOM      4  C   LIG d   1       4.749  -7.521  -6.100  0.00  0.00    -0.048 A 
ATOM      5  C   LIG d   1       5.404  -8.671  -6.428  0.00  0.00    -0.019 A 
ATOM      6  C   LIG d   1       6.796  -8.731  -6.372  0.00  0.00     0.125 A 
ATOM      7  C   LIG d   1       7.530  -7.624  -5.983  0.00  0.00     0.023 A 
ATOM      8  C   LIG d   1       6.881  -6.444  -5.647  0.00  0.00     0.143 A 
ATOM      9  O   LIG d   1       7.598  -5.364  -5.268  0.00  0.00    -0.422 OA
ATOM     10  C   LIG d   1       6.996  -4.210  -4.936  0.00  0.00     0.345 A 
ATOM     11  O   LIG d   1       7.666  -3.251  -4.598  0.00  0.00    -0.244 OA
ATOM     12  H   LIG d   1       3.722  -5.137  -5.403  0.00  0.00     0.063 H 
ATOM     13  H   LIG d   1       3.671  -7.481  -6.146  0.00  0.00     0.063 H 
ATOM     14  H   LIG d   1       4.842  -9.541  -6.733  0.00  0.00     0.065 H 
ATOM     15  H   LIG d   1       8.609  -7.678  -5.942  0.00  0.00     0.069 H 
ENDROOT
BRANCH   1  16
ATOM     16  C   LIG d   1       4.866  -2.831  -4.614  0.00  0.00    -0.007 A 
ATOM     17  C   LIG d   1       4.409  -2.631  -3.311  0.00  0.00    -0.050 A 
ATOM     18  C   LIG d   1       3.786  -1.448  -2.972  0.00  0.00    -0.016 A 
ATOM     19  H   LIG d   1       4.545  -3.402  -2.568  0.00  0.00     0.062 H 
ATOM     20  C   LIG d   1       3.612  -0.455  -3.925  0.00  0.00     0.162 A 
ATOM     21  H   LIG d   1       3.434  -1.294  -1.963  0.00  0.00     0.066 H 
ATOM     22  C   LIG d   1       4.065  -0.649  -5.228  0.00  0.00     0.162 A 
ATOM     23  C   LIG d   1       4.696  -1.831  -5.571  0.00  0.00    -0.008 A 
ATOM     24  H   LIG d   1       5.053  -1.981  -6.579  0.00  0.00     0.066 H 
BRANCH  20  25
ATOM     25  O   LIG d   1       2.997   0.710  -3.587  0.00  0.00    -0.491 OA
BRANCH  25  26
ATOM     26  C   LIG d   1       3.627   1.508  -2.582  0.00  0.00     0.079 C 
ATOM     27  H   LIG d   1       4.460   0.955  -2.149  0.00  0.00     0.066 H 
ATOM     28  H   LIG d   1       3.996   2.431  -3.030  0.00  0.00     0.066 H 
ATOM     29  H   LIG d   1       2.904   1.747  -1.802  0.00  0.00     0.066 H 
ENDBRANCH  25  26
ENDBRANCH  20  25
BRANCH  22  30
ATOM     30  O   LIG d   1       3.894   0.327  -6.160  0.00  0.00    -0.491 OA
BRANCH  30  31
ATOM     31  C   LIG d   1       2.934   0.080  -7.188  0.00  0.00     0.079 C 
ATOM     32  H   LIG d   1       1.929   0.224  -6.790  0.00  0.00     0.066 H 
ATOM     33  H   LIG d   1       3.099   0.771  -8.014  0.00  0.00     0.066 H 
ATOM     34  H   LIG d   1       3.039  -0.944  -7.545  0.00  0.00     0.066 H 
ENDBRANCH  30  31
ENDBRANCH  22  30
ENDBRANCH   1  16
BRANCH   6  35
ATOM     35  O   LIG d   1       7.434  -9.882  -6.700  0.00  0.00    -0.486 OA
BRANCH  35  36
ATOM     36  C   LIG d   1       6.626 -11.050  -6.858  0.00  0.00     0.129 C 
ATOM     37  H   LIG d   1       5.574 -10.770  -6.835  0.00  0.00     0.076 H 
ATOM     38  H   LIG d   1       6.854 -11.524  -7.813  0.00  0.00     0.076 H 
BRANCH  36  39
ATOM     39  C   LIG d   1       6.914 -12.016  -5.738  0.00  0.00     0.079 C 
ATOM     40  O   LIG d   1       8.052 -12.353  -5.510  0.00  0.00    -0.546 OA
ATOM     41  O   LIG d   1       5.908 -12.501  -4.993  0.00  0.00    -0.546 OA
ENDBRANCH  36  39
ENDBRANCH  35  36
ENDBRANCH   6  35
TORSDOF 8
ENDMDL
MODEL 8
REMARK VINA RESULT:      -5.2      3.460     10.223
REMARK  8 active torsions:
REMARK  status: ('A' for Active; 'I' for Inactive)
REMARK    1  A    between atoms: C_1  and  O_2 
REMARK    2  A    between atoms: O_2  and  C_3 
REMARK    3  A    between atoms: C_6  and  C_11 
REMARK    4  A    between atoms: C_8  and  O_9 
REMARK    5  A    between atoms: O_9  and  C_10 
REMARK    6  A    between atoms: C_16  and  O_22 
REMARK    7  A    between atoms: O_22  and  C_23 
REMARK    8  A    between atoms: C_23  and  C_24 
ROOT
ATOM      1  C   LIG d   1       9.911   4.295  -3.437  0.00  0.00     0.067 A 
ATOM      2  C   LIG d   1       9.471   5.568  -3.191  0.00  0.00    -0.036 A 
ATOM      3  C   LIG d   1       9.934   6.240  -2.031  0.00  0.00     0.018 A 
ATOM      4  C   LIG d   1       9.501   7.546  -1.752  0.00  0.00    -0.048 A 
ATOM      5  C   LIG d   1       9.949   8.188  -0.636  0.00  0.00    -0.019 A 
ATOM      6  C   LIG d   1      10.837   7.556   0.233  0.00  0.00     0.125 A 
ATOM      7  C   LIG d   1      11.276   6.269  -0.026  0.00  0.00     0.023 A 
ATOM      8  C   LIG d   1      10.830   5.599  -1.157  0.00  0.00     0.143 A 
ATOM      9  O   LIG d   1      11.258   4.342  -1.409  0.00  0.00    -0.422 OA
ATOM     10  C   LIG d   1      10.844   3.671  -2.496  0.00  0.00     0.345 A 
ATOM     11  O   LIG d   1      11.245   2.539  -2.700  0.00  0.00    -0.244 OA
ATOM     12  H   LIG d   1       8.783   6.052  -3.868  0.00  0.00     0.063 H 
ATOM     13  H   LIG d   1       8.813   8.041  -2.421  0.00  0.00     0.063 H 
ATOM     14  H   LIG d   1       9.614   9.192  -0.423  0.00  0.00     0.065 H 
ATOM     15  H   LIG d   1      11.965   5.786   0.652  0.00  0.00     0.069 H 
ENDROOT
BRANCH   1  16
ATOM     16  C   LIG d   1       9.450   3.560  -4.638  0.00  0.00    -0.007 A 
ATOM     17  C   LIG d   1       9.990   3.857  -5.890  0.00  0.00    -0.050 A 
ATOM     18  C   LIG d   1       9.561   3.171  -7.007  0.00  0.00    -0.016 A 
ATOM     19  H   LIG d   1      10.745   4.623  -5.983  0.00  0.00     0.062 H 
ATOM     20  C   LIG d   1       8.593   2.185  -6.889  0.00  0.00     0.162 A 
ATOM     21  H   LIG d   1       9.980   3.401  -7.975  0.00  0.00     0.066 H 
ATOM     22  C   LIG d   1       8.049   1.884  -5.642  0.00  0.00     0.162 A 
ATOM     23  C   LIG d   1       8.480   2.565  -4.518  0.00  0.00    -0.008 A 
ATOM     24  H   LIG d   1       8.064   2.329  -3.550  0.00  0.00     0.066 H 
BRANCH  20  25
ATOM     25  O   LIG d   1       8.172   1.511  -7.993  0.00  0.00    -0.491 OA
BRANCH  25  26
ATOM     26  C   LIG d   1       7.544   2.280  -9.022  0.00  0.00     0.079 C 
ATOM     27  H   LIG d   1       6.473   2.081  -9.022  0.00  0.00     0.066 H 
ATOM     28  H   LIG d   1       7.717   3.341  -8.839  0.00  0.00     0.066 H 
ATOM     29  H   LIG d   1       7.966   2.006  -9.989  0.00  0.00     0.066 H 
ENDBRANCH  25  26
ENDBRANCH  20  25
BRANCH  22  30
ATOM     30  O   LIG d   1       7.100   0.916  -5.530  0.00  0.00    -0.491 OA
BRANCH  30  31
ATOM     31  C   LIG d   1       7.075   0.172  -4.311  0.00  0.00     0.079 C 
ATOM     32  H   LIG d   1       7.701  -0.715  -4.414  0.00  0.00     0.066 H 
ATOM     33  H   LIG d   1       7.455   0.791  -3.498  0.00  0.00     0.066 H 
ATOM     34  H   LIG d   1       6.051  -0.129  -4.090  0.00  0.00     0.066 H 
ENDBRANCH  30  31
ENDBRANCH  22  30
ENDBRANCH   1  16
BRANCH   6  35
ATOM     35  O   LIG d   1      11.276   8.208   1.339  0.00  0.00    -0.486 OA
BRANCH  35  36
ATOM     36  C   LIG d   1      11.406   9.628   1.247  0.00  0.00     0.129 C 
ATOM     37  H   LIG d   1      11.753   9.897   0.250  0.00  0.00     0.076 H 
ATOM     38  H   LIG d   1      10.439  10.095   1.432  0.00  0.00     0.076 H 
BRANCH  36  39
ATOM     39  C   LIG d   1      12.400  10.109   2.272  0.00  0.00     0.079 C 
ATOM     40  O   LIG d   1      13.437   9.510   2.437  0.00  0.00    -0.546 OA
ATOM     41  O   LIG d   1      12.134  11.205   3.002  0.00  0.00    -0.546 OA
ENDBRANCH  36  39
ENDBRANCH  35  36
ENDBRANCH   6  35
TORSDOF 8
ENDMDL
MODEL 9
REMARK VINA RESULT:      -5.2      6.093      8.349
REMARK  8 active torsions:
REMARK  status: ('A' for Active; 'I' for Inactive)
REMARK    1  A    between atoms: C_1  and  O_2 
REMARK    2  A    between atoms: O_2  and  C_3 
REMARK    3  A    between atoms: C_6  and  C_11 
REMARK    4  A    between atoms: C_8  and  O_9 
REMARK    5  A    between atoms: O_9  and  C_10 
REMARK    6  A    between atoms: C_16  and  O_22 
REMARK    7  A    between atoms: O_22  and  C_23 
REMARK    8  A    between atoms: C_23  and  C_24 
ROOT
ATOM      1  C   LIG d   1      10.025   5.671  -4.996  0.00  0.00     0.067 A 
ATOM      2  C   LIG d   1       9.998   6.666  -5.936  0.00  0.00    -0.036 A 
ATOM      3  C   LIG d   1       9.763   6.322  -7.292  0.00  0.00     0.018 A 
ATOM      4  C   LIG d   1       9.729   7.320  -8.278  0.00  0.00    -0.048 A 
ATOM      5  C   LIG d   1       9.503   6.984  -9.580  0.00  0.00    -0.019 A 
ATOM      6  C   LIG d   1       9.303   5.652  -9.940  0.00  0.00     0.125 A 
ATOM      7  C   LIG d   1       9.331   4.654  -8.981  0.00  0.00     0.023 A 
ATOM      8  C   LIG d   1       9.562   4.977  -7.651  0.00  0.00     0.143 A 
ATOM      9  O   LIG d   1       9.590   4.002  -6.716  0.00  0.00    -0.422 OA
ATOM     10  C   LIG d   1       9.810   4.285  -5.422  0.00  0.00     0.345 A 
ATOM     11  O   LIG d   1       9.831   3.388  -4.599  0.00  0.00    -0.244 OA
ATOM     12  H   LIG d   1      10.154   7.696  -5.651  0.00  0.00     0.063 H 
ATOM     13  H   LIG d   1       9.884   8.353  -8.005  0.00  0.00     0.063 H 
ATOM     14  H   LIG d   1       9.478   7.754 -10.337  0.00  0.00     0.065 H 
ATOM     15  H   LIG d   1       9.175   3.624  -9.269  0.00  0.00     0.069 H 
ENDROOT
BRANCH   1  16
ATOM     16  C   LIG d   1      10.268   5.990  -3.571  0.00  0.00    -0.007 A 
ATOM     17  C   LIG d   1      11.431   5.543  -2.942  0.00  0.00    -0.050 A 
ATOM     18  C   LIG d   1      11.656   5.842  -1.615  0.00  0.00    -0.016 A 
ATOM     19  H   LIG d   1      12.155   4.964  -3.496  0.00  0.00     0.062 H 
ATOM     20  C   LIG d   1      10.729   6.586  -0.901  0.00  0.00     0.162 A 
ATOM     21  H   LIG d   1      12.557   5.496  -1.130  0.00  0.00     0.066 H 
ATOM     22  C   LIG d   1       9.566   7.035  -1.523  0.00  0.00     0.162 A 
ATOM     23  C   LIG d   1       9.338   6.744  -2.856  0.00  0.00    -0.008 A 
ATOM     24  H   LIG d   1       8.439   7.095  -3.340  0.00  0.00     0.066 H 
BRANCH  20  25
ATOM     25  O   LIG d   1      10.955   6.879   0.408  0.00  0.00    -0.491 OA
BRANCH  25  26
ATOM     26  C   LIG d   1      11.116   5.774   1.300  0.00  0.00     0.079 C 
ATOM     27  H   LIG d   1      10.349   5.816   2.073  0.00  0.00     0.066 H 
ATOM     28  H   LIG d   1      11.021   4.841   0.744  0.00  0.00     0.066 H 
ATOM     29  H   LIG d   1      12.101   5.821   1.763  0.00  0.00     0.066 H 
ENDBRANCH  25  26
ENDBRANCH  20  25
BRANCH  22  30
ATOM     30  O   LIG d   1       8.658   7.766  -0.821  0.00  0.00    -0.491 OA
BRANCH  30  31
ATOM     31  C   LIG d   1       8.793   9.188  -0.872  0.00  0.00     0.079 C 
ATOM     32  H   LIG d   1       8.329   9.564  -1.783  0.00  0.00     0.066 H 
ATOM     33  H   LIG d   1       8.302   9.631  -0.005  0.00  0.00     0.066 H 
ATOM     34  H   LIG d   1       9.850   9.453  -0.865  0.00  0.00     0.066 H 
ENDBRANCH  30  31
ENDBRANCH  22  30
ENDBRANCH   1  16
BRANCH   6  35
ATOM     35  O   LIG d   1       9.077   5.333 -11.240  0.00  0.00    -0.486 OA
BRANCH  35  36
ATOM     36  C   LIG d   1      10.074   5.722 -12.186  0.00  0.00     0.129 C 
ATOM     37  H   LIG d   1      10.285   6.785 -12.077  0.00  0.00     0.076 H 
ATOM     38  H   LIG d   1      10.987   5.152 -12.009  0.00  0.00     0.076 H 
BRANCH  36  39
ATOM     39  C   LIG d   1       9.577   5.449 -13.582  0.00  0.00     0.079 C 
ATOM     40  O   LIG d   1      10.333   5.013 -14.418  0.00  0.00    -0.546 OA
ATOM     41  O   LIG d   1       8.293   5.688 -13.896  0.00  0.00    -0.546 OA
ENDBRANCH  36  39
ENDBRANCH  35  36
ENDBRANCH   6  35
TORSDOF 8
ENDMDL
