MODEL 1
REMARK VINA RESULT:      -7.7      0.000      0.000
REMARK  5 active torsions:
REMARK  status: ('A' for Active; 'I' for Inactive)
REMARK    1  A    between atoms: C_4  and  C_7 
REMARK    2  A    between atoms: C_8  and  C_9 
REMARK    3  A    between atoms: C_9  and  O_10 
REMARK    4  A    between atoms: O_10  and  C_11 
REMARK    5  A    between atoms: C_15  and  C_22 
ROOT
ATOM      1  C   LIG d   1       6.444  -7.031  -5.619  0.00  0.00     0.124 A 
ATOM      2  C   LIG d   1       7.547  -7.523  -4.926  0.00  0.00    -0.019 A 
ATOM      3  C   LIG d   1       7.424  -8.618  -4.119  0.00  0.00    -0.047 A 
ATOM      4  C   LIG d   1       6.187  -9.254  -3.996  0.00  0.00     0.025 A 
ATOM      5  C   LIG d   1       6.027 -10.439  -3.136  0.00  0.00    -0.001 A 
ATOM      6  C   LIG d   1       4.774 -11.017  -3.061  0.00  0.00     0.031 A 
ATOM      7  C   LIG d   1       3.711 -10.464  -3.795  0.00  0.00     0.338 A 
ATOM      8  O   LIG d   1       2.609 -10.980  -3.722  0.00  0.00    -0.245 OA
ATOM      9  O   LIG d   1       3.875  -9.382  -4.573  0.00  0.00    -0.422 OA
ATOM     10  C   LIG d   1       5.070  -8.766  -4.694  0.00  0.00     0.143 A 
ATOM     11  C   LIG d   1       5.210  -7.650  -5.506  0.00  0.00     0.023 A 
ATOM     12  H   LIG d   1       8.506  -7.034  -5.025  0.00  0.00     0.065 H 
ATOM     13  H   LIG d   1       8.283  -8.993  -3.582  0.00  0.00     0.063 H 
ATOM     14  H   LIG d   1       4.613 -11.887  -2.442  0.00  0.00     0.070 H 
ATOM     15  H   LIG d   1       4.359  -7.265  -6.049  0.00  0.00     0.069 H 
ENDROOT
BRANCH   1  16
ATOM     16  O   LIG d   1       6.579  -5.938  -6.413  0.00  0.00    -0.488 OA
BRANCH  16  17
ATOM     17  C   LIG d   1       7.265  -4.814  -5.858  0.00  0.00     0.108 C 
ATOM     18  H   LIG d   1       7.706  -4.225  -6.663  0.00  0.00     0.074 H 
ATOM     19  H   LIG d   1       8.053  -5.163  -5.190  0.00  0.00     0.074 H 
BRANCH  17  20
ATOM     20  C   LIG d   1       6.291  -3.961  -5.087  0.00  0.00    -0.047 C 
ATOM     21  C   LIG d   1       6.733  -2.952  -4.350  0.00  0.00    -0.055 C 
ATOM     22  H   LIG d   1       7.792  -2.741  -4.302  0.00  0.00     0.062 H 
ATOM     23  H   LIG d   1       5.233  -4.171  -5.135  0.00  0.00     0.061 H 
BRANCH  21  24
ATOM     24  C   LIG d   1       5.778  -2.115  -3.594  0.00  0.00    -0.025 A 
ATOM     25  C   LIG d   1       4.504  -2.599  -3.298  0.00  0.00    -0.055 A 
ATOM     26  C   LIG d   1       3.617  -1.813  -2.591  0.00  0.00    -0.061 A 
ATOM     27  H   LIG d   1       4.212  -3.588  -3.621  0.00  0.00     0.062 H 
ATOM     28  C   LIG d   1       3.989  -0.547  -2.176  0.00  0.00    -0.062 A 
ATOM     29  H   LIG d   1       2.630  -2.187  -2.361  0.00  0.00     0.062 H 
ATOM     30  C   LIG d   1       5.251  -0.060  -2.468  0.00  0.00    -0.061 A 
ATOM     31  H   LIG d   1       3.291   0.064  -1.624  0.00  0.00     0.062 H 
ATOM     32  C   LIG d   1       6.149  -0.839  -3.168  0.00  0.00    -0.055 A 
ATOM     33  H   LIG d   1       5.535   0.929  -2.142  0.00  0.00     0.062 H 
ATOM     34  H   LIG d   1       7.136  -0.460  -3.390  0.00  0.00     0.062 H 
ENDBRANCH  21  24
ENDBRANCH  17  20
ENDBRANCH  16  17
ENDBRANCH   1  16
BRANCH   5  35
ATOM     35  C   LIG d   1       7.171 -10.994  -2.380  0.00  0.00    -0.017 A 
ATOM     36  C   LIG d   1       7.473 -10.503  -1.109  0.00  0.00    -0.054 A 
ATOM     37  C   LIG d   1       8.541 -11.025  -0.408  0.00  0.00    -0.061 A 
ATOM     38  H   LIG d   1       6.874  -9.718  -0.674  0.00  0.00     0.062 H 
ATOM     39  C   LIG d   1       9.312 -12.032  -0.963  0.00  0.00    -0.062 A 
ATOM     40  H   LIG d   1       8.778 -10.647   0.575  0.00  0.00     0.062 H 
ATOM     41  C   LIG d   1       9.017 -12.522  -2.223  0.00  0.00    -0.061 A 
ATOM     42  H   LIG d   1      10.147 -12.437  -0.410  0.00  0.00     0.062 H 
ATOM     43  C   LIG d   1       7.949 -12.013  -2.932  0.00  0.00    -0.054 A 
ATOM     44  H   LIG d   1       9.622 -13.308  -2.651  0.00  0.00     0.062 H 
ATOM     45  H   LIG d   1       7.716 -12.399  -3.913  0.00  0.00     0.062 H 
ENDBRANCH   5  35
TORSDOF 5
ENDMDL
MODEL 2
REMARK VINA RESULT:      -7.5      7.999     14.296
REMARK  5 active torsions:
REMARK  status: ('A' for Active; 'I' for Inactive)
REMARK    1  A    between atoms: C_4  and  C_7 
REMARK    2  A    between atoms: C_8  and  C_9 
REMARK    3  A    between atoms: C_9  and  O_10 
REMARK    4  A    between atoms: O_10  and  C_11 
REMARK    5  A    between atoms: C_15  and  C_22 
ROOT
ATOM      1  C   LIG d   1      10.322   2.771  -4.308  0.00  0.00     0.124 A 
ATOM      2  C   LIG d   1      10.461   3.550  -5.455  0.00  0.00    -0.019 A 
ATOM      3  C   LIG d   1      10.410   4.911  -5.375  0.00  0.00    -0.047 A 
ATOM      4  C   LIG d   1      10.227   5.528  -4.136  0.00  0.00     0.025 A 
ATOM      5  C   LIG d   1      10.173   6.996  -4.021  0.00  0.00    -0.001 A 
ATOM      6  C   LIG d   1       9.988   7.538  -2.763  0.00  0.00     0.031 A 
ATOM      7  C   LIG d   1       9.861   6.685  -1.653  0.00  0.00     0.338 A 
ATOM      8  O   LIG d   1       9.698   7.172  -0.548  0.00  0.00    -0.245 OA
ATOM      9  O   LIG d   1       9.912   5.350  -1.777  0.00  0.00    -0.422 OA
ATOM     10  C   LIG d   1      10.089   4.751  -2.974  0.00  0.00     0.143 A 
ATOM     11  C   LIG d   1      10.139   3.368  -3.072  0.00  0.00     0.023 A 
ATOM     12  H   LIG d   1      10.608   3.073  -6.413  0.00  0.00     0.065 H 
ATOM     13  H   LIG d   1      10.516   5.510  -6.268  0.00  0.00     0.063 H 
ATOM     14  H   LIG d   1       9.942   8.609  -2.634  0.00  0.00     0.070 H 
ATOM     15  H   LIG d   1      10.035   2.758  -2.186  0.00  0.00     0.069 H 
ENDROOT
BRANCH   1  16
ATOM     16  O   LIG d   1      10.370   1.418  -4.403  0.00  0.00    -0.488 OA
BRANCH  16  17
ATOM     17  C   LIG d   1       9.460   0.798  -5.314  0.00  0.00     0.108 C 
ATOM     18  H   LIG d   1       9.979   0.019  -5.872  0.00  0.00     0.074 H 
ATOM     19  H   LIG d   1       9.075   1.547  -6.007  0.00  0.00     0.074 H 
BRANCH  17  20
ATOM     20  C   LIG d   1       8.316   0.188  -4.545  0.00  0.00    -0.047 C 
ATOM     21  C   LIG d   1       7.372   0.965  -4.034  0.00  0.00    -0.055 C 
ATOM     22  H   LIG d   1       7.421   2.036  -4.169  0.00  0.00     0.062 H 
ATOM     23  H   LIG d   1       8.266  -0.882  -4.410  0.00  0.00     0.061 H 
BRANCH  21  24
ATOM     24  C   LIG d   1       6.250   0.367  -3.280  0.00  0.00    -0.025 A 
ATOM     25  C   LIG d   1       6.076  -1.017  -3.264  0.00  0.00    -0.055 A 
ATOM     26  C   LIG d   1       5.028  -1.569  -2.558  0.00  0.00    -0.061 A 
ATOM     27  H   LIG d   1       6.762  -1.655  -3.802  0.00  0.00     0.062 H 
ATOM     28  C   LIG d   1       4.148  -0.753  -1.867  0.00  0.00    -0.062 A 
ATOM     29  H   LIG d   1       4.892  -2.641  -2.543  0.00  0.00     0.062 H 
ATOM     30  C   LIG d   1       4.314   0.620  -1.881  0.00  0.00    -0.061 A 
ATOM     31  H   LIG d   1       3.329  -1.191  -1.317  0.00  0.00     0.062 H 
ATOM     32  C   LIG d   1       5.363   1.184  -2.578  0.00  0.00    -0.055 A 
ATOM     33  H   LIG d   1       3.625   1.251  -1.341  0.00  0.00     0.062 H 
ATOM     34  H   LIG d   1       5.495   2.256  -2.583  0.00  0.00     0.062 H 
ENDBRANCH  21  24
ENDBRANCH  17  20
ENDBRANCH  16  17
ENDBRANCH   1  16
BRANCH   5  35
ATOM     35  C   LIG d   1      10.312   7.861  -5.212  0.00  0.00    -0.017 A 
ATOM     36  C   LIG d   1       9.204   8.125  -6.019  0.00  0.00    -0.054 A 
ATOM     37  C   LIG d   1       9.341   8.933  -7.129  0.00  0.00    -0.061 A 
ATOM     38  H   LIG d   1       8.243   7.699  -5.776  0.00  0.00     0.062 H 
ATOM     39  C   LIG d   1      10.573   9.481  -7.443  0.00  0.00    -0.062 A 
ATOM     40  H   LIG d   1       8.486   9.139  -7.755  0.00  0.00     0.062 H 
ATOM     41  C   LIG d   1      11.675   9.222  -6.646  0.00  0.00    -0.061 A 
ATOM     42  H   LIG d   1      10.675  10.113  -8.313  0.00  0.00     0.062 H 
ATOM     43  C   LIG d   1      11.550   8.421  -5.531  0.00  0.00    -0.054 A 
ATOM     44  H   LIG d   1      12.633   9.653  -6.897  0.00  0.00     0.062 H 
ATOM     45  H   LIG d   1      12.410   8.223  -4.907  0.00  0.00     0.062 H 
ENDBRANCH   5  35
TORSDOF 5
ENDMDL
MODEL 3
REMARK VINA RESULT:      -7.5      8.529     15.156
REMARK  5 active torsions:
REMARK  status: ('A' for Active; 'I' for Inactive)
REMARK    1  A    between atoms: C_4  and  C_7 
REMARK    2  A    between atoms: C_8  and  C_9 
REMARK    3  A    between atoms: C_9  and  O_10 
REMARK    4  A    between atoms: O_10  and  C_11 
REMARK    5  A    between atoms: C_15  and  C_22 
ROOT
ATOM      1  C   LIG d   1      10.019   4.158  -3.490  0.00  0.00     0.124 A 
ATOM      2  C   LIG d   1      10.294   4.805  -2.288  0.00  0.00    -0.019 A 
ATOM      3  C   LIG d   1      10.309   6.168  -2.226  0.00  0.00    -0.047 A 
ATOM      4  C   LIG d   1      10.038   6.919  -3.372  0.00  0.00     0.025 A 
ATOM      5  C   LIG d   1      10.043   8.391  -3.332  0.00  0.00    -0.001 A 
ATOM      6  C   LIG d   1       9.766   9.070  -4.504  0.00  0.00     0.031 A 
ATOM      7  C   LIG d   1       9.494   8.344  -5.677  0.00  0.00     0.338 A 
ATOM      8  O   LIG d   1       9.252   8.950  -6.705  0.00  0.00    -0.245 OA
ATOM      9  O   LIG d   1       9.494   7.002  -5.694  0.00  0.00    -0.422 OA
ATOM     10  C   LIG d   1       9.756   6.274  -4.588  0.00  0.00     0.143 A 
ATOM     11  C   LIG d   1       9.749   4.888  -4.636  0.00  0.00     0.023 A 
ATOM     12  H   LIG d   1      10.499   4.224  -1.400  0.00  0.00     0.065 H 
ATOM     13  H   LIG d   1      10.525   6.665  -1.292  0.00  0.00     0.063 H 
ATOM     14  H   LIG d   1       9.760  10.149  -4.519  0.00  0.00     0.070 H 
ATOM     15  H   LIG d   1       9.533   4.379  -5.564  0.00  0.00     0.069 H 
ENDROOT
BRANCH   1  16
ATOM     16  O   LIG d   1      10.013   2.801  -3.539  0.00  0.00    -0.488 OA
BRANCH  16  17
ATOM     17  C   LIG d   1       9.150   2.189  -4.500  0.00  0.00     0.108 C 
ATOM     18  H   LIG d   1       9.652   1.329  -4.942  0.00  0.00     0.074 H 
ATOM     19  H   LIG d   1       8.909   2.911  -5.281  0.00  0.00     0.074 H 
BRANCH  17  20
ATOM     20  C   LIG d   1       7.882   1.738  -3.823  0.00  0.00    -0.047 C 
ATOM     21  C   LIG d   1       7.523   0.463  -3.872  0.00  0.00    -0.055 C 
ATOM     22  H   LIG d   1       8.139  -0.253  -4.397  0.00  0.00     0.062 H 
ATOM     23  H   LIG d   1       7.266   2.452  -3.298  0.00  0.00     0.061 H 
BRANCH  21  24
ATOM     24  C   LIG d   1       6.279   0.019  -3.208  0.00  0.00    -0.025 A 
ATOM     25  C   LIG d   1       5.438   0.952  -2.601  0.00  0.00    -0.055 A 
ATOM     26  C   LIG d   1       4.279   0.531  -1.984  0.00  0.00    -0.061 A 
ATOM     27  H   LIG d   1       5.693   2.001  -2.616  0.00  0.00     0.062 H 
ATOM     28  C   LIG d   1       3.949  -0.813  -1.964  0.00  0.00    -0.062 A 
ATOM     29  H   LIG d   1       3.625   1.252  -1.514  0.00  0.00     0.062 H 
ATOM     30  C   LIG d   1       4.780  -1.743  -2.562  0.00  0.00    -0.061 A 
ATOM     31  H   LIG d   1       3.041  -1.137  -1.478  0.00  0.00     0.062 H 
ATOM     32  C   LIG d   1       5.940  -1.334  -3.189  0.00  0.00    -0.055 A 
ATOM     33  H   LIG d   1       4.519  -2.790  -2.543  0.00  0.00     0.062 H 
ATOM     34  H   LIG d   1       6.585  -2.061  -3.661  0.00  0.00     0.062 H 
ENDBRANCH  21  24
ENDBRANCH  17  20
ENDBRANCH  16  17
ENDBRANCH   1  16
BRANCH   5  35
ATOM     35  C   LIG d   1      10.333   9.121  -2.078  0.00  0.00    -0.017 A 
ATOM     36  C   LIG d   1      11.646   9.468  -1.758  0.00  0.00    -0.054 A 
ATOM     37  C   LIG d   1      11.911  10.148  -0.587  0.00  0.00    -0.061 A 
ATOM     38  H   LIG d   1      12.454   9.205  -2.424  0.00  0.00     0.062 H 
ATOM     39  C   LIG d   1      10.877  10.486   0.269  0.00  0.00    -0.062 A 
ATOM     40  H   LIG d   1      12.925  10.416  -0.336  0.00  0.00     0.062 H 
ATOM     41  C   LIG d   1       9.572  10.144  -0.043  0.00  0.00    -0.061 A 
ATOM     42  H   LIG d   1      11.088  11.018   1.185  0.00  0.00     0.062 H 
ATOM     43  C   LIG d   1       9.294   9.469  -1.213  0.00  0.00    -0.054 A 
ATOM     44  H   LIG d   1       8.770  10.410   0.629  0.00  0.00     0.062 H 
ATOM     45  H   LIG d   1       8.276   9.207  -1.459  0.00  0.00     0.062 H 
ENDBRANCH   5  35
TORSDOF 5
ENDMDL
MODEL 4
REMARK VINA RESULT:      -7.5      8.495     15.138
REMARK  5 active torsions:
REMARK  status: ('A' for Active; 'I' for Inactive)
REMARK    1  A    between atoms: C_4  and  C_7 
REMARK    2  A    between atoms: C_8  and  C_9 
REMARK    3  A    between atoms: C_9  and  O_10 
REMARK    4  A    between atoms: O_10  and  C_11 
REMARK    5  A    between atoms: C_15  and  C_22 
ROOT
ATOM      1  C   LIG d   1       9.485   4.427  -4.088  0.00  0.00     0.124 A 
ATOM      2  C   LIG d   1       9.308   5.720  -4.573  0.00  0.00    -0.019 A 
ATOM      3  C   LIG d   1       9.663   6.797  -3.813  0.00  0.00    -0.047 A 
ATOM      4  C   LIG d   1      10.216   6.601  -2.546  0.00  0.00     0.025 A 
ATOM      5  C   LIG d   1      10.612   7.744  -1.707  0.00  0.00    -0.001 A 
ATOM      6  C   LIG d   1      11.152   7.476  -0.463  0.00  0.00     0.031 A 
ATOM      7  C   LIG d   1      11.303   6.142  -0.046  0.00  0.00     0.338 A 
ATOM      8  O   LIG d   1      11.779   5.915   1.052  0.00  0.00    -0.245 OA
ATOM      9  O   LIG d   1      10.936   5.112  -0.825  0.00  0.00    -0.422 OA
ATOM     10  C   LIG d   1      10.401   5.299  -2.051  0.00  0.00     0.143 A 
ATOM     11  C   LIG d   1      10.031   4.215  -2.833  0.00  0.00     0.023 A 
ATOM     12  H   LIG d   1       8.885   5.872  -5.555  0.00  0.00     0.065 H 
ATOM     13  H   LIG d   1       9.521   7.798  -4.193  0.00  0.00     0.063 H 
ATOM     14  H   LIG d   1      11.455   8.285   0.184  0.00  0.00     0.070 H 
ATOM     15  H   LIG d   1      10.169   3.209  -2.464  0.00  0.00     0.069 H 
ENDROOT
BRANCH   1  16
ATOM     16  O   LIG d   1       9.123   3.365  -4.853  0.00  0.00    -0.488 OA
BRANCH  16  17
ATOM     17  C   LIG d   1       9.071   2.089  -4.210  0.00  0.00     0.108 C 
ATOM     18  H   LIG d   1       9.708   2.103  -3.325  0.00  0.00     0.074 H 
ATOM     19  H   LIG d   1       9.422   1.322  -4.900  0.00  0.00     0.074 H 
BRANCH  17  20
ATOM     20  C   LIG d   1       7.651   1.789  -3.802  0.00  0.00    -0.047 C 
ATOM     21  C   LIG d   1       7.308   0.555  -3.461  0.00  0.00    -0.055 C 
ATOM     22  H   LIG d   1       8.044  -0.235  -3.475  0.00  0.00     0.062 H 
ATOM     23  H   LIG d   1       6.915   2.578  -3.788  0.00  0.00     0.061 H 
BRANCH  21  24
ATOM     24  C   LIG d   1       5.916   0.260  -3.061  0.00  0.00    -0.025 A 
ATOM     25  C   LIG d   1       5.059   1.296  -2.687  0.00  0.00    -0.055 A 
ATOM     26  C   LIG d   1       3.761   1.013  -2.316  0.00  0.00    -0.061 A 
ATOM     27  H   LIG d   1       5.412   2.316  -2.690  0.00  0.00     0.062 H 
ATOM     28  C   LIG d   1       3.308  -0.294  -2.312  0.00  0.00    -0.062 A 
ATOM     29  H   LIG d   1       3.097   1.814  -2.026  0.00  0.00     0.062 H 
ATOM     30  C   LIG d   1       4.152  -1.326  -2.680  0.00  0.00    -0.061 A 
ATOM     31  H   LIG d   1       2.291  -0.509  -2.020  0.00  0.00     0.062 H 
ATOM     32  C   LIG d   1       5.451  -1.056  -3.061  0.00  0.00    -0.055 A 
ATOM     33  H   LIG d   1       3.793  -2.344  -2.675  0.00  0.00     0.062 H 
ATOM     34  H   LIG d   1       6.108  -1.862  -3.353  0.00  0.00     0.062 H 
ENDBRANCH  21  24
ENDBRANCH  17  20
ENDBRANCH  16  17
ENDBRANCH   1  16
BRANCH   5  35
ATOM     35  C   LIG d   1      10.439   9.135  -2.179  0.00  0.00    -0.017 A 
ATOM     36  C   LIG d   1      11.392   9.712  -3.020  0.00  0.00    -0.054 A 
ATOM     37  C   LIG d   1      11.225  11.010  -3.458  0.00  0.00    -0.061 A 
ATOM     38  H   LIG d   1      12.257   9.146  -3.328  0.00  0.00     0.062 H 
ATOM     39  C   LIG d   1      10.116  11.739  -3.065  0.00  0.00    -0.062 A 
ATOM     40  H   LIG d   1      11.961  11.459  -4.108  0.00  0.00     0.062 H 
ATOM     41  C   LIG d   1       9.168  11.172  -2.231  0.00  0.00    -0.061 A 
ATOM     42  H   LIG d   1       9.990  12.755  -3.410  0.00  0.00     0.062 H 
ATOM     43  C   LIG d   1       9.321   9.874  -1.790  0.00  0.00    -0.054 A 
ATOM     44  H   LIG d   1       8.305  11.746  -1.927  0.00  0.00     0.062 H 
ATOM     45  H   LIG d   1       8.578   9.430  -1.143  0.00  0.00     0.062 H 
ENDBRANCH   5  35
TORSDOF 5
ENDMDL
MODEL 5
REMARK VINA RESULT:      -7.3      2.460      8.285
REMARK  5 active torsions:
REMARK  status: ('A' for Active; 'I' for Inactive)
REMARK    1  A    between atoms: C_4  and  C_7 
REMARK    2  A    between atoms: C_8  and  C_9 
REMARK    3  A    between atoms: C_9  and  O_10 
REMARK    4  A    between atoms: O_10  and  C_11 
REMARK    5  A    between atoms: C_15  and  C_22 
ROOT
ATOM      1  C   LIG d   1       9.097  -4.777  -4.230  0.00  0.00     0.124 A 
ATOM      2  C   LIG d   1       8.921  -3.691  -3.376  0.00  0.00    -0.019 A 
ATOM      3  C   LIG d   1       7.793  -2.928  -3.453  0.00  0.00    -0.047 A 
ATOM      4  C   LIG d   1       6.803  -3.244  -4.388  0.00  0.00     0.025 A 
ATOM      5  C   LIG d   1       5.574  -2.440  -4.489  0.00  0.00    -0.001 A 
ATOM      6  C   LIG d   1       4.637  -2.809  -5.437  0.00  0.00     0.031 A 
ATOM      7  C   LIG d   1       4.886  -3.922  -6.260  0.00  0.00     0.338 A 
ATOM      8  O   LIG d   1       4.056  -4.239  -7.093  0.00  0.00    -0.245 OA
ATOM      9  O   LIG d   1       6.014  -4.642  -6.153  0.00  0.00    -0.422 OA
ATOM     10  C   LIG d   1       6.971  -4.340  -5.250  0.00  0.00     0.143 A 
ATOM     11  C   LIG d   1       8.126  -5.102  -5.163  0.00  0.00     0.023 A 
ATOM     12  H   LIG d   1       9.684  -3.450  -2.650  0.00  0.00     0.065 H 
ATOM     13  H   LIG d   1       7.662  -2.085  -2.791  0.00  0.00     0.063 H 
ATOM     14  H   LIG d   1       3.722  -2.247  -5.545  0.00  0.00     0.070 H 
ATOM     15  H   LIG d   1       8.268  -5.949  -5.820  0.00  0.00     0.069 H 
ENDROOT
BRANCH   1  16
ATOM     16  O   LIG d   1      10.228  -5.525  -4.146  0.00  0.00    -0.488 OA
BRANCH  16  17
ATOM     17  C   LIG d   1      10.522  -6.117  -2.879  0.00  0.00     0.108 C 
ATOM     18  H   LIG d   1      10.659  -5.332  -2.135  0.00  0.00     0.074 H 
ATOM     19  H   LIG d   1      11.435  -6.708  -2.958  0.00  0.00     0.074 H 
BRANCH  17  20
ATOM     20  C   LIG d   1       9.379  -7.008  -2.463  0.00  0.00    -0.047 C 
ATOM     21  C   LIG d   1       9.133  -8.125  -3.133  0.00  0.00    -0.055 C 
ATOM     22  H   LIG d   1       9.751  -8.397  -3.976  0.00  0.00     0.062 H 
ATOM     23  H   LIG d   1       8.761  -6.736  -1.621  0.00  0.00     0.061 H 
BRANCH  21  24
ATOM     24  C   LIG d   1       8.013  -8.999  -2.726  0.00  0.00    -0.025 A 
ATOM     25  C   LIG d   1       6.966  -9.255  -3.612  0.00  0.00    -0.055 A 
ATOM     26  C   LIG d   1       5.924 -10.072  -3.226  0.00  0.00    -0.061 A 
ATOM     27  H   LIG d   1       6.973  -8.815  -4.598  0.00  0.00     0.062 H 
ATOM     28  C   LIG d   1       5.915 -10.637  -1.963  0.00  0.00    -0.062 A 
ATOM     29  H   LIG d   1       5.113 -10.272  -3.911  0.00  0.00     0.062 H 
ATOM     30  C   LIG d   1       6.948 -10.386  -1.079  0.00  0.00    -0.061 A 
ATOM     31  H   LIG d   1       5.096 -11.276  -1.666  0.00  0.00     0.062 H 
ATOM     32  C   LIG d   1       8.000  -9.576  -1.455  0.00  0.00    -0.055 A 
ATOM     33  H   LIG d   1       6.936 -10.829  -0.095  0.00  0.00     0.062 H 
ATOM     34  H   LIG d   1       8.810  -9.385  -0.766  0.00  0.00     0.062 H 
ENDBRANCH  21  24
ENDBRANCH  17  20
ENDBRANCH  16  17
ENDBRANCH   1  16
BRANCH   5  35
ATOM     35  C   LIG d   1       5.346  -1.276  -3.605  0.00  0.00    -0.017 A 
ATOM     36  C   LIG d   1       4.572  -1.413  -2.452  0.00  0.00    -0.054 A 
ATOM     37  C   LIG d   1       4.363  -0.324  -1.631  0.00  0.00    -0.061 A 
ATOM     38  H   LIG d   1       4.138  -2.369  -2.201  0.00  0.00     0.062 H 
ATOM     39  C   LIG d   1       4.919   0.903  -1.950  0.00  0.00    -0.062 A 
ATOM     40  H   LIG d   1       3.765  -0.427  -0.739  0.00  0.00     0.062 H 
ATOM     41  C   LIG d   1       5.687   1.046  -3.093  0.00  0.00    -0.061 A 
ATOM     42  H   LIG d   1       4.753   1.753  -1.305  0.00  0.00     0.062 H 
ATOM     43  C   LIG d   1       5.908  -0.037  -3.919  0.00  0.00    -0.054 A 
ATOM     44  H   LIG d   1       6.118   2.006  -3.336  0.00  0.00     0.062 H 
ATOM     45  H   LIG d   1       6.511   0.074  -4.808  0.00  0.00     0.062 H 
ENDBRANCH   5  35
TORSDOF 5
ENDMDL
MODEL 6
REMARK VINA RESULT:      -7.2      8.692     14.793
REMARK  5 active torsions:
REMARK  status: ('A' for Active; 'I' for Inactive)
REMARK    1  A    between atoms: C_4  and  C_7 
REMARK    2  A    between atoms: C_8  and  C_9 
REMARK    3  A    between atoms: C_9  and  O_10 
REMARK    4  A    between atoms: O_10  and  C_11 
REMARK    5  A    between atoms: C_15  and  C_22 
ROOT
ATOM      1  C   LIG d   1       9.631   4.276  -4.724  0.00  0.00     0.124 A 
ATOM      2  C   LIG d   1       9.803   3.926  -6.061  0.00  0.00    -0.019 A 
ATOM      3  C   LIG d   1       9.835   4.889  -7.028  0.00  0.00    -0.047 A 
ATOM      4  C   LIG d   1       9.706   6.234  -6.673  0.00  0.00     0.025 A 
ATOM      5  C   LIG d   1       9.742   7.293  -7.696  0.00  0.00    -0.001 A 
ATOM      6  C   LIG d   1       9.606   8.603  -7.274  0.00  0.00     0.031 A 
ATOM      7  C   LIG d   1       9.441   8.875  -5.904  0.00  0.00     0.338 A 
ATOM      8  O   LIG d   1       9.322  10.032  -5.541  0.00  0.00    -0.245 OA
ATOM      9  O   LIG d   1       9.410   7.896  -4.986  0.00  0.00    -0.422 OA
ATOM     10  C   LIG d   1       9.535   6.595  -5.326  0.00  0.00     0.143 A 
ATOM     11  C   LIG d   1       9.499   5.605  -4.356  0.00  0.00     0.023 A 
ATOM     12  H   LIG d   1       9.908   2.886  -6.335  0.00  0.00     0.065 H 
ATOM     13  H   LIG d   1       9.966   4.612  -8.064  0.00  0.00     0.063 H 
ATOM     14  H   LIG d   1       9.627   9.410  -7.990  0.00  0.00     0.070 H 
ATOM     15  H   LIG d   1       9.370   5.869  -3.317  0.00  0.00     0.069 H 
ENDROOT
BRANCH   1  16
ATOM     16  O   LIG d   1       9.595   3.307  -3.774  0.00  0.00    -0.488 OA
BRANCH  16  17
ATOM     17  C   LIG d   1       9.206   1.998  -4.195  0.00  0.00     0.108 C 
ATOM     18  H   LIG d   1       9.845   1.258  -3.715  0.00  0.00     0.074 H 
ATOM     19  H   LIG d   1       9.308   1.920  -5.277  0.00  0.00     0.074 H 
BRANCH  17  20
ATOM     20  C   LIG d   1       7.771   1.751  -3.805  0.00  0.00    -0.047 C 
ATOM     21  C   LIG d   1       7.379   0.532  -3.460  0.00  0.00    -0.055 C 
ATOM     22  H   LIG d   1       8.088  -0.283  -3.458  0.00  0.00     0.062 H 
ATOM     23  H   LIG d   1       7.062   2.565  -3.808  0.00  0.00     0.061 H 
BRANCH  21  24
ATOM     24  C   LIG d   1       5.972   0.289  -3.078  0.00  0.00    -0.025 A 
ATOM     25  C   LIG d   1       5.481  -1.015  -3.006  0.00  0.00    -0.055 A 
ATOM     26  C   LIG d   1       4.167  -1.235  -2.649  0.00  0.00    -0.061 A 
ATOM     27  H   LIG d   1       6.129  -1.850  -3.229  0.00  0.00     0.062 H 
ATOM     28  C   LIG d   1       3.336  -0.166  -2.363  0.00  0.00    -0.062 A 
ATOM     29  H   LIG d   1       3.785  -2.244  -2.592  0.00  0.00     0.062 H 
ATOM     30  C   LIG d   1       3.816   1.129  -2.434  0.00  0.00    -0.061 A 
ATOM     31  H   LIG d   1       2.308  -0.344  -2.084  0.00  0.00     0.062 H 
ATOM     32  C   LIG d   1       5.131   1.362  -2.784  0.00  0.00    -0.055 A 
ATOM     33  H   LIG d   1       3.163   1.959  -2.210  0.00  0.00     0.062 H 
ATOM     34  H   LIG d   1       5.506   2.374  -2.833  0.00  0.00     0.062 H 
ENDBRANCH  21  24
ENDBRANCH  17  20
ENDBRANCH  16  17
ENDBRANCH   1  16
BRANCH   5  35
ATOM     35  C   LIG d   1       9.919   6.968  -9.128  0.00  0.00    -0.017 A 
ATOM     36  C   LIG d   1      11.156   7.166  -9.743  0.00  0.00    -0.054 A 
ATOM     37  C   LIG d   1      11.315   6.861 -11.079  0.00  0.00    -0.061 A 
ATOM     38  H   LIG d   1      11.987   7.557  -9.176  0.00  0.00     0.062 H 
ATOM     39  C   LIG d   1      10.251   6.360 -11.809  0.00  0.00    -0.062 A 
ATOM     40  H   LIG d   1      12.270   7.013 -11.558  0.00  0.00     0.062 H 
ATOM     41  C   LIG d   1       9.021   6.161 -11.204  0.00  0.00    -0.061 A 
ATOM     42  H   LIG d   1      10.379   6.122 -12.855  0.00  0.00     0.062 H 
ATOM     43  C   LIG d   1       8.851   6.458  -9.868  0.00  0.00    -0.054 A 
ATOM     44  H   LIG d   1       8.195   5.770 -11.779  0.00  0.00     0.062 H 
ATOM     45  H   LIG d   1       7.893   6.298  -9.395  0.00  0.00     0.062 H 
ENDBRANCH   5  35
TORSDOF 5
ENDMDL
MODEL 7
REMARK VINA RESULT:      -7.0      7.073     10.323
REMARK  5 active torsions:
REMARK  status: ('A' for Active; 'I' for Inactive)
REMARK    1  A    between atoms: C_4  and  C_7 
REMARK    2  A    between atoms: C_8  and  C_9 
REMARK    3  A    between atoms: C_9  and  O_10 
REMARK    4  A    between atoms: O_10  and  C_11 
REMARK    5  A    between atoms: C_15  and  C_22 
ROOT
ATOM      1  C   LIG d   1       9.152   2.133  -4.621  0.00  0.00     0.124 A 
ATOM      2  C   LIG d   1       8.018   2.105  -3.812  0.00  0.00    -0.019 A 
ATOM      3  C   LIG d   1       7.098   1.105  -3.948  0.00  0.00    -0.047 A 
ATOM      4  C   LIG d   1       7.301   0.099  -4.896  0.00  0.00     0.025 A 
ATOM      5  C   LIG d   1       6.327  -0.993  -5.059  0.00  0.00    -0.001 A 
ATOM      6  C   LIG d   1       6.590  -1.955  -6.017  0.00  0.00     0.031 A 
ATOM      7  C   LIG d   1       7.760  -1.859  -6.791  0.00  0.00     0.338 A 
ATOM      8  O   LIG d   1       7.984  -2.710  -7.633  0.00  0.00    -0.245 OA
ATOM      9  O   LIG d   1       8.636  -0.855  -6.628  0.00  0.00    -0.422 OA
ATOM     10  C   LIG d   1       8.444   0.118  -5.712  0.00  0.00     0.143 A 
ATOM     11  C   LIG d   1       9.366   1.143  -5.566  0.00  0.00     0.023 A 
ATOM     12  H   LIG d   1       7.864   2.880  -3.076  0.00  0.00     0.065 H 
ATOM     13  H   LIG d   1       6.220   1.090  -3.320  0.00  0.00     0.063 H 
ATOM     14  H   LIG d   1       5.902  -2.772  -6.170  0.00  0.00     0.070 H 
ATOM     15  H   LIG d   1      10.250   1.169  -6.187  0.00  0.00     0.069 H 
ENDROOT
BRANCH   1  16
ATOM     16  O   LIG d   1      10.056   3.136  -4.479  0.00  0.00    -0.488 OA
BRANCH  16  17
ATOM     17  C   LIG d   1       9.630   4.450  -4.844  0.00  0.00     0.108 C 
ATOM     18  H   LIG d   1       8.559   4.441  -5.048  0.00  0.00     0.074 H 
ATOM     19  H   LIG d   1      10.167   4.771  -5.736  0.00  0.00     0.074 H 
BRANCH  17  20
ATOM     20  C   LIG d   1       9.917   5.404  -3.712  0.00  0.00    -0.047 C 
ATOM     21  C   LIG d   1      10.156   4.935  -2.496  0.00  0.00    -0.055 C 
ATOM     22  H   LIG d   1      10.146   3.870  -2.315  0.00  0.00     0.062 H 
ATOM     23  H   LIG d   1       9.927   6.468  -3.892  0.00  0.00     0.061 H 
BRANCH  21  24
ATOM     24  C   LIG d   1      10.438   5.870  -1.386  0.00  0.00    -0.025 A 
ATOM     25  C   LIG d   1      11.202   5.453  -0.295  0.00  0.00    -0.055 A 
ATOM     26  C   LIG d   1      11.462   6.330   0.736  0.00  0.00    -0.061 A 
ATOM     27  H   LIG d   1      11.590   4.446  -0.261  0.00  0.00     0.062 H 
ATOM     28  C   LIG d   1      10.965   7.621   0.693  0.00  0.00    -0.062 A 
ATOM     29  H   LIG d   1      12.054   6.009   1.582  0.00  0.00     0.062 H 
ATOM     30  C   LIG d   1      10.205   8.040  -0.384  0.00  0.00    -0.061 A 
ATOM     31  H   LIG d   1      11.171   8.304   1.505  0.00  0.00     0.062 H 
ATOM     32  C   LIG d   1       9.944   7.174  -1.426  0.00  0.00    -0.055 A 
ATOM     33  H   LIG d   1       9.821   9.048  -0.412  0.00  0.00     0.062 H 
ATOM     34  H   LIG d   1       9.356   7.505  -2.270  0.00  0.00     0.062 H 
ENDBRANCH  21  24
ENDBRANCH  17  20
ENDBRANCH  16  17
ENDBRANCH   1  16
BRANCH   5  35
ATOM     35  C   LIG d   1       5.107  -1.061  -4.226  0.00  0.00    -0.017 A 
ATOM     36  C   LIG d   1       3.972  -0.332  -4.584  0.00  0.00    -0.054 A 
ATOM     37  C   LIG d   1       2.837  -0.399  -3.802  0.00  0.00    -0.061 A 
ATOM     38  H   LIG d   1       3.981   0.283  -5.471  0.00  0.00     0.062 H 
ATOM     39  C   LIG d   1       2.823  -1.187  -2.664  0.00  0.00    -0.062 A 
ATOM     40  H   LIG d   1       1.959   0.164  -4.076  0.00  0.00     0.062 H 
ATOM     41  C   LIG d   1       3.946  -1.913  -2.303  0.00  0.00    -0.061 A 
ATOM     42  H   LIG d   1       1.933  -1.237  -2.055  0.00  0.00     0.062 H 
ATOM     43  C   LIG d   1       5.084  -1.858  -3.079  0.00  0.00    -0.054 A 
ATOM     44  H   LIG d   1       3.928  -2.526  -1.414  0.00  0.00     0.062 H 
ATOM     45  H   LIG d   1       5.958  -2.428  -2.800  0.00  0.00     0.062 H 
ENDBRANCH   5  35
TORSDOF 5
ENDMDL
MODEL 8
REMARK VINA RESULT:      -6.9      7.701     13.408
REMARK  5 active torsions:
REMARK  status: ('A' for Active; 'I' for Inactive)
REMARK    1  A    between atoms: C_4  and  C_7 
REMARK    2  A    between atoms: C_8  and  C_9 
REMARK    3  A    between atoms: C_9  and  O_10 
REMARK    4  A    between atoms: O_10  and  C_11 
REMARK    5  A    between atoms: C_15  and  C_22 
ROOT
ATOM      1  C   LIG d   1       9.201   2.653  -5.159  0.00  0.00     0.124 A 
ATOM      2  C   LIG d   1       9.561   2.712  -3.814  0.00  0.00    -0.019 A 
ATOM      3  C   LIG d   1       9.966   3.891  -3.259  0.00  0.00    -0.047 A 
ATOM      4  C   LIG d   1      10.010   5.048  -4.041  0.00  0.00     0.025 A 
ATOM      5  C   LIG d   1      10.439   6.334  -3.466  0.00  0.00    -0.001 A 
ATOM      6  C   LIG d   1      10.460   7.438  -4.298  0.00  0.00     0.031 A 
ATOM      7  C   LIG d   1      10.077   7.299  -5.644  0.00  0.00     0.338 A 
ATOM      8  O   LIG d   1      10.098   8.276  -6.370  0.00  0.00    -0.245 OA
ATOM      9  O   LIG d   1       9.689   6.117  -6.150  0.00  0.00    -0.422 OA
ATOM     10  C   LIG d   1       9.645   4.998  -5.397  0.00  0.00     0.143 A 
ATOM     11  C   LIG d   1       9.241   3.791  -5.947  0.00  0.00     0.023 A 
ATOM     12  H   LIG d   1       9.522   1.818  -3.209  0.00  0.00     0.065 H 
ATOM     13  H   LIG d   1      10.247   3.931  -2.217  0.00  0.00     0.063 H 
ATOM     14  H   LIG d   1      10.768   8.400  -3.918  0.00  0.00     0.070 H 
ATOM     15  H   LIG d   1       8.956   3.739  -6.989  0.00  0.00     0.069 H 
ENDROOT
BRANCH   1  16
ATOM     16  O   LIG d   1       8.805   1.472  -5.699  0.00  0.00    -0.488 OA
BRANCH  16  17
ATOM     17  C   LIG d   1       8.883   0.316  -4.862  0.00  0.00     0.108 C 
ATOM     18  H   LIG d   1       9.395   0.574  -3.935  0.00  0.00     0.074 H 
ATOM     19  H   LIG d   1       9.438  -0.468  -5.378  0.00  0.00     0.074 H 
BRANCH  17  20
ATOM     20  C   LIG d   1       7.492  -0.172  -4.549  0.00  0.00    -0.047 C 
ATOM     21  C   LIG d   1       6.910   0.174  -3.410  0.00  0.00    -0.055 C 
ATOM     22  H   LIG d   1       7.431   0.806  -2.706  0.00  0.00     0.062 H 
ATOM     23  H   LIG d   1       6.971  -0.804  -5.252  0.00  0.00     0.061 H 
BRANCH  21  24
ATOM     24  C   LIG d   1       5.545  -0.306  -3.102  0.00  0.00    -0.025 A 
ATOM     25  C   LIG d   1       5.298  -1.672  -2.961  0.00  0.00    -0.055 A 
ATOM     26  C   LIG d   1       4.023  -2.112  -2.674  0.00  0.00    -0.061 A 
ATOM     27  H   LIG d   1       6.103  -2.382  -3.076  0.00  0.00     0.062 H 
ATOM     28  C   LIG d   1       2.990  -1.203  -2.526  0.00  0.00    -0.062 A 
ATOM     29  H   LIG d   1       3.829  -3.169  -2.564  0.00  0.00     0.062 H 
ATOM     30  C   LIG d   1       3.228   0.152  -2.666  0.00  0.00    -0.061 A 
ATOM     31  H   LIG d   1       1.993  -1.554  -2.302  0.00  0.00     0.062 H 
ATOM     32  C   LIG d   1       4.501   0.606  -2.947  0.00  0.00    -0.055 A 
ATOM     33  H   LIG d   1       2.419   0.856  -2.550  0.00  0.00     0.062 H 
ATOM     34  H   LIG d   1       4.687   1.665  -3.050  0.00  0.00     0.062 H 
ENDBRANCH  21  24
ENDBRANCH  17  20
ENDBRANCH  16  17
ENDBRANCH   1  16
BRANCH   5  35
ATOM     35  C   LIG d   1      10.834   6.443  -2.045  0.00  0.00    -0.017 A 
ATOM     36  C   LIG d   1      10.073   7.212  -1.164  0.00  0.00    -0.054 A 
ATOM     37  C   LIG d   1      10.446   7.310   0.161  0.00  0.00    -0.061 A 
ATOM     38  H   LIG d   1       9.194   7.730  -1.517  0.00  0.00     0.062 H 
ATOM     39  C   LIG d   1      11.572   6.647   0.616  0.00  0.00    -0.062 A 
ATOM     40  H   LIG d   1       9.860   7.905   0.844  0.00  0.00     0.062 H 
ATOM     41  C   LIG d   1      12.331   5.882  -0.253  0.00  0.00    -0.061 A 
ATOM     42  H   LIG d   1      11.861   6.726   1.654  0.00  0.00     0.062 H 
ATOM     43  C   LIG d   1      11.966   5.773  -1.578  0.00  0.00    -0.054 A 
ATOM     44  H   LIG d   1      13.209   5.367   0.108  0.00  0.00     0.062 H 
ATOM     45  H   LIG d   1      12.555   5.172  -2.255  0.00  0.00     0.062 H 
ENDBRANCH   5  35
TORSDOF 5
ENDMDL
MODEL 9
REMARK VINA RESULT:      -6.9      7.908     14.044
REMARK  5 active torsions:
REMARK  status: ('A' for Active; 'I' for Inactive)
REMARK    1  A    between atoms: C_4  and  C_7 
REMARK    2  A    between atoms: C_8  and  C_9 
REMARK    3  A    between atoms: C_9  and  O_10 
REMARK    4  A    between atoms: O_10  and  C_11 
REMARK    5  A    between atoms: C_15  and  C_22 
ROOT
ATOM      1  C   LIG d   1       9.265   2.355  -6.881  0.00  0.00     0.124 A 
ATOM      2  C   LIG d   1       9.711   3.325  -5.986  0.00  0.00    -0.019 A 
ATOM      3  C   LIG d   1       9.848   4.623  -6.386  0.00  0.00    -0.047 A 
ATOM      4  C   LIG d   1       9.529   4.983  -7.697  0.00  0.00     0.025 A 
ATOM      5  C   LIG d   1       9.663   6.377  -8.153  0.00  0.00    -0.001 A 
ATOM      6  C   LIG d   1       9.331   6.661  -9.464  0.00  0.00     0.031 A 
ATOM      7  C   LIG d   1       8.883   5.628 -10.305  0.00  0.00     0.338 A 
ATOM      8  O   LIG d   1       8.593   5.888 -11.460  0.00  0.00    -0.245 OA
ATOM      9  O   LIG d   1       8.768   4.362  -9.872  0.00  0.00    -0.422 OA
ATOM     10  C   LIG d   1       9.075   4.012  -8.605  0.00  0.00     0.143 A 
ATOM     11  C   LIG d   1       8.946   2.696  -8.185  0.00  0.00     0.023 A 
ATOM     12  H   LIG d   1       9.954   3.047  -4.970  0.00  0.00     0.065 H 
ATOM     13  H   LIG d   1      10.197   5.370  -5.688  0.00  0.00     0.063 H 
ATOM     14  H   LIG d   1       9.415   7.670  -9.840  0.00  0.00     0.070 H 
ATOM     15  H   LIG d   1       8.597   1.940  -8.873  0.00  0.00     0.069 H 
ENDROOT
BRANCH   1  16
ATOM     16  O   LIG d   1       9.139   1.067  -6.471  0.00  0.00    -0.488 OA
BRANCH  16  17
ATOM     17  C   LIG d   1       8.053   0.315  -7.017  0.00  0.00     0.108 C 
ATOM     18  H   LIG d   1       8.411  -0.667  -7.326  0.00  0.00     0.074 H 
ATOM     19  H   LIG d   1       7.645   0.842  -7.880  0.00  0.00     0.074 H 
BRANCH  17  20
ATOM     20  C   LIG d   1       6.979   0.153  -5.972  0.00  0.00    -0.047 C 
ATOM     21  C   LIG d   1       7.304   0.123  -4.688  0.00  0.00    -0.055 C 
ATOM     22  H   LIG d   1       8.339   0.215  -4.389  0.00  0.00     0.062 H 
ATOM     23  H   LIG d   1       5.946   0.060  -6.270  0.00  0.00     0.061 H 
BRANCH  21  24
ATOM     24  C   LIG d   1       6.251  -0.037  -3.663  0.00  0.00    -0.025 A 
ATOM     25  C   LIG d   1       5.755   1.079  -2.989  0.00  0.00    -0.055 A 
ATOM     26  C   LIG d   1       4.772   0.923  -2.034  0.00  0.00    -0.061 A 
ATOM     27  H   LIG d   1       6.138   2.063  -3.216  0.00  0.00     0.062 H 
ATOM     28  C   LIG d   1       4.279  -0.337  -1.742  0.00  0.00    -0.062 A 
ATOM     29  H   LIG d   1       4.385   1.787  -1.511  0.00  0.00     0.062 H 
ATOM     30  C   LIG d   1       4.769  -1.447  -2.405  0.00  0.00    -0.061 A 
ATOM     31  H   LIG d   1       3.510  -0.453  -0.993  0.00  0.00     0.062 H 
ATOM     32  C   LIG d   1       5.747  -1.304  -3.368  0.00  0.00    -0.055 A 
ATOM     33  H   LIG d   1       4.381  -2.427  -2.174  0.00  0.00     0.062 H 
ATOM     34  H   LIG d   1       6.124  -2.172  -3.889  0.00  0.00     0.062 H 
ENDBRANCH  21  24
ENDBRANCH  17  20
ENDBRANCH  16  17
ENDBRANCH   1  16
BRANCH   5  35
ATOM     35  C   LIG d   1      10.137   7.438  -7.238  0.00  0.00    -0.017 A 
ATOM     36  C   LIG d   1      11.504   7.618  -7.023  0.00  0.00    -0.054 A 
ATOM     37  C   LIG d   1      11.939   8.610  -6.168  0.00  0.00    -0.061 A 
ATOM     38  H   LIG d   1      12.220   6.984  -7.523  0.00  0.00     0.062 H 
ATOM     39  C   LIG d   1      11.024   9.425  -5.525  0.00  0.00    -0.062 A 
ATOM     40  H   LIG d   1      12.996   8.751  -5.999  0.00  0.00     0.062 H 
ATOM     41  C   LIG d   1       9.666   9.251  -5.735  0.00  0.00    -0.061 A 
ATOM     42  H   LIG d   1      11.369  10.200  -4.857  0.00  0.00     0.062 H 
ATOM     43  C   LIG d   1       9.219   8.267  -6.590  0.00  0.00    -0.054 A 
ATOM     44  H   LIG d   1       8.957   9.890  -5.230  0.00  0.00     0.062 H 
ATOM     45  H   LIG d   1       8.160   8.134  -6.758  0.00  0.00     0.062 H 
ENDBRANCH   5  35
TORSDOF 5
ENDMDL
