MODEL 1
REMARK VINA RESULT:      -8.4      0.000      0.000
REMARK  11 active torsions:
REMARK  status: ('A' for Active; 'I' for Inactive)
REMARK    1  A    between atoms: C_1  and  C_2 
REMARK       I    between atoms: C_2  and  N_4 
REMARK    2  A    between atoms: N_4  and  C_5 
REMARK    3  A    between atoms: C_8  and  O_11 
REMARK    4  A    between atoms: O_11  and  C_12 
REMARK    5  A    between atoms: C_12  and  C_13 
REMARK    6  A    between atoms: C_15  and  C_21 
REMARK    7  A    between atoms: C_18  and  O_19 
REMARK    8  A    between atoms: O_19  and  C_20 
REMARK    9  A    between atoms: C_27  and  O_33 
REMARK   10  A    between atoms: O_33  and  C_34 
REMARK   11  A    between atoms: C_34  and  C_35 
ROOT
ATOM      1  C   LIG d   1       2.562  -3.047 -12.260  0.00  0.00     0.044 C 
ATOM      2  H   LIG d   1       3.523  -3.161 -12.761  0.00  0.00     0.097 H 
ATOM      3  C   LIG d   1       2.669  -1.981 -11.195  0.00  0.00     0.073 A 
ATOM      4  C   LIG d   1       2.786  -2.267  -9.878  0.00  0.00    -0.008 A 
ATOM      5  C   LIG d   1       2.859  -1.008  -9.170  0.00  0.00     0.007 A 
ATOM      6  C   LIG d   1       2.981  -0.684  -7.816  0.00  0.00    -0.011 A 
ATOM      7  C   LIG d   1       3.019   0.664  -7.496  0.00  0.00     0.122 A 
ATOM      8  C   LIG d   1       2.940   1.651  -8.471  0.00  0.00    -0.018 A 
ATOM      9  C   LIG d   1       2.818   1.350  -9.816  0.00  0.00    -0.034 A 
ATOM     10  C   LIG d   1       2.778   0.002 -10.165  0.00  0.00     0.047 A 
ATOM     11  N   LIG d   1       2.665  -0.625 -11.375  0.00  0.00    -0.353 N 
ATOM     12  H   LIG d   1       2.593  -0.176 -12.232  0.00  0.00     0.166 HD
ATOM     13  C   LIG d   1       2.827  -3.675  -9.338  0.00  0.00     0.015 C 
ATOM     14  C   LIG d   1       3.104  -4.621 -10.516  0.00  0.00    -0.029 C 
ATOM     15  N   LIG d   1       2.185  -4.317 -11.621  0.00  0.00     0.237 N 
ATOM     16  H   LIG d   1       3.042  -1.449  -7.055  0.00  0.00     0.066 H 
ATOM     17  H   LIG d   1       2.974   2.687  -8.169  0.00  0.00     0.066 H 
ATOM     18  H   LIG d   1       2.757   2.127 -10.564  0.00  0.00     0.064 H 
ATOM     19  H   LIG d   1       3.623  -3.763  -8.599  0.00  0.00     0.037 H 
ATOM     20  H   LIG d   1       1.870  -3.924  -8.882  0.00  0.00     0.037 H 
ATOM     21  H   LIG d   1       4.133  -4.488 -10.854  0.00  0.00     0.082 H 
ATOM     22  H   LIG d   1       2.958  -5.652 -10.195  0.00  0.00     0.082 H 
ATOM     23  H   LIG d   1       1.245  -4.244 -11.261  0.00  0.00     0.202 HD
ATOM     24  H   LIG d   1       2.223  -5.059 -12.304  0.00  0.00     0.202 HD
ENDROOT
BRANCH   1  25
ATOM     25  C   LIG d   1       1.511  -2.654 -13.266  0.00  0.00     0.007 A 
ATOM     26  C   LIG d   1       0.265  -2.235 -12.836  0.00  0.00    -0.043 A 
ATOM     27  C   LIG d   1      -0.699  -1.875 -13.757  0.00  0.00     0.032 A 
ATOM     28  H   LIG d   1       0.047  -2.191 -11.779  0.00  0.00     0.063 H 
ATOM     29  C   LIG d   1      -0.419  -1.938 -15.114  0.00  0.00     0.127 A 
ATOM     30  C   LIG d   1       0.833  -2.354 -15.543  0.00  0.00    -0.019 A 
ATOM     31  C   LIG d   1       1.794  -2.714 -14.618  0.00  0.00    -0.049 A 
ATOM     32  H   LIG d   1       1.056  -2.400 -16.599  0.00  0.00     0.065 H 
ATOM     33  H   LIG d   1       2.768  -3.040 -14.952  0.00  0.00     0.062 H 
BRANCH  27  34
ATOM     34  C   LIG d   1      -2.057  -1.418 -13.287  0.00  0.00     0.118 C 
ATOM     35  H   LIG d   1      -2.387  -2.049 -12.462  0.00  0.00     0.075 H 
ATOM     36  H   LIG d   1      -2.768  -1.492 -14.109  0.00  0.00     0.075 H 
BRANCH  34  37
ATOM     37  O   LIG d   1      -1.976  -0.061 -12.847  0.00  0.00    -0.487 OA
BRANCH  37  38
ATOM     38  C   LIG d   1      -2.992   0.767 -13.210  0.00  0.00     0.121 A 
ATOM     39  C   LIG d   1      -2.719   2.069 -13.600  0.00  0.00    -0.018 A 
ATOM     40  C   LIG d   1      -3.750   2.910 -13.970  0.00  0.00    -0.037 A 
ATOM     41  H   LIG d   1      -1.700   2.427 -13.614  0.00  0.00     0.066 H 
ATOM     42  C   LIG d   1      -5.060   2.451 -13.952  0.00  0.00     0.034 A 
ATOM     43  H   LIG d   1      -3.537   3.925 -14.274  0.00  0.00     0.064 H 
ATOM     44  C   LIG d   1      -5.333   1.149 -13.557  0.00  0.00    -0.037 A 
ATOM     45  C   LIG d   1      -4.300   0.307 -13.193  0.00  0.00    -0.018 A 
ATOM     46  H   LIG d   1      -6.352   0.792 -13.539  0.00  0.00     0.064 H 
ATOM     47  H   LIG d   1      -4.513  -0.708 -12.890  0.00  0.00     0.066 H 
BRANCH  42  48
ATOM     48  N   LIG d   1      -6.107   3.303 -14.328  0.00  0.00    -0.286 N 
ATOM     49  C   LIG d   1      -6.597   4.198 -13.447  0.00  0.00     0.214 C 
ATOM     50  O   LIG d   1      -6.191   4.209 -12.304  0.00  0.00    -0.276 OA
ATOM     51  H   LIG d   1      -6.478   3.251 -15.223  0.00  0.00     0.155 HD
BRANCH  49  52
ATOM     52  C   LIG d   1      -7.650   5.185 -13.881  0.00  0.00     0.013 C 
ATOM     53  H   LIG d   1      -8.106   4.845 -14.810  0.00  0.00     0.032 H 
ATOM     54  H   LIG d   1      -8.414   5.265 -13.108  0.00  0.00     0.032 H 
ATOM     55  H   LIG d   1      -7.190   6.161 -14.039  0.00  0.00     0.032 H 
ENDBRANCH  49  52
ENDBRANCH  42  48
ENDBRANCH  37  38
ENDBRANCH  34  37
ENDBRANCH  27  34
BRANCH  29  56
ATOM     56  O   LIG d   1      -1.368  -1.590 -16.022  0.00  0.00    -0.495 OA
BRANCH  56  57
ATOM     57  C   LIG d   1      -0.940  -0.815 -17.143  0.00  0.00     0.079 C 
ATOM     58  H   LIG d   1      -1.458   0.144 -17.141  0.00  0.00     0.066 H 
ATOM     59  H   LIG d   1       0.134  -0.646 -17.078  0.00  0.00     0.066 H 
ATOM     60  H   LIG d   1      -1.170  -1.349 -18.064  0.00  0.00     0.066 H 
ENDBRANCH  56  57
ENDBRANCH  29  56
ENDBRANCH   1  25
BRANCH   7  61
ATOM     61  O   LIG d   1       3.136   1.032  -6.192  0.00  0.00    -0.487 OA
BRANCH  61  62
ATOM     62  C   LIG d   1       2.284   0.373  -5.253  0.00  0.00     0.115 C 
ATOM     63  H   LIG d   1       1.416   1.000  -5.048  0.00  0.00     0.075 H 
ATOM     64  H   LIG d   1       1.954  -0.579  -5.668  0.00  0.00     0.075 H 
BRANCH  62  65
ATOM     65  C   LIG d   1       3.040   0.128  -3.973  0.00  0.00    -0.010 A 
ATOM     66  C   LIG d   1       3.516   1.197  -3.236  0.00  0.00    -0.055 A 
ATOM     67  C   LIG d   1       4.206   0.973  -2.060  0.00  0.00    -0.061 A 
ATOM     68  H   LIG d   1       3.345   2.207  -3.578  0.00  0.00     0.062 H 
ATOM     69  C   LIG d   1       4.429  -0.320  -1.625  0.00  0.00    -0.062 A 
ATOM     70  H   LIG d   1       4.575   1.807  -1.482  0.00  0.00     0.062 H 
ATOM     71  C   LIG d   1       3.957  -1.390  -2.364  0.00  0.00    -0.061 A 
ATOM     72  H   LIG d   1       4.971  -0.496  -0.707  0.00  0.00     0.062 H 
ATOM     73  C   LIG d   1       3.264  -1.165  -3.538  0.00  0.00    -0.055 A 
ATOM     74  H   LIG d   1       4.131  -2.399  -2.025  0.00  0.00     0.062 H 
ATOM     75  H   LIG d   1       2.895  -2.000  -4.116  0.00  0.00     0.062 H 
ENDBRANCH  62  65
ENDBRANCH  61  62
ENDBRANCH   7  61
TORSDOF 11
ENDMDL
MODEL 2
REMARK VINA RESULT:      -8.2      4.583      5.436
REMARK  11 active torsions:
REMARK  status: ('A' for Active; 'I' for Inactive)
REMARK    1  A    between atoms: C_1  and  C_2 
REMARK       I    between atoms: C_2  and  N_4 
REMARK    2  A    between atoms: N_4  and  C_5 
REMARK    3  A    between atoms: C_8  and  O_11 
REMARK    4  A    between atoms: O_11  and  C_12 
REMARK    5  A    between atoms: C_12  and  C_13 
REMARK    6  A    between atoms: C_15  and  C_21 
REMARK    7  A    between atoms: C_18  and  O_19 
REMARK    8  A    between atoms: O_19  and  C_20 
REMARK    9  A    between atoms: C_27  and  O_33 
REMARK   10  A    between atoms: O_33  and  C_34 
REMARK   11  A    between atoms: C_34  and  C_35 
ROOT
ATOM      1  C   LIG d   1       4.754  -4.786 -10.532  0.00  0.00     0.044 C 
ATOM      2  H   LIG d   1       5.516  -4.514 -11.262  0.00  0.00     0.097 H 
ATOM      3  C   LIG d   1       4.262  -3.544  -9.828  0.00  0.00     0.073 A 
ATOM      4  C   LIG d   1       4.657  -3.199  -8.582  0.00  0.00    -0.008 A 
ATOM      5  C   LIG d   1       3.981  -1.966  -8.242  0.00  0.00     0.007 A 
ATOM      6  C   LIG d   1       3.998  -1.155  -7.104  0.00  0.00    -0.011 A 
ATOM      7  C   LIG d   1       3.202  -0.020  -7.133  0.00  0.00     0.122 A 
ATOM      8  C   LIG d   1       2.424   0.301  -8.237  0.00  0.00    -0.018 A 
ATOM      9  C   LIG d   1       2.394  -0.490  -9.373  0.00  0.00    -0.034 A 
ATOM     10  C   LIG d   1       3.185  -1.636  -9.370  0.00  0.00     0.047 A 
ATOM     11  N   LIG d   1       3.381  -2.612 -10.308  0.00  0.00    -0.353 N 
ATOM     12  H   LIG d   1       2.960  -2.640 -11.182  0.00  0.00     0.166 HD
ATOM     13  C   LIG d   1       5.632  -4.013  -7.770  0.00  0.00     0.015 C 
ATOM     14  C   LIG d   1       6.333  -4.993  -8.722  0.00  0.00    -0.029 C 
ATOM     15  N   LIG d   1       5.331  -5.698  -9.532  0.00  0.00     0.237 N 
ATOM     16  H   LIG d   1       4.602  -1.401  -6.242  0.00  0.00     0.066 H 
ATOM     17  H   LIG d   1       1.821   1.196  -8.210  0.00  0.00     0.066 H 
ATOM     18  H   LIG d   1       1.783  -0.229 -10.225  0.00  0.00     0.064 H 
ATOM     19  H   LIG d   1       6.369  -3.355  -7.310  0.00  0.00     0.037 H 
ATOM     20  H   LIG d   1       5.099  -4.567  -6.998  0.00  0.00     0.037 H 
ATOM     21  H   LIG d   1       7.007  -4.441  -9.379  0.00  0.00     0.082 H 
ATOM     22  H   LIG d   1       6.906  -5.716  -8.142  0.00  0.00     0.082 H 
ATOM     23  H   LIG d   1       4.598  -6.040  -8.930  0.00  0.00     0.202 HD
ATOM     24  H   LIG d   1       5.765  -6.478 -10.003  0.00  0.00     0.202 HD
ENDROOT
BRANCH   1  25
ATOM     25  C   LIG d   1       3.603  -5.462 -11.231  0.00  0.00     0.007 A 
ATOM     26  C   LIG d   1       2.699  -6.213 -10.504  0.00  0.00    -0.043 A 
ATOM     27  C   LIG d   1       1.643  -6.833 -11.143  0.00  0.00     0.032 A 
ATOM     28  H   LIG d   1       2.819  -6.315  -9.435  0.00  0.00     0.063 H 
ATOM     29  C   LIG d   1       1.494  -6.707 -12.516  0.00  0.00     0.127 A 
ATOM     30  C   LIG d   1       2.400  -5.949 -13.243  0.00  0.00    -0.019 A 
ATOM     31  C   LIG d   1       3.454  -5.331 -12.600  0.00  0.00    -0.049 A 
ATOM     32  H   LIG d   1       2.284  -5.845 -14.312  0.00  0.00     0.065 H 
ATOM     33  H   LIG d   1       4.162  -4.743 -13.166  0.00  0.00     0.062 H 
BRANCH  27  34
ATOM     34  C   LIG d   1       0.657  -7.652 -10.349  0.00  0.00     0.118 C 
ATOM     35  H   LIG d   1       1.184  -8.454  -9.831  0.00  0.00     0.075 H 
ATOM     36  H   LIG d   1      -0.084  -8.081 -11.024  0.00  0.00     0.075 H 
BRANCH  34  37
ATOM     37  O   LIG d   1       0.003  -6.815  -9.394  0.00  0.00    -0.487 OA
BRANCH  37  38
ATOM     38  C   LIG d   1      -1.235  -6.356  -9.720  0.00  0.00     0.121 A 
ATOM     39  C   LIG d   1      -2.355  -7.120  -9.431  0.00  0.00    -0.018 A 
ATOM     40  C   LIG d   1      -3.613  -6.654  -9.762  0.00  0.00    -0.037 A 
ATOM     41  H   LIG d   1      -2.245  -8.080  -8.948  0.00  0.00     0.066 H 
ATOM     42  C   LIG d   1      -3.754  -5.421 -10.383  0.00  0.00     0.034 A 
ATOM     43  H   LIG d   1      -4.485  -7.250  -9.536  0.00  0.00     0.064 H 
ATOM     44  C   LIG d   1      -2.632  -4.659 -10.676  0.00  0.00    -0.037 A 
ATOM     45  C   LIG d   1      -1.376  -5.123 -10.340  0.00  0.00    -0.018 A 
ATOM     46  H   LIG d   1      -2.742  -3.701 -11.163  0.00  0.00     0.064 H 
ATOM     47  H   LIG d   1      -0.502  -4.528 -10.564  0.00  0.00     0.066 H 
BRANCH  42  48
ATOM     48  N   LIG d   1      -5.030  -4.948 -10.718  0.00  0.00    -0.286 N 
ATOM     49  C   LIG d   1      -5.625  -4.014  -9.949  0.00  0.00     0.214 C 
ATOM     50  O   LIG d   1      -5.095  -3.645  -8.923  0.00  0.00    -0.276 OA
ATOM     51  H   LIG d   1      -5.484  -5.291 -11.503  0.00  0.00     0.155 HD
BRANCH  49  52
ATOM     52  C   LIG d   1      -6.950  -3.428 -10.366  0.00  0.00     0.013 C 
ATOM     53  H   LIG d   1      -6.782  -2.605 -11.060  0.00  0.00     0.032 H 
ATOM     54  H   LIG d   1      -7.551  -4.196 -10.851  0.00  0.00     0.032 H 
ATOM     55  H   LIG d   1      -7.476  -3.057  -9.485  0.00  0.00     0.032 H 
ENDBRANCH  49  52
ENDBRANCH  42  48
ENDBRANCH  37  38
ENDBRANCH  34  37
ENDBRANCH  27  34
BRANCH  29  56
ATOM     56  O   LIG d   1       0.460  -7.322 -13.149  0.00  0.00    -0.495 OA
BRANCH  56  57
ATOM     57  C   LIG d   1      -0.578  -6.485 -13.660  0.00  0.00     0.079 C 
ATOM     58  H   LIG d   1      -0.831  -5.726 -12.920  0.00  0.00     0.066 H 
ATOM     59  H   LIG d   1      -0.235  -5.999 -14.574  0.00  0.00     0.066 H 
ATOM     60  H   LIG d   1      -1.458  -7.088 -13.878  0.00  0.00     0.066 H 
ENDBRANCH  56  57
ENDBRANCH  29  56
ENDBRANCH   1  25
BRANCH   7  61
ATOM     61  O   LIG d   1       3.183   0.802  -6.049  0.00  0.00    -0.487 OA
BRANCH  61  62
ATOM     62  C   LIG d   1       2.290   0.456  -4.988  0.00  0.00     0.115 C 
ATOM     63  H   LIG d   1       1.655   1.311  -4.755  0.00  0.00     0.075 H 
ATOM     64  H   LIG d   1       1.669  -0.385  -5.296  0.00  0.00     0.075 H 
BRANCH  62  65
ATOM     65  C   LIG d   1       3.085   0.074  -3.767  0.00  0.00    -0.010 A 
ATOM     66  C   LIG d   1       3.719   1.050  -3.021  0.00  0.00    -0.055 A 
ATOM     67  C   LIG d   1       4.445   0.700  -1.898  0.00  0.00    -0.061 A 
ATOM     68  H   LIG d   1       3.643   2.087  -3.313  0.00  0.00     0.062 H 
ATOM     69  C   LIG d   1       4.546  -0.628  -1.527  0.00  0.00    -0.062 A 
ATOM     70  H   LIG d   1       4.936   1.462  -1.313  0.00  0.00     0.062 H 
ATOM     71  C   LIG d   1       3.917  -1.605  -2.275  0.00  0.00    -0.061 A 
ATOM     72  H   LIG d   1       5.115  -0.902  -0.651  0.00  0.00     0.062 H 
ATOM     73  C   LIG d   1       3.187  -1.254  -3.396  0.00  0.00    -0.055 A 
ATOM     74  H   LIG d   1       3.995  -2.642  -1.986  0.00  0.00     0.062 H 
ATOM     75  H   LIG d   1       2.696  -2.017  -3.981  0.00  0.00     0.062 H 
ENDBRANCH  62  65
ENDBRANCH  61  62
ENDBRANCH   7  61
TORSDOF 11
ENDMDL
MODEL 3
REMARK VINA RESULT:      -8.1     11.141     15.105
REMARK  11 active torsions:
REMARK  status: ('A' for Active; 'I' for Inactive)
REMARK    1  A    between atoms: C_1  and  C_2 
REMARK       I    between atoms: C_2  and  N_4 
REMARK    2  A    between atoms: N_4  and  C_5 
REMARK    3  A    between atoms: C_8  and  O_11 
REMARK    4  A    between atoms: O_11  and  C_12 
REMARK    5  A    between atoms: C_12  and  C_13 
REMARK    6  A    between atoms: C_15  and  C_21 
REMARK    7  A    between atoms: C_18  and  O_19 
REMARK    8  A    between atoms: O_19  and  C_20 
REMARK    9  A    between atoms: C_27  and  O_33 
REMARK   10  A    between atoms: O_33  and  C_34 
REMARK   11  A    between atoms: C_34  and  C_35 
ROOT
ATOM      1  C   LIG d   1      10.912   6.708  -8.134  0.00  0.00     0.044 C 
ATOM      2  H   LIG d   1      11.934   6.485  -8.439  0.00  0.00     0.097 H 
ATOM      3  C   LIG d   1      10.534   5.840  -6.958  0.00  0.00     0.073 A 
ATOM      4  C   LIG d   1       9.755   4.740  -7.076  0.00  0.00    -0.008 A 
ATOM      5  C   LIG d   1       9.607   4.175  -5.753  0.00  0.00     0.007 A 
ATOM      6  C   LIG d   1       8.923   3.057  -5.268  0.00  0.00    -0.011 A 
ATOM      7  C   LIG d   1       9.006   2.816  -3.905  0.00  0.00     0.122 A 
ATOM      8  C   LIG d   1       9.732   3.642  -3.057  0.00  0.00    -0.018 A 
ATOM      9  C   LIG d   1      10.416   4.753  -3.519  0.00  0.00    -0.034 A 
ATOM     10  C   LIG d   1      10.349   5.018  -4.884  0.00  0.00     0.047 A 
ATOM     11  N   LIG d   1      10.895   6.012  -5.649  0.00  0.00    -0.353 N 
ATOM     12  H   LIG d   1      11.454   6.732  -5.315  0.00  0.00     0.166 HD
ATOM     13  C   LIG d   1       9.191   4.265  -8.391  0.00  0.00     0.015 C 
ATOM     14  C   LIG d   1       9.954   4.980  -9.515  0.00  0.00    -0.029 C 
ATOM     15  N   LIG d   1       9.992   6.424  -9.246  0.00  0.00     0.237 N 
ATOM     16  H   LIG d   1       8.357   2.411  -5.924  0.00  0.00     0.066 H 
ATOM     17  H   LIG d   1       9.765   3.411  -2.003  0.00  0.00     0.066 H 
ATOM     18  H   LIG d   1      10.976   5.389  -2.848  0.00  0.00     0.064 H 
ATOM     19  H   LIG d   1       9.324   3.187  -8.481  0.00  0.00     0.037 H 
ATOM     20  H   LIG d   1       8.131   4.512  -8.449  0.00  0.00     0.037 H 
ATOM     21  H   LIG d   1      10.973   4.593  -9.565  0.00  0.00     0.082 H 
ATOM     22  H   LIG d   1       9.451   4.800 -10.465  0.00  0.00     0.082 H 
ATOM     23  H   LIG d   1       9.067   6.741  -9.004  0.00  0.00     0.202 HD
ATOM     24  H   LIG d   1      10.306   6.912 -10.072  0.00  0.00     0.202 HD
ENDROOT
BRANCH   1  25
ATOM     25  C   LIG d   1      10.805   8.160  -7.747  0.00  0.00     0.007 A 
ATOM     26  C   LIG d   1      10.200   8.516  -6.556  0.00  0.00    -0.043 A 
ATOM     27  C   LIG d   1      10.103   9.846  -6.200  0.00  0.00     0.032 A 
ATOM     28  H   LIG d   1       9.804   7.751  -5.904  0.00  0.00     0.063 H 
ATOM     29  C   LIG d   1      10.606  10.827  -7.042  0.00  0.00     0.127 A 
ATOM     30  C   LIG d   1      11.217  10.469  -8.234  0.00  0.00    -0.019 A 
ATOM     31  C   LIG d   1      11.313   9.136  -8.586  0.00  0.00    -0.049 A 
ATOM     32  H   LIG d   1      11.614  11.230  -8.889  0.00  0.00     0.065 H 
ATOM     33  H   LIG d   1      11.786   8.857  -9.516  0.00  0.00     0.062 H 
BRANCH  27  34
ATOM     34  C   LIG d   1       9.443  10.233  -4.901  0.00  0.00     0.118 C 
ATOM     35  H   LIG d   1       8.719   9.468  -4.620  0.00  0.00     0.075 H 
ATOM     36  H   LIG d   1       8.933  11.189  -5.023  0.00  0.00     0.075 H 
BRANCH  34  37
ATOM     37  O   LIG d   1      10.435  10.348  -3.879  0.00  0.00    -0.487 OA
BRANCH  37  38
ATOM     38  C   LIG d   1      10.464   9.371  -2.934  0.00  0.00     0.121 A 
ATOM     39  C   LIG d   1      11.504   8.453  -2.919  0.00  0.00    -0.018 A 
ATOM     40  C   LIG d   1      11.535   7.460  -1.959  0.00  0.00    -0.037 A 
ATOM     41  H   LIG d   1      12.289   8.513  -3.658  0.00  0.00     0.066 H 
ATOM     42  C   LIG d   1      10.525   7.383  -1.010  0.00  0.00     0.034 A 
ATOM     43  H   LIG d   1      12.344   6.745  -1.947  0.00  0.00     0.064 H 
ATOM     44  C   LIG d   1       9.482   8.299  -1.028  0.00  0.00    -0.037 A 
ATOM     45  C   LIG d   1       9.456   9.294  -1.985  0.00  0.00    -0.018 A 
ATOM     46  H   LIG d   1       8.695   8.236  -0.292  0.00  0.00     0.064 H 
ATOM     47  H   LIG d   1       8.647  10.010  -1.997  0.00  0.00     0.066 H 
BRANCH  42  48
ATOM     48  N   LIG d   1      10.556   6.376  -0.035  0.00  0.00    -0.286 N 
ATOM     49  C   LIG d   1      11.040   6.644   1.194  0.00  0.00     0.214 C 
ATOM     50  O   LIG d   1      11.527   7.729   1.432  0.00  0.00    -0.276 OA
ATOM     51  H   LIG d   1      10.227   5.488  -0.244  0.00  0.00     0.155 HD
BRANCH  49  52
ATOM     52  C   LIG d   1      10.977   5.594   2.274  0.00  0.00     0.013 C 
ATOM     53  H   LIG d   1      11.923   5.570   2.814  0.00  0.00     0.032 H 
ATOM     54  H   LIG d   1      10.170   5.833   2.967  0.00  0.00     0.032 H 
ATOM     55  H   LIG d   1      10.791   4.619   1.823  0.00  0.00     0.032 H 
ENDBRANCH  49  52
ENDBRANCH  42  48
ENDBRANCH  37  38
ENDBRANCH  34  37
ENDBRANCH  27  34
BRANCH  29  56
ATOM     56  O   LIG d   1      10.505  12.138  -6.696  0.00  0.00    -0.495 OA
BRANCH  56  57
ATOM     57  C   LIG d   1       9.609  12.944  -7.463  0.00  0.00     0.079 C 
ATOM     58  H   LIG d   1       9.726  12.712  -8.522  0.00  0.00     0.066 H 
ATOM     59  H   LIG d   1       8.583  12.736  -7.158  0.00  0.00     0.066 H 
ATOM     60  H   LIG d   1       9.831  13.997  -7.295  0.00  0.00     0.066 H 
ENDBRANCH  56  57
ENDBRANCH  29  56
ENDBRANCH   1  25
BRANCH   7  61
ATOM     61  O   LIG d   1       8.357   1.740  -3.383  0.00  0.00    -0.487 OA
BRANCH  61  62
ATOM     62  C   LIG d   1       7.421   1.072  -4.232  0.00  0.00     0.115 C 
ATOM     63  H   LIG d   1       6.993   1.788  -4.934  0.00  0.00     0.075 H 
ATOM     64  H   LIG d   1       7.931   0.282  -4.784  0.00  0.00     0.075 H 
BRANCH  62  65
ATOM     65  C   LIG d   1       6.323   0.472  -3.394  0.00  0.00    -0.010 A 
ATOM     66  C   LIG d   1       6.167  -0.901  -3.338  0.00  0.00    -0.055 A 
ATOM     67  C   LIG d   1       5.161  -1.452  -2.566  0.00  0.00    -0.061 A 
ATOM     68  H   LIG d   1       6.833  -1.542  -3.895  0.00  0.00     0.062 H 
ATOM     69  C   LIG d   1       4.306  -0.629  -1.857  0.00  0.00    -0.062 A 
ATOM     70  H   LIG d   1       5.042  -2.523  -2.519  0.00  0.00     0.062 H 
ATOM     71  C   LIG d   1       4.458   0.744  -1.916  0.00  0.00    -0.061 A 
ATOM     72  H   LIG d   1       3.518  -1.059  -1.255  0.00  0.00     0.062 H 
ATOM     73  C   LIG d   1       5.466   1.294  -2.685  0.00  0.00    -0.055 A 
ATOM     74  H   LIG d   1       3.790   1.385  -1.363  0.00  0.00     0.062 H 
ATOM     75  H   LIG d   1       5.585   2.366  -2.732  0.00  0.00     0.062 H 
ENDBRANCH  62  65
ENDBRANCH  61  62
ENDBRANCH   7  61
TORSDOF 11
ENDMDL
MODEL 4
REMARK VINA RESULT:      -7.9      2.257      3.186
REMARK  11 active torsions:
REMARK  status: ('A' for Active; 'I' for Inactive)
REMARK    1  A    between atoms: C_1  and  C_2 
REMARK       I    between atoms: C_2  and  N_4 
REMARK    2  A    between atoms: N_4  and  C_5 
REMARK    3  A    between atoms: C_8  and  O_11 
REMARK    4  A    between atoms: O_11  and  C_12 
REMARK    5  A    between atoms: C_12  and  C_13 
REMARK    6  A    between atoms: C_15  and  C_21 
REMARK    7  A    between atoms: C_18  and  O_19 
REMARK    8  A    between atoms: O_19  and  C_20 
REMARK    9  A    between atoms: C_27  and  O_33 
REMARK   10  A    between atoms: O_33  and  C_34 
REMARK   11  A    between atoms: C_34  and  C_35 
ROOT
ATOM      1  C   LIG d   1       1.516  -4.683 -11.184  0.00  0.00     0.044 C 
ATOM      2  H   LIG d   1       1.966  -4.629 -12.175  0.00  0.00     0.097 H 
ATOM      3  C   LIG d   1       1.948  -3.490 -10.365  0.00  0.00     0.073 A 
ATOM      4  C   LIG d   1       2.907  -3.559  -9.414  0.00  0.00    -0.008 A 
ATOM      5  C   LIG d   1       3.045  -2.236  -8.847  0.00  0.00     0.007 A 
ATOM      6  C   LIG d   1       3.865  -1.712  -7.843  0.00  0.00    -0.011 A 
ATOM      7  C   LIG d   1       3.719  -0.364  -7.555  0.00  0.00     0.122 A 
ATOM      8  C   LIG d   1       2.804   0.434  -8.230  0.00  0.00    -0.018 A 
ATOM      9  C   LIG d   1       1.984  -0.066  -9.227  0.00  0.00    -0.034 A 
ATOM     10  C   LIG d   1       2.110  -1.418  -9.535  0.00  0.00     0.047 A 
ATOM     11  N   LIG d   1       1.467  -2.211 -10.445  0.00  0.00    -0.353 N 
ATOM     12  H   LIG d   1       0.774  -1.912 -11.056  0.00  0.00     0.166 HD
ATOM     13  C   LIG d   1       3.647  -4.829  -9.077  0.00  0.00     0.015 C 
ATOM     14  C   LIG d   1       3.402  -5.831 -10.215  0.00  0.00    -0.029 C 
ATOM     15  N   LIG d   1       1.964  -5.909 -10.505  0.00  0.00     0.237 N 
ATOM     16  H   LIG d   1       4.578  -2.330  -7.315  0.00  0.00     0.066 H 
ATOM     17  H   LIG d   1       2.729   1.479  -7.969  0.00  0.00     0.066 H 
ATOM     18  H   LIG d   1       1.275   0.566  -9.743  0.00  0.00     0.064 H 
ATOM     19  H   LIG d   1       4.713  -4.623  -8.989  0.00  0.00     0.037 H 
ATOM     20  H   LIG d   1       3.271  -5.238  -8.139  0.00  0.00     0.037 H 
ATOM     21  H   LIG d   1       3.934  -5.502 -11.108  0.00  0.00     0.082 H 
ATOM     22  H   LIG d   1       3.767  -6.814  -9.917  0.00  0.00     0.082 H 
ATOM     23  H   LIG d   1       1.456  -6.016  -9.640  0.00  0.00     0.202 HD
ATOM     24  H   LIG d   1       1.783  -6.705 -11.098  0.00  0.00     0.202 HD
ENDROOT
BRANCH   1  25
ATOM     25  C   LIG d   1       0.015  -4.695 -11.310  0.00  0.00     0.007 A 
ATOM     26  C   LIG d   1      -0.577  -4.448 -12.535  0.00  0.00    -0.043 A 
ATOM     27  C   LIG d   1      -1.953  -4.459 -12.652  0.00  0.00     0.032 A 
ATOM     28  H   LIG d   1       0.038  -4.247 -13.400  0.00  0.00     0.063 H 
ATOM     29  C   LIG d   1      -2.742  -4.711 -11.539  0.00  0.00     0.127 A 
ATOM     30  C   LIG d   1      -2.146  -4.963 -10.313  0.00  0.00    -0.019 A 
ATOM     31  C   LIG d   1      -0.769  -4.951 -10.200  0.00  0.00    -0.049 A 
ATOM     32  H   LIG d   1      -2.757  -5.164  -9.445  0.00  0.00     0.065 H 
ATOM     33  H   LIG d   1      -0.305  -5.145  -9.244  0.00  0.00     0.062 H 
BRANCH  27  34
ATOM     34  C   LIG d   1      -2.598  -4.190 -13.989  0.00  0.00     0.118 C 
ATOM     35  H   LIG d   1      -3.682  -4.194 -13.876  0.00  0.00     0.075 H 
ATOM     36  H   LIG d   1      -2.303  -4.965 -14.696  0.00  0.00     0.075 H 
BRANCH  34  37
ATOM     37  O   LIG d   1      -2.173  -2.915 -14.474  0.00  0.00    -0.487 OA
BRANCH  37  38
ATOM     38  C   LIG d   1      -2.858  -1.827 -14.029  0.00  0.00     0.121 A 
ATOM     39  C   LIG d   1      -4.243  -1.857 -13.969  0.00  0.00    -0.018 A 
ATOM     40  C   LIG d   1      -4.939  -0.753 -13.516  0.00  0.00    -0.037 A 
ATOM     41  H   LIG d   1      -4.778  -2.744 -14.275  0.00  0.00     0.066 H 
ATOM     42  C   LIG d   1      -4.252   0.386 -13.122  0.00  0.00     0.034 A 
ATOM     43  H   LIG d   1      -6.018  -0.777 -13.469  0.00  0.00     0.064 H 
ATOM     44  C   LIG d   1      -2.865   0.418 -13.187  0.00  0.00    -0.037 A 
ATOM     45  C   LIG d   1      -2.171  -0.689 -13.634  0.00  0.00    -0.018 A 
ATOM     46  H   LIG d   1      -2.330   1.305 -12.884  0.00  0.00     0.064 H 
ATOM     47  H   LIG d   1      -1.091  -0.666 -13.680  0.00  0.00     0.066 H 
BRANCH  42  48
ATOM     48  N   LIG d   1      -4.957   1.506 -12.662  0.00  0.00    -0.286 N 
ATOM     49  C   LIG d   1      -5.320   2.475 -13.526  0.00  0.00     0.214 C 
ATOM     50  O   LIG d   1      -4.963   2.420 -14.684  0.00  0.00    -0.276 OA
ATOM     51  H   LIG d   1      -5.185   1.584 -11.722  0.00  0.00     0.155 HD
BRANCH  49  52
ATOM     52  C   LIG d   1      -6.168   3.628 -13.053  0.00  0.00     0.013 C 
ATOM     53  H   LIG d   1      -6.317   3.552 -11.977  0.00  0.00     0.032 H 
ATOM     54  H   LIG d   1      -5.666   4.567 -13.285  0.00  0.00     0.032 H 
ATOM     55  H   LIG d   1      -7.135   3.599 -13.557  0.00  0.00     0.032 H 
ENDBRANCH  49  52
ENDBRANCH  42  48
ENDBRANCH  37  38
ENDBRANCH  34  37
ENDBRANCH  27  34
BRANCH  29  56
ATOM     56  O   LIG d   1      -4.097  -4.715 -11.651  0.00  0.00    -0.495 OA
BRANCH  56  57
ATOM     57  C   LIG d   1      -4.816  -3.768 -10.860  0.00  0.00     0.079 C 
ATOM     58  H   LIG d   1      -5.438  -4.296 -10.137  0.00  0.00     0.066 H 
ATOM     59  H   LIG d   1      -4.111  -3.127 -10.332  0.00  0.00     0.066 H 
ATOM     60  H   LIG d   1      -5.447  -3.160 -11.506  0.00  0.00     0.066 H 
ENDBRANCH  56  57
ENDBRANCH  29  56
ENDBRANCH   1  25
BRANCH   7  61
ATOM     61  O   LIG d   1       4.493   0.193  -6.586  0.00  0.00    -0.487 OA
BRANCH  61  62
ATOM     62  C   LIG d   1       5.427  -0.666  -5.928  0.00  0.00     0.115 C 
ATOM     63  H   LIG d   1       5.438  -1.637  -6.424  0.00  0.00     0.075 H 
ATOM     64  H   LIG d   1       6.421  -0.222  -5.973  0.00  0.00     0.075 H 
BRANCH  62  65
ATOM     65  C   LIG d   1       5.019  -0.842  -4.489  0.00  0.00    -0.010 A 
ATOM     66  C   LIG d   1       4.377  -1.999  -4.088  0.00  0.00    -0.055 A 
ATOM     67  C   LIG d   1       4.006  -2.163  -2.767  0.00  0.00    -0.061 A 
ATOM     68  H   LIG d   1       4.167  -2.776  -4.808  0.00  0.00     0.062 H 
ATOM     69  C   LIG d   1       4.270  -1.165  -1.847  0.00  0.00    -0.062 A 
ATOM     70  H   LIG d   1       3.508  -3.067  -2.453  0.00  0.00     0.062 H 
ATOM     71  C   LIG d   1       4.908  -0.005  -2.247  0.00  0.00    -0.061 A 
ATOM     72  H   LIG d   1       3.978  -1.291  -0.814  0.00  0.00     0.062 H 
ATOM     73  C   LIG d   1       5.281   0.156  -3.568  0.00  0.00    -0.055 A 
ATOM     74  H   LIG d   1       5.113   0.773  -1.529  0.00  0.00     0.062 H 
ATOM     75  H   LIG d   1       5.780   1.061  -3.882  0.00  0.00     0.062 H 
ENDBRANCH  62  65
ENDBRANCH  61  62
ENDBRANCH   7  61
TORSDOF 11
ENDMDL
MODEL 5
REMARK VINA RESULT:      -7.9      3.829      6.333
REMARK  11 active torsions:
REMARK  status: ('A' for Active; 'I' for Inactive)
REMARK    1  A    between atoms: C_1  and  C_2 
REMARK       I    between atoms: C_2  and  N_4 
REMARK    2  A    between atoms: N_4  and  C_5 
REMARK    3  A    between atoms: C_8  and  O_11 
REMARK    4  A    between atoms: O_11  and  C_12 
REMARK    5  A    between atoms: C_12  and  C_13 
REMARK    6  A    between atoms: C_15  and  C_21 
REMARK    7  A    between atoms: C_18  and  O_19 
REMARK    8  A    between atoms: O_19  and  C_20 
REMARK    9  A    between atoms: C_27  and  O_33 
REMARK   10  A    between atoms: O_33  and  C_34 
REMARK   11  A    between atoms: C_34  and  C_35 
ROOT
ATOM      1  C   LIG d   1       2.462  -3.456 -11.849  0.00  0.00     0.044 C 
ATOM      2  H   LIG d   1       3.337  -3.437 -12.498  0.00  0.00     0.097 H 
ATOM      3  C   LIG d   1       2.565  -2.349 -10.827  0.00  0.00     0.073 A 
ATOM      4  C   LIG d   1       2.934  -2.566  -9.543  0.00  0.00    -0.008 A 
ATOM      5  C   LIG d   1       2.915  -1.286  -8.870  0.00  0.00     0.007 A 
ATOM      6  C   LIG d   1       3.197  -0.898  -7.557  0.00  0.00    -0.011 A 
ATOM      7  C   LIG d   1       3.069   0.451  -7.262  0.00  0.00     0.122 A 
ATOM      8  C   LIG d   1       2.679   1.377  -8.221  0.00  0.00    -0.018 A 
ATOM      9  C   LIG d   1       2.396   1.012  -9.526  0.00  0.00    -0.034 A 
ATOM     10  C   LIG d   1       2.517  -0.337  -9.849  0.00  0.00     0.047 A 
ATOM     11  N   LIG d   1       2.315  -1.018 -11.018  0.00  0.00    -0.353 N 
ATOM     12  H   LIG d   1       2.037  -0.617 -11.857  0.00  0.00     0.166 HD
ATOM     13  C   LIG d   1       3.285  -3.929  -9.003  0.00  0.00     0.015 C 
ATOM     14  C   LIG d   1       3.519  -4.862 -10.200  0.00  0.00    -0.029 C 
ATOM     15  N   LIG d   1       2.399  -4.746 -11.144  0.00  0.00     0.237 N 
ATOM     16  H   LIG d   1       3.500  -1.615  -6.808  0.00  0.00     0.066 H 
ATOM     17  H   LIG d   1       2.594   2.416  -7.940  0.00  0.00     0.066 H 
ATOM     18  H   LIG d   1       2.093   1.743 -10.261  0.00  0.00     0.064 H 
ATOM     19  H   LIG d   1       4.192  -3.864  -8.402  0.00  0.00     0.037 H 
ATOM     20  H   LIG d   1       2.464  -4.308  -8.394  0.00  0.00     0.037 H 
ATOM     21  H   LIG d   1       4.446  -4.583 -10.702  0.00  0.00     0.082 H 
ATOM     22  H   LIG d   1       3.593  -5.891  -9.848  0.00  0.00     0.082 H 
ATOM     23  H   LIG d   1       1.530  -4.808 -10.637  0.00  0.00     0.202 HD
ATOM     24  H   LIG d   1       2.447  -5.497 -11.816  0.00  0.00     0.202 HD
ENDROOT
BRANCH   1  25
ATOM     25  C   LIG d   1       1.216  -3.270 -12.674  0.00  0.00     0.007 A 
ATOM     26  C   LIG d   1       0.002  -3.741 -12.210  0.00  0.00    -0.043 A 
ATOM     27  C   LIG d   1      -1.141  -3.570 -12.966  0.00  0.00     0.032 A 
ATOM     28  H   LIG d   1      -0.051  -4.244 -11.256  0.00  0.00     0.063 H 
ATOM     29  C   LIG d   1      -1.070  -2.930 -14.194  0.00  0.00     0.127 A 
ATOM     30  C   LIG d   1       0.147  -2.453 -14.656  0.00  0.00    -0.019 A 
ATOM     31  C   LIG d   1       1.288  -2.626 -13.897  0.00  0.00    -0.049 A 
ATOM     32  H   LIG d   1       0.205  -1.950 -15.610  0.00  0.00     0.065 H 
ATOM     33  H   LIG d   1       2.237  -2.258 -14.258  0.00  0.00     0.062 H 
BRANCH  27  34
ATOM     34  C   LIG d   1      -2.465  -4.085 -12.458  0.00  0.00     0.118 C 
ATOM     35  H   LIG d   1      -2.784  -4.929 -13.069  0.00  0.00     0.075 H 
ATOM     36  H   LIG d   1      -3.209  -3.291 -12.517  0.00  0.00     0.075 H 
BRANCH  34  37
ATOM     37  O   LIG d   1      -2.322  -4.505 -11.100  0.00  0.00    -0.487 OA
BRANCH  37  38
ATOM     38  C   LIG d   1      -2.536  -5.823 -10.837  0.00  0.00     0.121 A 
ATOM     39  C   LIG d   1      -1.968  -6.405  -9.714  0.00  0.00    -0.018 A 
ATOM     40  C   LIG d   1      -2.185  -7.743  -9.445  0.00  0.00    -0.037 A 
ATOM     41  H   LIG d   1      -1.356  -5.814  -9.049  0.00  0.00     0.066 H 
ATOM     42  C   LIG d   1      -2.971  -8.503 -10.299  0.00  0.00     0.034 A 
ATOM     43  H   LIG d   1      -1.743  -8.196  -8.570  0.00  0.00     0.064 H 
ATOM     44  C   LIG d   1      -3.535  -7.920 -11.426  0.00  0.00    -0.037 A 
ATOM     45  C   LIG d   1      -3.322  -6.582 -11.690  0.00  0.00    -0.018 A 
ATOM     46  H   LIG d   1      -4.144  -8.512 -12.093  0.00  0.00     0.064 H 
ATOM     47  H   LIG d   1      -3.765  -6.127 -12.565  0.00  0.00     0.066 H 
BRANCH  42  48
ATOM     48  N   LIG d   1      -3.192  -9.860 -10.027  0.00  0.00    -0.286 N 
ATOM     49  C   LIG d   1      -2.386 -10.795 -10.567  0.00  0.00     0.214 C 
ATOM     50  O   LIG d   1      -1.523 -10.471 -11.355  0.00  0.00    -0.276 OA
ATOM     51  H   LIG d   1      -3.925 -10.125  -9.449  0.00  0.00     0.155 HD
BRANCH  49  52
ATOM     52  C   LIG d   1      -2.557 -12.245 -10.193  0.00  0.00     0.013 C 
ATOM     53  H   LIG d   1      -1.586 -12.675  -9.949  0.00  0.00     0.032 H 
ATOM     54  H   LIG d   1      -3.216 -12.322  -9.328  0.00  0.00     0.032 H 
ATOM     55  H   LIG d   1      -2.995 -12.788 -11.031  0.00  0.00     0.032 H 
ENDBRANCH  49  52
ENDBRANCH  42  48
ENDBRANCH  37  38
ENDBRANCH  34  37
ENDBRANCH  27  34
BRANCH  29  56
ATOM     56  O   LIG d   1      -2.193  -2.766 -14.943  0.00  0.00    -0.495 OA
BRANCH  56  57
ATOM     57  C   LIG d   1      -2.241  -3.446 -16.198  0.00  0.00     0.079 C 
ATOM     58  H   LIG d   1      -2.675  -4.437 -16.058  0.00  0.00     0.066 H 
ATOM     59  H   LIG d   1      -2.855  -2.877 -16.895  0.00  0.00     0.066 H 
ATOM     60  H   LIG d   1      -1.233  -3.544 -16.597  0.00  0.00     0.066 H 
ENDBRANCH  56  57
ENDBRANCH  29  56
ENDBRANCH   1  25
BRANCH   7  61
ATOM     61  O   LIG d   1       3.332   0.879  -5.998  0.00  0.00    -0.487 OA
BRANCH  61  62
ATOM     62  C   LIG d   1       2.402   0.503  -4.979  0.00  0.00     0.115 C 
ATOM     63  H   LIG d   1       1.788   1.364  -4.713  0.00  0.00     0.075 H 
ATOM     64  H   LIG d   1       1.764  -0.299  -5.349  0.00  0.00     0.075 H 
BRANCH  62  65
ATOM     65  C   LIG d   1       3.155   0.028  -3.764  0.00  0.00    -0.010 A 
ATOM     66  C   LIG d   1       3.791   0.941  -2.944  0.00  0.00    -0.055 A 
ATOM     67  C   LIG d   1       4.478   0.505  -1.826  0.00  0.00    -0.061 A 
ATOM     68  H   LIG d   1       3.750   1.995  -3.175  0.00  0.00     0.062 H 
ATOM     69  C   LIG d   1       4.536  -0.844  -1.533  0.00  0.00    -0.062 A 
ATOM     70  H   LIG d   1       4.972   1.218  -1.183  0.00  0.00     0.062 H 
ATOM     71  C   LIG d   1       3.903  -1.758  -2.355  0.00  0.00    -0.061 A 
ATOM     72  H   LIG d   1       5.075  -1.185  -0.661  0.00  0.00     0.062 H 
ATOM     73  C   LIG d   1       3.214  -1.322  -3.471  0.00  0.00    -0.055 A 
ATOM     74  H   LIG d   1       3.948  -2.812  -2.127  0.00  0.00     0.062 H 
ATOM     75  H   LIG d   1       2.719  -2.035  -4.114  0.00  0.00     0.062 H 
ENDBRANCH  62  65
ENDBRANCH  61  62
ENDBRANCH   7  61
TORSDOF 11
ENDMDL
MODEL 6
REMARK VINA RESULT:      -7.9      6.907     12.893
REMARK  11 active torsions:
REMARK  status: ('A' for Active; 'I' for Inactive)
REMARK    1  A    between atoms: C_1  and  C_2 
REMARK       I    between atoms: C_2  and  N_4 
REMARK    2  A    between atoms: N_4  and  C_5 
REMARK    3  A    between atoms: C_8  and  O_11 
REMARK    4  A    between atoms: O_11  and  C_12 
REMARK    5  A    between atoms: C_12  and  C_13 
REMARK    6  A    between atoms: C_15  and  C_21 
REMARK    7  A    between atoms: C_18  and  O_19 
REMARK    8  A    between atoms: O_19  and  C_20 
REMARK    9  A    between atoms: C_27  and  O_33 
REMARK   10  A    between atoms: O_33  and  C_34 
REMARK   11  A    between atoms: C_34  and  C_35 
ROOT
ATOM      1  C   LIG d   1      10.394   1.946  -4.769  0.00  0.00     0.044 C 
ATOM      2  H   LIG d   1      11.065   1.227  -4.300  0.00  0.00     0.097 H 
ATOM      3  C   LIG d   1       9.004   1.361  -4.853  0.00  0.00     0.073 A 
ATOM      4  C   LIG d   1       8.489   0.852  -5.995  0.00  0.00    -0.008 A 
ATOM      5  C   LIG d   1       7.150   0.394  -5.695  0.00  0.00     0.007 A 
ATOM      6  C   LIG d   1       6.155  -0.209  -6.470  0.00  0.00    -0.011 A 
ATOM      7  C   LIG d   1       4.964  -0.517  -5.830  0.00  0.00     0.122 A 
ATOM      8  C   LIG d   1       4.764  -0.244  -4.483  0.00  0.00    -0.018 A 
ATOM      9  C   LIG d   1       5.737   0.353  -3.700  0.00  0.00    -0.034 A 
ATOM     10  C   LIG d   1       6.943   0.673  -4.318  0.00  0.00     0.047 A 
ATOM     11  N   LIG d   1       8.086   1.257  -3.844  0.00  0.00    -0.353 N 
ATOM     12  H   LIG d   1       8.224   1.552  -2.930  0.00  0.00     0.166 HD
ATOM     13  C   LIG d   1       9.248   0.809  -7.297  0.00  0.00     0.015 C 
ATOM     14  C   LIG d   1      10.731   1.057  -6.984  0.00  0.00    -0.029 C 
ATOM     15  N   LIG d   1      10.864   2.245  -6.130  0.00  0.00     0.237 N 
ATOM     16  H   LIG d   1       6.307  -0.424  -7.518  0.00  0.00     0.066 H 
ATOM     17  H   LIG d   1       3.818  -0.503  -4.032  0.00  0.00     0.066 H 
ATOM     18  H   LIG d   1       5.568   0.562  -2.653  0.00  0.00     0.064 H 
ATOM     19  H   LIG d   1       9.127  -0.169  -7.762  0.00  0.00     0.037 H 
ATOM     20  H   LIG d   1       8.878   1.584  -7.967  0.00  0.00     0.037 H 
ATOM     21  H   LIG d   1      11.142   0.190  -6.465  0.00  0.00     0.082 H 
ATOM     22  H   LIG d   1      11.276   1.215  -7.914  0.00  0.00     0.082 H 
ATOM     23  H   LIG d   1      10.313   2.996  -6.517  0.00  0.00     0.202 HD
ATOM     24  H   LIG d   1      11.832   2.527  -6.095  0.00  0.00     0.202 HD
ENDROOT
BRANCH   1  25
ATOM     25  C   LIG d   1      10.362   3.213  -3.955  0.00  0.00     0.007 A 
ATOM     26  C   LIG d   1       9.816   4.365  -4.490  0.00  0.00    -0.043 A 
ATOM     27  C   LIG d   1       9.786   5.527  -3.744  0.00  0.00     0.032 A 
ATOM     28  H   LIG d   1       9.414   4.355  -5.492  0.00  0.00     0.063 H 
ATOM     29  C   LIG d   1      10.309   5.540  -2.460  0.00  0.00     0.127 A 
ATOM     30  C   LIG d   1      10.852   4.382  -1.923  0.00  0.00    -0.019 A 
ATOM     31  C   LIG d   1      10.880   3.222  -2.672  0.00  0.00    -0.049 A 
ATOM     32  H   LIG d   1      11.256   4.388  -0.921  0.00  0.00     0.065 H 
ATOM     33  H   LIG d   1      11.305   2.321  -2.255  0.00  0.00     0.062 H 
BRANCH  27  34
ATOM     34  C   LIG d   1       9.191   6.783  -4.329  0.00  0.00     0.118 C 
ATOM     35  H   LIG d   1       8.825   7.421  -3.523  0.00  0.00     0.075 H 
ATOM     36  H   LIG d   1       8.363   6.519  -4.987  0.00  0.00     0.075 H 
BRANCH  34  37
ATOM     37  O   LIG d   1      10.190   7.481  -5.074  0.00  0.00    -0.487 OA
BRANCH  37  38
ATOM     38  C   LIG d   1      10.082   7.450  -6.430  0.00  0.00     0.121 A 
ATOM     39  C   LIG d   1       9.110   8.209  -7.064  0.00  0.00    -0.018 A 
ATOM     40  C   LIG d   1       9.000   8.179  -8.441  0.00  0.00    -0.037 A 
ATOM     41  H   LIG d   1       8.438   8.823  -6.483  0.00  0.00     0.066 H 
ATOM     42  C   LIG d   1       9.863   7.390  -9.188  0.00  0.00     0.034 A 
ATOM     43  H   LIG d   1       8.243   8.770  -8.935  0.00  0.00     0.064 H 
ATOM     44  C   LIG d   1      10.833   6.627  -8.552  0.00  0.00    -0.037 A 
ATOM     45  C   LIG d   1      10.945   6.663  -7.176  0.00  0.00    -0.018 A 
ATOM     46  H   LIG d   1      11.502   6.010  -9.133  0.00  0.00     0.064 H 
ATOM     47  H   LIG d   1      11.703   6.073  -6.681  0.00  0.00     0.066 H 
BRANCH  42  48
ATOM     48  N   LIG d   1       9.753   7.360 -10.585  0.00  0.00    -0.286 N 
ATOM     49  C   LIG d   1       8.997   6.416 -11.181  0.00  0.00     0.214 C 
ATOM     50  O   LIG d   1       8.481   5.543 -10.516  0.00  0.00    -0.276 OA
ATOM     51  H   LIG d   1      10.219   8.019 -11.123  0.00  0.00     0.155 HD
BRANCH  49  52
ATOM     52  C   LIG d   1       8.793   6.446 -12.674  0.00  0.00     0.013 C 
ATOM     53  H   LIG d   1       9.291   7.320 -13.092  0.00  0.00     0.032 H 
ATOM     54  H   LIG d   1       9.212   5.542 -13.116  0.00  0.00     0.032 H 
ATOM     55  H   LIG d   1       7.725   6.495 -12.894  0.00  0.00     0.032 H 
ENDBRANCH  49  52
ENDBRANCH  42  48
ENDBRANCH  37  38
ENDBRANCH  34  37
ENDBRANCH  27  34
BRANCH  29  56
ATOM     56  O   LIG d   1      10.286   6.685  -1.726  0.00  0.00    -0.495 OA
BRANCH  56  57
ATOM     57  C   LIG d   1      10.648   6.580  -0.349  0.00  0.00     0.079 C 
ATOM     58  H   LIG d   1      10.229   7.422   0.203  0.00  0.00     0.066 H 
ATOM     59  H   LIG d   1      10.256   5.648   0.059  0.00  0.00     0.066 H 
ATOM     60  H   LIG d   1      11.734   6.589  -0.256  0.00  0.00     0.066 H 
ENDBRANCH  56  57
ENDBRANCH  29  56
ENDBRANCH   1  25
BRANCH   7  61
ATOM     61  O   LIG d   1       3.964  -1.105  -6.541  0.00  0.00    -0.487 OA
BRANCH  61  62
ATOM     62  C   LIG d   1       2.879  -0.268  -6.947  0.00  0.00     0.115 C 
ATOM     63  H   LIG d   1       1.974  -0.868  -7.041  0.00  0.00     0.075 H 
ATOM     64  H   LIG d   1       2.724   0.512  -6.202  0.00  0.00     0.075 H 
BRANCH  62  65
ATOM     65  C   LIG d   1       3.203   0.364  -8.276  0.00  0.00    -0.010 A 
ATOM     66  C   LIG d   1       3.165   1.739  -8.415  0.00  0.00    -0.055 A 
ATOM     67  C   LIG d   1       3.467   2.319  -9.633  0.00  0.00    -0.061 A 
ATOM     68  H   LIG d   1       2.903   2.360  -7.572  0.00  0.00     0.062 H 
ATOM     69  C   LIG d   1       3.797   1.524 -10.715  0.00  0.00    -0.062 A 
ATOM     70  H   LIG d   1       3.441   3.393  -9.742  0.00  0.00     0.062 H 
ATOM     71  C   LIG d   1       3.831   0.148 -10.577  0.00  0.00    -0.061 A 
ATOM     72  H   LIG d   1       4.030   1.977 -11.667  0.00  0.00     0.062 H 
ATOM     73  C   LIG d   1       3.533  -0.431  -9.358  0.00  0.00    -0.055 A 
ATOM     74  H   LIG d   1       4.088  -0.473 -11.421  0.00  0.00     0.062 H 
ATOM     75  H   LIG d   1       3.559  -1.505  -9.250  0.00  0.00     0.062 H 
ENDBRANCH  62  65
ENDBRANCH  61  62
ENDBRANCH   7  61
TORSDOF 11
ENDMDL
MODEL 7
REMARK VINA RESULT:      -7.8      2.311      3.799
REMARK  11 active torsions:
REMARK  status: ('A' for Active; 'I' for Inactive)
REMARK    1  A    between atoms: C_1  and  C_2 
REMARK       I    between atoms: C_2  and  N_4 
REMARK    2  A    between atoms: N_4  and  C_5 
REMARK    3  A    between atoms: C_8  and  O_11 
REMARK    4  A    between atoms: O_11  and  C_12 
REMARK    5  A    between atoms: C_12  and  C_13 
REMARK    6  A    between atoms: C_15  and  C_21 
REMARK    7  A    between atoms: C_18  and  O_19 
REMARK    8  A    between atoms: O_19  and  C_20 
REMARK    9  A    between atoms: C_27  and  O_33 
REMARK   10  A    between atoms: O_33  and  C_34 
REMARK   11  A    between atoms: C_34  and  C_35 
ROOT
ATOM      1  C   LIG d   1       2.832   0.396 -10.254  0.00  0.00     0.044 C 
ATOM      2  H   LIG d   1       1.888   0.754  -9.843  0.00  0.00     0.097 H 
ATOM      3  C   LIG d   1       3.618  -0.310  -9.174  0.00  0.00     0.073 A 
ATOM      4  C   LIG d   1       4.660   0.263  -8.531  0.00  0.00    -0.008 A 
ATOM      5  C   LIG d   1       5.161  -0.704  -7.579  0.00  0.00     0.007 A 
ATOM      6  C   LIG d   1       6.208  -0.673  -6.654  0.00  0.00    -0.011 A 
ATOM      7  C   LIG d   1       6.402  -1.814  -5.889  0.00  0.00     0.122 A 
ATOM      8  C   LIG d   1       5.595  -2.936  -6.031  0.00  0.00    -0.018 A 
ATOM      9  C   LIG d   1       4.554  -2.985  -6.942  0.00  0.00    -0.034 A 
ATOM     10  C   LIG d   1       4.338  -1.853  -7.722  0.00  0.00     0.047 A 
ATOM     11  N   LIG d   1       3.417  -1.575  -8.695  0.00  0.00    -0.353 N 
ATOM     12  H   LIG d   1       2.726  -2.185  -8.999  0.00  0.00     0.166 HD
ATOM     13  C   LIG d   1       5.141   1.663  -8.819  0.00  0.00     0.015 C 
ATOM     14  C   LIG d   1       4.045   2.380  -9.619  0.00  0.00    -0.029 C 
ATOM     15  N   LIG d   1       3.621   1.536 -10.744  0.00  0.00     0.237 N 
ATOM     16  H   LIG d   1       6.838   0.198  -6.540  0.00  0.00     0.066 H 
ATOM     17  H   LIG d   1       5.788  -3.799  -5.412  0.00  0.00     0.066 H 
ATOM     18  H   LIG d   1       3.936  -3.865  -7.043  0.00  0.00     0.064 H 
ATOM     19  H   LIG d   1       5.320   2.191  -7.882  0.00  0.00     0.037 H 
ATOM     20  H   LIG d   1       6.060   1.625  -9.403  0.00  0.00     0.037 H 
ATOM     21  H   LIG d   1       3.190   2.575  -8.970  0.00  0.00     0.082 H 
ATOM     22  H   LIG d   1       4.433   3.325 -10.000  0.00  0.00     0.082 H 
ATOM     23  H   LIG d   1       4.437   1.194 -11.229  0.00  0.00     0.202 HD
ATOM     24  H   LIG d   1       3.060   2.081 -11.382  0.00  0.00     0.202 HD
ENDROOT
BRANCH   1  25
ATOM     25  C   LIG d   1       2.560  -0.558 -11.388  0.00  0.00     0.007 A 
ATOM     26  C   LIG d   1       1.323  -1.166 -11.499  0.00  0.00    -0.043 A 
ATOM     27  C   LIG d   1       1.073  -2.040 -12.538  0.00  0.00     0.032 A 
ATOM     28  H   LIG d   1       0.553  -0.957 -10.770  0.00  0.00     0.063 H 
ATOM     29  C   LIG d   1       2.065  -2.312 -13.469  0.00  0.00     0.127 A 
ATOM     30  C   LIG d   1       3.303  -1.697 -13.359  0.00  0.00    -0.019 A 
ATOM     31  C   LIG d   1       3.549  -0.824 -12.317  0.00  0.00    -0.049 A 
ATOM     32  H   LIG d   1       4.076  -1.904 -14.085  0.00  0.00     0.065 H 
ATOM     33  H   LIG d   1       4.514  -0.347 -12.230  0.00  0.00     0.062 H 
BRANCH  27  34
ATOM     34  C   LIG d   1      -0.277  -2.702 -12.658  0.00  0.00     0.118 C 
ATOM     35  H   LIG d   1      -0.868  -2.484 -11.769  0.00  0.00     0.075 H 
ATOM     36  H   LIG d   1      -0.144  -3.780 -12.752  0.00  0.00     0.075 H 
BRANCH  34  37
ATOM     37  O   LIG d   1      -0.951  -2.202 -13.814  0.00  0.00    -0.487 OA
BRANCH  37  38
ATOM     38  C   LIG d   1      -2.099  -1.503 -13.604  0.00  0.00     0.121 A 
ATOM     39  C   LIG d   1      -3.313  -2.171 -13.536  0.00  0.00    -0.018 A 
ATOM     40  C   LIG d   1      -4.479  -1.463 -13.322  0.00  0.00    -0.037 A 
ATOM     41  H   LIG d   1      -3.347  -3.244 -13.650  0.00  0.00     0.066 H 
ATOM     42  C   LIG d   1      -4.436  -0.084 -13.175  0.00  0.00     0.034 A 
ATOM     43  H   LIG d   1      -5.425  -1.983 -13.268  0.00  0.00     0.064 H 
ATOM     44  C   LIG d   1      -3.222   0.585 -13.248  0.00  0.00    -0.037 A 
ATOM     45  C   LIG d   1      -2.056  -0.125 -13.456  0.00  0.00    -0.018 A 
ATOM     46  H   LIG d   1      -3.188   1.658 -13.138  0.00  0.00     0.064 H 
ATOM     47  H   LIG d   1      -1.109   0.394 -13.509  0.00  0.00     0.066 H 
BRANCH  42  48
ATOM     48  N   LIG d   1      -5.619   0.636 -12.957  0.00  0.00    -0.286 N 
ATOM     49  C   LIG d   1      -6.340   1.080 -14.005  0.00  0.00     0.214 C 
ATOM     50  O   LIG d   1      -5.923   0.932 -15.134  0.00  0.00    -0.276 OA
ATOM     51  H   LIG d   1      -5.919   0.812 -12.051  0.00  0.00     0.155 HD
BRANCH  49  52
ATOM     52  C   LIG d   1      -7.665   1.761 -13.774  0.00  0.00     0.013 C 
ATOM     53  H   LIG d   1      -8.461   1.018 -13.775  0.00  0.00     0.032 H 
ATOM     54  H   LIG d   1      -7.647   2.274 -12.813  0.00  0.00     0.032 H 
ATOM     55  H   LIG d   1      -7.844   2.487 -14.569  0.00  0.00     0.032 H 
ENDBRANCH  49  52
ENDBRANCH  42  48
ENDBRANCH  37  38
ENDBRANCH  34  37
ENDBRANCH  27  34
BRANCH  29  56
ATOM     56  O   LIG d   1       1.822  -3.177 -14.489  0.00  0.00    -0.495 OA
BRANCH  56  57
ATOM     57  C   LIG d   1       2.225  -2.766 -15.797  0.00  0.00     0.079 C 
ATOM     58  H   LIG d   1       3.279  -3.003 -15.944  0.00  0.00     0.066 H 
ATOM     59  H   LIG d   1       1.628  -3.292 -16.542  0.00  0.00     0.066 H 
ATOM     60  H   LIG d   1       2.076  -1.693 -15.903  0.00  0.00     0.066 H 
ENDBRANCH  56  57
ENDBRANCH  29  56
ENDBRANCH   1  25
BRANCH   7  61
ATOM     61  O   LIG d   1       7.408  -1.835  -4.975  0.00  0.00    -0.487 OA
BRANCH  61  62
ATOM     62  C   LIG d   1       7.061  -2.195  -3.636  0.00  0.00     0.115 C 
ATOM     63  H   LIG d   1       6.639  -3.201  -3.629  0.00  0.00     0.075 H 
ATOM     64  H   LIG d   1       7.953  -2.171  -3.010  0.00  0.00     0.075 H 
BRANCH  62  65
ATOM     65  C   LIG d   1       6.045  -1.220  -3.101  0.00  0.00    -0.010 A 
ATOM     66  C   LIG d   1       4.810  -1.673  -2.673  0.00  0.00    -0.055 A 
ATOM     67  C   LIG d   1       3.879  -0.779  -2.178  0.00  0.00    -0.061 A 
ATOM     68  H   LIG d   1       4.575  -2.725  -2.723  0.00  0.00     0.062 H 
ATOM     69  C   LIG d   1       4.180   0.570  -2.120  0.00  0.00    -0.062 A 
ATOM     70  H   LIG d   1       2.917  -1.132  -1.841  0.00  0.00     0.062 H 
ATOM     71  C   LIG d   1       5.412   1.023  -2.552  0.00  0.00    -0.061 A 
ATOM     72  H   LIG d   1       3.452   1.269  -1.736  0.00  0.00     0.062 H 
ATOM     73  C   LIG d   1       6.344   0.129  -3.043  0.00  0.00    -0.055 A 
ATOM     74  H   LIG d   1       5.647   2.076  -2.507  0.00  0.00     0.062 H 
ATOM     75  H   LIG d   1       7.307   0.482  -3.381  0.00  0.00     0.062 H 
ENDBRANCH  62  65
ENDBRANCH  61  62
ENDBRANCH   7  61
TORSDOF 11
ENDMDL
MODEL 8
REMARK VINA RESULT:      -7.7      7.281     11.594
REMARK  11 active torsions:
REMARK  status: ('A' for Active; 'I' for Inactive)
REMARK    1  A    between atoms: C_1  and  C_2 
REMARK       I    between atoms: C_2  and  N_4 
REMARK    2  A    between atoms: N_4  and  C_5 
REMARK    3  A    between atoms: C_8  and  O_11 
REMARK    4  A    between atoms: O_11  and  C_12 
REMARK    5  A    between atoms: C_12  and  C_13 
REMARK    6  A    between atoms: C_15  and  C_21 
REMARK    7  A    between atoms: C_18  and  O_19 
REMARK    8  A    between atoms: O_19  and  C_20 
REMARK    9  A    between atoms: C_27  and  O_33 
REMARK   10  A    between atoms: O_33  and  C_34 
REMARK   11  A    between atoms: C_34  and  C_35 
ROOT
ATOM      1  C   LIG d   1       9.460  -8.232  -3.146  0.00  0.00     0.044 C 
ATOM      2  H   LIG d   1      10.430  -8.555  -3.524  0.00  0.00     0.097 H 
ATOM      3  C   LIG d   1       9.122  -6.874  -3.716  0.00  0.00     0.073 A 
ATOM      4  C   LIG d   1       9.248  -5.728  -3.009  0.00  0.00    -0.008 A 
ATOM      5  C   LIG d   1       8.832  -4.644  -3.871  0.00  0.00     0.007 A 
ATOM      6  C   LIG d   1       8.748  -3.261  -3.686  0.00  0.00    -0.011 A 
ATOM      7  C   LIG d   1       8.293  -2.513  -4.761  0.00  0.00     0.122 A 
ATOM      8  C   LIG d   1       7.936  -3.103  -5.967  0.00  0.00    -0.018 A 
ATOM      9  C   LIG d   1       8.013  -4.471  -6.168  0.00  0.00    -0.034 A 
ATOM     10  C   LIG d   1       8.467  -5.246  -5.104  0.00  0.00     0.047 A 
ATOM     11  N   LIG d   1       8.656  -6.594  -4.972  0.00  0.00    -0.353 N 
ATOM     12  H   LIG d   1       8.486  -7.253  -5.664  0.00  0.00     0.166 HD
ATOM     13  C   LIG d   1       9.743  -5.686  -1.585  0.00  0.00     0.015 C 
ATOM     14  C   LIG d   1      10.406  -7.037  -1.278  0.00  0.00    -0.029 C 
ATOM     15  N   LIG d   1       9.510  -8.130  -1.680  0.00  0.00     0.237 N 
ATOM     16  H   LIG d   1       9.024  -2.797  -2.750  0.00  0.00     0.066 H 
ATOM     17  H   LIG d   1       7.588  -2.476  -6.773  0.00  0.00     0.066 H 
ATOM     18  H   LIG d   1       7.731  -4.918  -7.111  0.00  0.00     0.064 H 
ATOM     19  H   LIG d   1      10.472  -4.883  -1.472  0.00  0.00     0.037 H 
ATOM     20  H   LIG d   1       8.906  -5.523  -0.907  0.00  0.00     0.037 H 
ATOM     21  H   LIG d   1      11.343  -7.115  -1.831  0.00  0.00     0.082 H 
ATOM     22  H   LIG d   1      10.609  -7.106  -0.210  0.00  0.00     0.082 H 
ATOM     23  H   LIG d   1       8.584  -7.947  -1.326  0.00  0.00     0.202 HD
ATOM     24  H   LIG d   1       9.847  -9.000  -1.296  0.00  0.00     0.202 HD
ENDROOT
BRANCH   1  25
ATOM     25  C   LIG d   1       8.404  -9.228  -3.549  0.00  0.00     0.007 A 
ATOM     26  C   LIG d   1       7.185  -8.786  -4.029  0.00  0.00    -0.043 A 
ATOM     27  C   LIG d   1       6.216  -9.698  -4.399  0.00  0.00     0.032 A 
ATOM     28  H   LIG d   1       6.991  -7.727  -4.114  0.00  0.00     0.063 H 
ATOM     29  C   LIG d   1       6.464 -11.058  -4.283  0.00  0.00     0.127 A 
ATOM     30  C   LIG d   1       7.689 -11.499  -3.806  0.00  0.00    -0.019 A 
ATOM     31  C   LIG d   1       8.656 -10.583  -3.437  0.00  0.00    -0.049 A 
ATOM     32  H   LIG d   1       7.888 -12.557  -3.719  0.00  0.00     0.065 H 
ATOM     33  H   LIG d   1       9.609 -10.926  -3.063  0.00  0.00     0.062 H 
BRANCH  27  34
ATOM     34  C   LIG d   1       4.887  -9.216  -4.922  0.00  0.00     0.118 C 
ATOM     35  H   LIG d   1       4.543  -8.374  -4.320  0.00  0.00     0.075 H 
ATOM     36  H   LIG d   1       4.159 -10.025  -4.864  0.00  0.00     0.075 H 
BRANCH  34  37
ATOM     37  O   LIG d   1       5.033  -8.802  -6.282  0.00  0.00    -0.487 OA
BRANCH  37  38
ATOM     38  C   LIG d   1       4.675  -7.524  -6.579  0.00  0.00     0.121 A 
ATOM     39  C   LIG d   1       4.794  -6.531  -5.619  0.00  0.00    -0.018 A 
ATOM     40  C   LIG d   1       4.431  -5.232  -5.921  0.00  0.00    -0.037 A 
ATOM     41  H   LIG d   1       5.170  -6.771  -4.636  0.00  0.00     0.066 H 
ATOM     42  C   LIG d   1       3.948  -4.923  -7.184  0.00  0.00     0.034 A 
ATOM     43  H   LIG d   1       4.524  -4.458  -5.173  0.00  0.00     0.064 H 
ATOM     44  C   LIG d   1       3.824  -5.919  -8.143  0.00  0.00    -0.037 A 
ATOM     45  C   LIG d   1       4.193  -7.215  -7.842  0.00  0.00    -0.018 A 
ATOM     46  H   LIG d   1       3.444  -5.679  -9.125  0.00  0.00     0.064 H 
ATOM     47  H   LIG d   1       4.101  -7.990  -8.590  0.00  0.00     0.066 H 
BRANCH  42  48
ATOM     48  N   LIG d   1       3.580  -3.606  -7.491  0.00  0.00    -0.286 N 
ATOM     49  C   LIG d   1       4.416  -2.820  -8.198  0.00  0.00     0.214 C 
ATOM     50  O   LIG d   1       5.521  -3.223  -8.496  0.00  0.00    -0.276 OA
ATOM     51  H   LIG d   1       2.723  -3.260  -7.196  0.00  0.00     0.155 HD
BRANCH  49  52
ATOM     52  C   LIG d   1       3.979  -1.440  -8.619  0.00  0.00     0.013 C 
ATOM     53  H   LIG d   1       4.852  -0.852  -8.900  0.00  0.00     0.032 H 
ATOM     54  H   LIG d   1       3.303  -1.517  -9.470  0.00  0.00     0.032 H 
ATOM     55  H   LIG d   1       3.465  -0.953  -7.789  0.00  0.00     0.032 H 
ENDBRANCH  49  52
ENDBRANCH  42  48
ENDBRANCH  37  38
ENDBRANCH  34  37
ENDBRANCH  27  34
BRANCH  29  56
ATOM     56  O   LIG d   1       5.510 -11.958  -4.640  0.00  0.00    -0.495 OA
BRANCH  56  57
ATOM     57  C   LIG d   1       5.608 -12.523  -5.948  0.00  0.00     0.079 C 
ATOM     58  H   LIG d   1       5.261 -13.556  -5.925  0.00  0.00     0.066 H 
ATOM     59  H   LIG d   1       4.991 -11.949  -6.639  0.00  0.00     0.066 H 
ATOM     60  H   LIG d   1       6.646 -12.496  -6.279  0.00  0.00     0.066 H 
ENDBRANCH  56  57
ENDBRANCH  29  56
ENDBRANCH   1  25
BRANCH   7  61
ATOM     61  O   LIG d   1       8.192  -1.162  -4.632  0.00  0.00    -0.487 OA
BRANCH  61  62
ATOM     62  C   LIG d   1       6.962  -0.561  -5.041  0.00  0.00     0.115 C 
ATOM     63  H   LIG d   1       7.157   0.443  -5.420  0.00  0.00     0.075 H 
ATOM     64  H   LIG d   1       6.507  -1.164  -5.826  0.00  0.00     0.075 H 
BRANCH  62  65
ATOM     65  C   LIG d   1       6.027  -0.480  -3.863  0.00  0.00    -0.010 A 
ATOM     66  C   LIG d   1       5.355  -1.609  -3.434  0.00  0.00    -0.055 A 
ATOM     67  C   LIG d   1       4.500  -1.536  -2.350  0.00  0.00    -0.061 A 
ATOM     68  H   LIG d   1       5.500  -2.550  -3.945  0.00  0.00     0.062 H 
ATOM     69  C   LIG d   1       4.310  -0.330  -1.701  0.00  0.00    -0.062 A 
ATOM     70  H   LIG d   1       3.978  -2.418  -2.013  0.00  0.00     0.062 H 
ATOM     71  C   LIG d   1       4.979   0.801  -2.131  0.00  0.00    -0.061 A 
ATOM     72  H   LIG d   1       3.640  -0.272  -0.855  0.00  0.00     0.062 H 
ATOM     73  C   LIG d   1       5.836   0.725  -3.213  0.00  0.00    -0.055 A 
ATOM     74  H   LIG d   1       4.831   1.741  -1.624  0.00  0.00     0.062 H 
ATOM     75  H   LIG d   1       6.359   1.609  -3.550  0.00  0.00     0.062 H 
ENDBRANCH  62  65
ENDBRANCH  61  62
ENDBRANCH   7  61
TORSDOF 11
ENDMDL
MODEL 9
REMARK VINA RESULT:      -7.7      7.719     12.611
REMARK  11 active torsions:
REMARK  status: ('A' for Active; 'I' for Inactive)
REMARK    1  A    between atoms: C_1  and  C_2 
REMARK       I    between atoms: C_2  and  N_4 
REMARK    2  A    between atoms: N_4  and  C_5 
REMARK    3  A    between atoms: C_8  and  O_11 
REMARK    4  A    between atoms: O_11  and  C_12 
REMARK    5  A    between atoms: C_12  and  C_13 
REMARK    6  A    between atoms: C_15  and  C_21 
REMARK    7  A    between atoms: C_18  and  O_19 
REMARK    8  A    between atoms: O_19  and  C_20 
REMARK    9  A    between atoms: C_27  and  O_33 
REMARK   10  A    between atoms: O_33  and  C_34 
REMARK   11  A    between atoms: C_34  and  C_35 
ROOT
ATOM      1  C   LIG d   1       4.976  -2.887  -3.926  0.00  0.00     0.044 C 
ATOM      2  H   LIG d   1       5.336  -3.623  -3.208  0.00  0.00     0.097 H 
ATOM      3  C   LIG d   1       5.977  -1.763  -4.043  0.00  0.00     0.073 A 
ATOM      4  C   LIG d   1       5.808  -0.562  -3.444  0.00  0.00    -0.008 A 
ATOM      5  C   LIG d   1       6.955   0.252  -3.781  0.00  0.00     0.007 A 
ATOM      6  C   LIG d   1       7.322   1.561  -3.455  0.00  0.00    -0.011 A 
ATOM      7  C   LIG d   1       8.523   2.021  -3.972  0.00  0.00     0.122 A 
ATOM      8  C   LIG d   1       9.329   1.224  -4.775  0.00  0.00    -0.018 A 
ATOM      9  C   LIG d   1       8.983  -0.074  -5.109  0.00  0.00    -0.034 A 
ATOM     10  C   LIG d   1       7.781  -0.561  -4.603  0.00  0.00     0.047 A 
ATOM     11  N   LIG d   1       7.156  -1.771  -4.738  0.00  0.00    -0.353 N 
ATOM     12  H   LIG d   1       7.498  -2.522  -5.249  0.00  0.00     0.166 HD
ATOM     13  C   LIG d   1       4.609  -0.224  -2.595  0.00  0.00     0.015 C 
ATOM     14  C   LIG d   1       3.897  -1.538  -2.244  0.00  0.00    -0.029 C 
ATOM     15  N   LIG d   1       3.694  -2.332  -3.464  0.00  0.00     0.237 N 
ATOM     16  H   LIG d   1       6.698   2.184  -2.831  0.00  0.00     0.066 H 
ATOM     17  H   LIG d   1      10.255   1.630  -5.152  0.00  0.00     0.066 H 
ATOM     18  H   LIG d   1       9.618  -0.682  -5.736  0.00  0.00     0.064 H 
ATOM     19  H   LIG d   1       4.933   0.275  -1.682  0.00  0.00     0.037 H 
ATOM     20  H   LIG d   1       3.933   0.425  -3.150  0.00  0.00     0.037 H 
ATOM     21  H   LIG d   1       4.508  -2.106  -1.540  0.00  0.00     0.082 H 
ATOM     22  H   LIG d   1       2.931  -1.318  -1.789  0.00  0.00     0.082 H 
ATOM     23  H   LIG d   1       3.307  -1.742  -4.184  0.00  0.00     0.202 HD
ATOM     24  H   LIG d   1       3.053  -3.087  -3.272  0.00  0.00     0.202 HD
ENDROOT
BRANCH   1  25
ATOM     25  C   LIG d   1       4.789  -3.541  -5.270  0.00  0.00     0.007 A 
ATOM     26  C   LIG d   1       4.968  -4.905  -5.406  0.00  0.00    -0.043 A 
ATOM     27  C   LIG d   1       4.796  -5.506  -6.637  0.00  0.00     0.032 A 
ATOM     28  H   LIG d   1       5.243  -5.500  -4.548  0.00  0.00     0.063 H 
ATOM     29  C   LIG d   1       4.449  -4.739  -7.740  0.00  0.00     0.127 A 
ATOM     30  C   LIG d   1       4.265  -3.372  -7.601  0.00  0.00    -0.019 A 
ATOM     31  C   LIG d   1       4.438  -2.775  -6.367  0.00  0.00    -0.049 A 
ATOM     32  H   LIG d   1       3.990  -2.773  -8.457  0.00  0.00     0.065 H 
ATOM     33  H   LIG d   1       4.297  -1.709  -6.259  0.00  0.00     0.062 H 
BRANCH  27  34
ATOM     34  C   LIG d   1       4.991  -6.994  -6.784  0.00  0.00     0.118 C 
ATOM     35  H   LIG d   1       6.054  -7.228  -6.724  0.00  0.00     0.075 H 
ATOM     36  H   LIG d   1       4.602  -7.317  -7.750  0.00  0.00     0.075 H 
BRANCH  34  37
ATOM     37  O   LIG d   1       4.293  -7.671  -5.737  0.00  0.00    -0.487 OA
BRANCH  37  38
ATOM     38  C   LIG d   1       5.016  -8.530  -4.970  0.00  0.00     0.121 A 
ATOM     39  C   LIG d   1       6.401  -8.461  -4.970  0.00  0.00    -0.018 A 
ATOM     40  C   LIG d   1       7.136  -9.333  -4.190  0.00  0.00    -0.037 A 
ATOM     41  H   LIG d   1       6.906  -7.727  -5.580  0.00  0.00     0.066 H 
ATOM     42  C   LIG d   1       6.488 -10.277  -3.406  0.00  0.00     0.034 A 
ATOM     43  H   LIG d   1       8.215  -9.280  -4.190  0.00  0.00     0.064 H 
ATOM     44  C   LIG d   1       5.101 -10.349  -3.410  0.00  0.00    -0.037 A 
ATOM     45  C   LIG d   1       4.368  -9.472  -4.186  0.00  0.00    -0.018 A 
ATOM     46  H   LIG d   1       4.597 -11.085  -2.803  0.00  0.00     0.064 H 
ATOM     47  H   LIG d   1       3.288  -9.525  -4.185  0.00  0.00     0.066 H 
BRANCH  42  48
ATOM     48  N   LIG d   1       7.232 -11.161  -2.614  0.00  0.00    -0.286 N 
ATOM     49  C   LIG d   1       7.441 -10.886  -1.311  0.00  0.00     0.214 C 
ATOM     50  O   LIG d   1       7.058  -9.835  -0.844  0.00  0.00    -0.276 OA
ATOM     51  H   LIG d   1       7.596 -11.972  -3.003  0.00  0.00     0.155 HD
BRANCH  49  52
ATOM     52  C   LIG d   1       8.151 -11.886  -0.434  0.00  0.00     0.013 C 
ATOM     53  H   LIG d   1       8.022 -11.608   0.612  0.00  0.00     0.032 H 
ATOM     54  H   LIG d   1       7.732 -12.878  -0.601  0.00  0.00     0.032 H 
ATOM     55  H   LIG d   1       9.213 -11.895  -0.679  0.00  0.00     0.032 H 
ENDBRANCH  49  52
ENDBRANCH  42  48
ENDBRANCH  37  38
ENDBRANCH  34  37
ENDBRANCH  27  34
BRANCH  29  56
ATOM     56  O   LIG d   1       4.286  -5.328  -8.955  0.00  0.00    -0.495 OA
BRANCH  56  57
ATOM     57  C   LIG d   1       3.108  -4.988  -9.687  0.00  0.00     0.079 C 
ATOM     58  H   LIG d   1       2.312  -4.721  -8.991  0.00  0.00     0.066 H 
ATOM     59  H   LIG d   1       3.317  -4.142 -10.340  0.00  0.00     0.066 H 
ATOM     60  H   LIG d   1       2.793  -5.841 -10.287  0.00  0.00     0.066 H 
ENDBRANCH  56  57
ENDBRANCH  29  56
ENDBRANCH   1  25
BRANCH   7  61
ATOM     61  O   LIG d   1       8.925   3.289  -3.684  0.00  0.00    -0.487 OA
BRANCH  61  62
ATOM     62  C   LIG d   1      10.224   3.443  -3.108  0.00  0.00     0.115 C 
ATOM     63  H   LIG d   1      10.432   2.597  -2.451  0.00  0.00     0.075 H 
ATOM     64  H   LIG d   1      10.970   3.480  -3.901  0.00  0.00     0.075 H 
BRANCH  62  65
ATOM     65  C   LIG d   1      10.271   4.720  -2.312  0.00  0.00    -0.010 A 
ATOM     66  C   LIG d   1       9.544   5.821  -2.726  0.00  0.00    -0.055 A 
ATOM     67  C   LIG d   1       9.584   6.992  -1.992  0.00  0.00    -0.061 A 
ATOM     68  H   LIG d   1       8.942   5.765  -3.620  0.00  0.00     0.062 H 
ATOM     69  C   LIG d   1      10.359   7.066  -0.850  0.00  0.00    -0.062 A 
ATOM     70  H   LIG d   1       9.013   7.851  -2.313  0.00  0.00     0.062 H 
ATOM     71  C   LIG d   1      11.090   5.967  -0.437  0.00  0.00    -0.061 A 
ATOM     72  H   LIG d   1      10.392   7.982  -0.278  0.00  0.00     0.062 H 
ATOM     73  C   LIG d   1      11.046   4.795  -1.169  0.00  0.00    -0.055 A 
ATOM     74  H   LIG d   1      11.694   6.024   0.454  0.00  0.00     0.062 H 
ATOM     75  H   LIG d   1      11.617   3.936  -0.848  0.00  0.00     0.062 H 
ENDBRANCH  62  65
ENDBRANCH  61  62
ENDBRANCH   7  61
TORSDOF 11
ENDMDL
MODEL 10
REMARK VINA RESULT:      -7.7     10.376     13.834
REMARK  11 active torsions:
REMARK  status: ('A' for Active; 'I' for Inactive)
REMARK    1  A    between atoms: C_1  and  C_2 
REMARK       I    between atoms: C_2  and  N_4 
REMARK    2  A    between atoms: N_4  and  C_5 
REMARK    3  A    between atoms: C_8  and  O_11 
REMARK    4  A    between atoms: O_11  and  C_12 
REMARK    5  A    between atoms: C_12  and  C_13 
REMARK    6  A    between atoms: C_15  and  C_21 
REMARK    7  A    between atoms: C_18  and  O_19 
REMARK    8  A    between atoms: O_19  and  C_20 
REMARK    9  A    between atoms: C_27  and  O_33 
REMARK   10  A    between atoms: O_33  and  C_34 
REMARK   11  A    between atoms: C_34  and  C_35 
ROOT
ATOM      1  C   LIG d   1      10.924   4.446  -9.003  0.00  0.00     0.044 C 
ATOM      2  H   LIG d   1      11.810   3.890  -9.310  0.00  0.00     0.097 H 
ATOM      3  C   LIG d   1      10.423   3.912  -7.682  0.00  0.00     0.073 A 
ATOM      4  C   LIG d   1       9.358   3.084  -7.581  0.00  0.00    -0.008 A 
ATOM      5  C   LIG d   1       9.176   2.790  -6.176  0.00  0.00     0.007 A 
ATOM      6  C   LIG d   1       8.250   2.007  -5.481  0.00  0.00    -0.011 A 
ATOM      7  C   LIG d   1       8.383   1.957  -4.102  0.00  0.00     0.122 A 
ATOM      8  C   LIG d   1       9.387   2.650  -3.437  0.00  0.00    -0.018 A 
ATOM      9  C   LIG d   1      10.312   3.430  -4.108  0.00  0.00    -0.034 A 
ATOM     10  C   LIG d   1      10.201   3.498  -5.494  0.00  0.00     0.047 A 
ATOM     11  N   LIG d   1      10.934   4.163  -6.438  0.00  0.00    -0.353 N 
ATOM     12  H   LIG d   1      11.702   4.728  -6.253  0.00  0.00     0.166 HD
ATOM     13  C   LIG d   1       8.566   2.606  -8.771  0.00  0.00     0.015 C 
ATOM     14  C   LIG d   1       9.396   2.890 -10.032  0.00  0.00    -0.029 C 
ATOM     15  N   LIG d   1       9.865   4.282 -10.011  0.00  0.00     0.237 N 
ATOM     16  H   LIG d   1       7.468   1.466  -5.995  0.00  0.00     0.066 H 
ATOM     17  H   LIG d   1       9.447   2.578  -2.362  0.00  0.00     0.066 H 
ATOM     18  H   LIG d   1      11.087   3.966  -3.578  0.00  0.00     0.064 H 
ATOM     19  H   LIG d   1       8.381   1.535  -8.685  0.00  0.00     0.037 H 
ATOM     20  H   LIG d   1       7.619   3.141  -8.825  0.00  0.00     0.037 H 
ATOM     21  H   LIG d   1      10.256   2.219 -10.059  0.00  0.00     0.082 H 
ATOM     22  H   LIG d   1       8.781   2.727 -10.916  0.00  0.00     0.082 H 
ATOM     23  H   LIG d   1       9.093   4.890  -9.786  0.00  0.00     0.202 HD
ATOM     24  H   LIG d   1      10.228   4.529 -10.920  0.00  0.00     0.202 HD
ENDROOT
BRANCH   1  25
ATOM     25  C   LIG d   1      11.267   5.906  -8.862  0.00  0.00     0.007 A 
ATOM     26  C   LIG d   1      10.312   6.801  -8.416  0.00  0.00    -0.043 A 
ATOM     27  C   LIG d   1      10.625   8.139  -8.286  0.00  0.00     0.032 A 
ATOM     28  H   LIG d   1       9.320   6.451  -8.171  0.00  0.00     0.063 H 
ATOM     29  C   LIG d   1      11.898   8.588  -8.607  0.00  0.00     0.127 A 
ATOM     30  C   LIG d   1      12.856   7.688  -9.049  0.00  0.00    -0.019 A 
ATOM     31  C   LIG d   1      12.539   6.350  -9.178  0.00  0.00    -0.049 A 
ATOM     32  H   LIG d   1      13.850   8.033  -9.296  0.00  0.00     0.065 H 
ATOM     33  H   LIG d   1      13.284   5.650  -9.525  0.00  0.00     0.062 H 
BRANCH  27  34
ATOM     34  C   LIG d   1       9.583   9.114  -7.800  0.00  0.00     0.118 C 
ATOM     35  H   LIG d   1       8.941   9.404  -8.632  0.00  0.00     0.075 H 
ATOM     36  H   LIG d   1      10.074   9.998  -7.394  0.00  0.00     0.075 H 
BRANCH  34  37
ATOM     37  O   LIG d   1       8.793   8.497  -6.781  0.00  0.00    -0.487 OA
BRANCH  37  38
ATOM     38  C   LIG d   1       9.372   8.344  -5.559  0.00  0.00     0.121 A 
ATOM     39  C   LIG d   1       9.949   9.435  -4.926  0.00  0.00    -0.018 A 
ATOM     40  C   LIG d   1      10.537   9.281  -3.685  0.00  0.00    -0.037 A 
ATOM     41  H   LIG d   1       9.939  10.404  -5.401  0.00  0.00     0.066 H 
ATOM     42  C   LIG d   1      10.550   8.035  -3.074  0.00  0.00     0.034 A 
ATOM     43  H   LIG d   1      10.986  10.130  -3.191  0.00  0.00     0.064 H 
ATOM     44  C   LIG d   1       9.977   6.943  -3.711  0.00  0.00    -0.037 A 
ATOM     45  C   LIG d   1       9.384   7.100  -4.949  0.00  0.00    -0.018 A 
ATOM     46  H   LIG d   1       9.990   5.973  -3.237  0.00  0.00     0.064 H 
ATOM     47  H   LIG d   1       8.934   6.251  -5.443  0.00  0.00     0.066 H 
BRANCH  42  48
ATOM     48  N   LIG d   1      11.145   7.878  -1.815  0.00  0.00    -0.286 N 
ATOM     49  C   LIG d   1      10.375   7.715  -0.721  0.00  0.00     0.214 C 
ATOM     50  O   LIG d   1       9.168   7.790  -0.812  0.00  0.00    -0.276 OA
ATOM     51  H   LIG d   1      12.111   7.885  -1.731  0.00  0.00     0.155 HD
BRANCH  49  52
ATOM     52  C   LIG d   1      11.013   7.442   0.617  0.00  0.00     0.013 C 
ATOM     53  H   LIG d   1      10.739   6.442   0.953  0.00  0.00     0.032 H 
ATOM     54  H   LIG d   1      12.097   7.509   0.523  0.00  0.00     0.032 H 
ATOM     55  H   LIG d   1      10.666   8.178   1.343  0.00  0.00     0.032 H 
ENDBRANCH  49  52
ENDBRANCH  42  48
ENDBRANCH  37  38
ENDBRANCH  34  37
ENDBRANCH  27  34
BRANCH  29  56
ATOM     56  O   LIG d   1      12.207   9.906  -8.486  0.00  0.00    -0.495 OA
BRANCH  56  57
ATOM     57  C   LIG d   1      13.097  10.269  -7.430  0.00  0.00     0.079 C 
ATOM     58  H   LIG d   1      13.815   9.464  -7.267  0.00  0.00     0.066 H 
ATOM     59  H   LIG d   1      13.630  11.180  -7.702  0.00  0.00     0.066 H 
ATOM     60  H   LIG d   1      12.529  10.439  -6.517  0.00  0.00     0.066 H 
ENDBRANCH  56  57
ENDBRANCH  29  56
ENDBRANCH   1  25
BRANCH   7  61
ATOM     61  O   LIG d   1       7.506   1.209  -3.379  0.00  0.00    -0.487 OA
BRANCH  61  62
ATOM     62  C   LIG d   1       7.291  -0.136  -3.813  0.00  0.00     0.115 C 
ATOM     63  H   LIG d   1       7.281  -0.169  -4.903  0.00  0.00     0.075 H 
ATOM     64  H   LIG d   1       8.093  -0.771  -3.437  0.00  0.00     0.075 H 
BRANCH  62  65
ATOM     65  C   LIG d   1       5.969  -0.628  -3.283  0.00  0.00    -0.010 A 
ATOM     66  C   LIG d   1       5.514  -1.889  -3.623  0.00  0.00    -0.055 A 
ATOM     67  C   LIG d   1       4.303  -2.342  -3.134  0.00  0.00    -0.061 A 
ATOM     68  H   LIG d   1       6.106  -2.521  -4.268  0.00  0.00     0.062 H 
ATOM     69  C   LIG d   1       3.543  -1.531  -2.312  0.00  0.00    -0.062 A 
ATOM     70  H   LIG d   1       3.950  -3.328  -3.395  0.00  0.00     0.062 H 
ATOM     71  C   LIG d   1       3.995  -0.268  -1.976  0.00  0.00    -0.061 A 
ATOM     72  H   LIG d   1       2.596  -1.884  -1.932  0.00  0.00     0.062 H 
ATOM     73  C   LIG d   1       5.208   0.183  -2.462  0.00  0.00    -0.055 A 
ATOM     74  H   LIG d   1       3.402   0.365  -1.335  0.00  0.00     0.062 H 
ATOM     75  H   LIG d   1       5.562   1.169  -2.200  0.00  0.00     0.062 H 
ENDBRANCH  62  65
ENDBRANCH  61  62
ENDBRANCH   7  61
TORSDOF 11
ENDMDL
