MODEL 1
REMARK VINA RESULT:      -6.8      0.000      0.000
REMARK  6 active torsions:
REMARK  status: ('A' for Active; 'I' for Inactive)
REMARK    1  A    between atoms: C_1  and  O_2 
REMARK    2  A    between atoms: O_2  and  C_3 
REMARK    3  A    between atoms: C_3  and  C_5 
REMARK    4  A    between atoms: C_21  and  C_34 
REMARK    5  A    between atoms: C_24  and  N_27 
REMARK    6  A    between atoms: C_30  and  O_33 
ROOT
ATOM      1  C   LIG d   1       5.371   0.016  -8.153  0.00  0.00     0.113 C 
ATOM      2  H   LIG d   1       4.307   0.174  -8.328  0.00  0.00     0.058 H 
ATOM      3  C   LIG d   1       5.700   0.329  -6.686  0.00  0.00     0.001 C 
ATOM      4  C   LIG d   1       5.121  -0.768  -5.830  0.00  0.00    -0.016 A 
ATOM      5  C   LIG d   1       4.889  -0.789  -4.403  0.00  0.00     0.003 A 
ATOM      6  C   LIG d   1       5.108   0.149  -3.390  0.00  0.00    -0.052 A 
ATOM      7  C   LIG d   1       4.760  -0.220  -2.114  0.00  0.00    -0.061 A 
ATOM      8  C   LIG d   1       4.213  -1.461  -1.831  0.00  0.00    -0.060 A 
ATOM      9  C   LIG d   1       3.984  -2.408  -2.813  0.00  0.00    -0.038 A 
ATOM     10  C   LIG d   1       4.328  -2.062  -4.118  0.00  0.00     0.047 A 
ATOM     11  N   LIG d   1       4.237  -2.741  -5.300  0.00  0.00    -0.356 N 
ATOM     12  H   LIG d   1       3.889  -3.640  -5.401  0.00  0.00     0.166 HD
ATOM     13  C   LIG d   1       4.711  -1.961  -6.320  0.00  0.00     0.038 A 
ATOM     14  C   LIG d   1       4.791  -2.316  -7.784  0.00  0.00     0.057 C 
ATOM     15  H   LIG d   1       3.801  -2.232  -8.234  0.00  0.00     0.053 H 
ATOM     16  N   LIG d   1       5.713  -1.380  -8.445  0.00  0.00    -0.274 N 
ATOM     17  C   LIG d   1       5.774  -1.636  -9.888  0.00  0.00     0.042 C 
ATOM     18  H   LIG d   1       6.431  -0.905 -10.359  0.00  0.00     0.051 H 
ATOM     19  C   LIG d   1       6.320  -3.045 -10.129  0.00  0.00     0.010 C 
ATOM     20  C   LIG d   1       5.414  -4.069  -9.442  0.00  0.00    -0.017 C 
ATOM     21  H   LIG d   1       5.831  -5.068  -9.569  0.00  0.00     0.085 H 
ATOM     22  C   LIG d   1       5.309  -3.745  -7.948  0.00  0.00     0.012 C 
ATOM     23  H   LIG d   1       6.782   0.368  -6.553  0.00  0.00     0.033 H 
ATOM     24  H   LIG d   1       5.259   1.285  -6.406  0.00  0.00     0.033 H 
ATOM     25  H   LIG d   1       5.535   1.119  -3.601  0.00  0.00     0.062 H 
ATOM     26  H   LIG d   1       4.915   0.480  -1.307  0.00  0.00     0.062 H 
ATOM     27  H   LIG d   1       3.958  -1.697  -0.809  0.00  0.00     0.062 H 
ATOM     28  H   LIG d   1       3.558  -3.373  -2.580  0.00  0.00     0.064 H 
ATOM     29  H   LIG d   1       6.349  -3.246 -11.200  0.00  0.00     0.034 H 
ATOM     30  H   LIG d   1       7.328  -3.119  -9.719  0.00  0.00     0.034 H 
ATOM     31  H   LIG d   1       6.296  -3.830  -7.492  0.00  0.00     0.034 H 
ATOM     32  H   LIG d   1       4.622  -4.440  -7.466  0.00  0.00     0.034 H 
ENDROOT
BRANCH  20  33
ATOM     33  N   LIG d   1       4.074  -4.018 -10.043  0.00  0.00     0.239 N 
ATOM     34  C   LIG d   1       4.048  -4.836 -11.270  0.00  0.00    -0.005 C 
ATOM     35  C   LIG d   1       2.970  -5.922 -11.071  0.00  0.00     0.100 C 
ATOM     36  H   LIG d   1       3.793  -4.212 -12.126  0.00  0.00     0.084 H 
ATOM     37  H   LIG d   1       5.021  -5.303 -11.424  0.00  0.00     0.084 H 
ATOM     38  C   LIG d   1       2.054  -5.311  -9.978  0.00  0.00     0.018 C 
ATOM     39  H   LIG d   1       3.419  -6.852 -10.722  0.00  0.00     0.065 H 
ATOM     40  C   LIG d   1       3.081  -4.563  -9.092  0.00  0.00    -0.029 C 
ATOM     41  H   LIG d   1       1.546  -6.092  -9.413  0.00  0.00     0.034 H 
ATOM     42  H   LIG d   1       1.336  -4.617 -10.414  0.00  0.00     0.034 H 
ATOM     43  H   LIG d   1       3.560  -5.255  -8.399  0.00  0.00     0.082 H 
ATOM     44  H   LIG d   1       2.595  -3.754  -8.547  0.00  0.00     0.082 H 
ATOM     45  H   LIG d   1       3.837  -3.063 -10.267  0.00  0.00     0.204 HD
BRANCH  35  46
ATOM     46  O   LIG d   1       2.238  -6.139 -12.279  0.00  0.00    -0.386 OA
ATOM     47  H   LIG d   1       2.677  -6.731 -12.904  0.00  0.00     0.210 HD
ENDBRANCH  35  46
ENDBRANCH  20  33
BRANCH  17  48
ATOM     48  C   LIG d   1       4.392  -1.523 -10.479  0.00  0.00    -0.027 A 
ATOM     49  C   LIG d   1       3.312  -1.250  -9.660  0.00  0.00    -0.020 A 
ATOM     50  C   LIG d   1       2.042  -1.142 -10.203  0.00  0.00     0.142 A 
ATOM     51  H   LIG d   1       3.459  -1.117  -8.599  0.00  0.00     0.065 H 
ATOM     52  C   LIG d   1       1.855  -1.319 -11.563  0.00  0.00     0.076 A 
ATOM     53  F   LIG d   1       0.988  -0.869  -9.404  0.00  0.00    -0.204 F 
ATOM     54  C   LIG d   1       2.937  -1.597 -12.379  0.00  0.00    -0.040 A 
ATOM     55 CL   LIG d   1       0.264  -1.189 -12.245  0.00  0.00    -0.081 Cl
ATOM     56  C   LIG d   1       4.204  -1.700 -11.837  0.00  0.00    -0.056 A 
ATOM     57  H   LIG d   1       2.792  -1.736 -13.440  0.00  0.00     0.063 H 
ATOM     58  H   LIG d   1       5.048  -1.918 -12.474  0.00  0.00     0.062 H 
ENDBRANCH  17  48
BRANCH   1  59
ATOM     59  C   LIG d   1       6.167   0.927  -9.052  0.00  0.00     0.325 C 
ATOM     60  O   LIG d   1       7.375   0.921  -9.002  0.00  0.00    -0.249 OA
BRANCH  59  61
ATOM     61  O   LIG d   1       5.536   1.746  -9.907  0.00  0.00    -0.467 OA
BRANCH  61  62
ATOM     62  C   LIG d   1       4.320   2.346  -9.454  0.00  0.00     0.082 C 
ATOM     63  H   LIG d   1       4.432   2.650  -8.414  0.00  0.00     0.066 H 
ATOM     64  H   LIG d   1       4.095   3.218 -10.066  0.00  0.00     0.066 H 
ATOM     65  H   LIG d   1       3.507   1.625  -9.535  0.00  0.00     0.066 H 
ENDBRANCH  61  62
ENDBRANCH  59  61
ENDBRANCH   1  59
TORSDOF 6
ENDMDL
MODEL 2
REMARK VINA RESULT:      -6.6      3.880      7.206
REMARK  6 active torsions:
REMARK  status: ('A' for Active; 'I' for Inactive)
REMARK    1  A    between atoms: C_1  and  O_2 
REMARK    2  A    between atoms: O_2  and  C_3 
REMARK    3  A    between atoms: C_3  and  C_5 
REMARK    4  A    between atoms: C_21  and  C_34 
REMARK    5  A    between atoms: C_24  and  N_27 
REMARK    6  A    between atoms: C_30  and  O_33 
ROOT
ATOM      1  C   LIG d   1       3.531  -0.008  -6.004  0.00  0.00     0.113 C 
ATOM      2  H   LIG d   1       4.239   0.747  -6.345  0.00  0.00     0.058 H 
ATOM      3  C   LIG d   1       2.453  -0.221  -7.077  0.00  0.00     0.001 C 
ATOM      4  C   LIG d   1       3.082  -0.947  -8.239  0.00  0.00    -0.016 A 
ATOM      5  C   LIG d   1       2.595  -1.108  -9.590  0.00  0.00     0.003 A 
ATOM      6  C   LIG d   1       1.439  -0.667 -10.243  0.00  0.00    -0.052 A 
ATOM      7  C   LIG d   1       1.300  -1.014 -11.564  0.00  0.00    -0.061 A 
ATOM      8  C   LIG d   1       2.254  -1.765 -12.231  0.00  0.00    -0.060 A 
ATOM      9  C   LIG d   1       3.407  -2.214 -11.611  0.00  0.00    -0.038 A 
ATOM     10  C   LIG d   1       3.575  -1.876 -10.270  0.00  0.00     0.047 A 
ATOM     11  N   LIG d   1       4.572  -2.148  -9.376  0.00  0.00    -0.356 N 
ATOM     12  H   LIG d   1       5.372  -2.660  -9.571  0.00  0.00     0.166 HD
ATOM     13  C   LIG d   1       4.272  -1.587  -8.164  0.00  0.00     0.038 A 
ATOM     14  C   LIG d   1       5.096  -1.638  -6.901  0.00  0.00     0.057 C 
ATOM     15  H   LIG d   1       5.924  -0.932  -6.978  0.00  0.00     0.053 H 
ATOM     16  N   LIG d   1       4.239  -1.270  -5.765  0.00  0.00    -0.274 N 
ATOM     17  C   LIG d   1       5.009  -1.235  -4.516  0.00  0.00     0.042 C 
ATOM     18  H   LIG d   1       4.361  -0.921  -3.699  0.00  0.00     0.051 H 
ATOM     19  C   LIG d   1       5.563  -2.631  -4.225  0.00  0.00     0.010 C 
ATOM     20  C   LIG d   1       6.449  -3.084  -5.387  0.00  0.00    -0.017 C 
ATOM     21  H   LIG d   1       6.802  -4.098  -5.204  0.00  0.00     0.085 H 
ATOM     22  C   LIG d   1       5.645  -3.049  -6.691  0.00  0.00     0.012 C 
ATOM     23  H   LIG d   1       1.639  -0.818  -6.667  0.00  0.00     0.033 H 
ATOM     24  H   LIG d   1       2.071   0.744  -7.410  0.00  0.00     0.033 H 
ATOM     25  H   LIG d   1       0.690  -0.082  -9.730  0.00  0.00     0.062 H 
ATOM     26  H   LIG d   1       0.420  -0.691 -12.100  0.00  0.00     0.062 H 
ATOM     27  H   LIG d   1       2.092  -2.010 -13.270  0.00  0.00     0.062 H 
ATOM     28  H   LIG d   1       4.143  -2.800 -12.142  0.00  0.00     0.064 H 
ATOM     29  H   LIG d   1       6.152  -2.604  -3.307  0.00  0.00     0.034 H 
ATOM     30  H   LIG d   1       4.736  -3.333  -4.104  0.00  0.00     0.034 H 
ATOM     31  H   LIG d   1       4.818  -3.757  -6.622  0.00  0.00     0.034 H 
ATOM     32  H   LIG d   1       6.288  -3.320  -7.529  0.00  0.00     0.034 H 
ENDROOT
BRANCH  20  33
ATOM     33  N   LIG d   1       7.601  -2.180  -5.506  0.00  0.00     0.239 N 
ATOM     34  C   LIG d   1       8.572  -2.469  -4.435  0.00  0.00    -0.005 C 
ATOM     35  C   LIG d   1       9.904  -2.850  -5.117  0.00  0.00     0.100 C 
ATOM     36  H   LIG d   1       8.714  -1.585  -3.814  0.00  0.00     0.084 H 
ATOM     37  H   LIG d   1       8.216  -3.300  -3.827  0.00  0.00     0.084 H 
ATOM     38  C   LIG d   1       9.775  -2.204  -6.522  0.00  0.00     0.018 C 
ATOM     39  H   LIG d   1       9.999  -3.933  -5.197  0.00  0.00     0.065 H 
ATOM     40  C   LIG d   1       8.264  -2.386  -6.812  0.00  0.00    -0.029 C 
ATOM     41  H   LIG d   1      10.380  -2.738  -7.254  0.00  0.00     0.034 H 
ATOM     42  H   LIG d   1      10.042  -1.148  -6.492  0.00  0.00     0.034 H 
ATOM     43  H   LIG d   1       8.066  -3.392  -7.182  0.00  0.00     0.082 H 
ATOM     44  H   LIG d   1       7.924  -1.642  -7.531  0.00  0.00     0.082 H 
ATOM     45  H   LIG d   1       7.291  -1.221  -5.433  0.00  0.00     0.204 HD
BRANCH  35  46
ATOM     46  O   LIG d   1      11.015  -2.297  -4.407  0.00  0.00    -0.386 OA
ATOM     47  H   LIG d   1      10.964  -1.340  -4.282  0.00  0.00     0.210 HD
ENDBRANCH  35  46
ENDBRANCH  20  33
BRANCH  17  48
ATOM     48  C   LIG d   1       6.150  -0.259  -4.657  0.00  0.00    -0.027 A 
ATOM     49  C   LIG d   1       6.465   0.260  -5.898  0.00  0.00    -0.020 A 
ATOM     50  C   LIG d   1       7.510   1.160  -6.027  0.00  0.00     0.142 A 
ATOM     51  H   LIG d   1       5.895  -0.033  -6.767  0.00  0.00     0.065 H 
ATOM     52  C   LIG d   1       8.244   1.530  -4.912  0.00  0.00     0.076 A 
ATOM     53  F   LIG d   1       7.814   1.673  -7.239  0.00  0.00    -0.204 F 
ATOM     54  C   LIG d   1       7.930   1.004  -3.673  0.00  0.00    -0.040 A 
ATOM     55 CL   LIG d   1       9.558   2.654  -5.072  0.00  0.00    -0.081 Cl
ATOM     56  C   LIG d   1       6.883   0.110  -3.545  0.00  0.00    -0.056 A 
ATOM     57  H   LIG d   1       8.502   1.292  -2.803  0.00  0.00     0.063 H 
ATOM     58  H   LIG d   1       6.639  -0.300  -2.577  0.00  0.00     0.062 H 
ENDBRANCH  17  48
BRANCH   1  59
ATOM     59  C   LIG d   1       2.882   0.454  -4.725  0.00  0.00     0.325 C 
ATOM     60  O   LIG d   1       2.047  -0.233  -4.188  0.00  0.00    -0.249 OA
BRANCH  59  61
ATOM     61  O   LIG d   1       3.232   1.631  -4.183  0.00  0.00    -0.467 OA
BRANCH  61  62
ATOM     62  C   LIG d   1       3.609   1.624  -2.804  0.00  0.00     0.082 C 
ATOM     63  H   LIG d   1       2.715   1.654  -2.183  0.00  0.00     0.066 H 
ATOM     64  H   LIG d   1       4.173   0.717  -2.586  0.00  0.00     0.066 H 
ATOM     65  H   LIG d   1       4.228   2.496  -2.592  0.00  0.00     0.066 H 
ENDBRANCH  61  62
ENDBRANCH  59  61
ENDBRANCH   1  59
TORSDOF 6
ENDMDL
MODEL 3
REMARK VINA RESULT:      -6.6      3.892      5.048
REMARK  6 active torsions:
REMARK  status: ('A' for Active; 'I' for Inactive)
REMARK    1  A    between atoms: C_1  and  O_2 
REMARK    2  A    between atoms: O_2  and  C_3 
REMARK    3  A    between atoms: C_3  and  C_5 
REMARK    4  A    between atoms: C_21  and  C_34 
REMARK    5  A    between atoms: C_24  and  N_27 
REMARK    6  A    between atoms: C_30  and  O_33 
ROOT
ATOM      1  C   LIG d   1       7.801  -3.365  -4.978  0.00  0.00     0.113 C 
ATOM      2  H   LIG d   1       7.733  -2.853  -5.937  0.00  0.00     0.058 H 
ATOM      3  C   LIG d   1       7.434  -2.390  -3.849  0.00  0.00     0.001 C 
ATOM      4  C   LIG d   1       5.950  -2.134  -3.913  0.00  0.00    -0.016 A 
ATOM      5  C   LIG d   1       5.175  -1.084  -3.291  0.00  0.00     0.003 A 
ATOM      6  C   LIG d   1       5.520  -0.008  -2.468  0.00  0.00    -0.052 A 
ATOM      7  C   LIG d   1       4.498   0.810  -2.052  0.00  0.00    -0.061 A 
ATOM      8  C   LIG d   1       3.182   0.590  -2.425  0.00  0.00    -0.060 A 
ATOM      9  C   LIG d   1       2.813  -0.465  -3.240  0.00  0.00    -0.038 A 
ATOM     10  C   LIG d   1       3.828  -1.312  -3.677  0.00  0.00     0.047 A 
ATOM     11  N   LIG d   1       3.815  -2.423  -4.473  0.00  0.00    -0.356 N 
ATOM     12  H   LIG d   1       3.024  -2.808  -4.879  0.00  0.00     0.166 HD
ATOM     13  C   LIG d   1       5.088  -2.908  -4.612  0.00  0.00     0.038 A 
ATOM     14  C   LIG d   1       5.528  -4.112  -5.406  0.00  0.00     0.057 C 
ATOM     15  H   LIG d   1       5.552  -3.861  -6.467  0.00  0.00     0.053 H 
ATOM     16  N   LIG d   1       6.874  -4.502  -4.962  0.00  0.00    -0.274 N 
ATOM     17  C   LIG d   1       7.382  -5.629  -5.753  0.00  0.00     0.042 C 
ATOM     18  H   LIG d   1       8.395  -5.871  -5.432  0.00  0.00     0.051 H 
ATOM     19  C   LIG d   1       6.474  -6.843  -5.542  0.00  0.00     0.010 C 
ATOM     20  C   LIG d   1       5.045  -6.493  -5.965  0.00  0.00    -0.017 C 
ATOM     21  H   LIG d   1       4.389  -7.339  -5.767  0.00  0.00     0.085 H 
ATOM     22  C   LIG d   1       4.559  -5.273  -5.176  0.00  0.00     0.012 C 
ATOM     23  H   LIG d   1       7.692  -2.829  -2.885  0.00  0.00     0.033 H 
ATOM     24  H   LIG d   1       7.975  -1.453  -3.983  0.00  0.00     0.033 H 
ATOM     25  H   LIG d   1       6.543   0.171  -2.170  0.00  0.00     0.062 H 
ATOM     26  H   LIG d   1       4.728   1.651  -1.415  0.00  0.00     0.062 H 
ATOM     27  H   LIG d   1       2.419   1.266  -2.068  0.00  0.00     0.062 H 
ATOM     28  H   LIG d   1       1.782  -0.626  -3.524  0.00  0.00     0.064 H 
ATOM     29  H   LIG d   1       6.837  -7.677  -6.144  0.00  0.00     0.034 H 
ATOM     30  H   LIG d   1       6.482  -7.125  -4.489  0.00  0.00     0.034 H 
ATOM     31  H   LIG d   1       4.530  -5.519  -4.114  0.00  0.00     0.034 H 
ATOM     32  H   LIG d   1       3.562  -4.988  -5.513  0.00  0.00     0.034 H 
ENDROOT
BRANCH  20  33
ATOM     33  N   LIG d   1       5.022  -6.181  -7.400  0.00  0.00     0.239 N 
ATOM     34  C   LIG d   1       4.922  -7.430  -8.178  0.00  0.00    -0.005 C 
ATOM     35  C   LIG d   1       3.633  -7.339  -9.023  0.00  0.00     0.100 C 
ATOM     36  H   LIG d   1       5.788  -7.529  -8.833  0.00  0.00     0.084 H 
ATOM     37  H   LIG d   1       4.864  -8.283  -7.503  0.00  0.00     0.084 H 
ATOM     38  C   LIG d   1       3.375  -5.812  -9.106  0.00  0.00     0.018 C 
ATOM     39  H   LIG d   1       2.808  -7.843  -8.520  0.00  0.00     0.065 H 
ATOM     40  C   LIG d   1       3.846  -5.339  -7.708  0.00  0.00    -0.029 C 
ATOM     41  H   LIG d   1       2.315  -5.602  -9.253  0.00  0.00     0.034 H 
ATOM     42  H   LIG d   1       3.974  -5.358  -9.894  0.00  0.00     0.034 H 
ATOM     43  H   LIG d   1       3.061  -5.500  -6.968  0.00  0.00     0.082 H 
ATOM     44  H   LIG d   1       4.130  -4.287  -7.739  0.00  0.00     0.082 H 
ATOM     45  H   LIG d   1       5.865  -5.688  -7.656  0.00  0.00     0.204 HD
BRANCH  35  46
ATOM     46  O   LIG d   1       3.839  -7.888 -10.326  0.00  0.00    -0.386 OA
ATOM     47  H   LIG d   1       4.683  -7.640 -10.728  0.00  0.00     0.210 HD
ENDBRANCH  35  46
ENDBRANCH  20  33
BRANCH  17  48
ATOM     48  C   LIG d   1       7.393  -5.255  -7.213  0.00  0.00    -0.027 A 
ATOM     49  C   LIG d   1       6.928  -4.016  -7.612  0.00  0.00    -0.020 A 
ATOM     50  C   LIG d   1       6.942  -3.670  -8.952  0.00  0.00     0.142 A 
ATOM     51  H   LIG d   1       6.557  -3.316  -6.877  0.00  0.00     0.065 H 
ATOM     52  C   LIG d   1       7.412  -4.571  -9.893  0.00  0.00     0.076 A 
ATOM     53  F   LIG d   1       6.494  -2.456  -9.342  0.00  0.00    -0.204 F 
ATOM     54  C   LIG d   1       7.872  -5.812  -9.492  0.00  0.00    -0.040 A 
ATOM     55 CL   LIG d   1       7.426  -4.141 -11.575  0.00  0.00    -0.081 Cl
ATOM     56  C   LIG d   1       7.861  -6.154  -8.153  0.00  0.00    -0.056 A 
ATOM     57  H   LIG d   1       8.238  -6.515 -10.225  0.00  0.00     0.063 H 
ATOM     58  H   LIG d   1       8.220  -7.123  -7.841  0.00  0.00     0.062 H 
ENDBRANCH  17  48
BRANCH   1  59
ATOM     59  C   LIG d   1       9.209  -3.862  -4.773  0.00  0.00     0.325 C 
ATOM     60  O   LIG d   1      10.043  -3.685  -5.629  0.00  0.00    -0.249 OA
BRANCH  59  61
ATOM     61  O   LIG d   1       9.537  -4.501  -3.639  0.00  0.00    -0.467 OA
BRANCH  61  62
ATOM     62  C   LIG d   1      10.806  -4.187  -3.061  0.00  0.00     0.082 C 
ATOM     63  H   LIG d   1      11.450  -3.743  -3.819  0.00  0.00     0.066 H 
ATOM     64  H   LIG d   1      10.667  -3.480  -2.243  0.00  0.00     0.066 H 
ATOM     65  H   LIG d   1      11.267  -5.098  -2.680  0.00  0.00     0.066 H 
ENDBRANCH  61  62
ENDBRANCH  59  61
ENDBRANCH   1  59
TORSDOF 6
ENDMDL
MODEL 4
REMARK VINA RESULT:      -6.5      3.071      4.854
REMARK  6 active torsions:
REMARK  status: ('A' for Active; 'I' for Inactive)
REMARK    1  A    between atoms: C_1  and  O_2 
REMARK    2  A    between atoms: O_2  and  C_3 
REMARK    3  A    between atoms: C_3  and  C_5 
REMARK    4  A    between atoms: C_21  and  C_34 
REMARK    5  A    between atoms: C_24  and  N_27 
REMARK    6  A    between atoms: C_30  and  O_33 
ROOT
ATOM      1  C   LIG d   1       5.406  -3.776  -6.358  0.00  0.00     0.113 C 
ATOM      2  H   LIG d   1       6.335  -3.278  -6.633  0.00  0.00     0.058 H 
ATOM      3  C   LIG d   1       5.056  -3.439  -4.901  0.00  0.00     0.001 C 
ATOM      4  C   LIG d   1       4.617  -1.997  -4.845  0.00  0.00    -0.016 A 
ATOM      5  C   LIG d   1       4.484  -1.126  -3.699  0.00  0.00     0.003 A 
ATOM      6  C   LIG d   1       4.705  -1.313  -2.331  0.00  0.00    -0.052 A 
ATOM      7  C   LIG d   1       4.469  -0.238  -1.510  0.00  0.00    -0.061 A 
ATOM      8  C   LIG d   1       4.033   0.981  -2.002  0.00  0.00    -0.060 A 
ATOM      9  C   LIG d   1       3.806   1.195  -3.350  0.00  0.00    -0.038 A 
ATOM     10  C   LIG d   1       4.037   0.122  -4.208  0.00  0.00     0.047 A 
ATOM     11  N   LIG d   1       3.918  -0.010  -5.563  0.00  0.00    -0.356 N 
ATOM     12  H   LIG d   1       3.629   0.690  -6.167  0.00  0.00     0.166 HD
ATOM     13  C   LIG d   1       4.268  -1.279  -5.937  0.00  0.00     0.038 A 
ATOM     14  C   LIG d   1       4.286  -1.851  -7.333  0.00  0.00     0.057 C 
ATOM     15  H   LIG d   1       5.169  -1.494  -7.862  0.00  0.00     0.053 H 
ATOM     16  N   LIG d   1       4.326  -3.318  -7.239  0.00  0.00    -0.274 N 
ATOM     17  C   LIG d   1       4.415  -3.926  -8.572  0.00  0.00     0.042 C 
ATOM     18  H   LIG d   1       4.485  -5.009  -8.473  0.00  0.00     0.051 H 
ATOM     19  C   LIG d   1       3.165  -3.564  -9.377  0.00  0.00     0.010 C 
ATOM     20  C   LIG d   1       3.051  -2.042  -9.490  0.00  0.00    -0.017 C 
ATOM     21  H   LIG d   1       2.134  -1.784 -10.018  0.00  0.00     0.085 H 
ATOM     22  C   LIG d   1       3.027  -1.422  -8.089  0.00  0.00     0.012 C 
ATOM     23  H   LIG d   1       4.247  -4.084  -4.559  0.00  0.00     0.033 H 
ATOM     24  H   LIG d   1       5.933  -3.581  -4.271  0.00  0.00     0.033 H 
ATOM     25  H   LIG d   1       5.044  -2.261  -1.938  0.00  0.00     0.062 H 
ATOM     26  H   LIG d   1       4.630  -0.346  -0.448  0.00  0.00     0.062 H 
ATOM     27  H   LIG d   1       3.863   1.792  -1.310  0.00  0.00     0.062 H 
ATOM     28  H   LIG d   1       3.465   2.151  -3.721  0.00  0.00     0.064 H 
ATOM     29  H   LIG d   1       3.237  -3.999 -10.374  0.00  0.00     0.034 H 
ATOM     30  H   LIG d   1       2.281  -3.958  -8.873  0.00  0.00     0.034 H 
ATOM     31  H   LIG d   1       2.143  -1.773  -7.555  0.00  0.00     0.034 H 
ATOM     32  H   LIG d   1       3.000  -0.335  -8.166  0.00  0.00     0.034 H 
ENDROOT
BRANCH  20  33
ATOM     33  N   LIG d   1       4.207  -1.519 -10.230  0.00  0.00     0.239 N 
ATOM     34  C   LIG d   1       3.937  -1.580 -11.679  0.00  0.00    -0.005 C 
ATOM     35  C   LIG d   1       4.035  -0.138 -12.222  0.00  0.00     0.100 C 
ATOM     36  H   LIG d   1       4.679  -2.211 -12.168  0.00  0.00     0.084 H 
ATOM     37  H   LIG d   1       2.937  -1.975 -11.854  0.00  0.00     0.084 H 
ATOM     38  C   LIG d   1       4.911   0.578 -11.162  0.00  0.00     0.018 C 
ATOM     39  H   LIG d   1       3.047   0.319 -12.279  0.00  0.00     0.065 H 
ATOM     40  C   LIG d   1       4.442  -0.108  -9.854  0.00  0.00    -0.029 C 
ATOM     41  H   LIG d   1       4.702   1.647 -11.139  0.00  0.00     0.034 H 
ATOM     42  H   LIG d   1       5.970   0.393 -11.341  0.00  0.00     0.034 H 
ATOM     43  H   LIG d   1       3.518   0.347  -9.497  0.00  0.00     0.082 H 
ATOM     44  H   LIG d   1       5.218  -0.043  -9.092  0.00  0.00     0.082 H 
ATOM     45  H   LIG d   1       5.027  -2.066 -10.014  0.00  0.00     0.204 HD
BRANCH  35  46
ATOM     46  O   LIG d   1       4.674  -0.119 -13.501  0.00  0.00    -0.386 OA
ATOM     47  H   LIG d   1       5.470   0.428 -13.534  0.00  0.00     0.210 HD
ENDBRANCH  35  46
ENDBRANCH  20  33
BRANCH  17  48
ATOM     48  C   LIG d   1       5.640  -3.406  -9.281  0.00  0.00    -0.027 A 
ATOM     49  C   LIG d   1       6.452  -2.474  -8.663  0.00  0.00    -0.020 A 
ATOM     50  C   LIG d   1       7.579  -1.999  -9.313  0.00  0.00     0.142 A 
ATOM     51  H   LIG d   1       6.211  -2.120  -7.672  0.00  0.00     0.065 H 
ATOM     52  C   LIG d   1       7.885  -2.451 -10.586  0.00  0.00     0.076 A 
ATOM     53  F   LIG d   1       8.378  -1.095  -8.706  0.00  0.00    -0.204 F 
ATOM     54  C   LIG d   1       7.066  -3.379 -11.204  0.00  0.00    -0.040 A 
ATOM     55 CL   LIG d   1       9.294  -1.854 -11.404  0.00  0.00    -0.081 Cl
ATOM     56  C   LIG d   1       5.944  -3.856 -10.552  0.00  0.00    -0.056 A 
ATOM     57  H   LIG d   1       7.303  -3.731 -12.197  0.00  0.00     0.063 H 
ATOM     58  H   LIG d   1       5.306  -4.579 -11.036  0.00  0.00     0.062 H 
ENDBRANCH  17  48
BRANCH   1  59
ATOM     59  C   LIG d   1       5.573  -5.266  -6.502  0.00  0.00     0.325 C 
ATOM     60  O   LIG d   1       6.614  -5.722  -6.914  0.00  0.00    -0.249 OA
BRANCH  59  61
ATOM     61  O   LIG d   1       4.565  -6.089  -6.173  0.00  0.00    -0.467 OA
BRANCH  61  62
ATOM     62  C   LIG d   1       4.917  -7.355  -5.609  0.00  0.00     0.082 C 
ATOM     63  H   LIG d   1       5.028  -8.089  -6.406  0.00  0.00     0.066 H 
ATOM     64  H   LIG d   1       5.858  -7.262  -5.067  0.00  0.00     0.066 H 
ATOM     65  H   LIG d   1       4.134  -7.678  -4.924  0.00  0.00     0.066 H 
ENDBRANCH  61  62
ENDBRANCH  59  61
ENDBRANCH   1  59
TORSDOF 6
ENDMDL
MODEL 5
REMARK VINA RESULT:      -6.4      6.075      8.377
REMARK  6 active torsions:
REMARK  status: ('A' for Active; 'I' for Inactive)
REMARK    1  A    between atoms: C_1  and  O_2 
REMARK    2  A    between atoms: O_2  and  C_3 
REMARK    3  A    between atoms: C_3  and  C_5 
REMARK    4  A    between atoms: C_21  and  C_34 
REMARK    5  A    between atoms: C_24  and  N_27 
REMARK    6  A    between atoms: C_30  and  O_33 
ROOT
ATOM      1  C   LIG d   1       6.317  -4.477  -4.937  0.00  0.00     0.113 C 
ATOM      2  H   LIG d   1       6.724  -4.823  -3.987  0.00  0.00     0.058 H 
ATOM      3  C   LIG d   1       5.103  -3.573  -4.675  0.00  0.00     0.001 C 
ATOM      4  C   LIG d   1       5.602  -2.269  -4.104  0.00  0.00    -0.016 A 
ATOM      5  C   LIG d   1       4.868  -1.231  -3.416  0.00  0.00     0.003 A 
ATOM      6  C   LIG d   1       3.522  -1.092  -3.065  0.00  0.00    -0.052 A 
ATOM      7  C   LIG d   1       3.168   0.056  -2.400  0.00  0.00    -0.061 A 
ATOM      8  C   LIG d   1       4.093   1.038  -2.085  0.00  0.00    -0.060 A 
ATOM      9  C   LIG d   1       5.431   0.926  -2.419  0.00  0.00    -0.038 A 
ATOM     10  C   LIG d   1       5.820  -0.228  -3.094  0.00  0.00     0.047 A 
ATOM     11  N   LIG d   1       7.032  -0.652  -3.563  0.00  0.00    -0.356 N 
ATOM     12  H   LIG d   1       7.863  -0.161  -3.481  0.00  0.00     0.166 HD
ATOM     13  C   LIG d   1       6.895  -1.874  -4.163  0.00  0.00     0.038 A 
ATOM     14  C   LIG d   1       7.976  -2.705  -4.808  0.00  0.00     0.057 C 
ATOM     15  H   LIG d   1       8.568  -3.196  -4.036  0.00  0.00     0.053 H 
ATOM     16  N   LIG d   1       7.342  -3.720  -5.663  0.00  0.00    -0.274 N 
ATOM     17  C   LIG d   1       8.349  -4.603  -6.262  0.00  0.00     0.042 C 
ATOM     18  H   LIG d   1       7.852  -5.370  -6.856  0.00  0.00     0.051 H 
ATOM     19  C   LIG d   1       9.274  -3.779  -7.160  0.00  0.00     0.010 C 
ATOM     20  C   LIG d   1       9.949  -2.684  -6.331  0.00  0.00    -0.017 C 
ATOM     21  H   LIG d   1      10.568  -2.064  -6.980  0.00  0.00     0.085 H 
ATOM     22  C   LIG d   1       8.881  -1.814  -5.660  0.00  0.00     0.012 C 
ATOM     23  H   LIG d   1       4.574  -3.387  -5.609  0.00  0.00     0.033 H 
ATOM     24  H   LIG d   1       4.434  -4.054  -3.961  0.00  0.00     0.033 H 
ATOM     25  H   LIG d   1       2.793  -1.852  -3.308  0.00  0.00     0.062 H 
ATOM     26  H   LIG d   1       2.137   0.198  -2.113  0.00  0.00     0.062 H 
ATOM     27  H   LIG d   1       3.759   1.921  -1.561  0.00  0.00     0.062 H 
ATOM     28  H   LIG d   1       6.143   1.699  -2.168  0.00  0.00     0.064 H 
ATOM     29  H   LIG d   1      10.035  -4.429  -7.592  0.00  0.00     0.034 H 
ATOM     30  H   LIG d   1       8.691  -3.321  -7.961  0.00  0.00     0.034 H 
ATOM     31  H   LIG d   1       8.287  -1.317  -6.428  0.00  0.00     0.034 H 
ATOM     32  H   LIG d   1       9.358  -1.066  -5.026  0.00  0.00     0.034 H 
ENDROOT
BRANCH  20  33
ATOM     33  N   LIG d   1      10.790  -3.300  -5.297  0.00  0.00     0.239 N 
ATOM     34  C   LIG d   1      12.057  -3.761  -5.896  0.00  0.00    -0.005 C 
ATOM     35  C   LIG d   1      13.201  -3.029  -5.162  0.00  0.00     0.100 C 
ATOM     36  H   LIG d   1      12.160  -4.838  -5.763  0.00  0.00     0.084 H 
ATOM     37  H   LIG d   1      12.077  -3.512  -6.956  0.00  0.00     0.084 H 
ATOM     38  C   LIG d   1      12.551  -2.627  -3.812  0.00  0.00     0.018 C 
ATOM     39  H   LIG d   1      13.512  -2.145  -5.719  0.00  0.00     0.065 H 
ATOM     40  C   LIG d   1      11.099  -2.305  -4.247  0.00  0.00    -0.029 C 
ATOM     41  H   LIG d   1      13.037  -1.747  -3.391  0.00  0.00     0.034 H 
ATOM     42  H   LIG d   1      12.571  -3.458  -3.106  0.00  0.00     0.034 H 
ATOM     43  H   LIG d   1      11.040  -1.296  -4.654  0.00  0.00     0.082 H 
ATOM     44  H   LIG d   1      10.417  -2.418  -3.406  0.00  0.00     0.082 H 
ATOM     45  H   LIG d   1      10.305  -4.084  -4.885  0.00  0.00     0.204 HD
BRANCH  35  46
ATOM     46  O   LIG d   1      14.309  -3.906  -4.947  0.00  0.00    -0.386 OA
ATOM     47  H   LIG d   1      14.488  -4.092  -4.016  0.00  0.00     0.210 HD
ENDBRANCH  35  46
ENDBRANCH  20  33
BRANCH  17  48
ATOM     48  C   LIG d   1       9.157  -5.258  -5.171  0.00  0.00    -0.027 A 
ATOM     49  C   LIG d   1       8.980  -4.874  -3.856  0.00  0.00    -0.020 A 
ATOM     50  C   LIG d   1       9.719  -5.478  -2.853  0.00  0.00     0.142 A 
ATOM     51  H   LIG d   1       8.263  -4.105  -3.609  0.00  0.00     0.065 H 
ATOM     52  C   LIG d   1      10.643  -6.460  -3.171  0.00  0.00     0.076 A 
ATOM     53  F   LIG d   1       9.541  -5.109  -1.566  0.00  0.00    -0.204 F 
ATOM     54  C   LIG d   1      10.822  -6.838  -4.489  0.00  0.00    -0.040 A 
ATOM     55 CL   LIG d   1      11.574  -7.216  -1.916  0.00  0.00    -0.081 Cl
ATOM     56  C   LIG d   1      10.080  -6.237  -5.489  0.00  0.00    -0.056 A 
ATOM     57  H   LIG d   1      11.543  -7.603  -4.738  0.00  0.00     0.063 H 
ATOM     58  H   LIG d   1      10.221  -6.533  -6.517  0.00  0.00     0.062 H 
ENDBRANCH  17  48
BRANCH   1  59
ATOM     59  C   LIG d   1       5.890  -5.663  -5.762  0.00  0.00     0.325 C 
ATOM     60  O   LIG d   1       5.321  -5.494  -6.815  0.00  0.00    -0.249 OA
BRANCH  59  61
ATOM     61  O   LIG d   1       6.141  -6.908  -5.328  0.00  0.00    -0.467 OA
BRANCH  61  62
ATOM     62  C   LIG d   1       5.044  -7.824  -5.313  0.00  0.00     0.082 C 
ATOM     63  H   LIG d   1       5.301  -8.708  -5.895  0.00  0.00     0.066 H 
ATOM     64  H   LIG d   1       4.827  -8.115  -4.285  0.00  0.00     0.066 H 
ATOM     65  H   LIG d   1       4.166  -7.346  -5.748  0.00  0.00     0.066 H 
ENDBRANCH  61  62
ENDBRANCH  59  61
ENDBRANCH   1  59
TORSDOF 6
ENDMDL
MODEL 6
REMARK VINA RESULT:      -6.3      3.519      7.608
REMARK  6 active torsions:
REMARK  status: ('A' for Active; 'I' for Inactive)
REMARK    1  A    between atoms: C_1  and  O_2 
REMARK    2  A    between atoms: O_2  and  C_3 
REMARK    3  A    between atoms: C_3  and  C_5 
REMARK    4  A    between atoms: C_21  and  C_34 
REMARK    5  A    between atoms: C_24  and  N_27 
REMARK    6  A    between atoms: C_30  and  O_33 
ROOT
ATOM      1  C   LIG d   1       4.282  -4.128  -6.925  0.00  0.00     0.113 C 
ATOM      2  H   LIG d   1       3.751  -3.381  -6.335  0.00  0.00     0.058 H 
ATOM      3  C   LIG d   1       3.517  -4.387  -8.231  0.00  0.00     0.001 C 
ATOM      4  C   LIG d   1       3.678  -3.179  -9.119  0.00  0.00    -0.016 A 
ATOM      5  C   LIG d   1       2.923  -2.797 -10.291  0.00  0.00     0.003 A 
ATOM      6  C   LIG d   1       1.846  -3.385 -10.961  0.00  0.00    -0.052 A 
ATOM      7  C   LIG d   1       1.370  -2.728 -12.069  0.00  0.00    -0.061 A 
ATOM      8  C   LIG d   1       1.922  -1.537 -12.511  0.00  0.00    -0.060 A 
ATOM      9  C   LIG d   1       2.987  -0.933 -11.868  0.00  0.00    -0.038 A 
ATOM     10  C   LIG d   1       3.491  -1.576 -10.740  0.00  0.00     0.047 A 
ATOM     11  N   LIG d   1       4.512  -1.263  -9.887  0.00  0.00    -0.356 N 
ATOM     12  H   LIG d   1       5.076  -0.478  -9.956  0.00  0.00     0.166 HD
ATOM     13  C   LIG d   1       4.617  -2.225  -8.918  0.00  0.00     0.038 A 
ATOM     14  C   LIG d   1       5.601  -2.272  -7.777  0.00  0.00     0.057 C 
ATOM     15  H   LIG d   1       5.289  -1.578  -6.996  0.00  0.00     0.053 H 
ATOM     16  N   LIG d   1       5.630  -3.639  -7.236  0.00  0.00    -0.274 N 
ATOM     17  C   LIG d   1       6.522  -3.726  -6.075  0.00  0.00     0.042 C 
ATOM     18  H   LIG d   1       6.493  -4.737  -5.670  0.00  0.00     0.051 H 
ATOM     19  C   LIG d   1       7.950  -3.388  -6.509  0.00  0.00     0.010 C 
ATOM     20  C   LIG d   1       7.984  -1.980  -7.106  0.00  0.00    -0.017 C 
ATOM     21  H   LIG d   1       8.990  -1.759  -7.462  0.00  0.00     0.085 H 
ATOM     22  C   LIG d   1       6.996  -1.891  -8.274  0.00  0.00     0.012 C 
ATOM     23  H   LIG d   1       3.926  -5.267  -8.729  0.00  0.00     0.033 H 
ATOM     24  H   LIG d   1       2.460  -4.544  -8.013  0.00  0.00     0.033 H 
ATOM     25  H   LIG d   1       1.410  -4.314 -10.624  0.00  0.00     0.062 H 
ATOM     26  H   LIG d   1       0.539  -3.153 -12.611  0.00  0.00     0.062 H 
ATOM     27  H   LIG d   1       1.507  -1.064 -13.389  0.00  0.00     0.062 H 
ATOM     28  H   LIG d   1       3.409  -0.004 -12.223  0.00  0.00     0.064 H 
ATOM     29  H   LIG d   1       8.613  -3.433  -5.644  0.00  0.00     0.034 H 
ATOM     30  H   LIG d   1       8.283  -4.108  -7.258  0.00  0.00     0.034 H 
ATOM     31  H   LIG d   1       7.306  -2.582  -9.059  0.00  0.00     0.034 H 
ATOM     32  H   LIG d   1       6.979  -0.874  -8.667  0.00  0.00     0.034 H 
ENDROOT
BRANCH  20  33
ATOM     33  N   LIG d   1       7.604  -1.003  -6.077  0.00  0.00     0.239 N 
ATOM     34  C   LIG d   1       8.748  -0.757  -5.179  0.00  0.00    -0.005 C 
ATOM     35  C   LIG d   1       9.073   0.750  -5.255  0.00  0.00     0.100 C 
ATOM     36  H   LIG d   1       8.482  -1.027  -4.157  0.00  0.00     0.084 H 
ATOM     37  H   LIG d   1       9.609  -1.339  -5.507  0.00  0.00     0.084 H 
ATOM     38  C   LIG d   1       7.741   1.371  -5.752  0.00  0.00     0.018 C 
ATOM     39  H   LIG d   1       9.875   0.935  -5.970  0.00  0.00     0.065 H 
ATOM     40  C   LIG d   1       7.226   0.275  -6.718  0.00  0.00    -0.029 C 
ATOM     41  H   LIG d   1       7.919   2.307  -6.281  0.00  0.00     0.034 H 
ATOM     42  H   LIG d   1       7.047   1.519  -4.924  0.00  0.00     0.034 H 
ATOM     43  H   LIG d   1       7.710   0.368  -7.690  0.00  0.00     0.082 H 
ATOM     44  H   LIG d   1       6.144   0.340  -6.824  0.00  0.00     0.082 H 
ATOM     45  H   LIG d   1       6.824  -1.356  -5.543  0.00  0.00     0.204 HD
BRANCH  35  46
ATOM     46  O   LIG d   1       9.419   1.262  -3.966  0.00  0.00    -0.386 OA
ATOM     47  H   LIG d   1       8.782   1.043  -3.273  0.00  0.00     0.210 HD
ENDBRANCH  35  46
ENDBRANCH  20  33
BRANCH  17  48
ATOM     48  C   LIG d   1       6.071  -2.748  -5.020  0.00  0.00    -0.027 A 
ATOM     49  C   LIG d   1       4.965  -1.952  -5.245  0.00  0.00    -0.020 A 
ATOM     50  C   LIG d   1       4.548  -1.056  -4.274  0.00  0.00     0.142 A 
ATOM     51  H   LIG d   1       4.423  -2.029  -6.176  0.00  0.00     0.065 H 
ATOM     52  C   LIG d   1       5.247  -0.954  -3.083  0.00  0.00     0.076 A 
ATOM     53  F   LIG d   1       3.462  -0.282  -4.490  0.00  0.00    -0.204 F 
ATOM     54  C   LIG d   1       6.357  -1.748  -2.863  0.00  0.00    -0.040 A 
ATOM     55 CL   LIG d   1       4.729   0.171  -1.866  0.00  0.00    -0.081 Cl
ATOM     56  C   LIG d   1       6.769  -2.645  -3.831  0.00  0.00    -0.056 A 
ATOM     57  H   LIG d   1       6.903  -1.669  -1.935  0.00  0.00     0.063 H 
ATOM     58  H   LIG d   1       7.636  -3.265  -3.659  0.00  0.00     0.062 H 
ENDBRANCH  17  48
BRANCH   1  59
ATOM     59  C   LIG d   1       4.381  -5.410  -6.139  0.00  0.00     0.325 C 
ATOM     60  O   LIG d   1       3.961  -5.460  -5.008  0.00  0.00    -0.249 OA
BRANCH  59  61
ATOM     61  O   LIG d   1       4.938  -6.497  -6.696  0.00  0.00    -0.467 OA
BRANCH  61  62
ATOM     62  C   LIG d   1       4.928  -7.699  -5.924  0.00  0.00     0.082 C 
ATOM     63  H   LIG d   1       5.399  -7.514  -4.959  0.00  0.00     0.066 H 
ATOM     64  H   LIG d   1       3.900  -8.024  -5.770  0.00  0.00     0.066 H 
ATOM     65  H   LIG d   1       5.480  -8.476  -6.454  0.00  0.00     0.066 H 
ENDBRANCH  61  62
ENDBRANCH  59  61
ENDBRANCH   1  59
TORSDOF 6
ENDMDL
MODEL 7
REMARK VINA RESULT:      -6.2      5.111      6.458
REMARK  6 active torsions:
REMARK  status: ('A' for Active; 'I' for Inactive)
REMARK    1  A    between atoms: C_1  and  O_2 
REMARK    2  A    between atoms: O_2  and  C_3 
REMARK    3  A    between atoms: C_3  and  C_5 
REMARK    4  A    between atoms: C_21  and  C_34 
REMARK    5  A    between atoms: C_24  and  N_27 
REMARK    6  A    between atoms: C_30  and  O_33 
ROOT
ATOM      1  C   LIG d   1       8.948   0.456  -5.031  0.00  0.00     0.113 C 
ATOM      2  H   LIG d   1       8.531   0.106  -4.087  0.00  0.00     0.058 H 
ATOM      3  C   LIG d   1      10.481   0.478  -4.937  0.00  0.00     0.001 C 
ATOM      4  C   LIG d   1      10.973  -0.947  -4.937  0.00  0.00    -0.016 A 
ATOM      5  C   LIG d   1      12.268  -1.467  -4.563  0.00  0.00     0.003 A 
ATOM      6  C   LIG d   1      13.440  -0.860  -4.100  0.00  0.00    -0.052 A 
ATOM      7  C   LIG d   1      14.506  -1.685  -3.839  0.00  0.00    -0.061 A 
ATOM      8  C   LIG d   1      14.438  -3.056  -4.022  0.00  0.00    -0.060 A 
ATOM      9  C   LIG d   1      13.292  -3.683  -4.478  0.00  0.00    -0.038 A 
ATOM     10  C   LIG d   1      12.193  -2.873  -4.751  0.00  0.00     0.047 A 
ATOM     11  N   LIG d   1      10.936  -3.156  -5.204  0.00  0.00    -0.356 N 
ATOM     12  H   LIG d   1      10.607  -4.042  -5.417  0.00  0.00     0.166 HD
ATOM     13  C   LIG d   1      10.210  -2.000  -5.311  0.00  0.00     0.038 A 
ATOM     14  C   LIG d   1       8.780  -1.855  -5.767  0.00  0.00     0.057 C 
ATOM     15  H   LIG d   1       8.108  -2.154  -4.962  0.00  0.00     0.053 H 
ATOM     16  N   LIG d   1       8.537  -0.446  -6.112  0.00  0.00    -0.274 N 
ATOM     17  C   LIG d   1       7.137  -0.234  -6.497  0.00  0.00     0.042 C 
ATOM     18  H   LIG d   1       6.975   0.823  -6.708  0.00  0.00     0.051 H 
ATOM     19  C   LIG d   1       6.826  -1.060  -7.747  0.00  0.00     0.010 C 
ATOM     20  C   LIG d   1       7.083  -2.541  -7.459  0.00  0.00    -0.017 C 
ATOM     21  H   LIG d   1       6.912  -3.123  -8.364  0.00  0.00     0.085 H 
ATOM     22  C   LIG d   1       8.531  -2.732  -6.995  0.00  0.00     0.012 C 
ATOM     23  H   LIG d   1      10.894   1.011  -5.794  0.00  0.00     0.033 H 
ATOM     24  H   LIG d   1      10.785   0.972  -4.014  0.00  0.00     0.033 H 
ATOM     25  H   LIG d   1      13.502   0.209  -3.955  0.00  0.00     0.062 H 
ATOM     26  H   LIG d   1      15.427  -1.250  -3.479  0.00  0.00     0.062 H 
ATOM     27  H   LIG d   1      15.308  -3.656  -3.801  0.00  0.00     0.062 H 
ATOM     28  H   LIG d   1      13.252  -4.754  -4.617  0.00  0.00     0.064 H 
ATOM     29  H   LIG d   1       5.781  -0.919  -8.024  0.00  0.00     0.034 H 
ATOM     30  H   LIG d   1       7.466  -0.733  -8.568  0.00  0.00     0.034 H 
ATOM     31  H   LIG d   1       9.208  -2.436  -7.798  0.00  0.00     0.034 H 
ATOM     32  H   LIG d   1       8.702  -3.777  -6.738  0.00  0.00     0.034 H 
ENDROOT
BRANCH  20  33
ATOM     33  N   LIG d   1       6.172  -3.000  -6.402  0.00  0.00     0.239 N 
ATOM     34  C   LIG d   1       4.849  -3.297  -6.981  0.00  0.00    -0.005 C 
ATOM     35  C   LIG d   1       4.545  -4.781  -6.685  0.00  0.00     0.100 C 
ATOM     36  H   LIG d   1       4.092  -2.664  -6.518  0.00  0.00     0.084 H 
ATOM     37  H   LIG d   1       4.869  -3.129  -8.057  0.00  0.00     0.084 H 
ATOM     38  C   LIG d   1       5.454  -5.090  -5.467  0.00  0.00     0.018 C 
ATOM     39  H   LIG d   1       4.815  -5.406  -7.537  0.00  0.00     0.065 H 
ATOM     40  C   LIG d   1       6.705  -4.234  -5.786  0.00  0.00    -0.029 C 
ATOM     41  H   LIG d   1       5.705  -6.149  -5.425  0.00  0.00     0.034 H 
ATOM     42  H   LIG d   1       4.985  -4.764  -4.538  0.00  0.00     0.034 H 
ATOM     43  H   LIG d   1       7.354  -4.758  -6.489  0.00  0.00     0.082 H 
ATOM     44  H   LIG d   1       7.247  -3.998  -4.871  0.00  0.00     0.082 H 
ATOM     45  H   LIG d   1       6.081  -2.284  -5.696  0.00  0.00     0.204 HD
BRANCH  35  46
ATOM     46  O   LIG d   1       3.168  -4.960  -6.346  0.00  0.00    -0.386 OA
ATOM     47  H   LIG d   1       2.601  -5.170  -7.101  0.00  0.00     0.210 HD
ENDBRANCH  35  46
ENDBRANCH  20  33
BRANCH  17  48
ATOM     48  C   LIG d   1       6.235  -0.666  -5.369  0.00  0.00    -0.027 A 
ATOM     49  C   LIG d   1       4.871  -0.460  -5.459  0.00  0.00    -0.020 A 
ATOM     50  C   LIG d   1       4.041  -0.861  -4.425  0.00  0.00     0.142 A 
ATOM     51  H   LIG d   1       4.452   0.011  -6.336  0.00  0.00     0.065 H 
ATOM     52  C   LIG d   1       4.581  -1.460  -3.299  0.00  0.00     0.076 A 
ATOM     53  F   LIG d   1       2.708  -0.666  -4.515  0.00  0.00    -0.204 F 
ATOM     54  C   LIG d   1       5.946  -1.660  -3.210  0.00  0.00    -0.040 A 
ATOM     55 CL   LIG d   1       3.543  -1.959  -2.000  0.00  0.00    -0.081 Cl
ATOM     56  C   LIG d   1       6.773  -1.263  -4.244  0.00  0.00    -0.056 A 
ATOM     57  H   LIG d   1       6.368  -2.126  -2.331  0.00  0.00     0.063 H 
ATOM     58  H   LIG d   1       7.838  -1.419  -4.174  0.00  0.00     0.062 H 
ENDBRANCH  17  48
BRANCH   1  59
ATOM     59  C   LIG d   1       8.443   1.846  -5.318  0.00  0.00     0.325 C 
ATOM     60  O   LIG d   1       7.668   2.378  -4.558  0.00  0.00    -0.249 OA
BRANCH  59  61
ATOM     61  O   LIG d   1       8.853   2.495  -6.419  0.00  0.00    -0.467 OA
BRANCH  61  62
ATOM     62  C   LIG d   1       9.543   3.732  -6.224  0.00  0.00     0.082 C 
ATOM     63  H   LIG d   1      10.062   4.007  -7.142  0.00  0.00     0.066 H 
ATOM     64  H   LIG d   1       8.827   4.511  -5.965  0.00  0.00     0.066 H 
ATOM     65  H   LIG d   1      10.267   3.621  -5.417  0.00  0.00     0.066 H 
ENDBRANCH  61  62
ENDBRANCH  59  61
ENDBRANCH   1  59
TORSDOF 6
ENDMDL
MODEL 8
REMARK VINA RESULT:      -6.2      6.882      9.344
REMARK  6 active torsions:
REMARK  status: ('A' for Active; 'I' for Inactive)
REMARK    1  A    between atoms: C_1  and  O_2 
REMARK    2  A    between atoms: O_2  and  C_3 
REMARK    3  A    between atoms: C_3  and  C_5 
REMARK    4  A    between atoms: C_21  and  C_34 
REMARK    5  A    between atoms: C_24  and  N_27 
REMARK    6  A    between atoms: C_30  and  O_33 
ROOT
ATOM      1  C   LIG d   1       9.414  -1.348  -5.308  0.00  0.00     0.113 C 
ATOM      2  H   LIG d   1      10.046  -1.105  -4.454  0.00  0.00     0.058 H 
ATOM      3  C   LIG d   1       8.054  -1.857  -4.809  0.00  0.00     0.001 C 
ATOM      4  C   LIG d   1       7.295  -0.687  -4.236  0.00  0.00    -0.016 A 
ATOM      5  C   LIG d   1       6.130  -0.682  -3.381  0.00  0.00     0.003 A 
ATOM      6  C   LIG d   1       5.355  -1.704  -2.824  0.00  0.00    -0.052 A 
ATOM      7  C   LIG d   1       4.293  -1.323  -2.040  0.00  0.00    -0.061 A 
ATOM      8  C   LIG d   1       3.994   0.009  -1.805  0.00  0.00    -0.060 A 
ATOM      9  C   LIG d   1       4.743   1.040  -2.343  0.00  0.00    -0.038 A 
ATOM     10  C   LIG d   1       5.827   0.684  -3.141  0.00  0.00     0.047 A 
ATOM     11  N   LIG d   1       6.755   1.430  -3.812  0.00  0.00    -0.356 N 
ATOM     12  H   LIG d   1       6.788   2.399  -3.824  0.00  0.00     0.166 HD
ATOM     13  C   LIG d   1       7.631   0.604  -4.463  0.00  0.00     0.038 A 
ATOM     14  C   LIG d   1       8.809   1.006  -5.315  0.00  0.00     0.057 C 
ATOM     15  H   LIG d   1       9.636   1.311  -4.674  0.00  0.00     0.053 H 
ATOM     16  N   LIG d   1       9.216  -0.149  -6.129  0.00  0.00    -0.274 N 
ATOM     17  C   LIG d   1      10.406   0.166  -6.928  0.00  0.00     0.042 C 
ATOM     18  H   LIG d   1      10.711  -0.717  -7.489  0.00  0.00     0.051 H 
ATOM     19  C   LIG d   1      10.075   1.302  -7.899  0.00  0.00     0.010 C 
ATOM     20  C   LIG d   1       9.619   2.532  -7.112  0.00  0.00    -0.017 C 
ATOM     21  H   LIG d   1       9.334   3.323  -7.805  0.00  0.00     0.085 H 
ATOM     22  C   LIG d   1       8.418   2.165  -6.233  0.00  0.00     0.012 C 
ATOM     23  H   LIG d   1       7.495  -2.288  -5.640  0.00  0.00     0.033 H 
ATOM     24  H   LIG d   1       8.205  -2.611  -4.036  0.00  0.00     0.033 H 
ATOM     25  H   LIG d   1       5.580  -2.745  -3.003  0.00  0.00     0.062 H 
ATOM     26  H   LIG d   1       3.673  -2.086  -1.594  0.00  0.00     0.062 H 
ATOM     27  H   LIG d   1       3.146   0.250  -1.181  0.00  0.00     0.062 H 
ATOM     28  H   LIG d   1       4.499   2.075  -2.152  0.00  0.00     0.064 H 
ATOM     29  H   LIG d   1      10.963   1.552  -8.482  0.00  0.00     0.034 H 
ATOM     30  H   LIG d   1       9.278   0.984  -8.572  0.00  0.00     0.034 H 
ATOM     31  H   LIG d   1       7.586   1.862  -6.870  0.00  0.00     0.034 H 
ATOM     32  H   LIG d   1       8.124   3.025  -5.632  0.00  0.00     0.034 H 
ENDROOT
BRANCH  20  33
ATOM     33  N   LIG d   1      10.717   3.002  -6.257  0.00  0.00     0.239 N 
ATOM     34  C   LIG d   1      11.613   3.876  -7.036  0.00  0.00    -0.005 C 
ATOM     35  C   LIG d   1      11.635   5.250  -6.333  0.00  0.00     0.100 C 
ATOM     36  H   LIG d   1      12.618   3.454  -7.055  0.00  0.00     0.084 H 
ATOM     37  H   LIG d   1      11.234   3.985  -8.052  0.00  0.00     0.084 H 
ATOM     38  C   LIG d   1      11.200   4.910  -4.884  0.00  0.00     0.018 C 
ATOM     39  H   LIG d   1      10.923   5.932  -6.799  0.00  0.00     0.065 H 
ATOM     40  C   LIG d   1      10.169   3.779  -5.124  0.00  0.00    -0.029 C 
ATOM     41  H   LIG d   1      10.733   5.769  -4.403  0.00  0.00     0.034 H 
ATOM     42  H   LIG d   1      12.046   4.549  -4.298  0.00  0.00     0.034 H 
ATOM     43  H   LIG d   1       9.199   4.200  -5.388  0.00  0.00     0.082 H 
ATOM     44  H   LIG d   1      10.083   3.149  -4.239  0.00  0.00     0.082 H 
ATOM     45  H   LIG d   1      11.236   2.212  -5.904  0.00  0.00     0.204 HD
BRANCH  35  46
ATOM     46  O   LIG d   1      12.950   5.809  -6.348  0.00  0.00    -0.386 OA
ATOM     47  H   LIG d   1      12.976   6.748  -6.574  0.00  0.00     0.210 HD
ENDBRANCH  35  46
ENDBRANCH  20  33
BRANCH  17  48
ATOM     48  C   LIG d   1      11.527   0.594  -6.015  0.00  0.00    -0.027 A 
ATOM     49  C   LIG d   1      12.764   0.911  -6.543  0.00  0.00    -0.020 A 
ATOM     50  C   LIG d   1      13.792   1.309  -5.705  0.00  0.00     0.142 A 
ATOM     51  H   LIG d   1      12.928   0.853  -7.609  0.00  0.00     0.065 H 
ATOM     52  C   LIG d   1      13.582   1.377  -4.338  0.00  0.00     0.076 A 
ATOM     53  F   LIG d   1      15.000   1.626  -6.221  0.00  0.00    -0.204 F 
ATOM     54  C   LIG d   1      12.345   1.054  -3.812  0.00  0.00    -0.040 A 
ATOM     55 CL   LIG d   1      14.872   1.870  -3.285  0.00  0.00    -0.081 Cl
ATOM     56  C   LIG d   1      11.318   0.662  -4.650  0.00  0.00    -0.056 A 
ATOM     57  H   LIG d   1      12.180   1.106  -2.746  0.00  0.00     0.063 H 
ATOM     58  H   LIG d   1      10.352   0.409  -4.239  0.00  0.00     0.062 H 
ENDBRANCH  17  48
BRANCH   1  59
ATOM     59  C   LIG d   1      10.078  -2.419  -6.135  0.00  0.00     0.325 C 
ATOM     60  O   LIG d   1       9.495  -2.906  -7.075  0.00  0.00    -0.249 OA
BRANCH  59  61
ATOM     61  O   LIG d   1      11.317  -2.833  -5.827  0.00  0.00    -0.467 OA
BRANCH  61  62
ATOM     62  C   LIG d   1      11.603  -3.053  -4.444  0.00  0.00     0.082 C 
ATOM     63  H   LIG d   1      10.911  -3.793  -4.043  0.00  0.00     0.066 H 
ATOM     64  H   LIG d   1      12.625  -3.416  -4.337  0.00  0.00     0.066 H 
ATOM     65  H   LIG d   1      11.490  -2.117  -3.896  0.00  0.00     0.066 H 
ENDBRANCH  61  62
ENDBRANCH  59  61
ENDBRANCH   1  59
TORSDOF 6
ENDMDL
MODEL 9
REMARK VINA RESULT:      -5.8     10.114     13.031
REMARK  6 active torsions:
REMARK  status: ('A' for Active; 'I' for Inactive)
REMARK    1  A    between atoms: C_1  and  O_2 
REMARK    2  A    between atoms: O_2  and  C_3 
REMARK    3  A    between atoms: C_3  and  C_5 
REMARK    4  A    between atoms: C_21  and  C_34 
REMARK    5  A    between atoms: C_24  and  N_27 
REMARK    6  A    between atoms: C_30  and  O_33 
ROOT
ATOM      1  C   LIG d   1      11.398   7.137  -1.461  0.00  0.00     0.113 C 
ATOM      2  H   LIG d   1      12.343   7.267  -1.989  0.00  0.00     0.058 H 
ATOM      3  C   LIG d   1      10.807   8.514  -1.125  0.00  0.00     0.001 C 
ATOM      4  C   LIG d   1      10.316   9.140  -2.406  0.00  0.00    -0.016 A 
ATOM      5  C   LIG d   1       9.970  10.517  -2.677  0.00  0.00     0.003 A 
ATOM      6  C   LIG d   1       9.974  11.672  -1.889  0.00  0.00    -0.052 A 
ATOM      7  C   LIG d   1       9.572  12.838  -2.492  0.00  0.00    -0.061 A 
ATOM      8  C   LIG d   1       9.180  12.882  -3.819  0.00  0.00    -0.060 A 
ATOM      9  C   LIG d   1       9.166  11.756  -4.623  0.00  0.00    -0.038 A 
ATOM     10  C   LIG d   1       9.569  10.558  -4.038  0.00  0.00     0.047 A 
ATOM     11  N   LIG d   1       9.675   9.288  -4.532  0.00  0.00    -0.356 N 
ATOM     12  H   LIG d   1       9.464   9.024  -5.440  0.00  0.00     0.166 HD
ATOM     13  C   LIG d   1      10.124   8.446  -3.551  0.00  0.00     0.038 A 
ATOM     14  C   LIG d   1      10.386   6.965  -3.664  0.00  0.00     0.057 C 
ATOM     15  H   LIG d   1      11.331   6.800  -4.182  0.00  0.00     0.053 H 
ATOM     16  N   LIG d   1      10.460   6.396  -2.310  0.00  0.00    -0.274 N 
ATOM     17  C   LIG d   1      10.784   4.965  -2.359  0.00  0.00     0.042 C 
ATOM     18  H   LIG d   1      10.874   4.578  -1.345  0.00  0.00     0.051 H 
ATOM     19  C   LIG d   1       9.669   4.220  -3.096  0.00  0.00     0.010 C 
ATOM     20  C   LIG d   1       9.523   4.785  -4.511  0.00  0.00    -0.017 C 
ATOM     21  H   LIG d   1       8.695   4.290  -5.017  0.00  0.00     0.085 H 
ATOM     22  C   LIG d   1       9.253   6.291  -4.439  0.00  0.00     0.012 C 
ATOM     23  H   LIG d   1       9.975   8.397  -0.430  0.00  0.00     0.033 H 
ATOM     24  H   LIG d   1      11.575   9.145  -0.678  0.00  0.00     0.033 H 
ATOM     25  H   LIG d   1      10.277  11.647  -0.852  0.00  0.00     0.062 H 
ATOM     26  H   LIG d   1       9.563  13.750  -1.913  0.00  0.00     0.062 H 
ATOM     27  H   LIG d   1       8.873  13.828  -4.241  0.00  0.00     0.062 H 
ATOM     28  H   LIG d   1       8.858  11.804  -5.657  0.00  0.00     0.064 H 
ATOM     29  H   LIG d   1       9.916   3.159  -3.151  0.00  0.00     0.034 H 
ATOM     30  H   LIG d   1       8.729   4.346  -2.556  0.00  0.00     0.034 H 
ATOM     31  H   LIG d   1       8.306   6.462  -3.924  0.00  0.00     0.034 H 
ATOM     32  H   LIG d   1       9.201   6.706  -5.446  0.00  0.00     0.034 H 
ENDROOT
BRANCH  20  33
ATOM     33  N   LIG d   1      10.765   4.552  -5.261  0.00  0.00     0.239 N 
ATOM     34  C   LIG d   1      10.750   3.195  -5.837  0.00  0.00    -0.005 C 
ATOM     35  C   LIG d   1      10.877   3.347  -7.368  0.00  0.00     0.100 C 
ATOM     36  H   LIG d   1      11.591   2.619  -5.451  0.00  0.00     0.084 H 
ATOM     37  H   LIG d   1       9.812   2.697  -5.590  0.00  0.00     0.084 H 
ATOM     38  C   LIG d   1      11.527   4.747  -7.528  0.00  0.00     0.018 C 
ATOM     39  H   LIG d   1       9.895   3.322  -7.839  0.00  0.00     0.065 H 
ATOM     40  C   LIG d   1      10.871   5.531  -6.364  0.00  0.00    -0.029 C 
ATOM     41  H   LIG d   1      11.271   5.189  -8.490  0.00  0.00     0.034 H 
ATOM     42  H   LIG d   1      12.608   4.691  -7.400  0.00  0.00     0.034 H 
ATOM     43  H   LIG d   1       9.881   5.883  -6.654  0.00  0.00     0.082 H 
ATOM     44  H   LIG d   1      11.502   6.369  -6.068  0.00  0.00     0.082 H 
ATOM     45  H   LIG d   1      11.559   4.651  -4.645  0.00  0.00     0.204 HD
BRANCH  35  46
ATOM     46  O   LIG d   1      11.724   2.332  -7.911  0.00  0.00    -0.386 OA
ATOM     47  H   LIG d   1      12.614   2.639  -8.129  0.00  0.00     0.210 HD
ENDBRANCH  35  46
ENDBRANCH  20  33
BRANCH  17  48
ATOM     48  C   LIG d   1      12.089   4.770  -3.089  0.00  0.00    -0.027 A 
ATOM     49  C   LIG d   1      12.602   3.497  -3.256  0.00  0.00    -0.020 A 
ATOM     50  C   LIG d   1      13.798   3.317  -3.930  0.00  0.00     0.142 A 
ATOM     51  H   LIG d   1      12.070   2.644  -2.863  0.00  0.00     0.065 H 
ATOM     52  C   LIG d   1      14.483   4.413  -4.428  0.00  0.00     0.076 A 
ATOM     53  F   LIG d   1      14.297   2.073  -4.099  0.00  0.00    -0.204 F 
ATOM     54  C   LIG d   1      13.969   5.685  -4.256  0.00  0.00    -0.040 A 
ATOM     55 CL   LIG d   1      15.985   4.189  -5.270  0.00  0.00    -0.081 Cl
ATOM     56  C   LIG d   1      12.773   5.863  -3.586  0.00  0.00    -0.056 A 
ATOM     57  H   LIG d   1      14.502   6.540  -4.643  0.00  0.00     0.063 H 
ATOM     58  H   LIG d   1      12.373   6.857  -3.452  0.00  0.00     0.062 H 
ENDBRANCH  17  48
BRANCH   1  59
ATOM     59  C   LIG d   1      11.637   6.370  -0.186  0.00  0.00     0.325 C 
ATOM     60  O   LIG d   1      12.758   6.037   0.119  0.00  0.00    -0.249 OA
BRANCH  59  61
ATOM     61  O   LIG d   1      10.604   6.054   0.610  0.00  0.00    -0.467 OA
BRANCH  61  62
ATOM     62  C   LIG d   1      10.913   5.659   1.949  0.00  0.00     0.082 C 
ATOM     63  H   LIG d   1      11.764   6.236   2.310  0.00  0.00     0.066 H 
ATOM     64  H   LIG d   1      10.051   5.842   2.590  0.00  0.00     0.066 H 
ATOM     65  H   LIG d   1      11.161   4.598   1.966  0.00  0.00     0.066 H 
ENDBRANCH  61  62
ENDBRANCH  59  61
ENDBRANCH   1  59
TORSDOF 6
ENDMDL
MODEL 10
REMARK VINA RESULT:      -5.8      5.886      8.117
REMARK  6 active torsions:
REMARK  status: ('A' for Active; 'I' for Inactive)
REMARK    1  A    between atoms: C_1  and  O_2 
REMARK    2  A    between atoms: O_2  and  C_3 
REMARK    3  A    between atoms: C_3  and  C_5 
REMARK    4  A    between atoms: C_21  and  C_34 
REMARK    5  A    between atoms: C_24  and  N_27 
REMARK    6  A    between atoms: C_30  and  O_33 
ROOT
ATOM      1  C   LIG d   1       8.954  -2.140  -4.627  0.00  0.00     0.113 C 
ATOM      2  H   LIG d   1       9.323  -1.326  -4.004  0.00  0.00     0.058 H 
ATOM      3  C   LIG d   1       7.615  -2.644  -4.068  0.00  0.00     0.001 C 
ATOM      4  C   LIG d   1       6.566  -1.597  -4.345  0.00  0.00    -0.016 A 
ATOM      5  C   LIG d   1       5.249  -1.447  -3.768  0.00  0.00     0.003 A 
ATOM      6  C   LIG d   1       4.541  -2.179  -2.811  0.00  0.00    -0.052 A 
ATOM      7  C   LIG d   1       3.280  -1.737  -2.497  0.00  0.00    -0.061 A 
ATOM      8  C   LIG d   1       2.724  -0.617  -3.093  0.00  0.00    -0.060 A 
ATOM      9  C   LIG d   1       3.401   0.127  -4.043  0.00  0.00    -0.038 A 
ATOM     10  C   LIG d   1       4.684  -0.298  -4.381  0.00  0.00     0.047 A 
ATOM     11  N   LIG d   1       5.609   0.193  -5.259  0.00  0.00    -0.356 N 
ATOM     12  H   LIG d   1       5.488   0.976  -5.817  0.00  0.00     0.166 HD
ATOM     13  C   LIG d   1       6.734  -0.588  -5.230  0.00  0.00     0.038 A 
ATOM     14  C   LIG d   1       7.997  -0.405  -6.034  0.00  0.00     0.057 C 
ATOM     15  H   LIG d   1       8.592   0.398  -5.600  0.00  0.00     0.053 H 
ATOM     16  N   LIG d   1       8.762  -1.660  -5.999  0.00  0.00    -0.274 N 
ATOM     17  C   LIG d   1      10.038  -1.517  -6.709  0.00  0.00     0.042 C 
ATOM     18  H   LIG d   1      10.602  -2.445  -6.634  0.00  0.00     0.051 H 
ATOM     19  C   LIG d   1       9.764  -1.202  -8.182  0.00  0.00     0.010 C 
ATOM     20  C   LIG d   1       8.945   0.087  -8.286  0.00  0.00    -0.017 C 
ATOM     21  H   LIG d   1       8.705   0.283  -9.331  0.00  0.00     0.085 H 
ATOM     22  C   LIG d   1       7.649  -0.060  -7.483  0.00  0.00     0.012 C 
ATOM     23  H   LIG d   1       7.341  -3.579  -4.558  0.00  0.00     0.033 H 
ATOM     24  H   LIG d   1       7.702  -2.803  -2.993  0.00  0.00     0.033 H 
ATOM     25  H   LIG d   1       4.966  -3.055  -2.341  0.00  0.00     0.062 H 
ATOM     26  H   LIG d   1       2.703  -2.278  -1.761  0.00  0.00     0.062 H 
ATOM     27  H   LIG d   1       1.727  -0.315  -2.808  0.00  0.00     0.062 H 
ATOM     28  H   LIG d   1       2.956   0.999  -4.501  0.00  0.00     0.064 H 
ATOM     29  H   LIG d   1      10.710  -1.076  -8.709  0.00  0.00     0.034 H 
ATOM     30  H   LIG d   1       9.205  -2.025  -8.631  0.00  0.00     0.034 H 
ATOM     31  H   LIG d   1       7.047  -0.861  -7.915  0.00  0.00     0.034 H 
ATOM     32  H   LIG d   1       7.088   0.875  -7.511  0.00  0.00     0.034 H 
ENDROOT
BRANCH  20  33
ATOM     33  N   LIG d   1       9.725   1.207  -7.745  0.00  0.00     0.239 N 
ATOM     34  C   LIG d   1      10.627   1.734  -8.786  0.00  0.00    -0.005 C 
ATOM     35  C   LIG d   1      10.265   3.220  -8.994  0.00  0.00     0.100 C 
ATOM     36  H   LIG d   1      11.663   1.647  -8.458  0.00  0.00     0.084 H 
ATOM     37  H   LIG d   1      10.482   1.183  -9.715  0.00  0.00     0.084 H 
ATOM     38  C   LIG d   1       9.565   3.600  -7.663  0.00  0.00     0.018 C 
ATOM     39  H   LIG d   1       9.581   3.335  -9.836  0.00  0.00     0.065 H 
ATOM     40  C   LIG d   1       8.812   2.291  -7.320  0.00  0.00    -0.029 C 
ATOM     41  H   LIG d   1       8.868   4.425  -7.809  0.00  0.00     0.034 H 
ATOM     42  H   LIG d   1      10.298   3.842  -6.893  0.00  0.00     0.034 H 
ATOM     43  H   LIG d   1       7.875   2.235  -7.875  0.00  0.00     0.082 H 
ATOM     44  H   LIG d   1       8.624   2.230  -6.249  0.00  0.00     0.082 H 
ATOM     45  H   LIG d   1      10.267   0.894  -6.953  0.00  0.00     0.204 HD
BRANCH  35  46
ATOM     46  O   LIG d   1      11.441   4.007  -9.189  0.00  0.00    -0.386 OA
ATOM     47  H   LIG d   1      12.066   3.971  -8.452  0.00  0.00     0.210 HD
ENDBRANCH  35  46
ENDBRANCH  20  33
BRANCH  17  48
ATOM     48  C   LIG d   1      10.833  -0.393  -6.094  0.00  0.00    -0.027 A 
ATOM     49  C   LIG d   1      10.304   0.330  -5.042  0.00  0.00    -0.020 A 
ATOM     50  C   LIG d   1      11.036   1.360  -4.473  0.00  0.00     0.142 A 
ATOM     51  H   LIG d   1       9.323   0.091  -4.661  0.00  0.00     0.065 H 
ATOM     52  C   LIG d   1      12.292   1.669  -4.967  0.00  0.00     0.076 A 
ATOM     53  F   LIG d   1      10.523   2.063  -3.440  0.00  0.00    -0.204 F 
ATOM     54  C   LIG d   1      12.816   0.946  -6.023  0.00  0.00    -0.040 A 
ATOM     55 CL   LIG d   1      13.210   2.961  -4.258  0.00  0.00    -0.081 Cl
ATOM     56  C   LIG d   1      12.087  -0.084  -6.587  0.00  0.00    -0.056 A 
ATOM     57  H   LIG d   1      13.796   1.187  -6.409  0.00  0.00     0.063 H 
ATOM     58  H   LIG d   1      12.496  -0.647  -7.411  0.00  0.00     0.062 H 
ENDBRANCH  17  48
BRANCH   1  59
ATOM     59  C   LIG d   1       9.954  -3.267  -4.624  0.00  0.00     0.325 C 
ATOM     60  O   LIG d   1       9.711  -4.294  -5.212  0.00  0.00    -0.249 OA
BRANCH  59  61
ATOM     61  O   LIG d   1      11.118  -3.130  -3.968  0.00  0.00    -0.467 OA
BRANCH  61  62
ATOM     62  C   LIG d   1      12.079  -4.176  -4.126  0.00  0.00     0.082 C 
ATOM     63  H   LIG d   1      11.568  -5.103  -4.383  0.00  0.00     0.066 H 
ATOM     64  H   LIG d   1      12.775  -3.912  -4.922  0.00  0.00     0.066 H 
ATOM     65  H   LIG d   1      12.627  -4.310  -3.193  0.00  0.00     0.066 H 
ENDBRANCH  61  62
ENDBRANCH  59  61
ENDBRANCH   1  59
TORSDOF 6
ENDMDL
