MODEL 1
REMARK VINA RESULT:      -7.6      0.000      0.000
REMARK  3 active torsions:
REMARK  status: ('A' for Active; 'I' for Inactive)
REMARK    1  A    between atoms: C_1  and  C_2 
REMARK    2  A    between atoms: C_3  and  C_28 
REMARK    3  A    between atoms: N_14  and  C_17 
ROOT
ATOM      1  C   LIG d   1       2.203  -2.743 -10.039  0.00  0.00    -0.030 A 
ATOM      2  C   LIG d   1       1.963  -1.406 -10.065  0.00  0.00     0.037 A 
ATOM      3  C   LIG d   1       2.642  -0.553  -9.171  0.00  0.00     0.340 A 
ATOM      4  O   LIG d   1       2.418   0.644  -9.206  0.00  0.00    -0.245 OA
ATOM      5  O   LIG d   1       3.529  -1.026  -8.281  0.00  0.00    -0.421 OA
ATOM      6  C   LIG d   1       3.814  -2.344  -8.204  0.00  0.00     0.147 A 
ATOM      7  C   LIG d   1       3.168  -3.252  -9.062  0.00  0.00     0.021 A 
ATOM      8  C   LIG d   1       3.457  -4.619  -8.979  0.00  0.00    -0.047 A 
ATOM      9  C   LIG d   1       4.361  -5.065  -8.060  0.00  0.00    -0.019 A 
ATOM     10  C   LIG d   1       5.004  -4.170  -7.202  0.00  0.00     0.130 A 
ATOM     11  C   LIG d   1       4.738  -2.814  -7.281  0.00  0.00     0.051 A 
ATOM     12  C   LIG d   1       5.431  -1.836  -6.366  0.00  0.00     0.035 C 
ATOM     13  N   LIG d   1       6.027  -2.558  -5.232  0.00  0.00    -0.259 N 
ATOM     14  C   LIG d   1       6.809  -3.707  -5.717  0.00  0.00     0.144 C 
ATOM     15  O   LIG d   1       5.897  -4.652  -6.299  0.00  0.00    -0.476 OA
ATOM     16  H   LIG d   1       2.965  -5.318  -9.638  0.00  0.00     0.063 H 
ATOM     17  H   LIG d   1       4.582  -6.120  -7.996  0.00  0.00     0.065 H 
ATOM     18  H   LIG d   1       6.215  -1.316  -6.916  0.00  0.00     0.048 H 
ATOM     19  H   LIG d   1       4.707  -1.111  -5.994  0.00  0.00     0.048 H 
ATOM     20  H   LIG d   1       7.532  -3.370  -6.460  0.00  0.00     0.087 H 
ATOM     21  H   LIG d   1       7.329  -4.175  -4.881  0.00  0.00     0.087 H 
ENDROOT
BRANCH  13  22
ATOM     22  C   LIG d   1       6.858  -1.663  -4.415  0.00  0.00     0.039 C 
ATOM     23  H   LIG d   1       7.572  -2.257  -3.846  0.00  0.00     0.051 H 
ATOM     24  C   LIG d   1       5.975  -0.899  -3.463  0.00  0.00    -0.027 A 
ATOM     25  C   LIG d   1       6.146   0.442  -3.208  0.00  0.00    -0.043 A 
ATOM     26  C   LIG d   1       4.957  -1.596  -2.825  0.00  0.00    -0.057 A 
ATOM     27  C   LIG d   1       7.224   1.262  -3.869  0.00  0.00    -0.027 C 
ATOM     28  C   LIG d   1       5.302   1.086  -2.312  0.00  0.00    -0.058 A 
ATOM     29  C   LIG d   1       8.301   0.355  -4.462  0.00  0.00    -0.047 C 
ATOM     30  H   LIG d   1       7.677   1.923  -3.130  0.00  0.00     0.031 H 
ATOM     31  H   LIG d   1       6.783   1.863  -4.663  0.00  0.00     0.031 H 
ATOM     32  C   LIG d   1       7.615  -0.704  -5.332  0.00  0.00    -0.033 C 
ATOM     33  H   LIG d   1       8.855  -0.131  -3.658  0.00  0.00     0.027 H 
ATOM     34  H   LIG d   1       8.983   0.947  -5.071  0.00  0.00     0.027 H 
ATOM     35  H   LIG d   1       8.365  -1.255  -5.900  0.00  0.00     0.028 H 
ATOM     36  H   LIG d   1       6.917  -0.221  -6.016  0.00  0.00     0.028 H 
ATOM     37  C   LIG d   1       4.293   0.393  -1.679  0.00  0.00    -0.061 A 
ATOM     38  H   LIG d   1       5.438   2.139  -2.110  0.00  0.00     0.062 H 
ATOM     39  C   LIG d   1       4.118  -0.953  -1.937  0.00  0.00    -0.061 A 
ATOM     40  H   LIG d   1       3.641   0.901  -0.984  0.00  0.00     0.062 H 
ATOM     41  H   LIG d   1       3.328  -1.501  -1.445  0.00  0.00     0.062 H 
ATOM     42  H   LIG d   1       4.820  -2.647  -3.026  0.00  0.00     0.062 H 
ENDBRANCH  13  22
BRANCH   1  43
ATOM     43  C   LIG d   1       1.492  -3.676 -10.983  0.00  0.00    -0.039 C 
ATOM     44  H   LIG d   1       2.200  -4.054 -11.722  0.00  0.00     0.028 H 
ATOM     45  H   LIG d   1       1.073  -4.512 -10.422  0.00  0.00     0.028 H 
ATOM     46  H   LIG d   1       0.690  -3.140 -11.489  0.00  0.00     0.028 H 
ENDBRANCH   1  43
BRANCH   2  47
ATOM     47  C   LIG d   1       0.974  -0.835 -11.049  0.00  0.00    -0.033 C 
ATOM     48  H   LIG d   1       1.214   0.211 -11.240  0.00  0.00     0.028 H 
ATOM     49  H   LIG d   1       1.025  -1.396 -11.982  0.00  0.00     0.028 H 
ATOM     50  H   LIG d   1      -0.032  -0.908 -10.635  0.00  0.00     0.028 H 
ENDBRANCH   2  47
TORSDOF 3
ENDMDL
MODEL 2
REMARK VINA RESULT:      -7.3      4.770      6.749
REMARK  3 active torsions:
REMARK  status: ('A' for Active; 'I' for Inactive)
REMARK    1  A    between atoms: C_1  and  C_2 
REMARK    2  A    between atoms: C_3  and  C_28 
REMARK    3  A    between atoms: N_14  and  C_17 
ROOT
ATOM      1  C   LIG d   1       5.138  -1.224  -3.567  0.00  0.00    -0.030 A 
ATOM      2  C   LIG d   1       4.315  -0.198  -3.225  0.00  0.00     0.037 A 
ATOM      3  C   LIG d   1       4.765   1.132  -3.347  0.00  0.00     0.340 A 
ATOM      4  O   LIG d   1       4.016   2.042  -3.038  0.00  0.00    -0.245 OA
ATOM      5  O   LIG d   1       5.997   1.423  -3.797  0.00  0.00    -0.421 OA
ATOM      6  C   LIG d   1       6.862   0.450  -4.154  0.00  0.00     0.147 A 
ATOM      7  C   LIG d   1       6.482  -0.900  -4.051  0.00  0.00     0.021 A 
ATOM      8  C   LIG d   1       7.380  -1.909  -4.415  0.00  0.00    -0.047 A 
ATOM      9  C   LIG d   1       8.625  -1.578  -4.863  0.00  0.00    -0.019 A 
ATOM     10  C   LIG d   1       9.011  -0.240  -4.965  0.00  0.00     0.130 A 
ATOM     11  C   LIG d   1       8.130   0.770  -4.621  0.00  0.00     0.051 A 
ATOM     12  C   LIG d   1       8.531   2.218  -4.734  0.00  0.00     0.035 C 
ATOM     13  N   LIG d   1       9.994   2.318  -4.842  0.00  0.00    -0.259 N 
ATOM     14  C   LIG d   1      10.491   1.392  -5.873  0.00  0.00     0.144 C 
ATOM     15  O   LIG d   1      10.260   0.051  -5.415  0.00  0.00    -0.476 OA
ATOM     16  H   LIG d   1       7.090  -2.947  -4.340  0.00  0.00     0.063 H 
ATOM     17  H   LIG d   1       9.318  -2.358  -5.143  0.00  0.00     0.065 H 
ATOM     18  H   LIG d   1       8.073   2.655  -5.622  0.00  0.00     0.048 H 
ATOM     19  H   LIG d   1       8.195   2.758  -3.849  0.00  0.00     0.048 H 
ATOM     20  H   LIG d   1       9.962   1.570  -6.810  0.00  0.00     0.087 H 
ATOM     21  H   LIG d   1      11.560   1.545  -6.018  0.00  0.00     0.087 H 
ENDROOT
BRANCH  13  22
ATOM     22  C   LIG d   1      10.409   3.698  -5.130  0.00  0.00     0.039 C 
ATOM     23  H   LIG d   1      11.427   3.693  -5.517  0.00  0.00     0.051 H 
ATOM     24  C   LIG d   1      10.364   4.505  -3.859  0.00  0.00    -0.027 A 
ATOM     25  C   LIG d   1       9.869   5.787  -3.811  0.00  0.00    -0.043 A 
ATOM     26  C   LIG d   1      10.851   3.913  -2.700  0.00  0.00    -0.057 A 
ATOM     27  C   LIG d   1       9.319   6.489  -5.026  0.00  0.00    -0.027 C 
ATOM     28  C   LIG d   1       9.864   6.480  -2.607  0.00  0.00    -0.058 A 
ATOM     29  C   LIG d   1       9.782   5.792  -6.304  0.00  0.00    -0.047 C 
ATOM     30  H   LIG d   1       9.667   7.522  -5.033  0.00  0.00     0.031 H 
ATOM     31  H   LIG d   1       8.230   6.478  -4.985  0.00  0.00     0.031 H 
ATOM     32  C   LIG d   1       9.473   4.296  -6.178  0.00  0.00    -0.033 C 
ATOM     33  H   LIG d   1      10.855   5.937  -6.433  0.00  0.00     0.027 H 
ATOM     34  H   LIG d   1       9.251   6.207  -7.160  0.00  0.00     0.027 H 
ATOM     35  H   LIG d   1       9.635   3.806  -7.138  0.00  0.00     0.028 H 
ATOM     36  H   LIG d   1       8.437   4.161  -5.866  0.00  0.00     0.028 H 
ATOM     37  C   LIG d   1      10.348   5.892  -1.459  0.00  0.00    -0.061 A 
ATOM     38  H   LIG d   1       9.477   7.488  -2.570  0.00  0.00     0.062 H 
ATOM     39  C   LIG d   1      10.843   4.602  -1.504  0.00  0.00    -0.061 A 
ATOM     40  H   LIG d   1      10.340   6.437  -0.526  0.00  0.00     0.062 H 
ATOM     41  H   LIG d   1      11.223   4.135  -0.607  0.00  0.00     0.062 H 
ATOM     42  H   LIG d   1      11.238   2.905  -2.735  0.00  0.00     0.062 H 
ENDBRANCH  13  22
BRANCH   1  43
ATOM     43  C   LIG d   1       4.683  -2.655  -3.446  0.00  0.00    -0.039 C 
ATOM     44  H   LIG d   1       3.758  -2.791  -4.009  0.00  0.00     0.028 H 
ATOM     45  H   LIG d   1       5.452  -3.316  -3.847  0.00  0.00     0.028 H 
ATOM     46  H   LIG d   1       4.509  -2.895  -2.398  0.00  0.00     0.028 H 
ENDBRANCH   1  43
BRANCH   2  47
ATOM     47  C   LIG d   1       2.926  -0.482  -2.716  0.00  0.00    -0.033 C 
ATOM     48  H   LIG d   1       2.931  -1.409  -2.142  0.00  0.00     0.028 H 
ATOM     49  H   LIG d   1       2.597   0.338  -2.079  0.00  0.00     0.028 H 
ATOM     50  H   LIG d   1       2.243  -0.582  -3.561  0.00  0.00     0.028 H 
ENDBRANCH   2  47
TORSDOF 3
ENDMDL
MODEL 3
REMARK VINA RESULT:      -7.0      2.598      7.079
REMARK  3 active torsions:
REMARK  status: ('A' for Active; 'I' for Inactive)
REMARK    1  A    between atoms: C_1  and  C_2 
REMARK    2  A    between atoms: C_3  and  C_28 
REMARK    3  A    between atoms: N_14  and  C_17 
ROOT
ATOM      1  C   LIG d   1       8.076  -2.752  -4.289  0.00  0.00    -0.030 A 
ATOM      2  C   LIG d   1       8.905  -2.690  -5.364  0.00  0.00     0.037 A 
ATOM      3  C   LIG d   1       8.474  -2.058  -6.547  0.00  0.00     0.340 A 
ATOM      4  O   LIG d   1       9.227  -2.009  -7.503  0.00  0.00    -0.245 OA
ATOM      5  O   LIG d   1       7.252  -1.508  -6.650  0.00  0.00    -0.421 OA
ATOM      6  C   LIG d   1       6.381  -1.534  -5.618  0.00  0.00     0.147 A 
ATOM      7  C   LIG d   1       6.744  -2.155  -4.409  0.00  0.00     0.021 A 
ATOM      8  C   LIG d   1       5.839  -2.188  -3.342  0.00  0.00    -0.047 A 
ATOM      9  C   LIG d   1       4.606  -1.624  -3.482  0.00  0.00    -0.019 A 
ATOM     10  C   LIG d   1       4.237  -1.009  -4.681  0.00  0.00     0.130 A 
ATOM     11  C   LIG d   1       5.125  -0.956  -5.741  0.00  0.00     0.051 A 
ATOM     12  C   LIG d   1       4.742  -0.289  -7.037  0.00  0.00     0.035 C 
ATOM     13  N   LIG d   1       3.283  -0.123  -7.095  0.00  0.00    -0.259 N 
ATOM     14  C   LIG d   1       2.791   0.483  -5.846  0.00  0.00     0.144 C 
ATOM     15  O   LIG d   1       2.999  -0.459  -4.783  0.00  0.00    -0.476 OA
ATOM     16  H   LIG d   1       6.116  -2.662  -2.412  0.00  0.00     0.063 H 
ATOM     17  H   LIG d   1       3.908  -1.651  -2.658  0.00  0.00     0.065 H 
ATOM     18  H   LIG d   1       5.220   0.689  -7.097  0.00  0.00     0.048 H 
ATOM     19  H   LIG d   1       5.071  -0.905  -7.873  0.00  0.00     0.048 H 
ATOM     20  H   LIG d   1       3.337   1.406  -5.648  0.00  0.00     0.087 H 
ATOM     21  H   LIG d   1       1.726   0.696  -5.937  0.00  0.00     0.087 H 
ENDROOT
BRANCH  13  22
ATOM     22  C   LIG d   1       2.889   0.680  -8.260  0.00  0.00     0.039 C 
ATOM     23  H   LIG d   1       1.959   1.203  -8.038  0.00  0.00     0.051 H 
ATOM     24  C   LIG d   1       2.678  -0.231  -9.441  0.00  0.00    -0.027 A 
ATOM     25  C   LIG d   1       3.119   0.080 -10.707  0.00  0.00    -0.043 A 
ATOM     26  C   LIG d   1       2.004  -1.426  -9.223  0.00  0.00    -0.057 A 
ATOM     27  C   LIG d   1       3.863   1.354 -11.015  0.00  0.00    -0.027 C 
ATOM     28  C   LIG d   1       2.884  -0.801 -11.754  0.00  0.00    -0.058 A 
ATOM     29  C   LIG d   1       3.661   2.377  -9.898  0.00  0.00    -0.047 C 
ATOM     30  H   LIG d   1       3.493   1.768 -11.953  0.00  0.00     0.031 H 
ATOM     31  H   LIG d   1       4.925   1.136 -11.114  0.00  0.00     0.031 H 
ATOM     32  C   LIG d   1       3.984   1.701  -8.561  0.00  0.00    -0.033 C 
ATOM     33  H   LIG d   1       2.626   2.720  -9.897  0.00  0.00     0.027 H 
ATOM     34  H   LIG d   1       4.328   3.224 -10.053  0.00  0.00     0.027 H 
ATOM     35  H   LIG d   1       4.014   2.450  -7.769  0.00  0.00     0.028 H 
ATOM     36  H   LIG d   1       4.948   1.198  -8.627  0.00  0.00     0.028 H 
ATOM     37  C   LIG d   1       2.215  -1.986 -11.537  0.00  0.00    -0.061 A 
ATOM     38  H   LIG d   1       3.229  -0.555 -12.748  0.00  0.00     0.062 H 
ATOM     39  C   LIG d   1       1.773  -2.301 -10.266  0.00  0.00    -0.061 A 
ATOM     40  H   LIG d   1       2.037  -2.665 -12.357  0.00  0.00     0.062 H 
ATOM     41  H   LIG d   1       1.249  -3.228 -10.089  0.00  0.00     0.062 H 
ATOM     42  H   LIG d   1       1.658  -1.673  -8.231  0.00  0.00     0.062 H 
ENDBRANCH  13  22
BRANCH   1  43
ATOM     43  C   LIG d   1       8.511  -3.421  -3.012  0.00  0.00    -0.039 C 
ATOM     44  H   LIG d   1       8.070  -2.900  -2.160  0.00  0.00     0.028 H 
ATOM     45  H   LIG d   1       8.179  -4.459  -3.013  0.00  0.00     0.028 H 
ATOM     46  H   LIG d   1       9.597  -3.387  -2.935  0.00  0.00     0.028 H 
ENDBRANCH   1  43
BRANCH   2  47
ATOM     47  C   LIG d   1      10.283  -3.295  -5.290  0.00  0.00    -0.033 C 
ATOM     48  H   LIG d   1      10.979  -2.565  -4.877  0.00  0.00     0.028 H 
ATOM     49  H   LIG d   1      10.259  -4.176  -4.649  0.00  0.00     0.028 H 
ATOM     50  H   LIG d   1      10.608  -3.582  -6.290  0.00  0.00     0.028 H 
ENDBRANCH   2  47
TORSDOF 3
ENDMDL
MODEL 4
REMARK VINA RESULT:      -6.9      3.192      5.661
REMARK  3 active torsions:
REMARK  status: ('A' for Active; 'I' for Inactive)
REMARK    1  A    between atoms: C_1  and  C_2 
REMARK    2  A    between atoms: C_3  and  C_28 
REMARK    3  A    between atoms: N_14  and  C_17 
ROOT
ATOM      1  C   LIG d   1       7.158  -8.006  -5.175  0.00  0.00    -0.030 A 
ATOM      2  C   LIG d   1       5.925  -8.247  -5.694  0.00  0.00     0.037 A 
ATOM      3  C   LIG d   1       5.085  -7.169  -6.037  0.00  0.00     0.340 A 
ATOM      4  O   LIG d   1       3.983  -7.400  -6.502  0.00  0.00    -0.245 OA
ATOM      5  O   LIG d   1       5.468  -5.893  -5.866  0.00  0.00    -0.421 OA
ATOM      6  C   LIG d   1       6.680  -5.585  -5.356  0.00  0.00     0.147 A 
ATOM      7  C   LIG d   1       7.567  -6.612  -4.986  0.00  0.00     0.021 A 
ATOM      8  C   LIG d   1       8.820  -6.294  -4.452  0.00  0.00    -0.047 A 
ATOM      9  C   LIG d   1       9.174  -4.988  -4.287  0.00  0.00    -0.019 A 
ATOM     10  C   LIG d   1       8.298  -3.963  -4.649  0.00  0.00     0.130 A 
ATOM     11  C   LIG d   1       7.060  -4.260  -5.191  0.00  0.00     0.051 A 
ATOM     12  C   LIG d   1       6.109  -3.163  -5.593  0.00  0.00     0.035 C 
ATOM     13  N   LIG d   1       6.521  -1.898  -4.968  0.00  0.00    -0.259 N 
ATOM     14  C   LIG d   1       7.958  -1.667  -5.190  0.00  0.00     0.144 C 
ATOM     15  O   LIG d   1       8.686  -2.673  -4.469  0.00  0.00    -0.476 OA
ATOM     16  H   LIG d   1       9.504  -7.081  -4.169  0.00  0.00     0.063 H 
ATOM     17  H   LIG d   1      10.142  -4.744  -3.874  0.00  0.00     0.065 H 
ATOM     18  H   LIG d   1       6.120  -3.051  -6.678  0.00  0.00     0.048 H 
ATOM     19  H   LIG d   1       5.101  -3.418  -5.265  0.00  0.00     0.048 H 
ATOM     20  H   LIG d   1       8.178  -1.730  -6.256  0.00  0.00     0.087 H 
ATOM     21  H   LIG d   1       8.233  -0.682  -4.813  0.00  0.00     0.087 H 
ENDROOT
BRANCH  13  22
ATOM     22  C   LIG d   1       5.723  -0.774  -5.476  0.00  0.00     0.039 C 
ATOM     23  H   LIG d   1       6.385  -0.043  -5.939  0.00  0.00     0.051 H 
ATOM     24  C   LIG d   1       4.991  -0.126  -4.329  0.00  0.00    -0.027 A 
ATOM     25  C   LIG d   1       3.680   0.281  -4.421  0.00  0.00    -0.043 A 
ATOM     26  C   LIG d   1       5.688   0.061  -3.142  0.00  0.00    -0.057 A 
ATOM     27  C   LIG d   1       2.862   0.103  -5.674  0.00  0.00    -0.027 C 
ATOM     28  C   LIG d   1       3.067   0.879  -3.328  0.00  0.00    -0.058 A 
ATOM     29  C   LIG d   1       3.770  -0.153  -6.876  0.00  0.00    -0.047 C 
ATOM     30  H   LIG d   1       2.276   1.004  -5.851  0.00  0.00     0.031 H 
ATOM     31  H   LIG d   1       2.188  -0.743  -5.546  0.00  0.00     0.031 H 
ATOM     32  C   LIG d   1       4.734  -1.290  -6.519  0.00  0.00    -0.033 C 
ATOM     33  H   LIG d   1       4.335   0.750  -7.108  0.00  0.00     0.027 H 
ATOM     34  H   LIG d   1       3.166  -0.439  -7.736  0.00  0.00     0.027 H 
ATOM     35  H   LIG d   1       5.274  -1.607  -7.412  0.00  0.00     0.028 H 
ATOM     36  H   LIG d   1       4.174  -2.131  -6.111  0.00  0.00     0.028 H 
ATOM     37  C   LIG d   1       3.759   1.065  -2.151  0.00  0.00    -0.061 A 
ATOM     38  H   LIG d   1       2.038   1.201  -3.400  0.00  0.00     0.062 H 
ATOM     39  C   LIG d   1       5.075   0.654  -2.056  0.00  0.00    -0.061 A 
ATOM     40  H   LIG d   1       3.275   1.531  -1.305  0.00  0.00     0.062 H 
ATOM     41  H   LIG d   1       5.623   0.796  -1.136  0.00  0.00     0.062 H 
ATOM     42  H   LIG d   1       6.716  -0.260  -3.068  0.00  0.00     0.062 H 
ENDBRANCH  13  22
BRANCH   1  43
ATOM     43  C   LIG d   1       8.076  -9.139  -4.800  0.00  0.00    -0.039 C 
ATOM     44  H   LIG d   1       7.747  -9.576  -3.856  0.00  0.00     0.028 H 
ATOM     45  H   LIG d   1       8.052  -9.901  -5.580  0.00  0.00     0.028 H 
ATOM     46  H   LIG d   1       9.093  -8.763  -4.690  0.00  0.00     0.028 H 
ENDBRANCH   1  43
BRANCH   2  47
ATOM     47  C   LIG d   1       5.458  -9.665  -5.902  0.00  0.00    -0.033 C 
ATOM     48  H   LIG d   1       4.565  -9.845  -5.304  0.00  0.00     0.028 H 
ATOM     49  H   LIG d   1       5.227  -9.820  -6.956  0.00  0.00     0.028 H 
ATOM     50  H   LIG d   1       6.246 -10.355  -5.597  0.00  0.00     0.028 H 
ENDBRANCH   2  47
TORSDOF 3
ENDMDL
MODEL 5
REMARK VINA RESULT:      -6.9      3.391      7.172
REMARK  3 active torsions:
REMARK  status: ('A' for Active; 'I' for Inactive)
REMARK    1  A    between atoms: C_1  and  C_2 
REMARK    2  A    between atoms: C_3  and  C_28 
REMARK    3  A    between atoms: N_14  and  C_17 
ROOT
ATOM      1  C   LIG d   1      11.572   1.680  -4.997  0.00  0.00    -0.030 A 
ATOM      2  C   LIG d   1      11.039   2.650  -4.209  0.00  0.00     0.037 A 
ATOM      3  C   LIG d   1       9.735   2.501  -3.696  0.00  0.00     0.340 A 
ATOM      4  O   LIG d   1       9.270   3.378  -2.991  0.00  0.00    -0.245 OA
ATOM      5  O   LIG d   1       8.991   1.415  -3.966  0.00  0.00    -0.421 OA
ATOM      6  C   LIG d   1       9.461   0.414  -4.740  0.00  0.00     0.147 A 
ATOM      7  C   LIG d   1      10.753   0.501  -5.291  0.00  0.00     0.021 A 
ATOM      8  C   LIG d   1      11.239  -0.532  -6.099  0.00  0.00    -0.047 A 
ATOM      9  C   LIG d   1      10.455  -1.617  -6.355  0.00  0.00    -0.019 A 
ATOM     10  C   LIG d   1       9.170  -1.710  -5.815  0.00  0.00     0.130 A 
ATOM     11  C   LIG d   1       8.679  -0.702  -5.003  0.00  0.00     0.051 A 
ATOM     12  C   LIG d   1       7.298  -0.793  -4.408  0.00  0.00     0.035 C 
ATOM     13  N   LIG d   1       6.517  -1.812  -5.125  0.00  0.00    -0.259 N 
ATOM     14  C   LIG d   1       7.292  -3.058  -5.238  0.00  0.00     0.144 C 
ATOM     15  O   LIG d   1       8.417  -2.806  -6.094  0.00  0.00    -0.476 OA
ATOM     16  H   LIG d   1      12.231  -0.470  -6.520  0.00  0.00     0.063 H 
ATOM     17  H   LIG d   1      10.830  -2.414  -6.980  0.00  0.00     0.065 H 
ATOM     18  H   LIG d   1       7.372  -1.068  -3.356  0.00  0.00     0.048 H 
ATOM     19  H   LIG d   1       6.800   0.173  -4.496  0.00  0.00     0.048 H 
ATOM     20  H   LIG d   1       7.629  -3.370  -4.249  0.00  0.00     0.087 H 
ATOM     21  H   LIG d   1       6.671  -3.837  -5.679  0.00  0.00     0.087 H 
ENDROOT
BRANCH  13  22
ATOM     22  C   LIG d   1       5.228  -2.051  -4.462  0.00  0.00     0.039 C 
ATOM     23  H   LIG d   1       4.903  -3.070  -4.668  0.00  0.00     0.051 H 
ATOM     24  C   LIG d   1       4.206  -1.084  -5.000  0.00  0.00    -0.027 A 
ATOM     25  C   LIG d   1       3.298  -0.439  -4.193  0.00  0.00    -0.043 A 
ATOM     26  C   LIG d   1       4.194  -0.852  -6.370  0.00  0.00    -0.057 A 
ATOM     27  C   LIG d   1       3.258  -0.637  -2.699  0.00  0.00    -0.027 C 
ATOM     28  C   LIG d   1       2.376   0.435  -4.754  0.00  0.00    -0.058 A 
ATOM     29  C   LIG d   1       4.008  -1.908  -2.306  0.00  0.00    -0.047 C 
ATOM     30  H   LIG d   1       2.220  -0.717  -2.375  0.00  0.00     0.031 H 
ATOM     31  H   LIG d   1       3.721   0.219  -2.210  0.00  0.00     0.031 H 
ATOM     32  C   LIG d   1       5.396  -1.870  -2.955  0.00  0.00    -0.033 C 
ATOM     33  H   LIG d   1       3.460  -2.782  -2.659  0.00  0.00     0.027 H 
ATOM     34  H   LIG d   1       4.109  -1.953  -1.222  0.00  0.00     0.027 H 
ATOM     35  H   LIG d   1       6.010  -2.677  -2.555  0.00  0.00     0.028 H 
ATOM     36  H   LIG d   1       5.870  -0.910  -2.751  0.00  0.00     0.028 H 
ATOM     37  C   LIG d   1       2.365   0.664  -6.113  0.00  0.00    -0.061 A 
ATOM     38  H   LIG d   1       1.662   0.940  -4.120  0.00  0.00     0.062 H 
ATOM     39  C   LIG d   1       3.278   0.019  -6.925  0.00  0.00    -0.061 A 
ATOM     40  H   LIG d   1       1.645   1.345  -6.542  0.00  0.00     0.062 H 
ATOM     41  H   LIG d   1       3.275   0.195  -7.991  0.00  0.00     0.062 H 
ATOM     42  H   LIG d   1       4.907  -1.356  -7.005  0.00  0.00     0.062 H 
ENDBRANCH  13  22
BRANCH   1  43
ATOM     43  C   LIG d   1      12.964   1.813  -5.558  0.00  0.00    -0.039 C 
ATOM     44  H   LIG d   1      13.386   2.773  -5.257  0.00  0.00     0.028 H 
ATOM     45  H   LIG d   1      13.589   1.007  -5.175  0.00  0.00     0.028 H 
ATOM     46  H   LIG d   1      12.924   1.759  -6.645  0.00  0.00     0.028 H 
ENDBRANCH   1  43
BRANCH   2  47
ATOM     47  C   LIG d   1      11.842   3.883  -3.884  0.00  0.00    -0.033 C 
ATOM     48  H   LIG d   1      11.175   4.666  -3.521  0.00  0.00     0.028 H 
ATOM     49  H   LIG d   1      12.577   3.646  -3.115  0.00  0.00     0.028 H 
ATOM     50  H   LIG d   1      12.355   4.230  -4.782  0.00  0.00     0.028 H 
ENDBRANCH   2  47
TORSDOF 3
ENDMDL
MODEL 6
REMARK VINA RESULT:      -6.8      4.235      7.699
REMARK  3 active torsions:
REMARK  status: ('A' for Active; 'I' for Inactive)
REMARK    1  A    between atoms: C_1  and  C_2 
REMARK    2  A    between atoms: C_3  and  C_28 
REMARK    3  A    between atoms: N_14  and  C_17 
ROOT
ATOM      1  C   LIG d   1      10.444   5.022  -5.695  0.00  0.00    -0.030 A 
ATOM      2  C   LIG d   1      10.420   5.111  -4.340  0.00  0.00     0.037 A 
ATOM      3  C   LIG d   1       9.725   4.144  -3.585  0.00  0.00     0.340 A 
ATOM      4  O   LIG d   1       9.713   4.236  -2.370  0.00  0.00    -0.245 OA
ATOM      5  O   LIG d   1       9.076   3.124  -4.170  0.00  0.00    -0.421 OA
ATOM      6  C   LIG d   1       9.062   2.977  -5.512  0.00  0.00     0.147 A 
ATOM      7  C   LIG d   1       9.729   3.910  -6.327  0.00  0.00     0.021 A 
ATOM      8  C   LIG d   1       9.710   3.762  -7.718  0.00  0.00    -0.047 A 
ATOM      9  C   LIG d   1       9.037   2.717  -8.279  0.00  0.00    -0.019 A 
ATOM     10  C   LIG d   1       8.369   1.789  -7.477  0.00  0.00     0.130 A 
ATOM     11  C   LIG d   1       8.390   1.914  -6.098  0.00  0.00     0.051 A 
ATOM     12  C   LIG d   1       7.680   0.915  -5.222  0.00  0.00     0.035 C 
ATOM     13  N   LIG d   1       6.721   0.144  -6.027  0.00  0.00    -0.259 N 
ATOM     14  C   LIG d   1       7.375  -0.363  -7.245  0.00  0.00     0.144 C 
ATOM     15  O   LIG d   1       7.709   0.762  -8.072  0.00  0.00    -0.476 OA
ATOM     16  H   LIG d   1      10.224   4.475  -8.346  0.00  0.00     0.063 H 
ATOM     17  H   LIG d   1       9.022   2.605  -9.352  0.00  0.00     0.065 H 
ATOM     18  H   LIG d   1       8.409   0.236  -4.779  0.00  0.00     0.048 H 
ATOM     19  H   LIG d   1       7.147   1.441  -4.429  0.00  0.00     0.048 H 
ATOM     20  H   LIG d   1       8.274  -0.916  -6.974  0.00  0.00     0.087 H 
ATOM     21  H   LIG d   1       6.688  -1.017  -7.784  0.00  0.00     0.087 H 
ENDROOT
BRANCH  13  22
ATOM     22  C   LIG d   1       6.139  -0.955  -5.245  0.00  0.00     0.039 C 
ATOM     23  H   LIG d   1       6.177  -1.872  -5.831  0.00  0.00     0.051 H 
ATOM     24  C   LIG d   1       4.703  -0.629  -4.924  0.00  0.00    -0.027 A 
ATOM     25  C   LIG d   1       4.147  -0.866  -3.688  0.00  0.00    -0.043 A 
ATOM     26  C   LIG d   1       3.927  -0.072  -5.932  0.00  0.00    -0.057 A 
ATOM     27  C   LIG d   1       4.932  -1.461  -2.547  0.00  0.00    -0.027 C 
ATOM     28  C   LIG d   1       2.814  -0.550  -3.461  0.00  0.00    -0.058 A 
ATOM     29  C   LIG d   1       6.201  -2.136  -3.063  0.00  0.00    -0.047 C 
ATOM     30  H   LIG d   1       4.316  -2.199  -2.034  0.00  0.00     0.031 H 
ATOM     31  H   LIG d   1       5.203  -0.672  -1.847  0.00  0.00     0.031 H 
ATOM     32  C   LIG d   1       6.945  -1.142  -3.962  0.00  0.00    -0.033 C 
ATOM     33  H   LIG d   1       5.938  -3.025  -3.637  0.00  0.00     0.027 H 
ATOM     34  H   LIG d   1       6.834  -2.417  -2.222  0.00  0.00     0.027 H 
ATOM     35  H   LIG d   1       7.934  -1.534  -4.203  0.00  0.00     0.028 H 
ATOM     36  H   LIG d   1       7.045  -0.186  -3.447  0.00  0.00     0.028 H 
ATOM     37  C   LIG d   1       2.044   0.002  -4.461  0.00  0.00    -0.061 A 
ATOM     38  H   LIG d   1       2.377  -0.738  -2.491  0.00  0.00     0.062 H 
ATOM     39  C   LIG d   1       2.603   0.243  -5.702  0.00  0.00    -0.061 A 
ATOM     40  H   LIG d   1       1.008   0.245  -4.276  0.00  0.00     0.062 H 
ATOM     41  H   LIG d   1       2.004   0.677  -6.490  0.00  0.00     0.062 H 
ATOM     42  H   LIG d   1       4.362   0.116  -6.902  0.00  0.00     0.062 H 
ENDBRANCH  13  22
BRANCH   1  43
ATOM     43  C   LIG d   1      11.178   6.040  -6.526  0.00  0.00    -0.039 C 
ATOM     44  H   LIG d   1      11.256   5.683  -7.554  0.00  0.00     0.028 H 
ATOM     45  H   LIG d   1      10.633   6.984  -6.511  0.00  0.00     0.028 H 
ATOM     46  H   LIG d   1      12.177   6.191  -6.118  0.00  0.00     0.028 H 
ENDBRANCH   1  43
BRANCH   2  47
ATOM     47  C   LIG d   1      11.136   6.240  -3.645  0.00  0.00    -0.033 C 
ATOM     48  H   LIG d   1      12.064   5.870  -3.209  0.00  0.00     0.028 H 
ATOM     49  H   LIG d   1      11.361   7.026  -4.366  0.00  0.00     0.028 H 
ATOM     50  H   LIG d   1      10.499   6.643  -2.856  0.00  0.00     0.028 H 
ENDBRANCH   2  47
TORSDOF 3
ENDMDL
MODEL 7
REMARK VINA RESULT:      -6.2      3.860      8.223
REMARK  3 active torsions:
REMARK  status: ('A' for Active; 'I' for Inactive)
REMARK    1  A    between atoms: C_1  and  C_2 
REMARK    2  A    between atoms: C_3  and  C_28 
REMARK    3  A    between atoms: N_14  and  C_17 
ROOT
ATOM      1  C   LIG d   1      13.608  -0.639  -4.637  0.00  0.00    -0.030 A 
ATOM      2  C   LIG d   1      13.532  -1.894  -4.122  0.00  0.00     0.037 A 
ATOM      3  C   LIG d   1      12.281  -2.537  -4.020  0.00  0.00     0.340 A 
ATOM      4  O   LIG d   1      12.228  -3.662  -3.557  0.00  0.00    -0.245 OA
ATOM      5  O   LIG d   1      11.147  -1.941  -4.422  0.00  0.00    -0.421 OA
ATOM      6  C   LIG d   1      11.153  -0.696  -4.944  0.00  0.00     0.147 A 
ATOM      7  C   LIG d   1      12.366   0.007  -5.068  0.00  0.00     0.021 A 
ATOM      8  C   LIG d   1      12.373   1.300  -5.603  0.00  0.00    -0.047 A 
ATOM      9  C   LIG d   1      11.202   1.876  -5.997  0.00  0.00    -0.019 A 
ATOM     10  C   LIG d   1       9.993   1.186  -5.874  0.00  0.00     0.130 A 
ATOM     11  C   LIG d   1       9.971  -0.098  -5.359  0.00  0.00     0.051 A 
ATOM     12  C   LIG d   1       8.675  -0.855  -5.228  0.00  0.00     0.035 C 
ATOM     13  N   LIG d   1       7.544   0.079  -5.327  0.00  0.00    -0.259 N 
ATOM     14  C   LIG d   1       7.708   0.950  -6.503  0.00  0.00     0.144 C 
ATOM     15  O   LIG d   1       8.847   1.794  -6.276  0.00  0.00    -0.476 OA
ATOM     16  H   LIG d   1      13.303   1.840  -5.702  0.00  0.00     0.063 H 
ATOM     17  H   LIG d   1      11.209   2.874  -6.408  0.00  0.00     0.065 H 
ATOM     18  H   LIG d   1       8.603  -1.595  -6.026  0.00  0.00     0.048 H 
ATOM     19  H   LIG d   1       8.645  -1.360  -4.262  0.00  0.00     0.048 H 
ATOM     20  H   LIG d   1       7.859   0.339  -7.392  0.00  0.00     0.087 H 
ATOM     21  H   LIG d   1       6.819   1.569  -6.626  0.00  0.00     0.087 H 
ENDROOT
BRANCH  13  22
ATOM     22  C   LIG d   1       6.266  -0.643  -5.380  0.00  0.00     0.039 C 
ATOM     23  H   LIG d   1       5.629  -0.190  -6.139  0.00  0.00     0.051 H 
ATOM     24  C   LIG d   1       5.587  -0.549  -4.039  0.00  0.00    -0.027 A 
ATOM     25  C   LIG d   1       4.954  -1.620  -3.451  0.00  0.00    -0.043 A 
ATOM     26  C   LIG d   1       5.608   0.678  -3.388  0.00  0.00    -0.057 A 
ATOM     27  C   LIG d   1       4.898  -2.981  -4.095  0.00  0.00    -0.027 C 
ATOM     28  C   LIG d   1       4.340  -1.464  -2.215  0.00  0.00    -0.058 A 
ATOM     29  C   LIG d   1       5.219  -2.884  -5.585  0.00  0.00    -0.047 C 
ATOM     30  H   LIG d   1       3.899  -3.398  -3.969  0.00  0.00     0.031 H 
ATOM     31  H   LIG d   1       5.623  -3.637  -3.614  0.00  0.00     0.031 H 
ATOM     32  C   LIG d   1       6.528  -2.102  -5.747  0.00  0.00    -0.033 C 
ATOM     33  H   LIG d   1       4.413  -2.362  -6.101  0.00  0.00     0.027 H 
ATOM     34  H   LIG d   1       5.334  -3.884  -6.001  0.00  0.00     0.027 H 
ATOM     35  H   LIG d   1       6.867  -2.166  -6.781  0.00  0.00     0.028 H 
ATOM     36  H   LIG d   1       7.287  -2.518  -5.085  0.00  0.00     0.028 H 
ATOM     37  C   LIG d   1       4.361  -0.246  -1.571  0.00  0.00    -0.061 A 
ATOM     38  H   LIG d   1       3.841  -2.304  -1.754  0.00  0.00     0.062 H 
ATOM     39  C   LIG d   1       4.999   0.830  -2.159  0.00  0.00    -0.061 A 
ATOM     40  H   LIG d   1       3.881  -0.132  -0.610  0.00  0.00     0.062 H 
ATOM     41  H   LIG d   1       5.019   1.787  -1.659  0.00  0.00     0.062 H 
ATOM     42  H   LIG d   1       6.105   1.519  -3.847  0.00  0.00     0.062 H 
ENDBRANCH  13  22
BRANCH   1  43
ATOM     43  C   LIG d   1      14.931   0.071  -4.757  0.00  0.00    -0.039 C 
ATOM     44  H   LIG d   1      15.730  -0.591  -4.419  0.00  0.00     0.028 H 
ATOM     45  H   LIG d   1      15.103   0.346  -5.798  0.00  0.00     0.028 H 
ATOM     46  H   LIG d   1      14.919   0.969  -4.140  0.00  0.00     0.028 H 
ENDBRANCH   1  43
BRANCH   2  47
ATOM     47  C   LIG d   1      14.782  -2.597  -3.659  0.00  0.00    -0.033 C 
ATOM     48  H   LIG d   1      15.471  -2.702  -4.497  0.00  0.00     0.028 H 
ATOM     49  H   LIG d   1      15.256  -2.014  -2.870  0.00  0.00     0.028 H 
ATOM     50  H   LIG d   1      14.523  -3.585  -3.276  0.00  0.00     0.028 H 
ENDBRANCH   2  47
TORSDOF 3
ENDMDL
MODEL 8
REMARK VINA RESULT:      -6.2      2.902      6.956
REMARK  3 active torsions:
REMARK  status: ('A' for Active; 'I' for Inactive)
REMARK    1  A    between atoms: C_1  and  C_2 
REMARK    2  A    between atoms: C_3  and  C_28 
REMARK    3  A    between atoms: N_14  and  C_17 
ROOT
ATOM      1  C   LIG d   1       4.221  -0.909  -3.178  0.00  0.00    -0.030 A 
ATOM      2  C   LIG d   1       3.617   0.275  -3.460  0.00  0.00     0.037 A 
ATOM      3  C   LIG d   1       3.268   0.586  -4.790  0.00  0.00     0.340 A 
ATOM      4  O   LIG d   1       2.727   1.651  -5.028  0.00  0.00    -0.245 OA
ATOM      5  O   LIG d   1       3.517  -0.262  -5.802  0.00  0.00    -0.421 OA
ATOM      6  C   LIG d   1       4.112  -1.455  -5.589  0.00  0.00     0.147 A 
ATOM      7  C   LIG d   1       4.494  -1.826  -4.287  0.00  0.00     0.021 A 
ATOM      8  C   LIG d   1       5.117  -3.060  -4.067  0.00  0.00    -0.047 A 
ATOM      9  C   LIG d   1       5.357  -3.894  -5.118  0.00  0.00    -0.019 A 
ATOM     10  C   LIG d   1       4.985  -3.531  -6.414  0.00  0.00     0.130 A 
ATOM     11  C   LIG d   1       4.356  -2.320  -6.647  0.00  0.00     0.051 A 
ATOM     12  C   LIG d   1       3.942  -1.920  -8.039  0.00  0.00     0.035 C 
ATOM     13  N   LIG d   1       4.644  -2.757  -9.024  0.00  0.00    -0.259 N 
ATOM     14  C   LIG d   1       4.521  -4.178  -8.659  0.00  0.00     0.144 C 
ATOM     15  O   LIG d   1       5.243  -4.388  -7.436  0.00  0.00    -0.476 OA
ATOM     16  H   LIG d   1       5.408  -3.349  -3.068  0.00  0.00     0.063 H 
ATOM     17  H   LIG d   1       5.840  -4.845  -4.946  0.00  0.00     0.065 H 
ATOM     18  H   LIG d   1       2.866  -2.054  -8.152  0.00  0.00     0.048 H 
ATOM     19  H   LIG d   1       4.196  -0.873  -8.207  0.00  0.00     0.048 H 
ATOM     20  H   LIG d   1       3.469  -4.432  -8.528  0.00  0.00     0.087 H 
ATOM     21  H   LIG d   1       4.955  -4.796  -9.445  0.00  0.00     0.087 H 
ENDROOT
BRANCH  13  22
ATOM     22  C   LIG d   1       4.135  -2.515 -10.380  0.00  0.00     0.039 C 
ATOM     23  H   LIG d   1       3.660  -3.422 -10.752  0.00  0.00     0.051 H 
ATOM     24  C   LIG d   1       5.284  -2.149 -11.283  0.00  0.00    -0.027 A 
ATOM     25  C   LIG d   1       5.203  -1.141 -12.216  0.00  0.00    -0.043 A 
ATOM     26  C   LIG d   1       6.462  -2.874 -11.155  0.00  0.00    -0.057 A 
ATOM     27  C   LIG d   1       3.961  -0.310 -12.404  0.00  0.00    -0.027 C 
ATOM     28  C   LIG d   1       6.298  -0.860 -13.023  0.00  0.00    -0.058 A 
ATOM     29  C   LIG d   1       2.751  -1.003 -11.779  0.00  0.00    -0.047 C 
ATOM     30  H   LIG d   1       3.782  -0.167 -13.470  0.00  0.00     0.031 H 
ATOM     31  H   LIG d   1       4.103   0.662 -11.932  0.00  0.00     0.031 H 
ATOM     32  C   LIG d   1       3.107  -1.387 -10.338  0.00  0.00    -0.033 C 
ATOM     33  H   LIG d   1       2.506  -1.899 -12.349  0.00  0.00     0.027 H 
ATOM     34  H   LIG d   1       1.900  -0.323 -11.779  0.00  0.00     0.027 H 
ATOM     35  H   LIG d   1       2.211  -1.726  -9.817  0.00  0.00     0.028 H 
ATOM     36  H   LIG d   1       3.528  -0.524  -9.822  0.00  0.00     0.028 H 
ATOM     37  C   LIG d   1       7.466  -1.580 -12.896  0.00  0.00    -0.061 A 
ATOM     38  H   LIG d   1       6.233  -0.070 -13.757  0.00  0.00     0.062 H 
ATOM     39  C   LIG d   1       7.550  -2.591 -11.957  0.00  0.00    -0.061 A 
ATOM     40  H   LIG d   1       8.313  -1.355 -13.527  0.00  0.00     0.062 H 
ATOM     41  H   LIG d   1       8.463  -3.159 -11.852  0.00  0.00     0.062 H 
ATOM     42  H   LIG d   1       6.529  -3.664 -10.422  0.00  0.00     0.062 H 
ENDBRANCH  13  22
BRANCH   1  43
ATOM     43  C   LIG d   1       4.604  -1.267  -1.766  0.00  0.00    -0.039 C 
ATOM     44  H   LIG d   1       5.489  -1.906  -1.781  0.00  0.00     0.028 H 
ATOM     45  H   LIG d   1       4.824  -0.357  -1.207  0.00  0.00     0.028 H 
ATOM     46  H   LIG d   1       3.781  -1.797  -1.289  0.00  0.00     0.028 H 
ENDBRANCH   1  43
BRANCH   2  47
ATOM     47  C   LIG d   1       3.321   1.254  -2.353  0.00  0.00    -0.033 C 
ATOM     48  H   LIG d   1       4.232   1.448  -1.786  0.00  0.00     0.028 H 
ATOM     49  H   LIG d   1       2.955   2.187  -2.781  0.00  0.00     0.028 H 
ATOM     50  H   LIG d   1       2.563   0.835  -1.691  0.00  0.00     0.028 H 
ENDBRANCH   2  47
TORSDOF 3
ENDMDL
MODEL 9
REMARK VINA RESULT:      -5.9      5.496      8.393
REMARK  3 active torsions:
REMARK  status: ('A' for Active; 'I' for Inactive)
REMARK    1  A    between atoms: C_1  and  C_2 
REMARK    2  A    between atoms: C_3  and  C_28 
REMARK    3  A    between atoms: N_14  and  C_17 
ROOT
ATOM      1  C   LIG d   1       7.678  -0.622  -4.485  0.00  0.00    -0.030 A 
ATOM      2  C   LIG d   1       6.613  -0.084  -3.834  0.00  0.00     0.037 A 
ATOM      3  C   LIG d   1       6.659   1.256  -3.402  0.00  0.00     0.340 A 
ATOM      4  O   LIG d   1       5.697   1.726  -2.821  0.00  0.00    -0.245 OA
ATOM      5  O   LIG d   1       7.736   2.031  -3.615  0.00  0.00    -0.421 OA
ATOM      6  C   LIG d   1       8.826   1.558  -4.257  0.00  0.00     0.147 A 
ATOM      7  C   LIG d   1       8.851   0.226  -4.709  0.00  0.00     0.021 A 
ATOM      8  C   LIG d   1       9.982  -0.267  -5.369  0.00  0.00    -0.047 A 
ATOM      9  C   LIG d   1      11.059   0.546  -5.564  0.00  0.00    -0.019 A 
ATOM     10  C   LIG d   1      11.044   1.868  -5.115  0.00  0.00     0.130 A 
ATOM     11  C   LIG d   1       9.927   2.374  -4.473  0.00  0.00     0.051 A 
ATOM     12  C   LIG d   1       9.895   3.802  -3.990  0.00  0.00     0.035 C 
ATOM     13  N   LIG d   1      11.262   4.340  -3.946  0.00  0.00    -0.259 N 
ATOM     14  C   LIG d   1      11.955   4.067  -5.216  0.00  0.00     0.144 C 
ATOM     15  O   LIG d   1      12.136   2.647  -5.327  0.00  0.00    -0.476 OA
ATOM     16  H   LIG d   1      10.003  -1.288  -5.720  0.00  0.00     0.063 H 
ATOM     17  H   LIG d   1      11.932   0.164  -6.072  0.00  0.00     0.065 H 
ATOM     18  H   LIG d   1       9.291   4.402  -4.671  0.00  0.00     0.048 H 
ATOM     19  H   LIG d   1       9.458   3.838  -2.992  0.00  0.00     0.048 H 
ATOM     20  H   LIG d   1      11.357   4.440  -6.047  0.00  0.00     0.087 H 
ATOM     21  H   LIG d   1      12.929   4.556  -5.214  0.00  0.00     0.087 H 
ENDROOT
BRANCH  13  22
ATOM     22  C   LIG d   1      11.253   5.779  -3.650  0.00  0.00     0.039 C 
ATOM     23  H   LIG d   1      12.164   6.231  -4.041  0.00  0.00     0.051 H 
ATOM     24  C   LIG d   1      11.200   5.978  -2.158  0.00  0.00    -0.027 A 
ATOM     25  C   LIG d   1      10.402   6.928  -1.564  0.00  0.00    -0.043 A 
ATOM     26  C   LIG d   1      11.999   5.161  -1.368  0.00  0.00    -0.057 A 
ATOM     27  C   LIG d   1       9.505   7.843  -2.358  0.00  0.00    -0.027 C 
ATOM     28  C   LIG d   1      10.405   7.066  -0.182  0.00  0.00    -0.058 A 
ATOM     29  C   LIG d   1       9.927   7.869  -3.825  0.00  0.00    -0.047 C 
ATOM     30  H   LIG d   1       9.566   8.851  -1.948  0.00  0.00     0.031 H 
ATOM     31  H   LIG d   1       8.477   7.490  -2.286  0.00  0.00     0.031 H 
ATOM     32  C   LIG d   1      10.041   6.423  -4.320  0.00  0.00    -0.033 C 
ATOM     33  H   LIG d   1      10.891   8.368  -3.921  0.00  0.00     0.027 H 
ATOM     34  H   LIG d   1       9.179   8.401  -4.412  0.00  0.00     0.027 H 
ATOM     35  H   LIG d   1      10.173   6.415  -5.403  0.00  0.00     0.028 H 
ATOM     36  H   LIG d   1       9.139   5.872  -4.056  0.00  0.00     0.028 H 
ATOM     37  C   LIG d   1      11.199   6.255   0.600  0.00  0.00    -0.061 A 
ATOM     38  H   LIG d   1       9.780   7.814   0.284  0.00  0.00     0.062 H 
ATOM     39  C   LIG d   1      11.999   5.298   0.005  0.00  0.00    -0.061 A 
ATOM     40  H   LIG d   1      11.196   6.368   1.674  0.00  0.00     0.062 H 
ATOM     41  H   LIG d   1      12.622   4.659   0.613  0.00  0.00     0.062 H 
ATOM     42  H   LIG d   1      12.624   4.413  -1.832  0.00  0.00     0.062 H 
ENDBRANCH  13  22
BRANCH   1  43
ATOM     43  C   LIG d   1       7.656  -2.052  -4.957  0.00  0.00    -0.039 C 
ATOM     44  H   LIG d   1       8.547  -2.251  -5.555  0.00  0.00     0.028 H 
ATOM     45  H   LIG d   1       7.641  -2.720  -4.096  0.00  0.00     0.028 H 
ATOM     46  H   LIG d   1       6.767  -2.221  -5.564  0.00  0.00     0.028 H 
ENDBRANCH   1  43
BRANCH   2  47
ATOM     47  C   LIG d   1       5.386  -0.920  -3.575  0.00  0.00    -0.033 C 
ATOM     48  H   LIG d   1       5.013  -0.717  -2.571  0.00  0.00     0.028 H 
ATOM     49  H   LIG d   1       4.617  -0.671  -4.305  0.00  0.00     0.028 H 
ATOM     50  H   LIG d   1       5.641  -1.977  -3.661  0.00  0.00     0.028 H 
ENDBRANCH   2  47
TORSDOF 3
ENDMDL
