MODEL 1
REMARK VINA RESULT:      -6.9      0.000      0.000
REMARK  10 active torsions:
REMARK  status: ('A' for Active; 'I' for Inactive)
REMARK    1  A    between atoms: C_1  and  C_2 
REMARK    2  A    between atoms: C_2  and  O_4 
REMARK    3  A    between atoms: O_4  and  C_5 
REMARK    4  A    between atoms: C_8  and  C_39 
REMARK    5  A    between atoms: C_9  and  C_34 
REMARK    6  A    between atoms: C_16  and  C_33 
REMARK    7  A    between atoms: C_19  and  C_32 
REMARK    8  A    between atoms: C_24  and  C_30 
REMARK    9  A    between atoms: C_24  and  C_31 
REMARK   10  A    between atoms: C_26  and  O_29 
ROOT
ATOM      1  C   LIG d   1       5.056  -3.005  -4.937  0.00  0.00     0.108 C 
ATOM      2  H   LIG d   1       4.199  -3.197  -4.261  0.00  0.00     0.074 H 
ATOM      3  C   LIG d   1       4.507  -2.264  -6.155  0.00  0.00    -0.007 C 
ATOM      4  C   LIG d   1       4.206  -0.816  -5.796  0.00  0.00     0.011 C 
ATOM      5  C   LIG d   1       2.795  -0.382  -6.254  0.00  0.00    -0.002 C 
ATOM      6  H   LIG d   1       2.066  -1.169  -6.073  0.00  0.00     0.036 H 
ATOM      7  C   LIG d   1       2.531   0.847  -5.336  0.00  0.00    -0.016 C 
ATOM      8  C   LIG d   1       3.133   0.420  -3.971  0.00  0.00     0.090 A 
ATOM      9  H   LIG d   1       3.314   1.185  -3.220  0.00  0.00     0.063 H 
ATOM     10  C   LIG d   1       4.124  -0.698  -4.261  0.00  0.00     0.115 A 
ATOM     11  O   LIG d   1       2.877  -0.941  -3.603  0.00  0.00    -0.363 OA
ATOM     12  C   LIG d   1       5.393  -1.018  -3.482  0.00  0.00     0.073 C 
ATOM     13  C   LIG d   1       6.083  -2.191  -4.157  0.00  0.00     0.024 C 
ATOM     14  H   LIG d   1       6.370  -2.854  -3.311  0.00  0.00     0.036 H 
ATOM     15  C   LIG d   1       7.367  -1.945  -4.871  0.00  0.00     0.019 C 
ATOM     16  C   LIG d   1       7.443  -2.519  -6.249  0.00  0.00    -0.070 C 
ATOM     17  C   LIG d   1       8.508  -2.289  -7.015  0.00  0.00    -0.021 C 
ATOM     18  C   LIG d   1       9.587  -1.438  -6.528  0.00  0.00     0.166 C 
ATOM     19  O   LIG d   1      10.729  -1.605  -6.910  0.00  0.00    -0.292 OA
ATOM     20  C   LIG d   1       9.268  -0.298  -5.581  0.00  0.00     0.053 C 
ATOM     21  C   LIG d   1       8.010  -0.599  -4.789  0.00  0.00    -0.002 C 
ATOM     22  C   LIG d   1       7.498   0.376  -4.030  0.00  0.00     0.161 C 
ATOM     23  C   LIG d   1       6.240   0.191  -3.309  0.00  0.00     0.206 C 
ATOM     24  O   LIG d   1       5.876   1.065  -2.539  0.00  0.00    -0.288 OA
ATOM     25  H   LIG d   1       5.211  -2.295  -6.982  0.00  0.00     0.031 H 
ATOM     26  H   LIG d   1       3.578  -2.750  -6.474  0.00  0.00     0.031 H 
ATOM     27  H   LIG d   1       3.026   1.736  -5.720  0.00  0.00     0.030 H 
ATOM     28  H   LIG d   1       1.458   1.022  -5.239  0.00  0.00     0.030 H 
ATOM     29  H   LIG d   1       6.658  -3.125  -6.654  0.00  0.00     0.058 H 
ATOM     30  H   LIG d   1       8.564  -2.734  -7.993  0.00  0.00     0.065 H 
ENDROOT
BRANCH   5  31
ATOM     31  C   LIG d   1       2.806   0.026  -7.705  0.00  0.00    -0.006 A 
ATOM     32  C   LIG d   1       2.745  -0.795  -8.768  0.00  0.00     0.095 A 
ATOM     33  O   LIG d   1       2.778  -0.049  -9.884  0.00  0.00    -0.471 OA
ATOM     34  H   LIG d   1       2.678  -1.873  -8.732  0.00  0.00     0.103 H 
ATOM     35  C   LIG d   1       2.869   1.249  -9.551  0.00  0.00     0.092 A 
ATOM     36  C   LIG d   1       2.890   1.343  -8.210  0.00  0.00    -0.021 A 
ATOM     37  H   LIG d   1       2.916   2.077 -10.243  0.00  0.00     0.103 H 
ATOM     38  H   LIG d   1       2.956   2.252  -7.629  0.00  0.00     0.065 H 
ENDBRANCH   5  31
BRANCH   4  39
ATOM     39  C   LIG d   1       5.251   0.127  -6.395  0.00  0.00    -0.056 C 
ATOM     40  H   LIG d   1       4.946   1.160  -6.228  0.00  0.00     0.024 H 
ATOM     41  H   LIG d   1       6.216  -0.049  -5.918  0.00  0.00     0.024 H 
ATOM     42  H   LIG d   1       5.337  -0.059  -7.466  0.00  0.00     0.024 H 
ENDBRANCH   4  39
BRANCH   1  43
ATOM     43  O   LIG d   1       5.576  -4.279  -5.303  0.00  0.00    -0.461 OA
BRANCH  43  44
ATOM     44  C   LIG d   1       4.692  -5.204  -5.710  0.00  0.00     0.304 C 
ATOM     45  O   LIG d   1       3.897  -5.665  -4.926  0.00  0.00    -0.251 OA
BRANCH  44  46
ATOM     46  C   LIG d   1       4.692  -5.667  -7.144  0.00  0.00     0.033 C 
ATOM     47  H   LIG d   1       3.821  -6.297  -7.322  0.00  0.00     0.034 H 
ATOM     48  H   LIG d   1       4.657  -4.802  -7.805  0.00  0.00     0.034 H 
ATOM     49  H   LIG d   1       5.600  -6.238  -7.341  0.00  0.00     0.034 H 
ENDBRANCH  44  46
ENDBRANCH  43  44
ENDBRANCH   1  43
BRANCH  12  50
ATOM     50  C   LIG d   1       4.962  -1.481  -2.076  0.00  0.00    -0.049 C 
ATOM     51  H   LIG d   1       5.166  -0.691  -1.355  0.00  0.00     0.024 H 
ATOM     52  H   LIG d   1       3.895  -1.705  -2.080  0.00  0.00     0.024 H 
ATOM     53  H   LIG d   1       5.520  -2.376  -1.802  0.00  0.00     0.024 H 
ENDBRANCH  12  50
BRANCH  15  54
ATOM     54  C   LIG d   1       8.348  -2.839  -4.081  0.00  0.00    -0.052 C 
ATOM     55  H   LIG d   1       8.739  -2.285  -3.228  0.00  0.00     0.024 H 
ATOM     56  H   LIG d   1       7.825  -3.729  -3.728  0.00  0.00     0.024 H 
ATOM     57  H   LIG d   1       9.172  -3.136  -4.730  0.00  0.00     0.024 H 
ENDBRANCH  15  54
BRANCH  22  58
ATOM     58  O   LIG d   1       8.141   1.570  -3.874  0.00  0.00    -0.503 OA
ATOM     59  H   LIG d   1       8.852   1.552  -3.219  0.00  0.00     0.292 HD
ENDBRANCH  22  58
BRANCH  20  60
ATOM     60  C   LIG d   1      10.459  -0.084  -4.638  0.00  0.00    -0.049 C 
ATOM     61  H   LIG d   1      10.098   0.025  -3.615  0.00  0.00     0.024 H 
ATOM     62  H   LIG d   1      11.128  -0.941  -4.698  0.00  0.00     0.024 H 
ATOM     63  H   LIG d   1      10.997   0.818  -4.931  0.00  0.00     0.024 H 
ENDBRANCH  20  60
BRANCH  20  64
ATOM     64  C   LIG d   1       9.072   0.969  -6.435  0.00  0.00    -0.049 C 
ATOM     65  H   LIG d   1       8.545   0.710  -7.353  0.00  0.00     0.024 H 
ATOM     66  H   LIG d   1       8.487   1.698  -5.874  0.00  0.00     0.024 H 
ATOM     67  H   LIG d   1      10.043   1.396  -6.681  0.00  0.00     0.024 H 
ENDBRANCH  20  64
TORSDOF 10
ENDMDL
MODEL 2
REMARK VINA RESULT:      -6.5      2.142      4.968
REMARK  10 active torsions:
REMARK  status: ('A' for Active; 'I' for Inactive)
REMARK    1  A    between atoms: C_1  and  C_2 
REMARK    2  A    between atoms: C_2  and  O_4 
REMARK    3  A    between atoms: O_4  and  C_5 
REMARK    4  A    between atoms: C_8  and  C_39 
REMARK    5  A    between atoms: C_9  and  C_34 
REMARK    6  A    between atoms: C_16  and  C_33 
REMARK    7  A    between atoms: C_19  and  C_32 
REMARK    8  A    between atoms: C_24  and  C_30 
REMARK    9  A    between atoms: C_24  and  C_31 
REMARK   10  A    between atoms: C_26  and  O_29 
ROOT
ATOM      1  C   LIG d   1       3.736  -1.333  -7.912  0.00  0.00     0.108 C 
ATOM      2  H   LIG d   1       3.153  -2.268  -7.802  0.00  0.00     0.074 H 
ATOM      3  C   LIG d   1       3.699  -0.621  -6.561  0.00  0.00    -0.007 C 
ATOM      4  C   LIG d   1       4.625  -1.319  -5.576  0.00  0.00     0.011 C 
ATOM      5  C   LIG d   1       3.932  -1.600  -4.222  0.00  0.00    -0.002 C 
ATOM      6  H   LIG d   1       2.910  -1.940  -4.370  0.00  0.00     0.036 H 
ATOM      7  C   LIG d   1       4.822  -2.740  -3.644  0.00  0.00    -0.016 C 
ATOM      8  C   LIG d   1       5.150  -3.612  -4.885  0.00  0.00     0.090 A 
ATOM      9  H   LIG d   1       5.963  -4.331  -4.816  0.00  0.00     0.063 H 
ATOM     10  C   LIG d   1       4.932  -2.733  -6.108  0.00  0.00     0.115 A 
ATOM     11  O   LIG d   1       4.051  -3.813  -5.783  0.00  0.00    -0.363 OA
ATOM     12  C   LIG d   1       5.672  -2.818  -7.437  0.00  0.00     0.073 C 
ATOM     13  C   LIG d   1       5.147  -1.719  -8.344  0.00  0.00     0.024 C 
ATOM     14  H   LIG d   1       5.002  -2.227  -9.323  0.00  0.00     0.036 H 
ATOM     15  C   LIG d   1       6.044  -0.573  -8.666  0.00  0.00     0.019 C 
ATOM     16  C   LIG d   1       5.428   0.778  -8.497  0.00  0.00    -0.070 C 
ATOM     17  C   LIG d   1       6.159   1.877  -8.672  0.00  0.00    -0.021 C 
ATOM     18  C   LIG d   1       7.579   1.766  -8.986  0.00  0.00     0.166 C 
ATOM     19  O   LIG d   1       8.140   2.627  -9.635  0.00  0.00    -0.292 OA
ATOM     20  C   LIG d   1       8.372   0.592  -8.445  0.00  0.00     0.053 C 
ATOM     21  C   LIG d   1       7.467  -0.600  -8.210  0.00  0.00    -0.002 C 
ATOM     22  C   LIG d   1       7.979  -1.663  -7.578  0.00  0.00     0.161 C 
ATOM     23  C   LIG d   1       7.145  -2.813  -7.235  0.00  0.00     0.206 C 
ATOM     24  O   LIG d   1       7.682  -3.803  -6.767  0.00  0.00    -0.288 OA
ATOM     25  H   LIG d   1       3.992   0.421  -6.659  0.00  0.00     0.031 H 
ATOM     26  H   LIG d   1       2.676  -0.658  -6.171  0.00  0.00     0.031 H 
ATOM     27  H   LIG d   1       5.730  -2.340  -3.198  0.00  0.00     0.030 H 
ATOM     28  H   LIG d   1       4.262  -3.321  -2.910  0.00  0.00     0.030 H 
ATOM     29  H   LIG d   1       4.396   0.901  -8.239  0.00  0.00     0.058 H 
ATOM     30  H   LIG d   1       5.696   2.843  -8.579  0.00  0.00     0.065 H 
ENDROOT
BRANCH   5  31
ATOM     31  C   LIG d   1       3.979  -0.383  -3.335  0.00  0.00    -0.006 A 
ATOM     32  C   LIG d   1       3.292   0.760  -3.508  0.00  0.00     0.095 A 
ATOM     33  O   LIG d   1       3.604   1.599  -2.507  0.00  0.00    -0.471 OA
ATOM     34  H   LIG d   1       2.604   0.969  -4.314  0.00  0.00     0.103 H 
ATOM     35  C   LIG d   1       4.494   1.011  -1.692  0.00  0.00     0.092 A 
ATOM     36  C   LIG d   1       4.756  -0.220  -2.167  0.00  0.00    -0.021 A 
ATOM     37  H   LIG d   1       4.926   1.450  -0.805  0.00  0.00     0.103 H 
ATOM     38  H   LIG d   1       5.431  -0.947  -1.736  0.00  0.00     0.065 H 
ENDBRANCH   5  31
BRANCH   4  39
ATOM     39  C   LIG d   1       5.895  -0.500  -5.339  0.00  0.00    -0.056 C 
ATOM     40  H   LIG d   1       5.644   0.560  -5.305  0.00  0.00     0.024 H 
ATOM     41  H   LIG d   1       6.349  -0.797  -4.393  0.00  0.00     0.024 H 
ATOM     42  H   LIG d   1       6.600  -0.680  -6.151  0.00  0.00     0.024 H 
ENDBRANCH   4  39
BRANCH   1  43
ATOM     43  O   LIG d   1       3.081  -0.563  -8.915  0.00  0.00    -0.461 OA
BRANCH  43  44
ATOM     44  C   LIG d   1       2.495  -1.238  -9.916  0.00  0.00     0.304 C 
ATOM     45  O   LIG d   1       1.958  -2.298  -9.696  0.00  0.00    -0.251 OA
BRANCH  44  46
ATOM     46  C   LIG d   1       2.505  -0.675 -11.314  0.00  0.00     0.033 C 
ATOM     47  H   LIG d   1       1.511  -0.764 -11.749  0.00  0.00     0.034 H 
ATOM     48  H   LIG d   1       2.794   0.375 -11.280  0.00  0.00     0.034 H 
ATOM     49  H   LIG d   1       3.220  -1.229 -11.922  0.00  0.00     0.034 H 
ENDBRANCH  44  46
ENDBRANCH  43  44
ENDBRANCH   1  43
BRANCH  12  50
ATOM     50  C   LIG d   1       5.301  -4.167  -8.082  0.00  0.00    -0.049 C 
ATOM     51  H   LIG d   1       4.631  -3.996  -8.924  0.00  0.00     0.024 H 
ATOM     52  H   LIG d   1       6.207  -4.663  -8.433  0.00  0.00     0.024 H 
ATOM     53  H   LIG d   1       4.805  -4.798  -7.344  0.00  0.00     0.024 H 
ENDBRANCH  12  50
BRANCH  15  54
ATOM     54  C   LIG d   1       6.177  -0.693 -10.201  0.00  0.00    -0.052 C 
ATOM     55  H   LIG d   1       5.321  -0.214 -10.677  0.00  0.00     0.024 H 
ATOM     56  H   LIG d   1       7.096  -0.204 -10.526  0.00  0.00     0.024 H 
ATOM     57  H   LIG d   1       6.206  -1.746 -10.481  0.00  0.00     0.024 H 
ENDBRANCH  15  54
BRANCH  22  58
ATOM     58  O   LIG d   1       9.303  -1.729  -7.254  0.00  0.00    -0.503 OA
ATOM     59  H   LIG d   1       9.584  -2.592  -6.920  0.00  0.00     0.292 HD
ENDBRANCH  22  58
BRANCH  20  60
ATOM     60  C   LIG d   1       9.481   0.237  -9.444  0.00  0.00    -0.049 C 
ATOM     61  H   LIG d   1       9.400  -0.814  -9.719  0.00  0.00     0.024 H 
ATOM     62  H   LIG d   1       9.379   0.855 -10.335  0.00  0.00     0.024 H 
ATOM     63  H   LIG d   1      10.454   0.418  -8.986  0.00  0.00     0.024 H 
ENDBRANCH  20  60
BRANCH  20  64
ATOM     64  C   LIG d   1       9.018   1.044  -7.121  0.00  0.00    -0.049 C 
ATOM     65  H   LIG d   1       9.351   2.077  -7.214  0.00  0.00     0.024 H 
ATOM     66  H   LIG d   1       8.286   0.969  -6.317  0.00  0.00     0.024 H 
ATOM     67  H   LIG d   1       9.871   0.406  -6.895  0.00  0.00     0.024 H 
ENDBRANCH  20  64
TORSDOF 10
ENDMDL
MODEL 3
REMARK VINA RESULT:      -6.3      1.910      5.454
REMARK  10 active torsions:
REMARK  status: ('A' for Active; 'I' for Inactive)
REMARK    1  A    between atoms: C_1  and  C_2 
REMARK    2  A    between atoms: C_2  and  O_4 
REMARK    3  A    between atoms: O_4  and  C_5 
REMARK    4  A    between atoms: C_8  and  C_39 
REMARK    5  A    between atoms: C_9  and  C_34 
REMARK    6  A    between atoms: C_16  and  C_33 
REMARK    7  A    between atoms: C_19  and  C_32 
REMARK    8  A    between atoms: C_24  and  C_30 
REMARK    9  A    between atoms: C_24  and  C_31 
REMARK   10  A    between atoms: C_26  and  O_29 
ROOT
ATOM      1  C   LIG d   1       5.692  -3.276  -6.918  0.00  0.00     0.108 C 
ATOM      2  H   LIG d   1       6.606  -3.741  -6.501  0.00  0.00     0.074 H 
ATOM      3  C   LIG d   1       5.049  -2.466  -5.794  0.00  0.00    -0.007 C 
ATOM      4  C   LIG d   1       5.835  -1.184  -5.556  0.00  0.00     0.011 C 
ATOM      5  C   LIG d   1       6.156  -0.965  -4.059  0.00  0.00    -0.002 C 
ATOM      6  H   LIG d   1       6.444  -1.898  -3.581  0.00  0.00     0.036 H 
ATOM      7  C   LIG d   1       7.360   0.019  -4.136  0.00  0.00    -0.016 C 
ATOM      8  C   LIG d   1       8.181  -0.502  -5.346  0.00  0.00     0.090 A 
ATOM      9  H   LIG d   1       8.935   0.148  -5.782  0.00  0.00     0.063 H 
ATOM     10  C   LIG d   1       7.232  -1.341  -6.190  0.00  0.00     0.115 A 
ATOM     11  O   LIG d   1       8.289  -1.929  -5.426  0.00  0.00    -0.363 OA
ATOM     12  C   LIG d   1       7.279  -1.531  -7.701  0.00  0.00     0.073 C 
ATOM     13  C   LIG d   1       6.114  -2.417  -8.106  0.00  0.00     0.024 C 
ATOM     14  H   LIG d   1       6.566  -3.142  -8.819  0.00  0.00     0.036 H 
ATOM     15  C   LIG d   1       4.993  -1.809  -8.875  0.00  0.00     0.019 C 
ATOM     16  C   LIG d   1       3.628  -2.121  -8.354  0.00  0.00    -0.070 C 
ATOM     17  C   LIG d   1       2.553  -1.563  -8.908  0.00  0.00    -0.021 C 
ATOM     18  C   LIG d   1       2.707  -0.610 -10.001  0.00  0.00     0.166 C 
ATOM     19  O   LIG d   1       1.838  -0.484 -10.842  0.00  0.00    -0.292 OA
ATOM     20  C   LIG d   1       3.939   0.273 -10.052  0.00  0.00     0.053 C 
ATOM     21  C   LIG d   1       5.103  -0.396  -9.347  0.00  0.00    -0.002 C 
ATOM     22  C   LIG d   1       6.217   0.321  -9.157  0.00  0.00     0.161 C 
ATOM     23  C   LIG d   1       7.347  -0.224  -8.407  0.00  0.00     0.206 C 
ATOM     24  O   LIG d   1       8.382   0.421  -8.362  0.00  0.00    -0.288 OA
ATOM     25  H   LIG d   1       4.017  -2.220  -6.028  0.00  0.00     0.031 H 
ATOM     26  H   LIG d   1       5.063  -3.064  -4.876  0.00  0.00     0.031 H 
ATOM     27  H   LIG d   1       7.022   1.039  -4.305  0.00  0.00     0.030 H 
ATOM     28  H   LIG d   1       7.954  -0.038  -3.223  0.00  0.00     0.030 H 
ATOM     29  H   LIG d   1       3.474  -2.793  -7.534  0.00  0.00     0.058 H 
ATOM     30  H   LIG d   1       1.574  -1.820  -8.543  0.00  0.00     0.065 H 
ENDROOT
BRANCH   5  31
ATOM     31  C   LIG d   1       4.988  -0.328  -3.351  0.00  0.00    -0.006 A 
ATOM     32  C   LIG d   1       3.801  -0.902  -3.088  0.00  0.00     0.095 A 
ATOM     33  O   LIG d   1       3.032  -0.011  -2.442  0.00  0.00    -0.471 OA
ATOM     34  H   LIG d   1       3.514  -1.910  -3.350  0.00  0.00     0.103 H 
ATOM     35  C   LIG d   1       3.709   1.138  -2.292  0.00  0.00     0.092 A 
ATOM     36  C   LIG d   1       4.928   0.988  -2.841  0.00  0.00    -0.021 A 
ATOM     37  H   LIG d   1       3.339   2.032  -1.811  0.00  0.00     0.103 H 
ATOM     38  H   LIG d   1       5.712   1.732  -2.883  0.00  0.00     0.065 H 
ENDBRANCH   5  31
BRANCH   4  39
ATOM     39  C   LIG d   1       5.084   0.031  -6.101  0.00  0.00    -0.056 C 
ATOM     40  H   LIG d   1       5.021   0.797  -5.328  0.00  0.00     0.024 H 
ATOM     41  H   LIG d   1       5.617   0.431  -6.965  0.00  0.00     0.024 H 
ATOM     42  H   LIG d   1       4.079  -0.267  -6.401  0.00  0.00     0.024 H 
ENDBRANCH   4  39
BRANCH   1  43
ATOM     43  O   LIG d   1       4.845  -4.345  -7.328  0.00  0.00    -0.461 OA
BRANCH  43  44
ATOM     44  C   LIG d   1       4.511  -5.250  -6.395  0.00  0.00     0.304 C 
ATOM     45  O   LIG d   1       3.352  -5.406  -6.093  0.00  0.00    -0.251 OA
BRANCH  44  46
ATOM     46  C   LIG d   1       5.582  -6.072  -5.725  0.00  0.00     0.033 C 
ATOM     47  H   LIG d   1       5.125  -6.733  -4.989  0.00  0.00     0.034 H 
ATOM     48  H   LIG d   1       6.104  -6.668  -6.474  0.00  0.00     0.034 H 
ATOM     49  H   LIG d   1       6.291  -5.409  -5.229  0.00  0.00     0.034 H 
ENDBRANCH  44  46
ENDBRANCH  43  44
ENDBRANCH   1  43
BRANCH  12  50
ATOM     50  C   LIG d   1       8.578  -2.296  -8.025  0.00  0.00    -0.049 C 
ATOM     51  H   LIG d   1       9.428  -1.768  -7.595  0.00  0.00     0.024 H 
ATOM     52  H   LIG d   1       8.522  -3.300  -7.604  0.00  0.00     0.024 H 
ATOM     53  H   LIG d   1       8.699  -2.362  -9.106  0.00  0.00     0.024 H 
ENDBRANCH  12  50
BRANCH  15  54
ATOM     54  C   LIG d   1       5.039  -2.613 -10.195  0.00  0.00    -0.052 C 
ATOM     55  H   LIG d   1       4.080  -3.105 -10.354  0.00  0.00     0.024 H 
ATOM     56  H   LIG d   1       5.244  -1.937 -11.025  0.00  0.00     0.024 H 
ATOM     57  H   LIG d   1       5.827  -3.364 -10.134  0.00  0.00     0.024 H 
ENDBRANCH  15  54
BRANCH  22  58
ATOM     58  O   LIG d   1       6.355   1.575  -9.678  0.00  0.00    -0.503 OA
ATOM     59  H   LIG d   1       7.242   1.947  -9.576  0.00  0.00     0.292 HD
ENDBRANCH  22  58
BRANCH  20  60
ATOM     60  C   LIG d   1       4.289   0.557 -11.518  0.00  0.00    -0.049 C 
ATOM     61  H   LIG d   1       4.936   1.432 -11.575  0.00  0.00     0.024 H 
ATOM     62  H   LIG d   1       4.806  -0.304 -11.942  0.00  0.00     0.024 H 
ATOM     63  H   LIG d   1       3.374   0.744 -12.080  0.00  0.00     0.024 H 
ENDBRANCH  20  60
BRANCH  20  64
ATOM     64  C   LIG d   1       3.583   1.600  -9.356  0.00  0.00    -0.049 C 
ATOM     65  H   LIG d   1       2.511   1.634  -9.165  0.00  0.00     0.024 H 
ATOM     66  H   LIG d   1       4.123   1.671  -8.412  0.00  0.00     0.024 H 
ATOM     67  H   LIG d   1       3.865   2.434  -9.998  0.00  0.00     0.024 H 
ENDBRANCH  20  64
TORSDOF 10
ENDMDL
MODEL 4
REMARK VINA RESULT:      -6.0      1.989      5.695
REMARK  10 active torsions:
REMARK  status: ('A' for Active; 'I' for Inactive)
REMARK    1  A    between atoms: C_1  and  C_2 
REMARK    2  A    between atoms: C_2  and  O_4 
REMARK    3  A    between atoms: O_4  and  C_5 
REMARK    4  A    between atoms: C_8  and  C_39 
REMARK    5  A    between atoms: C_9  and  C_34 
REMARK    6  A    between atoms: C_16  and  C_33 
REMARK    7  A    between atoms: C_19  and  C_32 
REMARK    8  A    between atoms: C_24  and  C_30 
REMARK    9  A    between atoms: C_24  and  C_31 
REMARK   10  A    between atoms: C_26  and  O_29 
ROOT
ATOM      1  C   LIG d   1       6.386  -3.130  -7.633  0.00  0.00     0.108 C 
ATOM      2  H   LIG d   1       7.416  -3.468  -7.411  0.00  0.00     0.074 H 
ATOM      3  C   LIG d   1       5.713  -2.834  -6.294  0.00  0.00    -0.007 C 
ATOM      4  C   LIG d   1       6.235  -1.523  -5.723  0.00  0.00     0.011 C 
ATOM      5  C   LIG d   1       6.662  -1.659  -4.244  0.00  0.00    -0.002 C 
ATOM      6  H   LIG d   1       7.189  -2.595  -4.074  0.00  0.00     0.036 H 
ATOM      7  C   LIG d   1       7.618  -0.442  -4.079  0.00  0.00    -0.016 C 
ATOM      8  C   LIG d   1       8.395  -0.403  -5.423  0.00  0.00     0.090 A 
ATOM      9  H   LIG d   1       8.945   0.499  -5.680  0.00  0.00     0.063 H 
ATOM     10  C   LIG d   1       7.557  -1.170  -6.434  0.00  0.00     0.115 A 
ATOM     11  O   LIG d   1       8.790  -1.686  -5.924  0.00  0.00    -0.363 OA
ATOM     12  C   LIG d   1       7.479  -0.918  -7.935  0.00  0.00     0.073 C 
ATOM     13  C   LIG d   1       6.488  -1.902  -8.533  0.00  0.00     0.024 C 
ATOM     14  H   LIG d   1       7.002  -2.276  -9.446  0.00  0.00     0.036 H 
ATOM     15  C   LIG d   1       5.188  -1.381  -9.040  0.00  0.00     0.019 C 
ATOM     16  C   LIG d   1       3.983  -2.132  -8.575  0.00  0.00    -0.070 C 
ATOM     17  C   LIG d   1       2.762  -1.707  -8.895  0.00  0.00    -0.021 C 
ATOM     18  C   LIG d   1       2.595  -0.480  -9.665  0.00  0.00     0.166 C 
ATOM     19  O   LIG d   1       1.633  -0.331 -10.393  0.00  0.00    -0.292 OA
ATOM     20  C   LIG d   1       3.602   0.642  -9.506  0.00  0.00     0.053 C 
ATOM     21  C   LIG d   1       4.949   0.092  -9.080  0.00  0.00    -0.002 C 
ATOM     22  C   LIG d   1       5.903   0.966  -8.735  0.00  0.00     0.161 C 
ATOM     23  C   LIG d   1       7.196   0.512  -8.228  0.00  0.00     0.206 C 
ATOM     24  O   LIG d   1       8.072   1.340  -8.040  0.00  0.00    -0.288 OA
ATOM     25  H   LIG d   1       4.633  -2.779  -6.401  0.00  0.00     0.031 H 
ATOM     26  H   LIG d   1       5.950  -3.643  -5.594  0.00  0.00     0.031 H 
ATOM     27  H   LIG d   1       7.059   0.478  -3.926  0.00  0.00     0.030 H 
ATOM     28  H   LIG d   1       8.306  -0.610  -3.249  0.00  0.00     0.030 H 
ATOM     29  H   LIG d   1       4.063  -3.022  -7.985  0.00  0.00     0.058 H 
ATOM     30  H   LIG d   1       1.904  -2.274  -8.580  0.00  0.00     0.065 H 
ENDROOT
BRANCH   5  31
ATOM     31  C   LIG d   1       5.471  -1.532  -3.330  0.00  0.00    -0.006 A 
ATOM     32  C   LIG d   1       5.188  -0.494  -2.523  0.00  0.00     0.095 A 
ATOM     33  O   LIG d   1       4.042  -0.760  -1.875  0.00  0.00    -0.471 OA
ATOM     34  H   LIG d   1       5.780   0.403  -2.415  0.00  0.00     0.103 H 
ATOM     35  C   LIG d   1       3.586  -1.966  -2.250  0.00  0.00     0.092 A 
ATOM     36  C   LIG d   1       4.440  -2.482  -3.151  0.00  0.00    -0.021 A 
ATOM     37  H   LIG d   1       2.685  -2.441  -1.890  0.00  0.00     0.103 H 
ATOM     38  H   LIG d   1       4.354  -3.439  -3.646  0.00  0.00     0.065 H 
ENDBRANCH   5  31
BRANCH   4  39
ATOM     39  C   LIG d   1       5.192  -0.412  -5.854  0.00  0.00    -0.056 C 
ATOM     40  H   LIG d   1       4.938  -0.274  -6.905  0.00  0.00     0.024 H 
ATOM     41  H   LIG d   1       4.295  -0.688  -5.297  0.00  0.00     0.024 H 
ATOM     42  H   LIG d   1       5.597   0.516  -5.453  0.00  0.00     0.024 H 
ENDBRANCH   4  39
BRANCH   1  43
ATOM     43  O   LIG d   1       5.741  -4.209  -8.303  0.00  0.00    -0.461 OA
BRANCH  43  44
ATOM     44  C   LIG d   1       5.719  -5.392  -7.670  0.00  0.00     0.304 C 
ATOM     45  O   LIG d   1       6.756  -5.941  -7.381  0.00  0.00    -0.251 OA
BRANCH  44  46
ATOM     46  C   LIG d   1       4.402  -6.037  -7.321  0.00  0.00     0.033 C 
ATOM     47  H   LIG d   1       4.517  -6.630  -6.415  0.00  0.00     0.034 H 
ATOM     48  H   LIG d   1       3.652  -5.263  -7.157  0.00  0.00     0.034 H 
ATOM     49  H   LIG d   1       4.086  -6.682  -8.141  0.00  0.00     0.034 H 
ENDBRANCH  44  46
ENDBRANCH  43  44
ENDBRANCH   1  43
BRANCH  12  50
ATOM     50  C   LIG d   1       8.866  -1.242  -8.525  0.00  0.00    -0.049 C 
ATOM     51  H   LIG d   1       9.063  -2.309  -8.429  0.00  0.00     0.024 H 
ATOM     52  H   LIG d   1       8.886  -0.962  -9.579  0.00  0.00     0.024 H 
ATOM     53  H   LIG d   1       9.629  -0.681  -7.986  0.00  0.00     0.024 H 
ENDBRANCH  12  50
BRANCH  15  54
ATOM     54  C   LIG d   1       5.259  -1.755 -10.538  0.00  0.00    -0.052 C 
ATOM     55  H   LIG d   1       4.563  -1.133 -11.101  0.00  0.00     0.024 H 
ATOM     56  H   LIG d   1       6.272  -1.591 -10.907  0.00  0.00     0.024 H 
ATOM     57  H   LIG d   1       4.991  -2.804 -10.664  0.00  0.00     0.024 H 
ENDBRANCH  15  54
BRANCH  22  58
ATOM     58  O   LIG d   1       5.719   2.312  -8.869  0.00  0.00    -0.503 OA
ATOM     59  H   LIG d   1       6.284   2.721  -9.538  0.00  0.00     0.292 HD
ENDBRANCH  22  58
BRANCH  20  60
ATOM     60  C   LIG d   1       3.725   1.394 -10.838  0.00  0.00    -0.049 C 
ATOM     61  H   LIG d   1       3.263   2.377 -10.744  0.00  0.00     0.024 H 
ATOM     62  H   LIG d   1       4.777   1.510 -11.094  0.00  0.00     0.024 H 
ATOM     63  H   LIG d   1       3.220   0.829 -11.622  0.00  0.00     0.024 H 
ENDBRANCH  20  60
BRANCH  20  64
ATOM     64  C   LIG d   1       3.054   1.606  -8.436  0.00  0.00    -0.049 C 
ATOM     65  H   LIG d   1       3.340   2.626  -8.687  0.00  0.00     0.024 H 
ATOM     66  H   LIG d   1       1.967   1.530  -8.404  0.00  0.00     0.024 H 
ATOM     67  H   LIG d   1       3.465   1.341  -7.463  0.00  0.00     0.024 H 
ENDBRANCH  20  64
TORSDOF 10
ENDMDL
MODEL 5
REMARK VINA RESULT:      -5.9      1.993      4.735
REMARK  10 active torsions:
REMARK  status: ('A' for Active; 'I' for Inactive)
REMARK    1  A    between atoms: C_1  and  C_2 
REMARK    2  A    between atoms: C_2  and  O_4 
REMARK    3  A    between atoms: O_4  and  C_5 
REMARK    4  A    between atoms: C_8  and  C_39 
REMARK    5  A    between atoms: C_9  and  C_34 
REMARK    6  A    between atoms: C_16  and  C_33 
REMARK    7  A    between atoms: C_19  and  C_32 
REMARK    8  A    between atoms: C_24  and  C_30 
REMARK    9  A    between atoms: C_24  and  C_31 
REMARK   10  A    between atoms: C_26  and  O_29 
ROOT
ATOM      1  C   LIG d   1       4.741  -0.367  -5.769  0.00  0.00     0.108 C 
ATOM      2  H   LIG d   1       4.935   0.722  -5.708  0.00  0.00     0.074 H 
ATOM      3  C   LIG d   1       3.838  -0.594  -6.979  0.00  0.00    -0.007 C 
ATOM      4  C   LIG d   1       4.641  -0.463  -8.265  0.00  0.00     0.011 C 
ATOM      5  C   LIG d   1       3.953   0.466  -9.292  0.00  0.00    -0.002 C 
ATOM      6  H   LIG d   1       3.527   1.340  -8.804  0.00  0.00     0.036 H 
ATOM      7  C   LIG d   1       5.148   0.864 -10.206  0.00  0.00    -0.016 C 
ATOM      8  C   LIG d   1       6.325   1.048  -9.211  0.00  0.00     0.090 A 
ATOM      9  H   LIG d   1       7.339   1.077  -9.603  0.00  0.00     0.063 H 
ATOM     10  C   LIG d   1       5.954   0.282  -7.949  0.00  0.00     0.115 A 
ATOM     11  O   LIG d   1       5.978   1.712  -7.989  0.00  0.00    -0.363 OA
ATOM     12  C   LIG d   1       6.911  -0.400  -6.980  0.00  0.00     0.073 C 
ATOM     13  C   LIG d   1       6.090  -1.069  -5.891  0.00  0.00     0.024 C 
ATOM     14  H   LIG d   1       6.623  -0.800  -4.952  0.00  0.00     0.036 H 
ATOM     15  C   LIG d   1       6.032  -2.557  -5.857  0.00  0.00     0.019 C 
ATOM     16  C   LIG d   1       4.660  -3.133  -5.725  0.00  0.00    -0.070 C 
ATOM     17  C   LIG d   1       4.476  -4.451  -5.770  0.00  0.00    -0.021 C 
ATOM     18  C   LIG d   1       5.612  -5.338  -5.992  0.00  0.00     0.166 C 
ATOM     19  O   LIG d   1       5.613  -6.469  -5.546  0.00  0.00    -0.292 OA
ATOM     20  C   LIG d   1       6.776  -4.861  -6.840  0.00  0.00     0.053 C 
ATOM     21  C   LIG d   1       6.885  -3.350  -6.793  0.00  0.00    -0.002 C 
ATOM     22  C   LIG d   1       7.755  -2.757  -7.619  0.00  0.00     0.161 C 
ATOM     23  C   LIG d   1       7.853  -1.301  -7.696  0.00  0.00     0.206 C 
ATOM     24  O   LIG d   1       8.741  -0.811  -8.375  0.00  0.00    -0.288 OA
ATOM     25  H   LIG d   1       3.370  -1.575  -6.941  0.00  0.00     0.031 H 
ATOM     26  H   LIG d   1       3.048   0.166  -6.977  0.00  0.00     0.031 H 
ATOM     27  H   LIG d   1       5.367   0.080 -10.928  0.00  0.00     0.030 H 
ATOM     28  H   LIG d   1       4.936   1.804 -10.718  0.00  0.00     0.030 H 
ATOM     29  H   LIG d   1       3.797  -2.513  -5.589  0.00  0.00     0.058 H 
ATOM     30  H   LIG d   1       3.488  -4.854  -5.643  0.00  0.00     0.065 H 
ENDROOT
BRANCH   5  31
ATOM     31  C   LIG d   1       2.907  -0.285 -10.074  0.00  0.00    -0.006 A 
ATOM     32  C   LIG d   1       1.745  -0.768  -9.600  0.00  0.00     0.095 A 
ATOM     33  O   LIG d   1       1.093  -1.370 -10.607  0.00  0.00    -0.471 OA
ATOM     34  H   LIG d   1       1.395  -0.685  -8.581  0.00  0.00     0.103 H 
ATOM     35  C   LIG d   1       1.827  -1.288 -11.728  0.00  0.00     0.092 A 
ATOM     36  C   LIG d   1       2.961  -0.623 -11.445  0.00  0.00    -0.021 A 
ATOM     37  H   LIG d   1       1.552  -1.686 -12.694  0.00  0.00     0.103 H 
ATOM     38  H   LIG d   1       3.761  -0.390 -12.135  0.00  0.00     0.065 H 
ENDBRANCH   5  31
BRANCH   4  39
ATOM     39  C   LIG d   1       4.890  -1.832  -8.900  0.00  0.00    -0.056 C 
ATOM     40  H   LIG d   1       5.028  -1.714  -9.975  0.00  0.00     0.024 H 
ATOM     41  H   LIG d   1       5.786  -2.277  -8.465  0.00  0.00     0.024 H 
ATOM     42  H   LIG d   1       4.035  -2.481  -8.712  0.00  0.00     0.024 H 
ENDBRANCH   4  39
BRANCH   1  43
ATOM     43  O   LIG d   1       4.079  -0.727  -4.560  0.00  0.00    -0.461 OA
BRANCH  43  44
ATOM     44  C   LIG d   1       4.405  -0.036  -3.457  0.00  0.00     0.304 C 
ATOM     45  O   LIG d   1       4.672   1.139  -3.538  0.00  0.00    -0.251 OA
BRANCH  44  46
ATOM     46  C   LIG d   1       4.439  -0.726  -2.117  0.00  0.00     0.033 C 
ATOM     47  H   LIG d   1       3.927  -1.685  -2.190  0.00  0.00     0.034 H 
ATOM     48  H   LIG d   1       5.474  -0.888  -1.818  0.00  0.00     0.034 H 
ATOM     49  H   LIG d   1       3.939  -0.102  -1.376  0.00  0.00     0.034 H 
ENDBRANCH  44  46
ENDBRANCH  43  44
ENDBRANCH   1  43
BRANCH  12  50
ATOM     50  C   LIG d   1       7.752   0.706  -6.313  0.00  0.00    -0.049 C 
ATOM     51  H   LIG d   1       8.809   0.453  -6.386  0.00  0.00     0.024 H 
ATOM     52  H   LIG d   1       7.569   1.655  -6.817  0.00  0.00     0.024 H 
ATOM     53  H   LIG d   1       7.471   0.792  -5.263  0.00  0.00     0.024 H 
ENDBRANCH  12  50
BRANCH  15  54
ATOM     54  C   LIG d   1       6.660  -2.868  -4.479  0.00  0.00    -0.052 C 
ATOM     55  H   LIG d   1       6.132  -2.312  -3.705  0.00  0.00     0.024 H 
ATOM     56  H   LIG d   1       6.582  -3.937  -4.278  0.00  0.00     0.024 H 
ATOM     57  H   LIG d   1       7.710  -2.575  -4.485  0.00  0.00     0.024 H 
ENDBRANCH  15  54
BRANCH  22  58
ATOM     58  O   LIG d   1       8.606  -3.485  -8.400  0.00  0.00    -0.503 OA
ATOM     59  H   LIG d   1       8.182  -3.896  -9.166  0.00  0.00     0.292 HD
ENDBRANCH  22  58
BRANCH  20  60
ATOM     60  C   LIG d   1       8.067  -5.509  -6.324  0.00  0.00    -0.049 C 
ATOM     61  H   LIG d   1       7.841  -6.494  -5.915  0.00  0.00     0.024 H 
ATOM     62  H   LIG d   1       8.776  -5.611  -7.146  0.00  0.00     0.024 H 
ATOM     63  H   LIG d   1       8.502  -4.883  -5.545  0.00  0.00     0.024 H 
ENDBRANCH  20  60
BRANCH  20  64
ATOM     64  C   LIG d   1       6.519  -5.335  -8.283  0.00  0.00    -0.049 C 
ATOM     65  H   LIG d   1       7.231  -6.119  -8.539  0.00  0.00     0.024 H 
ATOM     66  H   LIG d   1       5.505  -5.726  -8.361  0.00  0.00     0.024 H 
ATOM     67  H   LIG d   1       6.639  -4.497  -8.969  0.00  0.00     0.024 H 
ENDBRANCH  20  64
TORSDOF 10
ENDMDL
MODEL 6
REMARK VINA RESULT:      -5.6      2.116      6.210
REMARK  10 active torsions:
REMARK  status: ('A' for Active; 'I' for Inactive)
REMARK    1  A    between atoms: C_1  and  C_2 
REMARK    2  A    between atoms: C_2  and  O_4 
REMARK    3  A    between atoms: O_4  and  C_5 
REMARK    4  A    between atoms: C_8  and  C_39 
REMARK    5  A    between atoms: C_9  and  C_34 
REMARK    6  A    between atoms: C_16  and  C_33 
REMARK    7  A    between atoms: C_19  and  C_32 
REMARK    8  A    between atoms: C_24  and  C_30 
REMARK    9  A    between atoms: C_24  and  C_31 
REMARK   10  A    between atoms: C_26  and  O_29 
ROOT
ATOM      1  C   LIG d   1       4.664  -0.855  -5.515  0.00  0.00     0.108 C 
ATOM      2  H   LIG d   1       4.598  -1.521  -4.633  0.00  0.00     0.074 H 
ATOM      3  C   LIG d   1       6.041  -0.195  -5.477  0.00  0.00    -0.007 C 
ATOM      4  C   LIG d   1       7.112  -1.191  -5.897  0.00  0.00     0.011 C 
ATOM      5  C   LIG d   1       8.300  -1.224  -4.909  0.00  0.00    -0.002 C 
ATOM      6  H   LIG d   1       7.954  -1.172  -3.880  0.00  0.00     0.036 H 
ATOM      7  C   LIG d   1       8.930  -2.613  -5.219  0.00  0.00    -0.016 C 
ATOM      8  C   LIG d   1       7.698  -3.529  -5.448  0.00  0.00     0.090 A 
ATOM      9  H   LIG d   1       7.847  -4.492  -5.930  0.00  0.00     0.063 H 
ATOM     10  C   LIG d   1       6.529  -2.614  -5.784  0.00  0.00     0.115 A 
ATOM     11  O   LIG d   1       6.612  -3.312  -4.538  0.00  0.00    -0.363 OA
ATOM     12  C   LIG d   1       5.343  -2.941  -6.684  0.00  0.00     0.073 C 
ATOM     13  C   LIG d   1       4.450  -1.715  -6.757  0.00  0.00     0.024 C 
ATOM     14  H   LIG d   1       3.423  -2.125  -6.629  0.00  0.00     0.036 H 
ATOM     15  C   LIG d   1       4.378  -0.963  -8.041  0.00  0.00     0.019 C 
ATOM     16  C   LIG d   1       4.545   0.517  -7.916  0.00  0.00    -0.070 C 
ATOM     17  C   LIG d   1       4.585   1.283  -9.004  0.00  0.00    -0.021 C 
ATOM     18  C   LIG d   1       4.510   0.675 -10.327  0.00  0.00     0.166 C 
ATOM     19  O   LIG d   1       4.037   1.286 -11.265  0.00  0.00    -0.292 OA
ATOM     20  C   LIG d   1       5.084  -0.712 -10.544  0.00  0.00     0.053 C 
ATOM     21  C   LIG d   1       5.066  -1.504  -9.251  0.00  0.00    -0.002 C 
ATOM     22  C   LIG d   1       5.690  -2.688  -9.232  0.00  0.00     0.161 C 
ATOM     23  C   LIG d   1       5.793  -3.467  -8.000  0.00  0.00     0.206 C 
ATOM     24  O   LIG d   1       6.266  -4.590  -8.059  0.00  0.00    -0.288 OA
ATOM     25  H   LIG d   1       6.078   0.674  -6.128  0.00  0.00     0.031 H 
ATOM     26  H   LIG d   1       6.247   0.132  -4.451  0.00  0.00     0.031 H 
ATOM     27  H   LIG d   1       9.554  -2.571  -6.109  0.00  0.00     0.030 H 
ATOM     28  H   LIG d   1       9.509  -2.965  -4.364  0.00  0.00     0.030 H 
ATOM     29  H   LIG d   1       4.632   0.998  -6.963  0.00  0.00     0.058 H 
ATOM     30  H   LIG d   1       4.674   2.349  -8.899  0.00  0.00     0.065 H 
ENDROOT
BRANCH   5  31
ATOM     31  C   LIG d   1       9.276  -0.115  -5.211  0.00  0.00    -0.006 A 
ATOM     32  C   LIG d   1      10.471  -0.242  -5.814  0.00  0.00     0.095 A 
ATOM     33  O   LIG d   1      11.034   0.974  -5.901  0.00  0.00    -0.471 OA
ATOM     34  H   LIG d   1      10.905  -1.164  -6.170  0.00  0.00     0.103 H 
ATOM     35  C   LIG d   1      10.216   1.886  -5.351  0.00  0.00     0.092 A 
ATOM     36  C   LIG d   1       9.113   1.256  -4.910  0.00  0.00    -0.021 A 
ATOM     37  H   LIG d   1      10.410   2.946  -5.277  0.00  0.00     0.103 H 
ATOM     38  H   LIG d   1       8.263   1.711  -4.420  0.00  0.00     0.065 H 
ENDBRANCH   5  31
BRANCH   4  39
ATOM     39  C   LIG d   1       7.625  -0.885  -7.305  0.00  0.00    -0.056 C 
ATOM     40  H   LIG d   1       8.536  -0.290  -7.239  0.00  0.00     0.024 H 
ATOM     41  H   LIG d   1       7.839  -1.820  -7.826  0.00  0.00     0.024 H 
ATOM     42  H   LIG d   1       6.867  -0.329  -7.856  0.00  0.00     0.024 H 
ENDBRANCH   4  39
BRANCH   1  43
ATOM     43  O   LIG d   1       3.628   0.112  -5.371  0.00  0.00    -0.461 OA
BRANCH  43  44
ATOM     44  C   LIG d   1       3.243   0.410  -4.120  0.00  0.00     0.304 C 
ATOM     45  O   LIG d   1       3.289   1.552  -3.730  0.00  0.00    -0.251 OA
BRANCH  44  46
ATOM     46  C   LIG d   1       2.751  -0.680  -3.203  0.00  0.00     0.033 C 
ATOM     47  H   LIG d   1       1.812  -0.373  -2.744  0.00  0.00     0.034 H 
ATOM     48  H   LIG d   1       2.594  -1.594  -3.776  0.00  0.00     0.034 H 
ATOM     49  H   LIG d   1       3.493  -0.862  -2.425  0.00  0.00     0.034 H 
ENDBRANCH  44  46
ENDBRANCH  43  44
ENDBRANCH   1  43
BRANCH  12  50
ATOM     50  C   LIG d   1       4.540  -4.060  -5.993  0.00  0.00    -0.049 C 
ATOM     51  H   LIG d   1       3.503  -3.745  -5.877  0.00  0.00     0.024 H 
ATOM     52  H   LIG d   1       4.579  -4.964  -6.601  0.00  0.00     0.024 H 
ATOM     53  H   LIG d   1       4.970  -4.263  -5.012  0.00  0.00     0.024 H 
ENDBRANCH  12  50
BRANCH  15  54
ATOM     54  C   LIG d   1       2.883  -1.102  -8.408  0.00  0.00    -0.052 C 
ATOM     55  H   LIG d   1       2.781  -1.183  -9.491  0.00  0.00     0.024 H 
ATOM     56  H   LIG d   1       2.474  -1.996  -7.936  0.00  0.00     0.024 H 
ATOM     57  H   LIG d   1       2.340  -0.225  -8.057  0.00  0.00     0.024 H 
ENDBRANCH  15  54
BRANCH  22  58
ATOM     58  O   LIG d   1       6.229  -3.228 -10.363  0.00  0.00    -0.503 OA
ATOM     59  H   LIG d   1       6.210  -2.638 -11.129  0.00  0.00     0.292 HD
ENDBRANCH  22  58
BRANCH  20  60
ATOM     60  C   LIG d   1       4.264  -1.428 -11.625  0.00  0.00    -0.049 C 
ATOM     61  H   LIG d   1       3.394  -1.900 -11.168  0.00  0.00     0.024 H 
ATOM     62  H   LIG d   1       3.935  -0.705 -12.370  0.00  0.00     0.024 H 
ATOM     63  H   LIG d   1       4.880  -2.189 -12.104  0.00  0.00     0.024 H 
ENDBRANCH  20  60
BRANCH  20  64
ATOM     64  C   LIG d   1       6.530  -0.539 -11.046  0.00  0.00    -0.049 C 
ATOM     65  H   LIG d   1       6.857   0.484 -10.863  0.00  0.00     0.024 H 
ATOM     66  H   LIG d   1       7.184  -1.230 -10.513  0.00  0.00     0.024 H 
ATOM     67  H   LIG d   1       6.573  -0.750 -12.114  0.00  0.00     0.024 H 
ENDBRANCH  20  64
TORSDOF 10
ENDMDL
MODEL 7
REMARK VINA RESULT:      -5.5      9.398     12.608
REMARK  10 active torsions:
REMARK  status: ('A' for Active; 'I' for Inactive)
REMARK    1  A    between atoms: C_1  and  C_2 
REMARK    2  A    between atoms: C_2  and  O_4 
REMARK    3  A    between atoms: O_4  and  C_5 
REMARK    4  A    between atoms: C_8  and  C_39 
REMARK    5  A    between atoms: C_9  and  C_34 
REMARK    6  A    between atoms: C_16  and  C_33 
REMARK    7  A    between atoms: C_19  and  C_32 
REMARK    8  A    between atoms: C_24  and  C_30 
REMARK    9  A    between atoms: C_24  and  C_31 
REMARK   10  A    between atoms: C_26  and  O_29 
ROOT
ATOM      1  C   LIG d   1      13.078   7.400  -2.029  0.00  0.00     0.108 C 
ATOM      2  H   LIG d   1      12.986   6.296  -2.020  0.00  0.00     0.074 H 
ATOM      3  C   LIG d   1      12.839   7.857  -3.467  0.00  0.00    -0.007 C 
ATOM      4  C   LIG d   1      11.357   7.778  -3.803  0.00  0.00     0.011 C 
ATOM      5  C   LIG d   1      11.099   7.050  -5.142  0.00  0.00    -0.002 C 
ATOM      6  H   LIG d   1      11.746   6.181  -5.245  0.00  0.00     0.036 H 
ATOM      7  C   LIG d   1       9.611   6.622  -4.987  0.00  0.00    -0.016 C 
ATOM      8  C   LIG d   1       9.505   6.200  -3.497  0.00  0.00     0.090 A 
ATOM      9  H   LIG d   1       8.517   6.100  -3.053  0.00  0.00     0.063 H 
ATOM     10  C   LIG d   1      10.669   6.860  -2.772  0.00  0.00     0.115 A 
ATOM     11  O   LIG d   1      10.623   5.449  -3.006  0.00  0.00    -0.363 OA
ATOM     12  C   LIG d   1      10.697   7.321  -1.320  0.00  0.00     0.073 C 
ATOM     13  C   LIG d   1      12.050   7.955  -1.048  0.00  0.00     0.024 C 
ATOM     14  H   LIG d   1      12.352   7.527  -0.067  0.00  0.00     0.036 H 
ATOM     15  C   LIG d   1      12.115   9.427  -0.832  0.00  0.00     0.019 C 
ATOM     16  C   LIG d   1      13.166  10.135  -1.624  0.00  0.00    -0.070 C 
ATOM     17  C   LIG d   1      13.262  11.463  -1.579  0.00  0.00    -0.021 C 
ATOM     18  C   LIG d   1      12.311  12.236  -0.788  0.00  0.00     0.166 C 
ATOM     19  O   LIG d   1      12.631  13.304  -0.303  0.00  0.00    -0.292 OA
ATOM     20  C   LIG d   1      10.892  11.727  -0.622  0.00  0.00     0.053 C 
ATOM     21  C   LIG d   1      10.850  10.217  -0.749  0.00  0.00    -0.002 C 
ATOM     22  C   LIG d   1       9.651   9.624  -0.793  0.00  0.00     0.161 C 
ATOM     23  C   LIG d   1       9.527   8.183  -1.005  0.00  0.00     0.206 C 
ATOM     24  O   LIG d   1       8.422   7.675  -0.920  0.00  0.00    -0.288 OA
ATOM     25  H   LIG d   1      13.192   8.874  -3.619  0.00  0.00     0.031 H 
ATOM     26  H   LIG d   1      13.390   7.195  -4.144  0.00  0.00     0.031 H 
ATOM     27  H   LIG d   1       8.940   7.451  -5.206  0.00  0.00     0.030 H 
ATOM     28  H   LIG d   1       9.391   5.774  -5.637  0.00  0.00     0.030 H 
ATOM     29  H   LIG d   1      13.865   9.606  -2.239  0.00  0.00     0.058 H 
ATOM     30  H   LIG d   1      14.042  11.958  -2.129  0.00  0.00     0.065 H 
ENDROOT
BRANCH   5  31
ATOM     31  C   LIG d   1      11.267   7.994  -6.304  0.00  0.00    -0.006 A 
ATOM     32  C   LIG d   1      12.430   8.414  -6.834  0.00  0.00     0.095 A 
ATOM     33  O   LIG d   1      12.156   9.244  -7.854  0.00  0.00    -0.471 OA
ATOM     34  H   LIG d   1      13.416   8.130  -6.499  0.00  0.00     0.103 H 
ATOM     35  C   LIG d   1      10.826   9.372  -7.982  0.00  0.00     0.092 A 
ATOM     36  C   LIG d   1      10.234   8.615  -7.042  0.00  0.00    -0.021 A 
ATOM     37  H   LIG d   1      10.318   9.979  -8.717  0.00  0.00     0.103 H 
ATOM     38  H   LIG d   1       9.171   8.501  -6.882  0.00  0.00     0.065 H 
ENDBRANCH   5  31
BRANCH   4  39
ATOM     39  C   LIG d   1      10.728   9.171  -3.849  0.00  0.00    -0.056 C 
ATOM     40  H   LIG d   1      11.372   9.878  -3.326  0.00  0.00     0.024 H 
ATOM     41  H   LIG d   1      10.613   9.484  -4.888  0.00  0.00     0.024 H 
ATOM     42  H   LIG d   1       9.750   9.145  -3.368  0.00  0.00     0.024 H 
ENDBRANCH   4  39
BRANCH   1  43
ATOM     43  O   LIG d   1      14.406   7.698  -1.611  0.00  0.00    -0.461 OA
BRANCH  43  44
ATOM     44  C   LIG d   1      14.947   6.895  -0.681  0.00  0.00     0.304 C 
ATOM     45  O   LIG d   1      15.486   7.373   0.289  0.00  0.00    -0.251 OA
BRANCH  44  46
ATOM     46  C   LIG d   1      14.881   5.399  -0.846  0.00  0.00     0.033 C 
ATOM     47  H   LIG d   1      15.870   4.972  -0.687  0.00  0.00     0.034 H 
ATOM     48  H   LIG d   1      14.184   4.983  -0.118  0.00  0.00     0.034 H 
ATOM     49  H   LIG d   1      14.539   5.160  -1.853  0.00  0.00     0.034 H 
ENDBRANCH  44  46
ENDBRANCH  43  44
ENDBRANCH   1  43
BRANCH  12  50
ATOM     50  C   LIG d   1      10.589   6.062  -0.438  0.00  0.00    -0.049 C 
ATOM     51  H   LIG d   1      10.861   6.311   0.587  0.00  0.00     0.024 H 
ATOM     52  H   LIG d   1       9.565   5.688  -0.463  0.00  0.00     0.024 H 
ATOM     53  H   LIG d   1      11.265   5.295  -0.817  0.00  0.00     0.024 H 
ENDBRANCH  12  50
BRANCH  15  54
ATOM     54  C   LIG d   1      12.666   9.514   0.609  0.00  0.00    -0.052 C 
ATOM     55  H   LIG d   1      13.446  10.273   0.655  0.00  0.00     0.024 H 
ATOM     56  H   LIG d   1      11.858   9.781   1.291  0.00  0.00     0.024 H 
ATOM     57  H   LIG d   1      13.081   8.548   0.897  0.00  0.00     0.024 H 
ENDBRANCH  15  54
BRANCH  22  58
ATOM     58  O   LIG d   1       8.498  10.333  -0.614  0.00  0.00    -0.503 OA
ATOM     59  H   LIG d   1       7.753   9.801  -0.305  0.00  0.00     0.292 HD
ENDBRANCH  22  58
BRANCH  20  60
ATOM     60  C   LIG d   1      10.363  12.166   0.750  0.00  0.00    -0.049 C 
ATOM     61  H   LIG d   1      10.881  13.071   1.067  0.00  0.00     0.024 H 
ATOM     62  H   LIG d   1       9.294  12.366   0.679  0.00  0.00     0.024 H 
ATOM     63  H   LIG d   1      10.537  11.374   1.477  0.00  0.00     0.024 H 
ENDBRANCH  20  60
BRANCH  20  64
ATOM     64  C   LIG d   1      10.036  12.382  -1.722  0.00  0.00    -0.049 C 
ATOM     65  H   LIG d   1       9.287  11.671  -2.070  0.00  0.00     0.024 H 
ATOM     66  H   LIG d   1       9.539  13.264  -1.318  0.00  0.00     0.024 H 
ATOM     67  H   LIG d   1      10.675  12.675  -2.554  0.00  0.00     0.024 H 
ENDBRANCH  20  64
TORSDOF 10
ENDMDL
MODEL 8
REMARK VINA RESULT:      -5.5      1.957      5.838
REMARK  10 active torsions:
REMARK  status: ('A' for Active; 'I' for Inactive)
REMARK    1  A    between atoms: C_1  and  C_2 
REMARK    2  A    between atoms: C_2  and  O_4 
REMARK    3  A    between atoms: O_4  and  C_5 
REMARK    4  A    between atoms: C_8  and  C_39 
REMARK    5  A    between atoms: C_9  and  C_34 
REMARK    6  A    between atoms: C_16  and  C_33 
REMARK    7  A    between atoms: C_19  and  C_32 
REMARK    8  A    between atoms: C_24  and  C_30 
REMARK    9  A    between atoms: C_24  and  C_31 
REMARK   10  A    between atoms: C_26  and  O_29 
ROOT
ATOM      1  C   LIG d   1       7.595  -1.586  -7.308  0.00  0.00     0.108 C 
ATOM      2  H   LIG d   1       8.168  -1.817  -6.389  0.00  0.00     0.074 H 
ATOM      3  C   LIG d   1       7.015  -2.905  -7.817  0.00  0.00    -0.007 C 
ATOM      4  C   LIG d   1       5.839  -3.329  -6.949  0.00  0.00     0.011 C 
ATOM      5  C   LIG d   1       5.946  -4.804  -6.499  0.00  0.00    -0.002 C 
ATOM      6  H   LIG d   1       6.968  -5.054  -6.223  0.00  0.00     0.036 H 
ATOM      7  C   LIG d   1       5.010  -4.824  -5.256  0.00  0.00    -0.016 C 
ATOM      8  C   LIG d   1       5.296  -3.465  -4.562  0.00  0.00     0.090 A 
ATOM      9  H   LIG d   1       4.595  -3.107  -3.812  0.00  0.00     0.063 H 
ATOM     10  C   LIG d   1       5.907  -2.555  -5.617  0.00  0.00     0.115 A 
ATOM     11  O   LIG d   1       6.678  -3.086  -4.534  0.00  0.00    -0.363 OA
ATOM     12  C   LIG d   1       5.781  -1.039  -5.700  0.00  0.00     0.073 C 
ATOM     13  C   LIG d   1       6.523  -0.566  -6.938  0.00  0.00     0.024 C 
ATOM     14  H   LIG d   1       7.099   0.317  -6.582  0.00  0.00     0.036 H 
ATOM     15  C   LIG d   1       5.730  -0.040  -8.084  0.00  0.00     0.019 C 
ATOM     16  C   LIG d   1       6.096  -0.605  -9.418  0.00  0.00    -0.070 C 
ATOM     17  C   LIG d   1       5.399  -0.274 -10.503  0.00  0.00    -0.021 C 
ATOM     18  C   LIG d   1       4.246   0.611 -10.387  0.00  0.00     0.166 C 
ATOM     19  O   LIG d   1       3.918   1.327 -11.312  0.00  0.00    -0.292 OA
ATOM     20  C   LIG d   1       3.414   0.589  -9.119  0.00  0.00     0.053 C 
ATOM     21  C   LIG d   1       4.254   0.142  -7.938  0.00  0.00    -0.002 C 
ATOM     22  C   LIG d   1       3.631  -0.092  -6.777  0.00  0.00     0.161 C 
ATOM     23  C   LIG d   1       4.359  -0.611  -5.621  0.00  0.00     0.206 C 
ATOM     24  O   LIG d   1       3.773  -0.696  -4.554  0.00  0.00    -0.288 OA
ATOM     25  H   LIG d   1       6.690  -2.818  -8.850  0.00  0.00     0.031 H 
ATOM     26  H   LIG d   1       7.791  -3.676  -7.762  0.00  0.00     0.031 H 
ATOM     27  H   LIG d   1       3.966  -4.897  -5.553  0.00  0.00     0.030 H 
ATOM     28  H   LIG d   1       5.276  -5.650  -4.596  0.00  0.00     0.030 H 
ATOM     29  H   LIG d   1       6.919  -1.280  -9.540  0.00  0.00     0.058 H 
ATOM     30  H   LIG d   1       5.693  -0.663 -11.461  0.00  0.00     0.065 H 
ENDROOT
BRANCH   5  31
ATOM     31  C   LIG d   1       5.431  -5.729  -7.573  0.00  0.00    -0.006 A 
ATOM     32  C   LIG d   1       4.293  -6.443  -7.536  0.00  0.00     0.095 A 
ATOM     33  O   LIG d   1       4.190  -7.137  -8.680  0.00  0.00    -0.471 OA
ATOM     34  H   LIG d   1       3.580  -6.455  -6.724  0.00  0.00     0.103 H 
ATOM     35  C   LIG d   1       5.258  -6.885  -9.454  0.00  0.00     0.092 A 
ATOM     36  C   LIG d   1       6.055  -6.016  -8.808  0.00  0.00    -0.021 A 
ATOM     37  H   LIG d   1       5.444  -7.306 -10.431  0.00  0.00     0.103 H 
ATOM     38  H   LIG d   1       6.993  -5.613  -9.165  0.00  0.00     0.065 H 
ENDBRANCH   5  31
BRANCH   4  39
ATOM     39  C   LIG d   1       4.511  -3.112  -7.677  0.00  0.00    -0.056 C 
ATOM     40  H   LIG d   1       4.704  -2.727  -8.679  0.00  0.00     0.024 H 
ATOM     41  H   LIG d   1       3.977  -4.060  -7.750  0.00  0.00     0.024 H 
ATOM     42  H   LIG d   1       3.905  -2.396  -7.123  0.00  0.00     0.024 H 
ENDBRANCH   4  39
BRANCH   1  43
ATOM     43  O   LIG d   1       8.525  -1.043  -8.240  0.00  0.00    -0.461 OA
BRANCH  43  44
ATOM     44  C   LIG d   1       9.499  -0.263  -7.744  0.00  0.00     0.304 C 
ATOM     45  O   LIG d   1       9.838   0.731  -8.340  0.00  0.00    -0.251 OA
BRANCH  44  46
ATOM     46  C   LIG d   1      10.168  -0.628  -6.444  0.00  0.00     0.033 C 
ATOM     47  H   LIG d   1      11.179  -0.982  -6.642  0.00  0.00     0.034 H 
ATOM     48  H   LIG d   1      10.210   0.249  -5.798  0.00  0.00     0.034 H 
ATOM     49  H   LIG d   1       9.597  -1.415  -5.950  0.00  0.00     0.034 H 
ENDBRANCH  44  46
ENDBRANCH  43  44
ENDBRANCH   1  43
BRANCH  12  50
ATOM     50  C   LIG d   1       6.505  -0.452  -4.473  0.00  0.00    -0.049 C 
ATOM     51  H   LIG d   1       6.973   0.494  -4.745  0.00  0.00     0.024 H 
ATOM     52  H   LIG d   1       5.785  -0.284  -3.672  0.00  0.00     0.024 H 
ATOM     53  H   LIG d   1       7.269  -1.152  -4.134  0.00  0.00     0.024 H 
ENDBRANCH  12  50
BRANCH  15  54
ATOM     54  C   LIG d   1       6.243   1.415  -8.184  0.00  0.00    -0.052 C 
ATOM     55  H   LIG d   1       7.228   1.421  -8.651  0.00  0.00     0.024 H 
ATOM     56  H   LIG d   1       5.551   2.004  -8.787  0.00  0.00     0.024 H 
ATOM     57  H   LIG d   1       6.311   1.845  -7.185  0.00  0.00     0.024 H 
ENDBRANCH  15  54
BRANCH  22  58
ATOM     58  O   LIG d   1       2.302   0.172  -6.616  0.00  0.00    -0.503 OA
ATOM     59  H   LIG d   1       1.984   0.052  -5.711  0.00  0.00     0.292 HD
ENDBRANCH  22  58
BRANCH  20  60
ATOM     60  C   LIG d   1       2.844   1.991  -8.872  0.00  0.00    -0.049 C 
ATOM     61  H   LIG d   1       1.828   2.045  -9.264  0.00  0.00     0.024 H 
ATOM     62  H   LIG d   1       2.831   2.196  -7.802  0.00  0.00     0.024 H 
ATOM     63  H   LIG d   1       3.467   2.730  -9.376  0.00  0.00     0.024 H 
ENDBRANCH  20  60
BRANCH  20  64
ATOM     64  C   LIG d   1       2.249  -0.392  -9.349  0.00  0.00    -0.049 C 
ATOM     65  H   LIG d   1       1.454   0.111  -9.899  0.00  0.00     0.024 H 
ATOM     66  H   LIG d   1       2.603  -1.248  -9.924  0.00  0.00     0.024 H 
ATOM     67  H   LIG d   1       1.866  -0.735  -8.388  0.00  0.00     0.024 H 
ENDBRANCH  20  64
TORSDOF 10
ENDMDL
MODEL 9
REMARK VINA RESULT:      -5.4      8.483     12.387
REMARK  10 active torsions:
REMARK  status: ('A' for Active; 'I' for Inactive)
REMARK    1  A    between atoms: C_1  and  C_2 
REMARK    2  A    between atoms: C_2  and  O_4 
REMARK    3  A    between atoms: O_4  and  C_5 
REMARK    4  A    between atoms: C_8  and  C_39 
REMARK    5  A    between atoms: C_9  and  C_34 
REMARK    6  A    between atoms: C_16  and  C_33 
REMARK    7  A    between atoms: C_19  and  C_32 
REMARK    8  A    between atoms: C_24  and  C_30 
REMARK    9  A    between atoms: C_24  and  C_31 
REMARK   10  A    between atoms: C_26  and  O_29 
ROOT
ATOM      1  C   LIG d   1      10.618   9.255  -3.516  0.00  0.00     0.108 C 
ATOM      2  H   LIG d   1      10.195  10.046  -2.867  0.00  0.00     0.074 H 
ATOM      3  C   LIG d   1      12.138   9.343  -3.397  0.00  0.00    -0.007 C 
ATOM      4  C   LIG d   1      12.593   8.772  -2.062  0.00  0.00     0.011 C 
ATOM      5  C   LIG d   1      13.568   9.718  -1.324  0.00  0.00    -0.002 C 
ATOM      6  H   LIG d   1      13.249  10.754  -1.412  0.00  0.00     0.036 H 
ATOM      7  C   LIG d   1      13.441   9.217   0.145  0.00  0.00    -0.016 C 
ATOM      8  C   LIG d   1      11.928   8.904   0.294  0.00  0.00     0.090 A 
ATOM      9  H   LIG d   1      11.603   8.299   1.137  0.00  0.00     0.063 H 
ATOM     10  C   LIG d   1      11.380   8.716  -1.113  0.00  0.00     0.115 A 
ATOM     11  O   LIG d   1      11.055   9.861  -0.318  0.00  0.00    -0.363 OA
ATOM     12  C   LIG d   1      10.226   7.812  -1.530  0.00  0.00     0.073 C 
ATOM     13  C   LIG d   1      10.059   7.919  -3.036  0.00  0.00     0.024 C 
ATOM     14  H   LIG d   1       8.960   8.018  -3.176  0.00  0.00     0.036 H 
ATOM     15  C   LIG d   1      10.422   6.744  -3.876  0.00  0.00     0.019 C 
ATOM     16  C   LIG d   1      11.293   7.053  -5.051  0.00  0.00    -0.070 C 
ATOM     17  C   LIG d   1      11.752   6.071  -5.824  0.00  0.00    -0.021 C 
ATOM     18  C   LIG d   1      11.442   4.683  -5.502  0.00  0.00     0.166 C 
ATOM     19  O   LIG d   1      11.373   3.843  -6.378  0.00  0.00    -0.292 OA
ATOM     20  C   LIG d   1      11.265   4.277  -4.052  0.00  0.00     0.053 C 
ATOM     21  C   LIG d   1      10.803   5.457  -3.220  0.00  0.00    -0.002 C 
ATOM     22  C   LIG d   1      10.759   5.310  -1.891  0.00  0.00     0.161 C 
ATOM     23  C   LIG d   1      10.412   6.429  -1.017  0.00  0.00     0.206 C 
ATOM     24  O   LIG d   1      10.271   6.215   0.176  0.00  0.00    -0.288 OA
ATOM     25  H   LIG d   1      12.627   8.808  -4.207  0.00  0.00     0.031 H 
ATOM     26  H   LIG d   1      12.435  10.396  -3.450  0.00  0.00     0.031 H 
ATOM     27  H   LIG d   1      14.042   8.325   0.308  0.00  0.00     0.030 H 
ATOM     28  H   LIG d   1      13.735  10.005   0.839  0.00  0.00     0.030 H 
ATOM     29  H   LIG d   1      11.566   8.057  -5.304  0.00  0.00     0.058 H 
ATOM     30  H   LIG d   1      12.352   6.310  -6.684  0.00  0.00     0.065 H 
ENDROOT
BRANCH   5  31
ATOM     31  C   LIG d   1      14.976   9.536  -1.832  0.00  0.00    -0.006 A 
ATOM     32  C   LIG d   1      15.977   8.894  -1.205  0.00  0.00     0.095 A 
ATOM     33  O   LIG d   1      17.070   8.949  -1.983  0.00  0.00    -0.471 OA
ATOM     34  H   LIG d   1      15.913   8.412  -0.240  0.00  0.00     0.103 H 
ATOM     35  C   LIG d   1      16.786   9.631  -3.104  0.00  0.00     0.092 A 
ATOM     36  C   LIG d   1      15.498  10.014  -3.054  0.00  0.00    -0.021 A 
ATOM     37  H   LIG d   1      17.475   9.835  -3.911  0.00  0.00     0.103 H 
ATOM     38  H   LIG d   1      14.965  10.579  -3.806  0.00  0.00     0.065 H 
ENDBRANCH   5  31
BRANCH   4  39
ATOM     39  C   LIG d   1      13.250   7.402  -2.245  0.00  0.00    -0.056 C 
ATOM     40  H   LIG d   1      14.076   7.298  -1.542  0.00  0.00     0.024 H 
ATOM     41  H   LIG d   1      12.514   6.619  -2.059  0.00  0.00     0.024 H 
ATOM     42  H   LIG d   1      13.626   7.313  -3.264  0.00  0.00     0.024 H 
ENDBRANCH   4  39
BRANCH   1  43
ATOM     43  O   LIG d   1      10.190   9.547  -4.843  0.00  0.00    -0.461 OA
BRANCH  43  44
ATOM     44  C   LIG d   1       9.544  10.708  -5.033  0.00  0.00     0.304 C 
ATOM     45  O   LIG d   1       9.537  11.223  -6.125  0.00  0.00    -0.251 OA
BRANCH  44  46
ATOM     46  C   LIG d   1       8.828  11.369  -3.883  0.00  0.00     0.033 C 
ATOM     47  H   LIG d   1       7.919  10.814  -3.653  0.00  0.00     0.034 H 
ATOM     48  H   LIG d   1       9.478  11.381  -3.009  0.00  0.00     0.034 H 
ATOM     49  H   LIG d   1       8.569  12.393  -4.158  0.00  0.00     0.034 H 
ENDBRANCH  44  46
ENDBRANCH  43  44
ENDBRANCH   1  43
BRANCH  12  50
ATOM     50  C   LIG d   1       8.946   8.374  -0.881  0.00  0.00    -0.049 C 
ATOM     51  H   LIG d   1       8.298   8.787  -1.653  0.00  0.00     0.024 H 
ATOM     52  H   LIG d   1       8.424   7.574  -0.356  0.00  0.00     0.024 H 
ATOM     53  H   LIG d   1       9.214   9.158  -0.173  0.00  0.00     0.024 H 
ENDBRANCH  12  50
BRANCH  15  54
ATOM     54  C   LIG d   1       9.071   6.399  -4.542  0.00  0.00    -0.052 C 
ATOM     55  H   LIG d   1       9.069   5.349  -4.837  0.00  0.00     0.024 H 
ATOM     56  H   LIG d   1       8.260   6.580  -3.836  0.00  0.00     0.024 H 
ATOM     57  H   LIG d   1       8.931   7.023  -5.425  0.00  0.00     0.024 H 
ENDBRANCH  15  54
BRANCH  22  58
ATOM     58  O   LIG d   1      11.008   4.105  -1.299  0.00  0.00    -0.503 OA
ATOM     59  H   LIG d   1      10.827   3.343  -1.865  0.00  0.00     0.292 HD
ENDBRANCH  22  58
BRANCH  20  60
ATOM     60  C   LIG d   1      10.244   3.134  -3.976  0.00  0.00    -0.049 C 
ATOM     61  H   LIG d   1       9.587   3.289  -3.120  0.00  0.00     0.024 H 
ATOM     62  H   LIG d   1       9.652   3.114  -4.890  0.00  0.00     0.024 H 
ATOM     63  H   LIG d   1      10.769   2.185  -3.863  0.00  0.00     0.024 H 
ENDBRANCH  20  60
BRANCH  20  64
ATOM     64  C   LIG d   1      12.627   3.765  -3.546  0.00  0.00    -0.049 C 
ATOM     65  H   LIG d   1      13.018   3.024  -4.243  0.00  0.00     0.024 H 
ATOM     66  H   LIG d   1      13.324   4.601  -3.476  0.00  0.00     0.024 H 
ATOM     67  H   LIG d   1      12.504   3.312  -2.564  0.00  0.00     0.024 H 
ENDBRANCH  20  64
TORSDOF 10
ENDMDL
MODEL 10
REMARK VINA RESULT:      -5.4      1.861      6.413
REMARK  10 active torsions:
REMARK  status: ('A' for Active; 'I' for Inactive)
REMARK    1  A    between atoms: C_1  and  C_2 
REMARK    2  A    between atoms: C_2  and  O_4 
REMARK    3  A    between atoms: O_4  and  C_5 
REMARK    4  A    between atoms: C_8  and  C_39 
REMARK    5  A    between atoms: C_9  and  C_34 
REMARK    6  A    between atoms: C_16  and  C_33 
REMARK    7  A    between atoms: C_19  and  C_32 
REMARK    8  A    between atoms: C_24  and  C_30 
REMARK    9  A    between atoms: C_24  and  C_31 
REMARK   10  A    between atoms: C_26  and  O_29 
ROOT
ATOM      1  C   LIG d   1       6.480  -0.748  -5.206  0.00  0.00     0.108 C 
ATOM      2  H   LIG d   1       6.719  -1.207  -4.227  0.00  0.00     0.074 H 
ATOM      3  C   LIG d   1       7.648  -1.054  -6.141  0.00  0.00    -0.007 C 
ATOM      4  C   LIG d   1       7.598  -2.509  -6.584  0.00  0.00     0.011 C 
ATOM      5  C   LIG d   1       8.962  -3.218  -6.417  0.00  0.00    -0.002 C 
ATOM      6  H   LIG d   1       9.439  -2.931  -5.483  0.00  0.00     0.036 H 
ATOM      7  C   LIG d   1       8.537  -4.715  -6.391  0.00  0.00    -0.016 C 
ATOM      8  C   LIG d   1       7.222  -4.708  -5.567  0.00  0.00     0.090 A 
ATOM      9  H   LIG d   1       6.576  -5.582  -5.608  0.00  0.00     0.063 H 
ATOM     10  C   LIG d   1       6.683  -3.285  -5.616  0.00  0.00     0.115 A 
ATOM     11  O   LIG d   1       7.237  -3.846  -4.421  0.00  0.00    -0.363 OA
ATOM     12  C   LIG d   1       5.221  -2.860  -5.568  0.00  0.00     0.073 C 
ATOM     13  C   LIG d   1       5.161  -1.347  -5.684  0.00  0.00     0.024 C 
ATOM     14  H   LIG d   1       4.428  -1.049  -4.902  0.00  0.00     0.036 H 
ATOM     15  C   LIG d   1       4.614  -0.751  -6.935  0.00  0.00     0.019 C 
ATOM     16  C   LIG d   1       5.451   0.330  -7.538  0.00  0.00    -0.070 C 
ATOM     17  C   LIG d   1       5.107   0.876  -8.702  0.00  0.00    -0.021 C 
ATOM     18  C   LIG d   1       3.932   0.391  -9.417  0.00  0.00     0.166 C 
ATOM     19  O   LIG d   1       3.299   1.130 -10.145  0.00  0.00    -0.292 OA
ATOM     20  C   LIG d   1       3.535  -1.067  -9.294  0.00  0.00     0.053 C 
ATOM     21  C   LIG d   1       4.014  -1.641  -7.974  0.00  0.00    -0.002 C 
ATOM     22  C   LIG d   1       3.891  -2.959  -7.781  0.00  0.00     0.161 C 
ATOM     23  C   LIG d   1       4.412  -3.598  -6.574  0.00  0.00     0.206 C 
ATOM     24  O   LIG d   1       4.171  -4.780  -6.390  0.00  0.00    -0.288 OA
ATOM     25  H   LIG d   1       7.631  -0.408  -7.015  0.00  0.00     0.031 H 
ATOM     26  H   LIG d   1       8.586  -0.881  -5.602  0.00  0.00     0.031 H 
ATOM     27  H   LIG d   1       8.364  -5.091  -7.397  0.00  0.00     0.030 H 
ATOM     28  H   LIG d   1       9.296  -5.315  -5.886  0.00  0.00     0.030 H 
ATOM     29  H   LIG d   1       6.337   0.694  -7.058  0.00  0.00     0.058 H 
ATOM     30  H   LIG d   1       5.701   1.675  -9.110  0.00  0.00     0.065 H 
ENDROOT
BRANCH   5  31
ATOM     31  C   LIG d   1       9.858  -2.936  -7.595  0.00  0.00    -0.006 A 
ATOM     32  C   LIG d   1      10.153  -3.782  -8.598  0.00  0.00     0.095 A 
ATOM     33  O   LIG d   1      10.980  -3.157  -9.451  0.00  0.00    -0.471 OA
ATOM     34  H   LIG d   1       9.785  -4.792  -8.701  0.00  0.00     0.103 H 
ATOM     35  C   LIG d   1      11.231  -1.917  -9.004  0.00  0.00     0.092 A 
ATOM     36  C   LIG d   1      10.556  -1.735  -7.855  0.00  0.00    -0.021 A 
ATOM     37  H   LIG d   1      11.866  -1.187  -9.485  0.00  0.00     0.103 H 
ATOM     38  H   LIG d   1      10.547  -0.841  -7.247  0.00  0.00     0.065 H 
ENDBRANCH   5  31
BRANCH   4  39
ATOM     39  C   LIG d   1       7.136  -2.626  -8.037  0.00  0.00    -0.056 C 
ATOM     40  H   LIG d   1       6.772  -1.658  -8.382  0.00  0.00     0.024 H 
ATOM     41  H   LIG d   1       7.973  -2.943  -8.661  0.00  0.00     0.024 H 
ATOM     42  H   LIG d   1       6.334  -3.361  -8.106  0.00  0.00     0.024 H 
ENDBRANCH   4  39
BRANCH   1  43
ATOM     43  O   LIG d   1       6.359   0.652  -4.978  0.00  0.00    -0.461 OA
BRANCH  43  44
ATOM     44  C   LIG d   1       6.514   1.080  -3.716  0.00  0.00     0.304 C 
ATOM     45  O   LIG d   1       7.484   1.735  -3.415  0.00  0.00    -0.251 OA
BRANCH  44  46
ATOM     46  C   LIG d   1       5.479   0.744  -2.673  0.00  0.00     0.033 C 
ATOM     47  H   LIG d   1       5.959   0.656  -1.699  0.00  0.00     0.034 H 
ATOM     48  H   LIG d   1       4.728   1.533  -2.639  0.00  0.00     0.034 H 
ATOM     49  H   LIG d   1       5.000  -0.202  -2.929  0.00  0.00     0.034 H 
ENDBRANCH  44  46
ENDBRANCH  43  44
ENDBRANCH   1  43
BRANCH  12  50
ATOM     50  C   LIG d   1       4.679  -3.240  -4.176  0.00  0.00    -0.049 C 
ATOM     51  H   LIG d   1       5.412  -3.857  -3.657  0.00  0.00     0.024 H 
ATOM     52  H   LIG d   1       4.493  -2.334  -3.600  0.00  0.00     0.024 H 
ATOM     53  H   LIG d   1       3.749  -3.797  -4.289  0.00  0.00     0.024 H 
ENDBRANCH  12  50
BRANCH  15  54
ATOM     54  C   LIG d   1       3.389   0.029  -6.407  0.00  0.00    -0.052 C 
ATOM     55  H   LIG d   1       3.482   1.080  -6.680  0.00  0.00     0.024 H 
ATOM     56  H   LIG d   1       2.479  -0.382  -6.846  0.00  0.00     0.024 H 
ATOM     57  H   LIG d   1       3.341  -0.062  -5.322  0.00  0.00     0.024 H 
ENDBRANCH  15  54
BRANCH  22  58
ATOM     58  O   LIG d   1       3.251  -3.755  -8.686  0.00  0.00    -0.503 OA
ATOM     59  H   LIG d   1       2.634  -4.386  -8.289  0.00  0.00     0.292 HD
ENDBRANCH  22  58
BRANCH  20  60
ATOM     60  C   LIG d   1       2.009  -1.180  -9.406  0.00  0.00    -0.049 C 
ATOM     61  H   LIG d   1       1.541  -0.530  -8.666  0.00  0.00     0.024 H 
ATOM     62  H   LIG d   1       1.695  -0.878 -10.405  0.00  0.00     0.024 H 
ATOM     63  H   LIG d   1       1.706  -2.212  -9.227  0.00  0.00     0.024 H 
ENDBRANCH  20  60
BRANCH  20  64
ATOM     64  C   LIG d   1       4.180  -1.822 -10.472  0.00  0.00    -0.049 C 
ATOM     65  H   LIG d   1       4.048  -2.894 -10.332  0.00  0.00     0.024 H 
ATOM     66  H   LIG d   1       3.703  -1.516 -11.403  0.00  0.00     0.024 H 
ATOM     67  H   LIG d   1       5.243  -1.589 -10.515  0.00  0.00     0.024 H 
ENDBRANCH  20  64
TORSDOF 10
ENDMDL
