MODEL 1
REMARK VINA RESULT:      -6.3      0.000      0.000
REMARK  8 active torsions:
REMARK  status: ('A' for Active; 'I' for Inactive)
REMARK    1  A    between atoms: C_1  and  C_2 
REMARK    2  A    between atoms: C_8  and  C_11 
REMARK    3  A    between atoms: C_14  and  O_17 
REMARK    4  A    between atoms: O_17  and  C_18 
REMARK    5  A    between atoms: C_18  and  C_19 
REMARK    6  A    between atoms: C_19  and  C_21 
REMARK    7  A    between atoms: C_19  and  O_27 
REMARK    8  A    between atoms: C_21  and  N_56 
ROOT
ATOM      1  C   LIG d   1       3.864  -0.876  -6.289  0.00  0.00    -0.018 A 
ATOM      2  C   LIG d   1       2.877  -0.011  -6.725  0.00  0.00    -0.053 A 
ATOM      3  C   LIG d   1       2.299  -0.190  -7.966  0.00  0.00    -0.020 A 
ATOM      4  C   LIG d   1       2.713  -1.236  -8.778  0.00  0.00     0.121 A 
ATOM      5  C   LIG d   1       3.699  -2.105  -8.337  0.00  0.00    -0.020 A 
ATOM      6  C   LIG d   1       4.277  -1.920  -7.096  0.00  0.00    -0.053 A 
ATOM      7  H   LIG d   1       2.556   0.803  -6.092  0.00  0.00     0.062 H 
ATOM      8  H   LIG d   1       1.528   0.487  -8.306  0.00  0.00     0.065 H 
ATOM      9  H   LIG d   1       4.019  -2.924  -8.965  0.00  0.00     0.065 H 
ATOM     10  H   LIG d   1       5.050  -2.593  -6.754  0.00  0.00     0.062 H 
ENDROOT
BRANCH   4  11
ATOM     11  O   LIG d   1       2.147  -1.413 -10.001  0.00  0.00    -0.489 OA
BRANCH  11  12
ATOM     12  C   LIG d   1       2.964  -1.998 -11.016  0.00  0.00     0.120 C 
ATOM     13  H   LIG d   1       2.574  -2.981 -11.276  0.00  0.00     0.072 H 
ATOM     14  H   LIG d   1       3.985  -2.098 -10.648  0.00  0.00     0.072 H 
BRANCH  12  15
ATOM     15  C   LIG d   1       2.956  -1.102 -12.256  0.00  0.00     0.129 C 
ATOM     16  H   LIG d   1       2.087  -0.445 -12.224  0.00  0.00     0.068 H 
BRANCH  15  17
ATOM     17  C   LIG d   1       4.232  -0.257 -12.284  0.00  0.00    -0.002 C 
ATOM     18  H   LIG d   1       4.106   0.569 -12.983  0.00  0.00     0.084 H 
ATOM     19  H   LIG d   1       5.071  -0.876 -12.602  0.00  0.00     0.084 H 
BRANCH  17  20
ATOM     20  N   LIG d   1       4.470   0.283 -10.930  0.00  0.00     0.237 N 
ATOM     21  C   LIG d   1       3.977   1.674 -10.848  0.00  0.00    -0.032 C 
ATOM     22  C   LIG d   1       4.126   2.170  -9.407  0.00  0.00    -0.012 C 
ATOM     23  H   LIG d   1       4.546   2.322 -11.515  0.00  0.00     0.081 H 
ATOM     24  H   LIG d   1       2.925   1.695 -11.131  0.00  0.00     0.081 H 
ATOM     25  C   LIG d   1       5.603   2.121  -9.005  0.00  0.00    -0.043 C 
ATOM     26  H   LIG d   1       3.546   1.531  -8.741  0.00  0.00     0.032 H 
ATOM     27  H   LIG d   1       3.764   3.196  -9.335  0.00  0.00     0.032 H 
ATOM     28  C   LIG d   1       6.120   0.688  -9.167  0.00  0.00    -0.012 C 
ATOM     29  H   LIG d   1       5.709   2.431  -7.966  0.00  0.00     0.027 H 
ATOM     30  H   LIG d   1       6.179   2.790  -9.647  0.00  0.00     0.027 H 
ATOM     31  C   LIG d   1       5.914   0.236 -10.614  0.00  0.00    -0.032 C 
ATOM     32  H   LIG d   1       5.571   0.026  -8.496  0.00  0.00     0.032 H 
ATOM     33  H   LIG d   1       7.181   0.655  -8.923  0.00  0.00     0.032 H 
ATOM     34  H   LIG d   1       6.268  -0.788 -10.728  0.00  0.00     0.081 H 
ATOM     35  H   LIG d   1       6.473   0.891 -11.282  0.00  0.00     0.081 H 
ATOM     36  H   LIG d   1       3.961  -0.291 -10.248  0.00  0.00     0.203 HD
ENDBRANCH  17  20
ENDBRANCH  15  17
BRANCH  15  37
ATOM     37  O   LIG d   1       2.897  -1.914 -13.431  0.00  0.00    -0.383 OA
ATOM     38  H   LIG d   1       3.427  -2.721 -13.378  0.00  0.00     0.210 HD
ENDBRANCH  15  37
ENDBRANCH  12  15
ENDBRANCH  11  12
ENDBRANCH   4  11
BRANCH   1  39
ATOM     39  C   LIG d   1       4.492  -0.680  -4.933  0.00  0.00     0.088 C 
ATOM     40  C   LIG d   1       3.519   0.083  -4.025  0.00  0.00    -0.001 C 
ATOM     41  C   LIG d   1       4.095   0.094  -2.623  0.00  0.00    -0.071 C 
ATOM     42  H   LIG d   1       3.406   1.106  -4.384  0.00  0.00     0.034 H 
ATOM     43  H   LIG d   1       2.551  -0.416  -4.021  0.00  0.00     0.034 H 
ATOM     44  C   LIG d   1       4.585  -1.224  -2.057  0.00  0.00    -0.006 C 
ATOM     45  C   LIG d   1       4.167   1.201  -1.927  0.00  0.00    -0.099 C 
ATOM     46  C   LIG d   1       5.480  -1.892  -3.107  0.00  0.00     0.060 C 
ATOM     47  H   LIG d   1       3.734  -1.868  -1.834  0.00  0.00     0.034 H 
ATOM     48  H   LIG d   1       5.157  -1.043  -1.147  0.00  0.00     0.034 H 
ATOM     49  H   LIG d   1       5.732  -2.900  -2.782  0.00  0.00     0.060 H 
ATOM     50  O   LIG d   1       4.780  -1.953  -4.352  0.00  0.00    -0.368 OA
ATOM     51  H   LIG d   1       4.580   1.186  -0.930  0.00  0.00     0.053 H 
ATOM     52  H   LIG d   1       3.811   2.129  -2.350  0.00  0.00     0.053 H 
ATOM     53  H   LIG d   1       5.414  -0.109  -5.039  0.00  0.00     0.065 H 
BRANCH  46  54
ATOM     54  C   LIG d   1       6.761  -1.073  -3.281  0.00  0.00    -0.038 C 
ATOM     55  H   LIG d   1       7.489  -1.374  -2.528  0.00  0.00     0.025 H 
ATOM     56  H   LIG d   1       7.173  -1.248  -4.275  0.00  0.00     0.025 H 
ATOM     57  H   LIG d   1       6.534  -0.014  -3.163  0.00  0.00     0.025 H 
ENDBRANCH  46  54
ENDBRANCH   1  39
TORSDOF 8
ENDMDL
MODEL 2
REMARK VINA RESULT:      -6.1      4.786      7.146
REMARK  8 active torsions:
REMARK  status: ('A' for Active; 'I' for Inactive)
REMARK    1  A    between atoms: C_1  and  C_2 
REMARK    2  A    between atoms: C_8  and  C_11 
REMARK    3  A    between atoms: C_14  and  O_17 
REMARK    4  A    between atoms: O_17  and  C_18 
REMARK    5  A    between atoms: C_18  and  C_19 
REMARK    6  A    between atoms: C_19  and  C_21 
REMARK    7  A    between atoms: C_19  and  O_27 
REMARK    8  A    between atoms: C_21  and  N_56 
ROOT
ATOM      1  C   LIG d   1       8.868   2.633  -4.697  0.00  0.00    -0.018 A 
ATOM      2  C   LIG d   1       8.229   1.781  -3.815  0.00  0.00    -0.053 A 
ATOM      3  C   LIG d   1       7.503   0.708  -4.293  0.00  0.00    -0.020 A 
ATOM      4  C   LIG d   1       7.412   0.486  -5.659  0.00  0.00     0.121 A 
ATOM      5  C   LIG d   1       8.058   1.339  -6.542  0.00  0.00    -0.020 A 
ATOM      6  C   LIG d   1       8.780   2.414  -6.059  0.00  0.00    -0.053 A 
ATOM      7  H   LIG d   1       8.300   1.954  -2.752  0.00  0.00     0.062 H 
ATOM      8  H   LIG d   1       7.004   0.043  -3.603  0.00  0.00     0.065 H 
ATOM      9  H   LIG d   1       7.994   1.166  -7.606  0.00  0.00     0.065 H 
ATOM     10  H   LIG d   1       9.278   3.082  -6.747  0.00  0.00     0.062 H 
ENDROOT
BRANCH   4  11
ATOM     11  O   LIG d   1       6.698  -0.568  -6.132  0.00  0.00    -0.489 OA
BRANCH  11  12
ATOM     12  C   LIG d   1       5.531  -0.270  -6.900  0.00  0.00     0.120 C 
ATOM     13  H   LIG d   1       5.696  -0.556  -7.938  0.00  0.00     0.072 H 
ATOM     14  H   LIG d   1       5.324   0.798  -6.846  0.00  0.00     0.072 H 
BRANCH  12  15
ATOM     15  C   LIG d   1       4.339  -1.048  -6.339  0.00  0.00     0.129 C 
ATOM     16  H   LIG d   1       4.690  -1.770  -5.602  0.00  0.00     0.068 H 
BRANCH  15  17
ATOM     17  C   LIG d   1       3.362  -0.076  -5.673  0.00  0.00    -0.002 C 
ATOM     18  H   LIG d   1       2.363  -0.228  -6.080  0.00  0.00     0.084 H 
ATOM     19  H   LIG d   1       3.681   0.949  -5.867  0.00  0.00     0.084 H 
BRANCH  17  20
ATOM     20  N   LIG d   1       3.343  -0.346  -4.220  0.00  0.00     0.237 N 
ATOM     21  C   LIG d   1       4.081   0.713  -3.500  0.00  0.00    -0.032 C 
ATOM     22  C   LIG d   1       3.946   0.476  -1.994  0.00  0.00    -0.012 C 
ATOM     23  H   LIG d   1       5.135   0.702  -3.776  0.00  0.00     0.081 H 
ATOM     24  H   LIG d   1       3.648   1.681  -3.755  0.00  0.00     0.081 H 
ATOM     25  C   LIG d   1       4.535  -0.893  -1.643  0.00  0.00    -0.043 C 
ATOM     26  H   LIG d   1       2.892   0.501  -1.714  0.00  0.00     0.032 H 
ATOM     27  H   LIG d   1       4.485   1.254  -1.452  0.00  0.00     0.032 H 
ATOM     28  C   LIG d   1       3.812  -1.974  -2.452  0.00  0.00    -0.012 C 
ATOM     29  H   LIG d   1       4.402  -1.085  -0.579  0.00  0.00     0.027 H 
ATOM     30  H   LIG d   1       5.598  -0.906  -1.886  0.00  0.00     0.027 H 
ATOM     31  C   LIG d   1       3.952  -1.666  -3.945  0.00  0.00    -0.032 C 
ATOM     32  H   LIG d   1       2.757  -1.987  -2.180  0.00  0.00     0.032 H 
ATOM     33  H   LIG d   1       4.256  -2.946  -2.239  0.00  0.00     0.032 H 
ATOM     34  H   LIG d   1       3.426  -2.426  -4.523  0.00  0.00     0.081 H 
ATOM     35  H   LIG d   1       5.006  -1.665  -4.219  0.00  0.00     0.081 H 
ATOM     36  H   LIG d   1       2.370  -0.354  -3.896  0.00  0.00     0.203 HD
ENDBRANCH  17  20
ENDBRANCH  15  17
BRANCH  15  37
ATOM     37  O   LIG d   1       3.675  -1.735  -7.402  0.00  0.00    -0.383 OA
ATOM     38  H   LIG d   1       2.723  -1.572  -7.442  0.00  0.00     0.210 HD
ENDBRANCH  15  37
ENDBRANCH  12  15
ENDBRANCH  11  12
ENDBRANCH   4  11
BRANCH   1  39
ATOM     39  C   LIG d   1       9.661   3.803  -4.173  0.00  0.00     0.088 C 
ATOM     40  C   LIG d   1       9.097   5.105  -4.756  0.00  0.00    -0.001 C 
ATOM     41  C   LIG d   1       9.784   6.266  -4.065  0.00  0.00    -0.071 C 
ATOM     42  H   LIG d   1       9.296   5.145  -5.827  0.00  0.00     0.034 H 
ATOM     43  H   LIG d   1       8.024   5.154  -4.578  0.00  0.00     0.034 H 
ATOM     44  C   LIG d   1       9.861   6.233  -2.552  0.00  0.00    -0.006 C 
ATOM     45  C   LIG d   1      10.293   7.259  -4.750  0.00  0.00    -0.099 C 
ATOM     46  C   LIG d   1      10.369   4.849  -2.129  0.00  0.00     0.060 C 
ATOM     47  H   LIG d   1       8.872   6.408  -2.128  0.00  0.00     0.034 H 
ATOM     48  H   LIG d   1      10.551   7.001  -2.202  0.00  0.00     0.034 H 
ATOM     49  H   LIG d   1      10.302   4.753  -1.046  0.00  0.00     0.060 H 
ATOM     50  O   LIG d   1       9.565   3.844  -2.748  0.00  0.00    -0.368 OA
ATOM     51  H   LIG d   1      10.778   8.076  -4.237  0.00  0.00     0.053 H 
ATOM     52  H   LIG d   1      10.226   7.262  -5.828  0.00  0.00     0.053 H 
ATOM     53  H   LIG d   1      10.705   3.695  -4.466  0.00  0.00     0.065 H 
BRANCH  46  54
ATOM     54  C   LIG d   1      11.825   4.684  -2.569  0.00  0.00    -0.038 C 
ATOM     55  H   LIG d   1      12.269   5.665  -2.734  0.00  0.00     0.025 H 
ATOM     56  H   LIG d   1      12.383   4.159  -1.793  0.00  0.00     0.025 H 
ATOM     57  H   LIG d   1      11.861   4.109  -3.494  0.00  0.00     0.025 H 
ENDBRANCH  46  54
ENDBRANCH   1  39
TORSDOF 8
ENDMDL
MODEL 3
REMARK VINA RESULT:      -5.9      1.497      2.265
REMARK  8 active torsions:
REMARK  status: ('A' for Active; 'I' for Inactive)
REMARK    1  A    between atoms: C_1  and  C_2 
REMARK    2  A    between atoms: C_8  and  C_11 
REMARK    3  A    between atoms: C_14  and  O_17 
REMARK    4  A    between atoms: O_17  and  C_18 
REMARK    5  A    between atoms: C_18  and  C_19 
REMARK    6  A    between atoms: C_19  and  C_21 
REMARK    7  A    between atoms: C_19  and  O_27 
REMARK    8  A    between atoms: C_21  and  N_56 
ROOT
ATOM      1  C   LIG d   1       4.983  -1.437  -6.326  0.00  0.00    -0.018 A 
ATOM      2  C   LIG d   1       4.431  -2.572  -6.891  0.00  0.00    -0.053 A 
ATOM      3  C   LIG d   1       4.738  -2.917  -8.192  0.00  0.00    -0.020 A 
ATOM      4  C   LIG d   1       5.599  -2.122  -8.934  0.00  0.00     0.121 A 
ATOM      5  C   LIG d   1       6.156  -0.987  -8.364  0.00  0.00    -0.020 A 
ATOM      6  C   LIG d   1       5.842  -0.644  -7.063  0.00  0.00    -0.053 A 
ATOM      7  H   LIG d   1       3.760  -3.190  -6.312  0.00  0.00     0.062 H 
ATOM      8  H   LIG d   1       4.305  -3.804  -8.633  0.00  0.00     0.065 H 
ATOM      9  H   LIG d   1       6.831  -0.369  -8.938  0.00  0.00     0.065 H 
ATOM     10  H   LIG d   1       6.271   0.244  -6.621  0.00  0.00     0.062 H 
ENDROOT
BRANCH   4  11
ATOM     11  O   LIG d   1       5.902  -2.458 -10.215  0.00  0.00    -0.489 OA
BRANCH  11  12
ATOM     12  C   LIG d   1       5.814  -1.424 -11.196  0.00  0.00     0.120 C 
ATOM     13  H   LIG d   1       6.707  -1.439 -11.822  0.00  0.00     0.072 H 
ATOM     14  H   LIG d   1       5.736  -0.458 -10.700  0.00  0.00     0.072 H 
BRANCH  12  15
ATOM     15  C   LIG d   1       4.577  -1.651 -12.068  0.00  0.00     0.129 C 
ATOM     16  H   LIG d   1       4.032  -2.522 -11.705  0.00  0.00     0.068 H 
BRANCH  15  17
ATOM     17  C   LIG d   1       3.672  -0.419 -11.999  0.00  0.00    -0.002 C 
ATOM     18  H   LIG d   1       2.649  -0.705 -12.247  0.00  0.00     0.084 H 
ATOM     19  H   LIG d   1       4.022   0.329 -12.709  0.00  0.00     0.084 H 
BRANCH  17  20
ATOM     20  N   LIG d   1       3.707   0.116 -10.622  0.00  0.00     0.237 N 
ATOM     21  C   LIG d   1       2.441  -0.197  -9.927  0.00  0.00    -0.032 C 
ATOM     22  C   LIG d   1       2.547   0.261  -8.470  0.00  0.00    -0.012 C 
ATOM     23  H   LIG d   1       1.604   0.311 -10.407  0.00  0.00     0.081 H 
ATOM     24  H   LIG d   1       2.278  -1.274  -9.956  0.00  0.00     0.081 H 
ATOM     25  C   LIG d   1       2.798   1.772  -8.433  0.00  0.00    -0.043 C 
ATOM     26  H   LIG d   1       3.376  -0.256  -7.985  0.00  0.00     0.032 H 
ATOM     27  H   LIG d   1       1.619   0.034  -7.947  0.00  0.00     0.032 H 
ATOM     28  C   LIG d   1       4.071   2.090  -9.221  0.00  0.00    -0.012 C 
ATOM     29  H   LIG d   1       2.918   2.097  -7.400  0.00  0.00     0.027 H 
ATOM     30  H   LIG d   1       1.952   2.294  -8.883  0.00  0.00     0.027 H 
ATOM     31  C   LIG d   1       3.920   1.579 -10.655  0.00  0.00    -0.032 C 
ATOM     32  H   LIG d   1       4.923   1.601  -8.748  0.00  0.00     0.032 H 
ATOM     33  H   LIG d   1       4.231   3.168  -9.234  0.00  0.00     0.032 H 
ATOM     34  H   LIG d   1       4.831   1.792 -11.214  0.00  0.00     0.081 H 
ATOM     35  H   LIG d   1       3.076   2.078 -11.131  0.00  0.00     0.081 H 
ATOM     36  H   LIG d   1       4.483  -0.322 -10.114  0.00  0.00     0.203 HD
ENDBRANCH  17  20
ENDBRANCH  15  17
BRANCH  15  37
ATOM     37  O   LIG d   1       4.981  -1.870 -13.421  0.00  0.00    -0.383 OA
ATOM     38  H   LIG d   1       4.288  -1.692 -14.072  0.00  0.00     0.210 HD
ENDBRANCH  15  37
ENDBRANCH  12  15
ENDBRANCH  11  12
ENDBRANCH   4  11
BRANCH   1  39
ATOM     39  C   LIG d   1       4.647  -1.063  -4.905  0.00  0.00     0.088 C 
ATOM     40  C   LIG d   1       3.787   0.207  -4.899  0.00  0.00    -0.001 C 
ATOM     41  C   LIG d   1       3.308   0.445  -3.482  0.00  0.00    -0.071 C 
ATOM     42  H   LIG d   1       4.384   1.056  -5.233  0.00  0.00     0.034 H 
ATOM     43  H   LIG d   1       2.932   0.076  -5.560  0.00  0.00     0.034 H 
ATOM     44  C   LIG d   1       2.701  -0.730  -2.742  0.00  0.00    -0.006 C 
ATOM     45  C   LIG d   1       3.415   1.621  -2.917  0.00  0.00    -0.099 C 
ATOM     46  C   LIG d   1       3.638  -1.933  -2.904  0.00  0.00     0.060 C 
ATOM     47  H   LIG d   1       1.723  -0.966  -3.164  0.00  0.00     0.034 H 
ATOM     48  H   LIG d   1       2.596  -0.485  -1.685  0.00  0.00     0.034 H 
ATOM     49  H   LIG d   1       3.160  -2.824  -2.500  0.00  0.00     0.060 H 
ATOM     50  O   LIG d   1       3.918  -2.128  -4.292  0.00  0.00    -0.368 OA
ATOM     51  H   LIG d   1       3.066   1.768  -1.906  0.00  0.00     0.053 H 
ATOM     52  H   LIG d   1       3.850   2.445  -3.463  0.00  0.00     0.053 H 
ATOM     53  H   LIG d   1       5.567  -0.883  -4.349  0.00  0.00     0.065 H 
BRANCH  46  54
ATOM     54  C   LIG d   1       4.944  -1.667  -2.152  0.00  0.00    -0.038 C 
ATOM     55  H   LIG d   1       5.539  -2.579  -2.123  0.00  0.00     0.025 H 
ATOM     56  H   LIG d   1       5.505  -0.883  -2.662  0.00  0.00     0.025 H 
ATOM     57  H   LIG d   1       4.718  -1.349  -1.134  0.00  0.00     0.025 H 
ENDBRANCH  46  54
ENDBRANCH   1  39
TORSDOF 8
ENDMDL
MODEL 4
REMARK VINA RESULT:      -5.9      7.227     10.038
REMARK  8 active torsions:
REMARK  status: ('A' for Active; 'I' for Inactive)
REMARK    1  A    between atoms: C_1  and  C_2 
REMARK    2  A    between atoms: C_8  and  C_11 
REMARK    3  A    between atoms: C_14  and  O_17 
REMARK    4  A    between atoms: O_17  and  C_18 
REMARK    5  A    between atoms: C_18  and  C_19 
REMARK    6  A    between atoms: C_19  and  C_21 
REMARK    7  A    between atoms: C_19  and  O_27 
REMARK    8  A    between atoms: C_21  and  N_56 
ROOT
ATOM      1  C   LIG d   1       9.895   6.157  -2.480  0.00  0.00    -0.018 A 
ATOM      2  C   LIG d   1      10.386   4.932  -2.065  0.00  0.00    -0.053 A 
ATOM      3  C   LIG d   1      10.349   3.846  -2.918  0.00  0.00    -0.020 A 
ATOM      4  C   LIG d   1       9.817   3.984  -4.192  0.00  0.00     0.121 A 
ATOM      5  C   LIG d   1       9.330   5.214  -4.608  0.00  0.00    -0.020 A 
ATOM      6  C   LIG d   1       9.365   6.296  -3.750  0.00  0.00    -0.053 A 
ATOM      7  H   LIG d   1      10.799   4.826  -1.073  0.00  0.00     0.062 H 
ATOM      8  H   LIG d   1      10.732   2.890  -2.592  0.00  0.00     0.065 H 
ATOM      9  H   LIG d   1       8.921   5.325  -5.601  0.00  0.00     0.065 H 
ATOM     10  H   LIG d   1       8.980   7.253  -4.072  0.00  0.00     0.062 H 
ENDROOT
BRANCH   4  11
ATOM     11  O   LIG d   1       9.780   2.918  -5.032  0.00  0.00    -0.489 OA
BRANCH  11  12
ATOM     12  C   LIG d   1       8.505   2.311  -5.254  0.00  0.00     0.120 C 
ATOM     13  H   LIG d   1       8.459   1.924  -6.272  0.00  0.00     0.072 H 
ATOM     14  H   LIG d   1       7.720   3.051  -5.111  0.00  0.00     0.072 H 
BRANCH  12  15
ATOM     15  C   LIG d   1       8.309   1.161  -4.263  0.00  0.00     0.129 C 
ATOM     16  H   LIG d   1       8.137   1.567  -3.266  0.00  0.00     0.068 H 
BRANCH  15  17
ATOM     17  C   LIG d   1       7.100   0.324  -4.687  0.00  0.00    -0.002 C 
ATOM     18  H   LIG d   1       7.443  -0.591  -5.170  0.00  0.00     0.084 H 
ATOM     19  H   LIG d   1       6.489   0.895  -5.385  0.00  0.00     0.084 H 
BRANCH  17  20
ATOM     20  N   LIG d   1       6.321  -0.025  -3.481  0.00  0.00     0.237 N 
ATOM     21  C   LIG d   1       5.486  -1.215  -3.747  0.00  0.00    -0.032 C 
ATOM     22  C   LIG d   1       4.781  -1.627  -2.452  0.00  0.00    -0.012 C 
ATOM     23  H   LIG d   1       4.740  -0.997  -4.512  0.00  0.00     0.081 H 
ATOM     24  H   LIG d   1       6.127  -2.029  -4.085  0.00  0.00     0.081 H 
ATOM     25  C   LIG d   1       3.897  -0.473  -1.968  0.00  0.00    -0.043 C 
ATOM     26  H   LIG d   1       5.526  -1.859  -1.690  0.00  0.00     0.032 H 
ATOM     27  H   LIG d   1       4.163  -2.506  -2.636  0.00  0.00     0.032 H 
ATOM     28  C   LIG d   1       4.763   0.774  -1.769  0.00  0.00    -0.012 C 
ATOM     29  H   LIG d   1       3.427  -0.745  -1.024  0.00  0.00     0.027 H 
ATOM     30  H   LIG d   1       3.127  -0.267  -2.713  0.00  0.00     0.027 H 
ATOM     31  C   LIG d   1       5.468   1.116  -3.084  0.00  0.00    -0.032 C 
ATOM     32  H   LIG d   1       5.508   0.580  -0.996  0.00  0.00     0.032 H 
ATOM     33  H   LIG d   1       4.133   1.609  -1.466  0.00  0.00     0.032 H 
ATOM     34  H   LIG d   1       6.096   1.995  -2.941  0.00  0.00     0.081 H 
ATOM     35  H   LIG d   1       4.723   1.322  -3.852  0.00  0.00     0.081 H 
ATOM     36  H   LIG d   1       6.970  -0.238  -2.715  0.00  0.00     0.203 HD
ENDBRANCH  17  20
ENDBRANCH  15  17
BRANCH  15  37
ATOM     37  O   LIG d   1       9.477   0.338  -4.250  0.00  0.00    -0.383 OA
ATOM     38  H   LIG d   1      10.145   0.613  -3.607  0.00  0.00     0.210 HD
ENDBRANCH  15  37
ENDBRANCH  12  15
ENDBRANCH  11  12
ENDBRANCH   4  11
BRANCH   1  39
ATOM     39  C   LIG d   1       9.936   7.340  -1.548  0.00  0.00     0.088 C 
ATOM     40  C   LIG d   1      11.168   7.232  -0.640  0.00  0.00    -0.001 C 
ATOM     41  C   LIG d   1      11.288   8.522   0.146  0.00  0.00    -0.071 C 
ATOM     42  H   LIG d   1      11.047   6.394   0.046  0.00  0.00     0.034 H 
ATOM     43  H   LIG d   1      12.061   7.086  -1.246  0.00  0.00     0.034 H 
ATOM     44  C   LIG d   1      11.184   9.823  -0.625  0.00  0.00    -0.006 C 
ATOM     45  C   LIG d   1      11.473   8.513   1.442  0.00  0.00    -0.099 C 
ATOM     46  C   LIG d   1       9.952   9.743  -1.534  0.00  0.00     0.060 C 
ATOM     47  H   LIG d   1      12.080   9.965  -1.230  0.00  0.00     0.034 H 
ATOM     48  H   LIG d   1      11.075  10.655   0.071  0.00  0.00     0.034 H 
ATOM     49  H   LIG d   1       9.933  10.606  -2.198  0.00  0.00     0.060 H 
ATOM     50  O   LIG d   1      10.017   8.545  -2.310  0.00  0.00    -0.368 OA
ATOM     51  H   LIG d   1      11.555   9.445   1.982  0.00  0.00     0.053 H 
ATOM     52  H   LIG d   1      11.544   7.575   1.971  0.00  0.00     0.053 H 
ATOM     53  H   LIG d   1       9.034   7.354  -0.938  0.00  0.00     0.065 H 
BRANCH  46  54
ATOM     54  C   LIG d   1       8.685   9.729  -0.677  0.00  0.00    -0.038 C 
ATOM     55  H   LIG d   1       8.800   9.005   0.130  0.00  0.00     0.025 H 
ATOM     56  H   LIG d   1       8.520  10.720  -0.254  0.00  0.00     0.025 H 
ATOM     57  H   LIG d   1       7.832   9.450  -1.294  0.00  0.00     0.025 H 
ENDBRANCH  46  54
ENDBRANCH   1  39
TORSDOF 8
ENDMDL
MODEL 5
REMARK VINA RESULT:      -5.8      5.626      8.386
REMARK  8 active torsions:
REMARK  status: ('A' for Active; 'I' for Inactive)
REMARK    1  A    between atoms: C_1  and  C_2 
REMARK    2  A    between atoms: C_8  and  C_11 
REMARK    3  A    between atoms: C_14  and  O_17 
REMARK    4  A    between atoms: O_17  and  C_18 
REMARK    5  A    between atoms: C_18  and  C_19 
REMARK    6  A    between atoms: C_19  and  C_21 
REMARK    7  A    between atoms: C_19  and  O_27 
REMARK    8  A    between atoms: C_21  and  N_56 
ROOT
ATOM      1  C   LIG d   1       7.102   0.525  -4.221  0.00  0.00    -0.018 A 
ATOM      2  C   LIG d   1       7.961  -0.254  -4.976  0.00  0.00    -0.053 A 
ATOM      3  C   LIG d   1       9.267   0.149  -5.174  0.00  0.00    -0.020 A 
ATOM      4  C   LIG d   1       9.716   1.337  -4.617  0.00  0.00     0.121 A 
ATOM      5  C   LIG d   1       8.855   2.114  -3.856  0.00  0.00    -0.020 A 
ATOM      6  C   LIG d   1       7.548   1.709  -3.665  0.00  0.00    -0.053 A 
ATOM      7  H   LIG d   1       7.610  -1.179  -5.409  0.00  0.00     0.062 H 
ATOM      8  H   LIG d   1       9.937  -0.460  -5.763  0.00  0.00     0.065 H 
ATOM      9  H   LIG d   1       9.204   3.037  -3.417  0.00  0.00     0.065 H 
ATOM     10  H   LIG d   1       6.875   2.316  -3.078  0.00  0.00     0.062 H 
ENDROOT
BRANCH   4  11
ATOM     11  O   LIG d   1      11.001   1.736  -4.810  0.00  0.00    -0.489 OA
BRANCH  11  12
ATOM     12  C   LIG d   1      11.779   2.008  -3.643  0.00  0.00     0.120 C 
ATOM     13  H   LIG d   1      11.948   1.081  -3.095  0.00  0.00     0.072 H 
ATOM     14  H   LIG d   1      11.245   2.713  -3.007  0.00  0.00     0.072 H 
BRANCH  12  15
ATOM     15  C   LIG d   1      13.124   2.610  -4.056  0.00  0.00     0.129 C 
ATOM     16  H   LIG d   1      13.468   2.135  -4.974  0.00  0.00     0.068 H 
BRANCH  15  17
ATOM     17  C   LIG d   1      12.959   4.113  -4.289  0.00  0.00    -0.002 C 
ATOM     18  H   LIG d   1      13.110   4.336  -5.346  0.00  0.00     0.084 H 
ATOM     19  H   LIG d   1      13.695   4.656  -3.696  0.00  0.00     0.084 H 
BRANCH  17  20
ATOM     20  N   LIG d   1      11.589   4.505  -3.900  0.00  0.00     0.237 N 
ATOM     21  C   LIG d   1      10.968   5.304  -4.977  0.00  0.00    -0.032 C 
ATOM     22  C   LIG d   1       9.512   5.596  -4.603  0.00  0.00    -0.012 C 
ATOM     23  H   LIG d   1      11.503   6.245  -5.113  0.00  0.00     0.081 H 
ATOM     24  H   LIG d   1      10.996   4.732  -5.904  0.00  0.00     0.081 H 
ATOM     25  C   LIG d   1       9.476   6.382  -3.288  0.00  0.00    -0.043 C 
ATOM     26  H   LIG d   1       8.973   4.656  -4.479  0.00  0.00     0.032 H 
ATOM     27  H   LIG d   1       9.043   6.184  -5.391  0.00  0.00     0.032 H 
ATOM     28  C   LIG d   1      10.189   5.575  -2.200  0.00  0.00    -0.012 C 
ATOM     29  H   LIG d   1       8.441   6.554  -2.995  0.00  0.00     0.027 H 
ATOM     30  H   LIG d   1       9.981   7.339  -3.422  0.00  0.00     0.027 H 
ATOM     31  C   LIG d   1      11.625   5.285  -2.644  0.00  0.00    -0.032 C 
ATOM     32  H   LIG d   1       9.660   4.635  -2.039  0.00  0.00     0.032 H 
ATOM     33  H   LIG d   1      10.204   6.148  -1.273  0.00  0.00     0.032 H 
ATOM     34  H   LIG d   1      12.130   4.697  -1.877  0.00  0.00     0.081 H 
ATOM     35  H   LIG d   1      12.156   6.224  -2.792  0.00  0.00     0.081 H 
ATOM     36  H   LIG d   1      11.031   3.657  -3.750  0.00  0.00     0.203 HD
ENDBRANCH  17  20
ENDBRANCH  15  17
BRANCH  15  37
ATOM     37  O   LIG d   1      14.082   2.392  -3.018  0.00  0.00    -0.383 OA
ATOM     38  H   LIG d   1      14.429   1.490  -2.986  0.00  0.00     0.210 HD
ENDBRANCH  15  37
ENDBRANCH  12  15
ENDBRANCH  11  12
ENDBRANCH   4  11
BRANCH   1  39
ATOM     39  C   LIG d   1       5.677   0.082  -4.007  0.00  0.00     0.088 C 
ATOM     40  C   LIG d   1       5.613  -0.872  -2.807  0.00  0.00    -0.001 C 
ATOM     41  C   LIG d   1       4.155  -1.143  -2.499  0.00  0.00    -0.071 C 
ATOM     42  H   LIG d   1       6.118  -1.807  -3.053  0.00  0.00     0.034 H 
ATOM     43  H   LIG d   1       6.092  -0.411  -1.944  0.00  0.00     0.034 H 
ATOM     44  C   LIG d   1       3.225   0.050  -2.406  0.00  0.00    -0.006 C 
ATOM     45  C   LIG d   1       3.715  -2.364  -2.320  0.00  0.00    -0.099 C 
ATOM     46  C   LIG d   1       3.462   0.937  -3.634  0.00  0.00     0.060 C 
ATOM     47  H   LIG d   1       3.439   0.613  -1.498  0.00  0.00     0.034 H 
ATOM     48  H   LIG d   1       2.190  -0.291  -2.392  0.00  0.00     0.034 H 
ATOM     49  H   LIG d   1       2.908   1.867  -3.523  0.00  0.00     0.060 H 
ATOM     50  O   LIG d   1       4.857   1.223  -3.746  0.00  0.00    -0.368 OA
ATOM     51  H   LIG d   1       2.671  -2.534  -2.102  0.00  0.00     0.053 H 
ATOM     52  H   LIG d   1       4.395  -3.199  -2.391  0.00  0.00     0.053 H 
ATOM     53  H   LIG d   1       5.317  -0.430  -4.899  0.00  0.00     0.065 H 
BRANCH  46  54
ATOM     54  C   LIG d   1       2.988   0.205  -4.891  0.00  0.00    -0.038 C 
ATOM     55  H   LIG d   1       3.116   0.852  -5.759  0.00  0.00     0.025 H 
ATOM     56  H   LIG d   1       3.574  -0.704  -5.027  0.00  0.00     0.025 H 
ATOM     57  H   LIG d   1       1.935  -0.054  -4.785  0.00  0.00     0.025 H 
ENDBRANCH  46  54
ENDBRANCH   1  39
TORSDOF 8
ENDMDL
MODEL 6
REMARK VINA RESULT:      -5.8      3.558      5.312
REMARK  8 active torsions:
REMARK  status: ('A' for Active; 'I' for Inactive)
REMARK    1  A    between atoms: C_1  and  C_2 
REMARK    2  A    between atoms: C_8  and  C_11 
REMARK    3  A    between atoms: C_14  and  O_17 
REMARK    4  A    between atoms: O_17  and  C_18 
REMARK    5  A    between atoms: C_18  and  C_19 
REMARK    6  A    between atoms: C_19  and  C_21 
REMARK    7  A    between atoms: C_19  and  O_27 
REMARK    8  A    between atoms: C_21  and  N_56 
ROOT
ATOM      1  C   LIG d   1       3.902  -0.994  -6.486  0.00  0.00    -0.018 A 
ATOM      2  C   LIG d   1       4.409  -2.073  -7.187  0.00  0.00    -0.053 A 
ATOM      3  C   LIG d   1       3.975  -2.328  -8.473  0.00  0.00    -0.020 A 
ATOM      4  C   LIG d   1       3.026  -1.503  -9.060  0.00  0.00     0.121 A 
ATOM      5  C   LIG d   1       2.523  -0.419  -8.357  0.00  0.00    -0.020 A 
ATOM      6  C   LIG d   1       2.958  -0.170  -7.070  0.00  0.00    -0.053 A 
ATOM      7  H   LIG d   1       5.147  -2.714  -6.730  0.00  0.00     0.062 H 
ATOM      8  H   LIG d   1       4.371  -3.172  -9.020  0.00  0.00     0.065 H 
ATOM      9  H   LIG d   1       1.789   0.228  -8.814  0.00  0.00     0.065 H 
ATOM     10  H   LIG d   1       2.562   0.671  -6.519  0.00  0.00     0.062 H 
ENDROOT
BRANCH   4  11
ATOM     11  O   LIG d   1       2.597  -1.753 -10.325  0.00  0.00    -0.489 OA
BRANCH  11  12
ATOM     12  C   LIG d   1       1.230  -2.138 -10.482  0.00  0.00     0.120 C 
ATOM     13  H   LIG d   1       0.845  -1.737 -11.419  0.00  0.00     0.072 H 
ATOM     14  H   LIG d   1       0.644  -1.746  -9.651  0.00  0.00     0.072 H 
BRANCH  12  15
ATOM     15  C   LIG d   1       1.129  -3.665 -10.501  0.00  0.00     0.129 C 
ATOM     16  H   LIG d   1       1.028  -4.035  -9.481  0.00  0.00     0.068 H 
BRANCH  15  17
ATOM     17  C   LIG d   1      -0.094  -4.085 -11.319  0.00  0.00    -0.002 C 
ATOM     18  H   LIG d   1       0.191  -4.865 -12.025  0.00  0.00     0.084 H 
ATOM     19  H   LIG d   1      -0.478  -3.224 -11.866  0.00  0.00     0.084 H 
BRANCH  17  20
ATOM     20  N   LIG d   1      -1.120  -4.613 -10.397  0.00  0.00     0.237 N 
ATOM     21  C   LIG d   1      -0.801  -6.010 -10.034  0.00  0.00    -0.032 C 
ATOM     22  C   LIG d   1      -1.809  -6.495  -8.989  0.00  0.00    -0.012 C 
ATOM     23  H   LIG d   1      -0.850  -6.655 -10.912  0.00  0.00     0.081 H 
ATOM     24  H   LIG d   1       0.204  -6.046  -9.613  0.00  0.00     0.081 H 
ATOM     25  C   LIG d   1      -3.221  -6.424  -9.577  0.00  0.00    -0.043 C 
ATOM     26  H   LIG d   1      -1.751  -5.859  -8.105  0.00  0.00     0.032 H 
ATOM     27  H   LIG d   1      -1.582  -7.524  -8.712  0.00  0.00     0.032 H 
ATOM     28  C   LIG d   1      -3.510  -4.986 -10.018  0.00  0.00    -0.012 C 
ATOM     29  H   LIG d   1      -3.946  -6.726  -8.822  0.00  0.00     0.027 H 
ATOM     30  H   LIG d   1      -3.292  -7.089 -10.438  0.00  0.00     0.027 H 
ATOM     31  C   LIG d   1      -2.453  -4.546 -11.033  0.00  0.00    -0.032 C 
ATOM     32  H   LIG d   1      -3.479  -4.326  -9.150  0.00  0.00     0.032 H 
ATOM     33  H   LIG d   1      -4.497  -4.937 -10.476  0.00  0.00     0.032 H 
ATOM     34  H   LIG d   1      -2.649  -3.517 -11.337  0.00  0.00     0.081 H 
ATOM     35  H   LIG d   1      -2.494  -5.197 -11.905  0.00  0.00     0.081 H 
ATOM     36  H   LIG d   1      -1.128  -4.041  -9.545  0.00  0.00     0.203 HD
ENDBRANCH  17  20
ENDBRANCH  15  17
BRANCH  15  37
ATOM     37  O   LIG d   1       2.308  -4.213 -11.093  0.00  0.00    -0.383 OA
ATOM     38  H   LIG d   1       2.796  -4.815 -10.514  0.00  0.00     0.210 HD
ENDBRANCH  15  37
ENDBRANCH  12  15
ENDBRANCH  11  12
ENDBRANCH   4  11
BRANCH   1  39
ATOM     39  C   LIG d   1       4.379  -0.717  -5.084  0.00  0.00     0.088 C 
ATOM     40  C   LIG d   1       3.290   0.040  -4.313  0.00  0.00    -0.001 C 
ATOM     41  C   LIG d   1       3.717   0.132  -2.862  0.00  0.00    -0.071 C 
ATOM     42  H   LIG d   1       3.176   1.042  -4.727  0.00  0.00     0.034 H 
ATOM     43  H   LIG d   1       2.346  -0.499  -4.385  0.00  0.00     0.034 H 
ATOM     44  C   LIG d   1       4.196  -1.140  -2.191  0.00  0.00    -0.006 C 
ATOM     45  C   LIG d   1       3.676   1.268  -2.213  0.00  0.00    -0.099 C 
ATOM     46  C   LIG d   1       5.219  -1.812  -3.116  0.00  0.00     0.060 C 
ATOM     47  H   LIG d   1       3.352  -1.810  -2.028  0.00  0.00     0.034 H 
ATOM     48  H   LIG d   1       4.664  -0.899  -1.237  0.00  0.00     0.034 H 
ATOM     49  H   LIG d   1       5.474  -2.794  -2.722  0.00  0.00     0.060 H 
ATOM     50  O   LIG d   1       4.653  -1.952  -4.420  0.00  0.00    -0.368 OA
ATOM     51  H   LIG d   1       3.985   1.311  -1.179  0.00  0.00     0.053 H 
ATOM     52  H   LIG d   1       3.331   2.162  -2.710  0.00  0.00     0.053 H 
ATOM     53  H   LIG d   1       5.285  -0.113  -5.121  0.00  0.00     0.065 H 
BRANCH  46  54
ATOM     54  C   LIG d   1       6.479  -0.948  -3.195  0.00  0.00    -0.038 C 
ATOM     55  H   LIG d   1       6.254  -0.023  -3.725  0.00  0.00     0.025 H 
ATOM     56  H   LIG d   1       6.824  -0.713  -2.187  0.00  0.00     0.025 H 
ATOM     57  H   LIG d   1       7.259  -1.491  -3.728  0.00  0.00     0.025 H 
ENDBRANCH  46  54
ENDBRANCH   1  39
TORSDOF 8
ENDMDL
MODEL 7
REMARK VINA RESULT:      -5.8      6.470      9.106
REMARK  8 active torsions:
REMARK  status: ('A' for Active; 'I' for Inactive)
REMARK    1  A    between atoms: C_1  and  C_2 
REMARK    2  A    between atoms: C_8  and  C_11 
REMARK    3  A    between atoms: C_14  and  O_17 
REMARK    4  A    between atoms: O_17  and  C_18 
REMARK    5  A    between atoms: C_18  and  C_19 
REMARK    6  A    between atoms: C_19  and  C_21 
REMARK    7  A    between atoms: C_19  and  O_27 
REMARK    8  A    between atoms: C_21  and  N_56 
ROOT
ATOM      1  C   LIG d   1      10.419   4.776  -2.921  0.00  0.00    -0.018 A 
ATOM      2  C   LIG d   1      10.508   3.427  -2.632  0.00  0.00    -0.053 A 
ATOM      3  C   LIG d   1      10.033   2.493  -3.532  0.00  0.00    -0.020 A 
ATOM      4  C   LIG d   1       9.463   2.910  -4.726  0.00  0.00     0.121 A 
ATOM      5  C   LIG d   1       9.379   4.264  -5.017  0.00  0.00    -0.020 A 
ATOM      6  C   LIG d   1       9.852   5.194  -4.111  0.00  0.00    -0.053 A 
ATOM      7  H   LIG d   1      10.952   3.103  -1.702  0.00  0.00     0.062 H 
ATOM      8  H   LIG d   1      10.102   1.439  -3.305  0.00  0.00     0.065 H 
ATOM      9  H   LIG d   1       8.940   4.591  -5.948  0.00  0.00     0.065 H 
ATOM     10  H   LIG d   1       9.781   6.249  -4.334  0.00  0.00     0.062 H 
ENDROOT
BRANCH   4  11
ATOM     11  O   LIG d   1       8.994   1.994  -5.613  0.00  0.00    -0.489 OA
BRANCH  11  12
ATOM     12  C   LIG d   1       8.937   0.636  -5.173  0.00  0.00     0.120 C 
ATOM     13  H   LIG d   1       9.354   0.561  -4.169  0.00  0.00     0.072 H 
ATOM     14  H   LIG d   1       9.512   0.009  -5.853  0.00  0.00     0.072 H 
BRANCH  12  15
ATOM     15  C   LIG d   1       7.480   0.166  -5.155  0.00  0.00     0.129 C 
ATOM     16  H   LIG d   1       7.443  -0.910  -5.324  0.00  0.00     0.068 H 
BRANCH  15  17
ATOM     17  C   LIG d   1       6.857   0.491  -3.796  0.00  0.00    -0.002 C 
ATOM     18  H   LIG d   1       6.629   1.555  -3.745  0.00  0.00     0.084 H 
ATOM     19  H   LIG d   1       7.559   0.231  -3.003  0.00  0.00     0.084 H 
BRANCH  17  20
ATOM     20  N   LIG d   1       5.606  -0.283  -3.654  0.00  0.00     0.237 N 
ATOM     21  C   LIG d   1       4.929   0.081  -2.391  0.00  0.00    -0.032 C 
ATOM     22  C   LIG d   1       3.581  -0.642  -2.324  0.00  0.00    -0.012 C 
ATOM     23  H   LIG d   1       5.538  -0.206  -1.533  0.00  0.00     0.081 H 
ATOM     24  H   LIG d   1       4.763   1.158  -2.375  0.00  0.00     0.081 H 
ATOM     25  C   LIG d   1       3.816  -2.155  -2.367  0.00  0.00    -0.043 C 
ATOM     26  H   LIG d   1       2.966  -0.345  -3.174  0.00  0.00     0.032 H 
ATOM     27  H   LIG d   1       3.072  -0.380  -1.396  0.00  0.00     0.032 H 
ATOM     28  C   LIG d   1       4.584  -2.508  -3.644  0.00  0.00    -0.012 C 
ATOM     29  H   LIG d   1       2.858  -2.673  -2.363  0.00  0.00     0.027 H 
ATOM     30  H   LIG d   1       4.399  -2.459  -1.496  0.00  0.00     0.027 H 
ATOM     31  C   LIG d   1       5.903  -1.731  -3.672  0.00  0.00    -0.032 C 
ATOM     32  H   LIG d   1       3.985  -2.240  -4.514  0.00  0.00     0.032 H 
ATOM     33  H   LIG d   1       4.792  -3.577  -3.659  0.00  0.00     0.032 H 
ATOM     34  H   LIG d   1       6.445  -1.970  -4.587  0.00  0.00     0.081 H 
ATOM     35  H   LIG d   1       6.506  -2.009  -2.809  0.00  0.00     0.081 H 
ATOM     36  H   LIG d   1       4.985  -0.059  -4.440  0.00  0.00     0.203 HD
ENDBRANCH  17  20
ENDBRANCH  15  17
BRANCH  15  37
ATOM     37  O   LIG d   1       6.751   0.837  -6.185  0.00  0.00    -0.383 OA
ATOM     38  H   LIG d   1       5.932   1.252  -5.881  0.00  0.00     0.210 HD
ENDBRANCH  15  37
ENDBRANCH  12  15
ENDBRANCH  11  12
ENDBRANCH   4  11
BRANCH   1  39
ATOM     39  C   LIG d   1      10.939   5.793  -1.938  0.00  0.00     0.088 C 
ATOM     40  C   LIG d   1       9.803   6.739  -1.531  0.00  0.00    -0.001 C 
ATOM     41  C   LIG d   1      10.305   7.620  -0.405  0.00  0.00    -0.071 C 
ATOM     42  H   LIG d   1       9.516   7.358  -2.382  0.00  0.00     0.034 H 
ATOM     43  H   LIG d   1       8.945   6.160  -1.191  0.00  0.00     0.034 H 
ATOM     44  C   LIG d   1      11.006   6.943   0.755  0.00  0.00    -0.006 C 
ATOM     45  C   LIG d   1      10.139   8.919  -0.433  0.00  0.00    -0.099 C 
ATOM     46  C   LIG d   1      12.055   5.981   0.182  0.00  0.00     0.060 C 
ATOM     47  H   LIG d   1      10.282   6.386   1.349  0.00  0.00     0.034 H 
ATOM     48  H   LIG d   1      11.495   7.692   1.378  0.00  0.00     0.034 H 
ATOM     49  H   LIG d   1      12.477   5.381   0.988  0.00  0.00     0.060 H 
ATOM     50  O   LIG d   1      11.434   5.124  -0.777  0.00  0.00    -0.368 OA
ATOM     51  H   LIG d   1      10.504   9.528   0.380  0.00  0.00     0.053 H 
ATOM     52  H   LIG d   1       9.636   9.381  -1.269  0.00  0.00     0.053 H 
ATOM     53  H   LIG d   1      11.743   6.366  -2.399  0.00  0.00     0.065 H 
BRANCH  46  54
ATOM     54  C   LIG d   1      13.168   6.784  -0.495  0.00  0.00    -0.038 C 
ATOM     55  H   LIG d   1      13.769   7.284   0.264  0.00  0.00     0.025 H 
ATOM     56  H   LIG d   1      13.801   6.112  -1.074  0.00  0.00     0.025 H 
ATOM     57  H   LIG d   1      12.726   7.529  -1.156  0.00  0.00     0.025 H 
ENDBRANCH  46  54
ENDBRANCH   1  39
TORSDOF 8
ENDMDL
MODEL 8
REMARK VINA RESULT:      -5.8      1.549      3.253
REMARK  8 active torsions:
REMARK  status: ('A' for Active; 'I' for Inactive)
REMARK    1  A    between atoms: C_1  and  C_2 
REMARK    2  A    between atoms: C_8  and  C_11 
REMARK    3  A    between atoms: C_14  and  O_17 
REMARK    4  A    between atoms: O_17  and  C_18 
REMARK    5  A    between atoms: C_18  and  C_19 
REMARK    6  A    between atoms: C_19  and  C_21 
REMARK    7  A    between atoms: C_19  and  O_27 
REMARK    8  A    between atoms: C_21  and  N_56 
ROOT
ATOM      1  C   LIG d   1       4.208  -0.234  -6.419  0.00  0.00    -0.018 A 
ATOM      2  C   LIG d   1       5.167  -0.187  -7.415  0.00  0.00    -0.053 A 
ATOM      3  C   LIG d   1       4.796   0.069  -8.720  0.00  0.00    -0.020 A 
ATOM      4  C   LIG d   1       3.460   0.276  -9.033  0.00  0.00     0.121 A 
ATOM      5  C   LIG d   1       2.501   0.234  -8.032  0.00  0.00    -0.020 A 
ATOM      6  C   LIG d   1       2.877  -0.027  -6.728  0.00  0.00    -0.053 A 
ATOM      7  H   LIG d   1       6.206  -0.348  -7.171  0.00  0.00     0.062 H 
ATOM      8  H   LIG d   1       5.545   0.105  -9.498  0.00  0.00     0.065 H 
ATOM      9  H   LIG d   1       1.461   0.400  -8.272  0.00  0.00     0.065 H 
ATOM     10  H   LIG d   1       2.129  -0.066  -5.949  0.00  0.00     0.062 H 
ENDROOT
BRANCH   4  11
ATOM     11  O   LIG d   1       3.093   0.528 -10.317  0.00  0.00    -0.489 OA
BRANCH  11  12
ATOM     12  C   LIG d   1       4.143   0.702 -11.270  0.00  0.00     0.120 C 
ATOM     13  H   LIG d   1       5.091   0.823 -10.747  0.00  0.00     0.072 H 
ATOM     14  H   LIG d   1       3.944   1.587 -11.872  0.00  0.00     0.072 H 
BRANCH  12  15
ATOM     15  C   LIG d   1       4.215  -0.527 -12.179  0.00  0.00     0.129 C 
ATOM     16  H   LIG d   1       4.807  -1.303 -11.694  0.00  0.00     0.068 H 
BRANCH  15  17
ATOM     17  C   LIG d   1       2.801  -1.053 -12.438  0.00  0.00    -0.002 C 
ATOM     18  H   LIG d   1       2.777  -1.575 -13.395  0.00  0.00     0.084 H 
ATOM     19  H   LIG d   1       2.101  -0.218 -12.463  0.00  0.00     0.084 H 
BRANCH  17  20
ATOM     20  N   LIG d   1       2.443  -1.997 -11.360  0.00  0.00     0.237 N 
ATOM     21  C   LIG d   1       3.583  -2.894 -11.075  0.00  0.00    -0.032 C 
ATOM     22  C   LIG d   1       3.231  -3.780  -9.878  0.00  0.00    -0.012 C 
ATOM     23  H   LIG d   1       3.802  -3.522 -11.939  0.00  0.00     0.081 H 
ATOM     24  H   LIG d   1       4.457  -2.289 -10.833  0.00  0.00     0.081 H 
ATOM     25  C   LIG d   1       1.990  -4.613 -10.212  0.00  0.00    -0.043 C 
ATOM     26  H   LIG d   1       3.025  -3.154  -9.009  0.00  0.00     0.032 H 
ATOM     27  H   LIG d   1       4.066  -4.445  -9.657  0.00  0.00     0.032 H 
ATOM     28  C   LIG d   1       0.838  -3.673 -10.578  0.00  0.00    -0.012 C 
ATOM     29  H   LIG d   1       1.709  -5.213  -9.348  0.00  0.00     0.027 H 
ATOM     30  H   LIG d   1       2.207  -5.269 -11.057  0.00  0.00     0.027 H 
ATOM     31  C   LIG d   1       1.259  -2.790 -11.755  0.00  0.00    -0.032 C 
ATOM     32  H   LIG d   1       0.595  -3.045  -9.721  0.00  0.00     0.032 H 
ATOM     33  H   LIG d   1      -0.036  -4.260 -10.859  0.00  0.00     0.032 H 
ATOM     34  H   LIG d   1       0.446  -2.110 -12.008  0.00  0.00     0.081 H 
ATOM     35  H   LIG d   1       1.490  -3.418 -12.616  0.00  0.00     0.081 H 
ATOM     36  H   LIG d   1       2.219  -1.464 -10.512  0.00  0.00     0.203 HD
ENDBRANCH  17  20
ENDBRANCH  15  17
BRANCH  15  37
ATOM     37  O   LIG d   1       4.823  -0.167 -13.420  0.00  0.00    -0.383 OA
ATOM     38  H   LIG d   1       4.219  -0.185 -14.175  0.00  0.00     0.210 HD
ENDBRANCH  15  37
ENDBRANCH  12  15
ENDBRANCH  11  12
ENDBRANCH   4  11
BRANCH   1  39
ATOM     39  C   LIG d   1       4.615  -0.512  -4.995  0.00  0.00     0.088 C 
ATOM     40  C   LIG d   1       3.797   0.373  -4.046  0.00  0.00    -0.001 C 
ATOM     41  C   LIG d   1       4.088  -0.065  -2.625  0.00  0.00    -0.071 C 
ATOM     42  H   LIG d   1       4.086   1.416  -4.176  0.00  0.00     0.034 H 
ATOM     43  H   LIG d   1       2.735   0.256  -4.257  0.00  0.00     0.034 H 
ATOM     44  C   LIG d   1       4.018  -1.548  -2.321  0.00  0.00    -0.006 C 
ATOM     45  C   LIG d   1       4.391   0.806  -1.695  0.00  0.00    -0.099 C 
ATOM     46  C   LIG d   1       4.820  -2.294  -3.395  0.00  0.00     0.060 C 
ATOM     47  H   LIG d   1       2.979  -1.879  -2.341  0.00  0.00     0.034 H 
ATOM     48  H   LIG d   1       4.448  -1.743  -1.339  0.00  0.00     0.034 H 
ATOM     49  H   LIG d   1       4.671  -3.367  -3.280  0.00  0.00     0.060 H 
ATOM     50  O   LIG d   1       4.369  -1.886  -4.688  0.00  0.00    -0.368 OA
ATOM     51  H   LIG d   1       4.594   0.471  -0.688  0.00  0.00     0.053 H 
ATOM     52  H   LIG d   1       4.435   1.858  -1.933  0.00  0.00     0.053 H 
ATOM     53  H   LIG d   1       5.676  -0.295  -4.871  0.00  0.00     0.065 H 
BRANCH  46  54
ATOM     54  C   LIG d   1       6.306  -1.964  -3.243  0.00  0.00    -0.038 C 
ATOM     55  H   LIG d   1       6.784  -2.717  -2.618  0.00  0.00     0.025 H 
ATOM     56  H   LIG d   1       6.779  -1.954  -4.226  0.00  0.00     0.025 H 
ATOM     57  H   LIG d   1       6.414  -0.985  -2.778  0.00  0.00     0.025 H 
ENDBRANCH  46  54
ENDBRANCH   1  39
TORSDOF 8
ENDMDL
MODEL 9
REMARK VINA RESULT:      -5.8      6.801      9.458
REMARK  8 active torsions:
REMARK  status: ('A' for Active; 'I' for Inactive)
REMARK    1  A    between atoms: C_1  and  C_2 
REMARK    2  A    between atoms: C_8  and  C_11 
REMARK    3  A    between atoms: C_14  and  O_17 
REMARK    4  A    between atoms: O_17  and  C_18 
REMARK    5  A    between atoms: C_18  and  C_19 
REMARK    6  A    between atoms: C_19  and  C_21 
REMARK    7  A    between atoms: C_19  and  O_27 
REMARK    8  A    between atoms: C_21  and  N_56 
ROOT
ATOM      1  C   LIG d   1       9.993   5.636  -3.229  0.00  0.00    -0.018 A 
ATOM      2  C   LIG d   1       9.391   5.279  -4.421  0.00  0.00    -0.053 A 
ATOM      3  C   LIG d   1       9.303   3.949  -4.781  0.00  0.00    -0.020 A 
ATOM      4  C   LIG d   1       9.821   2.970  -3.945  0.00  0.00     0.121 A 
ATOM      5  C   LIG d   1      10.420   3.330  -2.747  0.00  0.00    -0.020 A 
ATOM      6  C   LIG d   1      10.510   4.663  -2.394  0.00  0.00    -0.053 A 
ATOM      7  H   LIG d   1       8.987   6.042  -5.071  0.00  0.00     0.062 H 
ATOM      8  H   LIG d   1       8.832   3.671  -5.713  0.00  0.00     0.065 H 
ATOM      9  H   LIG d   1      10.820   2.570  -2.093  0.00  0.00     0.065 H 
ATOM     10  H   LIG d   1      10.981   4.944  -1.464  0.00  0.00     0.062 H 
ENDROOT
BRANCH   4  11
ATOM     11  O   LIG d   1       9.736   1.660  -4.297  0.00  0.00    -0.489 OA
BRANCH  11  12
ATOM     12  C   LIG d   1       8.616   1.274  -5.095  0.00  0.00     0.120 C 
ATOM     13  H   LIG d   1       8.966   0.901  -6.057  0.00  0.00     0.072 H 
ATOM     14  H   LIG d   1       7.968   2.136  -5.253  0.00  0.00     0.072 H 
BRANCH  12  15
ATOM     15  C   LIG d   1       7.833   0.173  -4.376  0.00  0.00     0.129 C 
ATOM     16  H   LIG d   1       7.594   0.499  -3.363  0.00  0.00     0.068 H 
BRANCH  15  17
ATOM     17  C   LIG d   1       6.536  -0.111  -5.138  0.00  0.00    -0.002 C 
ATOM     18  H   LIG d   1       6.410  -1.188  -5.252  0.00  0.00     0.084 H 
ATOM     19  H   LIG d   1       6.584   0.355  -6.122  0.00  0.00     0.084 H 
BRANCH  17  20
ATOM     20  N   LIG d   1       5.403   0.432  -4.361  0.00  0.00     0.237 N 
ATOM     21  C   LIG d   1       5.680   0.313  -2.914  0.00  0.00    -0.032 C 
ATOM     22  C   LIG d   1       4.549   0.988  -2.134  0.00  0.00    -0.012 C 
ATOM     23  H   LIG d   1       5.746  -0.736  -2.622  0.00  0.00     0.081 H 
ATOM     24  H   LIG d   1       6.622   0.813  -2.691  0.00  0.00     0.081 H 
ATOM     25  C   LIG d   1       3.223   0.297  -2.466  0.00  0.00    -0.043 C 
ATOM     26  H   LIG d   1       4.490   2.040  -2.416  0.00  0.00     0.032 H 
ATOM     27  H   LIG d   1       4.743   0.907  -1.065  0.00  0.00     0.032 H 
ATOM     28  C   LIG d   1       2.986   0.363  -3.977  0.00  0.00    -0.012 C 
ATOM     29  H   LIG d   1       2.409   0.802  -1.947  0.00  0.00     0.027 H 
ATOM     30  H   LIG d   1       3.266  -0.746  -2.149  0.00  0.00     0.027 H 
ATOM     31  C   LIG d   1       4.162  -0.295  -4.703  0.00  0.00    -0.032 C 
ATOM     32  H   LIG d   1       2.903   1.405  -4.287  0.00  0.00     0.032 H 
ATOM     33  H   LIG d   1       2.065  -0.165  -4.224  0.00  0.00     0.032 H 
ATOM     34  H   LIG d   1       4.002  -0.237  -5.780  0.00  0.00     0.081 H 
ATOM     35  H   LIG d   1       4.236  -1.340  -4.402  0.00  0.00     0.081 H 
ATOM     36  H   LIG d   1       5.284   1.424  -4.596  0.00  0.00     0.203 HD
ENDBRANCH  17  20
ENDBRANCH  15  17
BRANCH  15  37
ATOM     37  O   LIG d   1       8.623  -1.016  -4.321  0.00  0.00    -0.383 OA
ATOM     38  H   LIG d   1       8.814  -1.402  -5.187  0.00  0.00     0.210 HD
ENDBRANCH  15  37
ENDBRANCH  12  15
ENDBRANCH  11  12
ENDBRANCH   4  11
BRANCH   1  39
ATOM     39  C   LIG d   1      10.087   7.089  -2.838  0.00  0.00     0.088 C 
ATOM     40  C   LIG d   1       9.343   7.313  -1.516  0.00  0.00    -0.001 C 
ATOM     41  C   LIG d   1       9.617   8.730  -1.055  0.00  0.00    -0.071 C 
ATOM     42  H   LIG d   1       8.271   7.178  -1.670  0.00  0.00     0.034 H 
ATOM     43  H   LIG d   1       9.700   6.606  -0.768  0.00  0.00     0.034 H 
ATOM     44  C   LIG d   1      11.059   9.198  -1.054  0.00  0.00    -0.006 C 
ATOM     45  C   LIG d   1       8.646   9.520  -0.673  0.00  0.00    -0.099 C 
ATOM     46  C   LIG d   1      11.679   8.838  -2.409  0.00  0.00     0.060 C 
ATOM     47  H   LIG d   1      11.607   8.701  -0.254  0.00  0.00     0.034 H 
ATOM     48  H   LIG d   1      11.094  10.278  -0.908  0.00  0.00     0.034 H 
ATOM     49  H   LIG d   1      12.749   9.038  -2.384  0.00  0.00     0.060 H 
ATOM     50  O   LIG d   1      11.459   7.451  -2.673  0.00  0.00    -0.368 OA
ATOM     51  H   LIG d   1       8.864  10.526  -0.348  0.00  0.00     0.053 H 
ATOM     52  H   LIG d   1       7.626   9.166  -0.682  0.00  0.00     0.053 H 
ATOM     53  H   LIG d   1       9.639   7.704  -3.618  0.00  0.00     0.065 H 
BRANCH  46  54
ATOM     54  C   LIG d   1      11.027   9.677  -3.509  0.00  0.00    -0.038 C 
ATOM     55  H   LIG d   1      10.209  10.260  -3.085  0.00  0.00     0.025 H 
ATOM     56  H   LIG d   1      11.767  10.352  -3.940  0.00  0.00     0.025 H 
ATOM     57  H   LIG d   1      10.638   9.019  -4.286  0.00  0.00     0.025 H 
ENDBRANCH  46  54
ENDBRANCH   1  39
TORSDOF 8
ENDMDL
MODEL 10
REMARK VINA RESULT:      -5.5      1.722      2.708
REMARK  8 active torsions:
REMARK  status: ('A' for Active; 'I' for Inactive)
REMARK    1  A    between atoms: C_1  and  C_2 
REMARK    2  A    between atoms: C_8  and  C_11 
REMARK    3  A    between atoms: C_14  and  O_17 
REMARK    4  A    between atoms: O_17  and  C_18 
REMARK    5  A    between atoms: C_18  and  C_19 
REMARK    6  A    between atoms: C_19  and  C_21 
REMARK    7  A    between atoms: C_19  and  O_27 
REMARK    8  A    between atoms: C_21  and  N_56 
ROOT
ATOM      1  C   LIG d   1       4.039  -0.593  -6.365  0.00  0.00    -0.018 A 
ATOM      2  C   LIG d   1       4.594  -1.406  -7.337  0.00  0.00    -0.053 A 
ATOM      3  C   LIG d   1       4.134  -1.342  -8.638  0.00  0.00    -0.020 A 
ATOM      4  C   LIG d   1       3.113  -0.463  -8.968  0.00  0.00     0.121 A 
ATOM      5  C   LIG d   1       2.561   0.355  -7.993  0.00  0.00    -0.020 A 
ATOM      6  C   LIG d   1       3.022   0.283  -6.693  0.00  0.00    -0.053 A 
ATOM      7  H   LIG d   1       5.389  -2.090  -7.079  0.00  0.00     0.062 H 
ATOM      8  H   LIG d   1       4.568  -1.977  -9.396  0.00  0.00     0.065 H 
ATOM      9  H   LIG d   1       1.770   1.043  -8.249  0.00  0.00     0.065 H 
ATOM     10  H   LIG d   1       2.588   0.916  -5.932  0.00  0.00     0.062 H 
ENDROOT
BRANCH   4  11
ATOM     11  O   LIG d   1       2.659  -0.398 -10.247  0.00  0.00    -0.489 OA
BRANCH  11  12
ATOM     12  C   LIG d   1       1.320  -0.837 -10.483  0.00  0.00     0.120 C 
ATOM     13  H   LIG d   1       0.639   0.010 -10.398  0.00  0.00     0.072 H 
ATOM     14  H   LIG d   1       1.051  -1.595  -9.748  0.00  0.00     0.072 H 
BRANCH  12  15
ATOM     15  C   LIG d   1       1.219  -1.434 -11.889  0.00  0.00     0.129 C 
ATOM     16  H   LIG d   1       1.164  -0.629 -12.622  0.00  0.00     0.068 H 
BRANCH  15  17
ATOM     17  C   LIG d   1       2.454  -2.293 -12.168  0.00  0.00    -0.002 C 
ATOM     18  H   LIG d   1       2.193  -3.088 -12.867  0.00  0.00     0.084 H 
ATOM     19  H   LIG d   1       2.810  -2.732 -11.236  0.00  0.00     0.084 H 
BRANCH  17  20
ATOM     20  N   LIG d   1       3.498  -1.439 -12.770  0.00  0.00     0.237 N 
ATOM     21  C   LIG d   1       3.351  -1.424 -14.241  0.00  0.00    -0.032 C 
ATOM     22  C   LIG d   1       4.365  -0.441 -14.832  0.00  0.00    -0.012 C 
ATOM     23  H   LIG d   1       3.526  -2.418 -14.654  0.00  0.00     0.081 H 
ATOM     24  H   LIG d   1       2.342  -1.098 -14.493  0.00  0.00     0.081 H 
ATOM     25  C   LIG d   1       5.781  -0.891 -14.458  0.00  0.00    -0.043 C 
ATOM     26  H   LIG d   1       4.182   0.556 -14.430  0.00  0.00     0.032 H 
ATOM     27  H   LIG d   1       4.265  -0.421 -15.917  0.00  0.00     0.032 H 
ATOM     28  C   LIG d   1       5.896  -0.974 -12.934  0.00  0.00    -0.012 C 
ATOM     29  H   LIG d   1       6.505  -0.171 -14.839  0.00  0.00     0.027 H 
ATOM     30  H   LIG d   1       5.979  -1.871 -14.893  0.00  0.00     0.027 H 
ATOM     31  C   LIG d   1       4.838  -1.941 -12.399  0.00  0.00    -0.032 C 
ATOM     32  H   LIG d   1       5.737   0.015 -12.502  0.00  0.00     0.032 H 
ATOM     33  H   LIG d   1       6.888  -1.334 -12.663  0.00  0.00     0.032 H 
ATOM     34  H   LIG d   1       4.908  -1.991 -11.312  0.00  0.00     0.081 H 
ATOM     35  H   LIG d   1       5.005  -2.932 -12.820  0.00  0.00     0.081 H 
ATOM     36  H   LIG d   1       3.390  -0.482 -12.415  0.00  0.00     0.203 HD
ENDBRANCH  17  20
ENDBRANCH  15  17
BRANCH  15  37
ATOM     37  O   LIG d   1       0.045  -2.243 -11.980  0.00  0.00    -0.383 OA
ATOM     38  H   LIG d   1      -0.208  -2.469 -12.886  0.00  0.00     0.210 HD
ENDBRANCH  15  37
ENDBRANCH  12  15
ENDBRANCH  11  12
ENDBRANCH   4  11
BRANCH   1  39
ATOM     39  C   LIG d   1       4.543  -0.665  -4.947  0.00  0.00     0.088 C 
ATOM     40  C   LIG d   1       3.661   0.208  -4.045  0.00  0.00    -0.001 C 
ATOM     41  C   LIG d   1       4.071  -0.036  -2.607  0.00  0.00    -0.071 C 
ATOM     42  H   LIG d   1       3.806   1.259  -4.296  0.00  0.00     0.034 H 
ATOM     43  H   LIG d   1       2.614  -0.063  -4.181  0.00  0.00     0.034 H 
ATOM     44  C   LIG d   1       4.207  -1.475  -2.152  0.00  0.00    -0.006 C 
ATOM     45  C   LIG d   1       4.299   0.960  -1.788  0.00  0.00    -0.099 C 
ATOM     46  C   LIG d   1       5.049  -2.226  -3.191  0.00  0.00     0.060 C 
ATOM     47  H   LIG d   1       3.220  -1.933  -2.078  0.00  0.00     0.034 H 
ATOM     48  H   LIG d   1       4.703  -1.509  -1.182  0.00  0.00     0.034 H 
ATOM     49  H   LIG d   1       5.046  -3.291  -2.960  0.00  0.00     0.060 H 
ATOM     50  O   LIG d   1       4.491  -2.018  -4.489  0.00  0.00    -0.368 OA
ATOM     51  H   LIG d   1       4.590   0.763  -0.767  0.00  0.00     0.053 H 
ATOM     52  H   LIG d   1       4.195   1.978  -2.133  0.00  0.00     0.053 H 
ATOM     53  H   LIG d   1       5.571  -0.306  -4.908  0.00  0.00     0.065 H 
BRANCH  46  54
ATOM     54  C   LIG d   1       6.485  -1.699  -3.160  0.00  0.00    -0.038 C 
ATOM     55  H   LIG d   1       7.086  -2.319  -2.495  0.00  0.00     0.025 H 
ATOM     56  H   LIG d   1       6.907  -1.733  -4.166  0.00  0.00     0.025 H 
ATOM     57  H   LIG d   1       6.487  -0.671  -2.799  0.00  0.00     0.025 H 
ENDBRANCH  46  54
ENDBRANCH   1  39
TORSDOF 8
ENDMDL
