MODEL 1
REMARK VINA RESULT:      -4.8      0.000      0.000
REMARK  2 active torsions:
REMARK  status: ('A' for Active; 'I' for Inactive)
REMARK    1  A    between atoms: C_1  and  C_2 
REMARK    2  A    between atoms: C_7  and  N_8 
ROOT
ATOM      1  C   LIG d   1       4.086  -1.235  -3.249  0.00  0.00     0.027 A 
ATOM      2  C   LIG d   1       4.329  -2.491  -3.775  0.00  0.00    -0.051 A 
ATOM      3  C   LIG d   1       5.624  -2.885  -4.053  0.00  0.00    -0.043 A 
ATOM      4  C   LIG d   1       6.676  -2.018  -3.816  0.00  0.00     0.047 A 
ATOM      5  C   LIG d   1       6.433  -0.762  -3.289  0.00  0.00     0.034 A 
ATOM      6  C   LIG d   1       5.137  -0.372  -3.007  0.00  0.00     0.277 A 
ATOM      7 CL   LIG d   1       8.303  -2.510  -4.172  0.00  0.00    -0.083 Cl
ATOM      8  H   LIG d   1       3.507  -3.166  -3.963  0.00  0.00     0.062 H 
ATOM      9  H   LIG d   1       5.815  -3.868  -4.458  0.00  0.00     0.063 H 
ATOM     10  H   LIG d   1       7.254  -0.087  -3.100  0.00  0.00     0.070 H 
ENDROOT
BRANCH   1  11
ATOM     11  C   LIG d   1       2.674  -0.809  -2.940  0.00  0.00    -0.033 C 
ATOM     12  H   LIG d   1       2.337  -1.301  -2.027  0.00  0.00     0.028 H 
ATOM     13  H   LIG d   1       2.643   0.272  -2.802  0.00  0.00     0.028 H 
ATOM     14  H   LIG d   1       2.020  -1.089  -3.767  0.00  0.00     0.028 H 
ENDBRANCH   1  11
BRANCH   6  15
ATOM     15  N   LIG d   1       4.875   0.972  -2.443  0.00  0.00     0.080 N 
ATOM     16  O   LIG d   1       4.672   1.915  -3.188  0.00  0.00     0.042 OA
ATOM     17  O   LIG d   1       4.863   1.135  -1.237  0.00  0.00    -0.576 OA
ENDBRANCH   6  15
TORSDOF 2
ENDMDL
MODEL 2
REMARK VINA RESULT:      -4.7      1.971      2.370
REMARK  2 active torsions:
REMARK  status: ('A' for Active; 'I' for Inactive)
REMARK    1  A    between atoms: C_1  and  C_2 
REMARK    2  A    between atoms: C_7  and  N_8 
ROOT
ATOM      1  C   LIG d   1       4.793  -0.365  -2.378  0.00  0.00     0.027 A 
ATOM      2  C   LIG d   1       3.907  -1.404  -2.157  0.00  0.00    -0.051 A 
ATOM      3  C   LIG d   1       3.979  -2.548  -2.929  0.00  0.00    -0.043 A 
ATOM      4  C   LIG d   1       4.930  -2.649  -3.929  0.00  0.00     0.047 A 
ATOM      5  C   LIG d   1       5.816  -1.609  -4.149  0.00  0.00     0.034 A 
ATOM      6  C   LIG d   1       5.746  -0.467  -3.373  0.00  0.00     0.277 A 
ATOM      7 CL   LIG d   1       5.016  -4.083  -4.903  0.00  0.00    -0.083 Cl
ATOM      8  H   LIG d   1       3.163  -1.323  -1.379  0.00  0.00     0.062 H 
ATOM      9  H   LIG d   1       3.292  -3.362  -2.754  0.00  0.00     0.063 H 
ATOM     10  H   LIG d   1       6.561  -1.689  -4.926  0.00  0.00     0.070 H 
ENDROOT
BRANCH   1  11
ATOM     11  C   LIG d   1       4.717   0.881  -1.532  0.00  0.00    -0.033 C 
ATOM     12  H   LIG d   1       4.109   1.629  -2.042  0.00  0.00     0.028 H 
ATOM     13  H   LIG d   1       4.263   0.639  -0.570  0.00  0.00     0.028 H 
ATOM     14  H   LIG d   1       5.721   1.274  -1.372  0.00  0.00     0.028 H 
ENDBRANCH   1  11
BRANCH   6  15
ATOM     15  N   LIG d   1       6.693   0.646  -3.607  0.00  0.00     0.080 N 
ATOM     16  O   LIG d   1       6.272   1.775  -3.787  0.00  0.00     0.042 OA
ATOM     17  O   LIG d   1       7.892   0.434  -3.619  0.00  0.00    -0.576 OA
ENDBRANCH   6  15
TORSDOF 2
ENDMDL
MODEL 3
REMARK VINA RESULT:      -4.6      3.012      3.628
REMARK  2 active torsions:
REMARK  status: ('A' for Active; 'I' for Inactive)
REMARK    1  A    between atoms: C_1  and  C_2 
REMARK    2  A    between atoms: C_7  and  N_8 
ROOT
ATOM      1  C   LIG d   1       4.230   0.398  -3.195  0.00  0.00     0.027 A 
ATOM      2  C   LIG d   1       2.963   0.695  -3.664  0.00  0.00    -0.051 A 
ATOM      3  C   LIG d   1       2.629   0.417  -4.975  0.00  0.00    -0.043 A 
ATOM      4  C   LIG d   1       3.565  -0.149  -5.823  0.00  0.00     0.047 A 
ATOM      5  C   LIG d   1       4.833  -0.446  -5.353  0.00  0.00     0.034 A 
ATOM      6  C   LIG d   1       5.164  -0.172  -4.040  0.00  0.00     0.277 A 
ATOM      7 CL   LIG d   1       3.148  -0.492  -7.472  0.00  0.00    -0.083 Cl
ATOM      8  H   LIG d   1       2.235   1.140  -3.003  0.00  0.00     0.062 H 
ATOM      9  H   LIG d   1       1.638   0.643  -5.340  0.00  0.00     0.063 H 
ATOM     10  H   LIG d   1       5.562  -0.892  -6.013  0.00  0.00     0.070 H 
ENDROOT
BRANCH   1  11
ATOM     11  C   LIG d   1       4.592   0.697  -1.763  0.00  0.00    -0.033 C 
ATOM     12  H   LIG d   1       4.561  -0.225  -1.181  0.00  0.00     0.028 H 
ATOM     13  H   LIG d   1       5.598   1.117  -1.723  0.00  0.00     0.028 H 
ATOM     14  H   LIG d   1       3.882   1.413  -1.350  0.00  0.00     0.028 H 
ENDBRANCH   1  11
BRANCH   6  15
ATOM     15  N   LIG d   1       6.520  -0.490  -3.536  0.00  0.00     0.080 N 
ATOM     16  O   LIG d   1       6.756  -1.595  -3.081  0.00  0.00     0.042 OA
ATOM     17  O   LIG d   1       7.398   0.352  -3.578  0.00  0.00    -0.576 OA
ENDBRANCH   6  15
TORSDOF 2
ENDMDL
MODEL 4
REMARK VINA RESULT:      -4.6      3.509      4.002
REMARK  2 active torsions:
REMARK  status: ('A' for Active; 'I' for Inactive)
REMARK    1  A    between atoms: C_1  and  C_2 
REMARK    2  A    between atoms: C_7  and  N_8 
ROOT
ATOM      1  C   LIG d   1       3.843  -1.130  -3.344  0.00  0.00     0.027 A 
ATOM      2  C   LIG d   1       2.704  -0.364  -3.513  0.00  0.00    -0.051 A 
ATOM      3  C   LIG d   1       2.424   0.195  -4.746  0.00  0.00    -0.043 A 
ATOM      4  C   LIG d   1       3.289  -0.002  -5.807  0.00  0.00     0.047 A 
ATOM      5  C   LIG d   1       4.429  -0.769  -5.637  0.00  0.00     0.034 A 
ATOM      6  C   LIG d   1       4.704  -1.331  -4.405  0.00  0.00     0.277 A 
ATOM      7 CL   LIG d   1       2.942   0.706  -7.354  0.00  0.00    -0.083 Cl
ATOM      8  H   LIG d   1       2.031  -0.207  -2.684  0.00  0.00     0.062 H 
ATOM      9  H   LIG d   1       1.532   0.789  -4.880  0.00  0.00     0.063 H 
ATOM     10  H   LIG d   1       5.102  -0.927  -6.467  0.00  0.00     0.070 H 
ENDROOT
BRANCH   1  11
ATOM     11  C   LIG d   1       4.144  -1.743  -2.001  0.00  0.00    -0.033 C 
ATOM     12  H   LIG d   1       4.314  -2.814  -2.121  0.00  0.00     0.028 H 
ATOM     13  H   LIG d   1       5.037  -1.279  -1.582  0.00  0.00     0.028 H 
ATOM     14  H   LIG d   1       3.301  -1.581  -1.329  0.00  0.00     0.028 H 
ENDBRANCH   1  11
BRANCH   6  15
ATOM     15  N   LIG d   1       5.923  -2.152  -4.222  0.00  0.00     0.080 N 
ATOM     16  O   LIG d   1       5.903  -3.340  -4.494  0.00  0.00     0.042 OA
ATOM     17  O   LIG d   1       6.945  -1.640  -3.802  0.00  0.00    -0.576 OA
ENDBRANCH   6  15
TORSDOF 2
ENDMDL
MODEL 5
REMARK VINA RESULT:      -4.5      2.375      3.027
REMARK  2 active torsions:
REMARK  status: ('A' for Active; 'I' for Inactive)
REMARK    1  A    between atoms: C_1  and  C_2 
REMARK    2  A    between atoms: C_7  and  N_8 
ROOT
ATOM      1  C   LIG d   1       5.252   0.379  -2.861  0.00  0.00     0.027 A 
ATOM      2  C   LIG d   1       6.415   0.988  -3.297  0.00  0.00    -0.051 A 
ATOM      3  C   LIG d   1       7.063   0.515  -4.421  0.00  0.00    -0.043 A 
ATOM      4  C   LIG d   1       6.555  -0.576  -5.105  0.00  0.00     0.047 A 
ATOM      5  C   LIG d   1       5.392  -1.185  -4.668  0.00  0.00     0.034 A 
ATOM      6  C   LIG d   1       4.742  -0.707  -3.546  0.00  0.00     0.277 A 
ATOM      7 CL   LIG d   1       7.373  -1.175  -6.514  0.00  0.00    -0.083 Cl
ATOM      8  H   LIG d   1       6.813   1.837  -2.760  0.00  0.00     0.062 H 
ATOM      9  H   LIG d   1       7.967   0.994  -4.766  0.00  0.00     0.063 H 
ATOM     10  H   LIG d   1       4.993  -2.034  -5.204  0.00  0.00     0.070 H 
ENDROOT
BRANCH   1  11
ATOM     11  C   LIG d   1       4.543   0.899  -1.637  0.00  0.00    -0.033 C 
ATOM     12  H   LIG d   1       5.223   1.532  -1.065  0.00  0.00     0.028 H 
ATOM     13  H   LIG d   1       3.674   1.483  -1.941  0.00  0.00     0.028 H 
ATOM     14  H   LIG d   1       4.220   0.061  -1.019  0.00  0.00     0.028 H 
ENDBRANCH   1  11
BRANCH   6  15
ATOM     15  N   LIG d   1       3.497  -1.358  -3.078  0.00  0.00     0.080 N 
ATOM     16  O   LIG d   1       3.556  -2.389  -2.431  0.00  0.00     0.042 OA
ATOM     17  O   LIG d   1       2.415  -0.864  -3.339  0.00  0.00    -0.576 OA
ENDBRANCH   6  15
TORSDOF 2
ENDMDL
MODEL 6
REMARK VINA RESULT:      -4.4      3.482      4.093
REMARK  2 active torsions:
REMARK  status: ('A' for Active; 'I' for Inactive)
REMARK    1  A    between atoms: C_1  and  C_2 
REMARK    2  A    between atoms: C_7  and  N_8 
ROOT
ATOM      1  C   LIG d   1       3.172   0.078  -5.808  0.00  0.00     0.027 A 
ATOM      2  C   LIG d   1       2.261   0.095  -4.767  0.00  0.00    -0.051 A 
ATOM      3  C   LIG d   1       2.618  -0.404  -3.529  0.00  0.00    -0.043 A 
ATOM      4  C   LIG d   1       3.882  -0.932  -3.334  0.00  0.00     0.047 A 
ATOM      5  C   LIG d   1       4.793  -0.949  -4.377  0.00  0.00     0.034 A 
ATOM      6  C   LIG d   1       4.436  -0.444  -5.613  0.00  0.00     0.277 A 
ATOM      7 CL   LIG d   1       4.329  -1.567  -1.781  0.00  0.00    -0.083 Cl
ATOM      8  H   LIG d   1       1.274   0.504  -4.920  0.00  0.00     0.062 H 
ATOM      9  H   LIG d   1       1.910  -0.386  -2.714  0.00  0.00     0.063 H 
ATOM     10  H   LIG d   1       5.781  -1.357  -4.224  0.00  0.00     0.070 H 
ENDROOT
BRANCH   1  11
ATOM     11  C   LIG d   1       2.783   0.628  -7.156  0.00  0.00    -0.033 C 
ATOM     12  H   LIG d   1       1.842   0.179  -7.474  0.00  0.00     0.028 H 
ATOM     13  H   LIG d   1       2.663   1.709  -7.086  0.00  0.00     0.028 H 
ATOM     14  H   LIG d   1       3.561   0.395  -7.883  0.00  0.00     0.028 H 
ENDBRANCH   1  11
BRANCH   6  15
ATOM     15  N   LIG d   1       5.409  -0.462  -6.728  0.00  0.00     0.080 N 
ATOM     16  O   LIG d   1       5.481  -1.435  -7.457  0.00  0.00     0.042 OA
ATOM     17  O   LIG d   1       6.137   0.496  -6.917  0.00  0.00    -0.576 OA
ENDBRANCH   6  15
TORSDOF 2
ENDMDL
MODEL 7
REMARK VINA RESULT:      -4.2      2.708      3.115
REMARK  2 active torsions:
REMARK  status: ('A' for Active; 'I' for Inactive)
REMARK    1  A    between atoms: C_1  and  C_2 
REMARK    2  A    between atoms: C_7  and  N_8 
ROOT
ATOM      1  C   LIG d   1       3.196  -0.619  -4.143  0.00  0.00     0.027 A 
ATOM      2  C   LIG d   1       3.496  -0.981  -2.842  0.00  0.00    -0.051 A 
ATOM      3  C   LIG d   1       4.750  -1.472  -2.534  0.00  0.00    -0.043 A 
ATOM      4  C   LIG d   1       5.702  -1.611  -3.527  0.00  0.00     0.047 A 
ATOM      5  C   LIG d   1       5.402  -1.249  -4.829  0.00  0.00     0.034 A 
ATOM      6  C   LIG d   1       4.149  -0.753  -5.135  0.00  0.00     0.277 A 
ATOM      7 CL   LIG d   1       7.275  -2.235  -3.141  0.00  0.00    -0.083 Cl
ATOM      8  H   LIG d   1       2.751  -0.876  -2.068  0.00  0.00     0.062 H 
ATOM      9  H   LIG d   1       4.986  -1.750  -1.517  0.00  0.00     0.063 H 
ATOM     10  H   LIG d   1       6.147  -1.353  -5.604  0.00  0.00     0.070 H 
ENDROOT
BRANCH   1  11
ATOM     11  C   LIG d   1       1.830  -0.078  -4.478  0.00  0.00    -0.033 C 
ATOM     12  H   LIG d   1       1.175  -0.185  -3.612  0.00  0.00     0.028 H 
ATOM     13  H   LIG d   1       1.911   0.976  -4.744  0.00  0.00     0.028 H 
ATOM     14  H   LIG d   1       1.414  -0.634  -5.319  0.00  0.00     0.028 H 
ENDBRANCH   1  11
BRANCH   6  15
ATOM     15  N   LIG d   1       3.827  -0.364  -6.527  0.00  0.00     0.080 N 
ATOM     16  O   LIG d   1       3.780   0.814  -6.834  0.00  0.00     0.042 OA
ATOM     17  O   LIG d   1       3.610  -1.221  -7.364  0.00  0.00    -0.576 OA
ENDBRANCH   6  15
TORSDOF 2
ENDMDL
MODEL 8
REMARK VINA RESULT:      -4.2      2.052      2.569
REMARK  2 active torsions:
REMARK  status: ('A' for Active; 'I' for Inactive)
REMARK    1  A    between atoms: C_1  and  C_2 
REMARK    2  A    between atoms: C_7  and  N_8 
ROOT
ATOM      1  C   LIG d   1       5.499  -0.291  -3.313  0.00  0.00     0.027 A 
ATOM      2  C   LIG d   1       6.719  -0.918  -3.131  0.00  0.00    -0.051 A 
ATOM      3  C   LIG d   1       6.957  -2.146  -3.718  0.00  0.00    -0.043 A 
ATOM      4  C   LIG d   1       5.973  -2.754  -4.477  0.00  0.00     0.047 A 
ATOM      5  C   LIG d   1       4.753  -2.126  -4.658  0.00  0.00     0.034 A 
ATOM      6  C   LIG d   1       4.518  -0.895  -4.075  0.00  0.00     0.277 A 
ATOM      7 CL   LIG d   1       6.270  -4.300  -5.207  0.00  0.00    -0.083 Cl
ATOM      8  H   LIG d   1       7.485  -0.445  -2.536  0.00  0.00     0.062 H 
ATOM      9  H   LIG d   1       7.912  -2.634  -3.582  0.00  0.00     0.063 H 
ATOM     10  H   LIG d   1       3.986  -2.598  -5.254  0.00  0.00     0.070 H 
ENDROOT
BRANCH   1  11
ATOM     11  C   LIG d   1       5.242   1.051  -2.677  0.00  0.00    -0.033 C 
ATOM     12  H   LIG d   1       6.062   1.296  -2.001  0.00  0.00     0.028 H 
ATOM     13  H   LIG d   1       5.173   1.813  -3.454  0.00  0.00     0.028 H 
ATOM     14  H   LIG d   1       4.307   1.016  -2.118  0.00  0.00     0.028 H 
ENDBRANCH   1  11
BRANCH   6  15
ATOM     15  N   LIG d   1       3.213  -0.222  -4.268  0.00  0.00     0.080 N 
ATOM     16  O   LIG d   1       3.084   0.614  -5.145  0.00  0.00     0.042 OA
ATOM     17  O   LIG d   1       2.270  -0.504  -3.552  0.00  0.00    -0.576 OA
ENDBRANCH   6  15
TORSDOF 2
ENDMDL
MODEL 9
REMARK VINA RESULT:      -4.1      1.585      2.604
REMARK  2 active torsions:
REMARK  status: ('A' for Active; 'I' for Inactive)
REMARK    1  A    between atoms: C_1  and  C_2 
REMARK    2  A    between atoms: C_7  and  N_8 
ROOT
ATOM      1  C   LIG d   1       6.843   0.282  -3.845  0.00  0.00     0.027 A 
ATOM      2  C   LIG d   1       7.501  -0.730  -4.519  0.00  0.00    -0.051 A 
ATOM      3  C   LIG d   1       6.886  -1.954  -4.699  0.00  0.00    -0.043 A 
ATOM      4  C   LIG d   1       5.616  -2.171  -4.193  0.00  0.00     0.047 A 
ATOM      5  C   LIG d   1       4.958  -1.157  -3.518  0.00  0.00     0.034 A 
ATOM      6  C   LIG d   1       5.573   0.068  -3.345  0.00  0.00     0.277 A 
ATOM      7 CL   LIG d   1       4.845  -3.711  -4.412  0.00  0.00    -0.083 Cl
ATOM      8  H   LIG d   1       8.494  -0.562  -4.910  0.00  0.00     0.062 H 
ATOM      9  H   LIG d   1       7.396  -2.743  -5.231  0.00  0.00     0.063 H 
ATOM     10  H   LIG d   1       3.965  -1.324  -3.128  0.00  0.00     0.070 H 
ENDROOT
BRANCH   1  11
ATOM     11  C   LIG d   1       7.514   1.619  -3.654  0.00  0.00    -0.033 C 
ATOM     12  H   LIG d   1       8.447   1.640  -4.217  0.00  0.00     0.028 H 
ATOM     13  H   LIG d   1       6.855   2.409  -4.015  0.00  0.00     0.028 H 
ATOM     14  H   LIG d   1       7.723   1.774  -2.596  0.00  0.00     0.028 H 
ENDBRANCH   1  11
BRANCH   6  15
ATOM     15  N   LIG d   1       4.870   1.153  -2.623  0.00  0.00     0.080 N 
ATOM     16  O   LIG d   1       4.239   1.989  -3.246  0.00  0.00     0.042 OA
ATOM     17  O   LIG d   1       4.922   1.210  -1.408  0.00  0.00    -0.576 OA
ENDBRANCH   6  15
TORSDOF 2
ENDMDL
MODEL 10
REMARK VINA RESULT:      -4.1      9.006      9.682
REMARK  2 active torsions:
REMARK  status: ('A' for Active; 'I' for Inactive)
REMARK    1  A    between atoms: C_1  and  C_2 
REMARK    2  A    between atoms: C_7  and  N_8 
ROOT
ATOM      1  C   LIG d   1       5.477  -9.336  -4.248  0.00  0.00     0.027 A 
ATOM      2  C   LIG d   1       6.827  -9.101  -4.056  0.00  0.00    -0.051 A 
ATOM      3  C   LIG d   1       7.469  -9.626  -2.951  0.00  0.00    -0.043 A 
ATOM      4  C   LIG d   1       6.759 -10.378  -2.031  0.00  0.00     0.047 A 
ATOM      5  C   LIG d   1       5.409 -10.613  -2.224  0.00  0.00     0.034 A 
ATOM      6  C   LIG d   1       4.770 -10.091  -3.333  0.00  0.00     0.277 A 
ATOM      7 CL   LIG d   1       7.564 -11.032  -0.639  0.00  0.00    -0.083 Cl
ATOM      8  H   LIG d   1       7.379  -8.511  -4.772  0.00  0.00     0.062 H 
ATOM      9  H   LIG d   1       8.524  -9.448  -2.803  0.00  0.00     0.063 H 
ATOM     10  H   LIG d   1       4.856 -11.203  -1.508  0.00  0.00     0.070 H 
ENDROOT
BRANCH   1  11
ATOM     11  C   LIG d   1       4.779  -8.767  -5.457  0.00  0.00    -0.033 C 
ATOM     12  H   LIG d   1       3.723  -8.620  -5.230  0.00  0.00     0.028 H 
ATOM     13  H   LIG d   1       5.230  -7.810  -5.720  0.00  0.00     0.028 H 
ATOM     14  H   LIG d   1       4.879  -9.459  -6.294  0.00  0.00     0.028 H 
ENDBRANCH   1  11
BRANCH   6  15
ATOM     15  N   LIG d   1       3.325 -10.342  -3.540  0.00  0.00     0.080 N 
ATOM     16  O   LIG d   1       2.500  -9.612  -3.020  0.00  0.00     0.042 OA
ATOM     17  O   LIG d   1       2.962 -11.277  -4.231  0.00  0.00    -0.576 OA
ENDBRANCH   6  15
TORSDOF 2
ENDMDL
