MODEL 1
REMARK VINA RESULT:      -5.4      0.000      0.000
REMARK  10 active torsions:
REMARK  status: ('A' for Active; 'I' for Inactive)
REMARK    1  A    between atoms: C_1  and  C_2 
REMARK    2  A    between atoms: C_2  and  O_3 
REMARK    3  A    between atoms: O_3  and  C_4 
REMARK    4  A    between atoms: C_4  and  C_6 
REMARK    5  A    between atoms: C_8  and  C_21 
REMARK    6  A    between atoms: C_14  and  C_16 
REMARK    7  A    between atoms: C_14  and  C_17 
REMARK    8  A    between atoms: C_21  and  O_23 
REMARK    9  A    between atoms: O_23  and  C_24 
REMARK   10  A    between atoms: C_24  and  C_25 
ROOT
ATOM      1  C   LIG d   1       5.789  -2.248  -6.357  0.00  0.00     0.169 C 
ATOM      2  H   LIG d   1       5.708  -2.536  -7.406  0.00  0.00     0.054 H 
ATOM      3  C   LIG d   1       5.343  -0.777  -6.150  0.00  0.00     0.119 C 
ATOM      4  H   LIG d   1       6.207  -0.126  -6.022  0.00  0.00     0.047 H 
ATOM      5  C   LIG d   1       4.522  -0.862  -4.848  0.00  0.00     0.132 C 
ATOM      6  C   LIG d   1       3.073  -0.465  -5.123  0.00  0.00     0.012 C 
ATOM      7  C   LIG d   1       2.289  -0.482  -3.807  0.00  0.00     0.052 C 
ATOM      8  O   LIG d   1       2.920   0.392  -2.868  0.00  0.00    -0.374 OA
ATOM      9  C   LIG d   1       4.258   0.023  -2.532  0.00  0.00     0.068 C 
ATOM     10  C   LIG d   1       5.129   0.061  -3.792  0.00  0.00     0.017 C 
ATOM     11  O   LIG d   1       4.589  -2.226  -4.411  0.00  0.00    -0.456 OA
ATOM     12  C   LIG d   1       4.776  -3.007  -5.504  0.00  0.00     0.323 C 
ATOM     13  O   LIG d   1       4.255  -4.070  -5.749  0.00  0.00    -0.250 OA
ATOM     14  H   LIG d   1       3.044   0.537  -5.551  0.00  0.00     0.033 H 
ATOM     15  H   LIG d   1       2.627  -1.173  -5.821  0.00  0.00     0.033 H 
ATOM     16  H   LIG d   1       1.268  -0.147  -3.988  0.00  0.00     0.056 H 
ATOM     17  H   LIG d   1       2.273  -1.496  -3.407  0.00  0.00     0.056 H 
ATOM     18  H   LIG d   1       6.136  -0.275  -3.550  0.00  0.00     0.033 H 
ATOM     19  H   LIG d   1       5.165   1.080  -4.178  0.00  0.00     0.033 H 
ENDROOT
BRANCH   3  20
ATOM     20  C   LIG d   1       4.488  -0.310  -7.299  0.00  0.00     0.315 C 
ATOM     21  O   LIG d   1       3.927  -1.116  -8.003  0.00  0.00    -0.250 OA
BRANCH  20  22
ATOM     22  O   LIG d   1       4.346   1.003  -7.540  0.00  0.00    -0.465 OA
BRANCH  22  23
ATOM     23  C   LIG d   1       3.302   1.390  -8.435  0.00  0.00     0.090 C 
ATOM     24  H   LIG d   1       3.053   0.553  -9.087  0.00  0.00     0.069 H 
ATOM     25  H   LIG d   1       2.421   1.678  -7.862  0.00  0.00     0.069 H 
BRANCH  23  26
ATOM     26  C   LIG d   1       3.769   2.575  -9.282  0.00  0.00    -0.031 C 
ATOM     27  H   LIG d   1       4.100   3.382  -8.627  0.00  0.00     0.026 H 
ATOM     28  H   LIG d   1       4.597   2.262  -9.918  0.00  0.00     0.026 H 
ATOM     29  H   LIG d   1       2.946   2.925  -9.904  0.00  0.00     0.026 H 
ENDBRANCH  23  26
ENDBRANCH  22  23
ENDBRANCH  20  22
ENDBRANCH   3  20
BRANCH   1  30
ATOM     30  C   LIG d   1       7.191  -2.464  -5.848  0.00  0.00     0.322 C 
ATOM     31  O   LIG d   1       8.096  -1.780  -6.264  0.00  0.00    -0.250 OA
BRANCH  30  32
ATOM     32  O   LIG d   1       7.435  -3.415  -4.934  0.00  0.00    -0.464 OA
BRANCH  32  33
ATOM     33  C   LIG d   1       8.061  -3.003  -3.718  0.00  0.00     0.090 C 
ATOM     34  H   LIG d   1       7.320  -2.973  -2.920  0.00  0.00     0.069 H 
ATOM     35  H   LIG d   1       8.492  -2.010  -3.851  0.00  0.00     0.069 H 
BRANCH  33  36
ATOM     36  C   LIG d   1       9.167  -3.994  -3.352  0.00  0.00    -0.031 C 
ATOM     37  H   LIG d   1       8.904  -4.985  -3.723  0.00  0.00     0.026 H 
ATOM     38  H   LIG d   1      10.106  -3.674  -3.804  0.00  0.00     0.026 H 
ATOM     39  H   LIG d   1       9.279  -4.029  -2.268  0.00  0.00     0.026 H 
ENDBRANCH  33  36
ENDBRANCH  32  33
ENDBRANCH  30  32
ENDBRANCH   1  30
BRANCH   9  40
ATOM     40  C   LIG d   1       4.814   1.003  -1.498  0.00  0.00    -0.036 C 
ATOM     41  H   LIG d   1       4.181   0.994  -0.611  0.00  0.00     0.026 H 
ATOM     42  H   LIG d   1       5.828   0.709  -1.225  0.00  0.00     0.026 H 
ATOM     43  H   LIG d   1       4.830   2.008  -1.922  0.00  0.00     0.026 H 
ENDBRANCH   9  40
BRANCH   9  44
ATOM     44  C   LIG d   1       4.267  -1.392  -1.949  0.00  0.00    -0.036 C 
ATOM     45  H   LIG d   1       4.430  -1.341  -0.873  0.00  0.00     0.026 H 
ATOM     46  H   LIG d   1       3.310  -1.873  -2.149  0.00  0.00     0.026 H 
ATOM     47  H   LIG d   1       5.067  -1.971  -2.411  0.00  0.00     0.026 H 
ENDBRANCH   9  44
TORSDOF 10
ENDMDL
MODEL 2
REMARK VINA RESULT:      -5.3      1.829      5.111
REMARK  10 active torsions:
REMARK  status: ('A' for Active; 'I' for Inactive)
REMARK    1  A    between atoms: C_1  and  C_2 
REMARK    2  A    between atoms: C_2  and  O_3 
REMARK    3  A    between atoms: O_3  and  C_4 
REMARK    4  A    between atoms: C_4  and  C_6 
REMARK    5  A    between atoms: C_8  and  C_21 
REMARK    6  A    between atoms: C_14  and  C_16 
REMARK    7  A    between atoms: C_14  and  C_17 
REMARK    8  A    between atoms: C_21  and  O_23 
REMARK    9  A    between atoms: O_23  and  C_24 
REMARK   10  A    between atoms: C_24  and  C_25 
ROOT
ATOM      1  C   LIG d   1       4.887  -0.577  -7.627  0.00  0.00     0.169 C 
ATOM      2  H   LIG d   1       4.970  -1.168  -8.540  0.00  0.00     0.054 H 
ATOM      3  C   LIG d   1       4.427  -1.456  -6.435  0.00  0.00     0.119 C 
ATOM      4  H   LIG d   1       3.374  -1.286  -6.213  0.00  0.00     0.047 H 
ATOM      5  C   LIG d   1       5.320  -0.947  -5.287  0.00  0.00     0.132 C 
ATOM      6  C   LIG d   1       6.219  -2.077  -4.790  0.00  0.00     0.012 C 
ATOM      7  C   LIG d   1       7.045  -1.577  -3.601  0.00  0.00     0.052 C 
ATOM      8  O   LIG d   1       6.166  -1.098  -2.581  0.00  0.00    -0.374 OA
ATOM      9  C   LIG d   1       5.348   0.003  -2.982  0.00  0.00     0.068 C 
ATOM     10  C   LIG d   1       4.448  -0.428  -4.144  0.00  0.00     0.017 C 
ATOM     11  O   LIG d   1       6.114   0.118  -5.827  0.00  0.00    -0.456 OA
ATOM     12  C   LIG d   1       6.260  -0.103  -7.158  0.00  0.00     0.323 C 
ATOM     13  O   LIG d   1       7.257   0.044  -7.825  0.00  0.00    -0.250 OA
ATOM     14  H   LIG d   1       5.605  -2.921  -4.477  0.00  0.00     0.033 H 
ATOM     15  H   LIG d   1       6.888  -2.390  -5.592  0.00  0.00     0.033 H 
ATOM     16  H   LIG d   1       7.649  -2.395  -3.208  0.00  0.00     0.056 H 
ATOM     17  H   LIG d   1       7.698  -0.767  -3.928  0.00  0.00     0.056 H 
ATOM     18  H   LIG d   1       3.865   0.425  -4.489  0.00  0.00     0.033 H 
ATOM     19  H   LIG d   1       3.777  -1.220  -3.810  0.00  0.00     0.033 H 
ENDROOT
BRANCH   3  20
ATOM     20  C   LIG d   1       4.684  -2.914  -6.715  0.00  0.00     0.315 C 
ATOM     21  O   LIG d   1       5.408  -3.236  -7.628  0.00  0.00    -0.250 OA
BRANCH  20  22
ATOM     22  O   LIG d   1       4.112  -3.856  -5.949  0.00  0.00    -0.465 OA
BRANCH  22  23
ATOM     23  C   LIG d   1       4.019  -5.171  -6.499  0.00  0.00     0.090 C 
ATOM     24  H   LIG d   1       2.970  -5.462  -6.569  0.00  0.00     0.069 H 
ATOM     25  H   LIG d   1       4.466  -5.183  -7.492  0.00  0.00     0.069 H 
BRANCH  23  26
ATOM     26  C   LIG d   1       4.761  -6.156  -5.593  0.00  0.00    -0.031 C 
ATOM     27  H   LIG d   1       5.455  -5.609  -4.955  0.00  0.00     0.026 H 
ATOM     28  H   LIG d   1       4.042  -6.691  -4.973  0.00  0.00     0.026 H 
ATOM     29  H   LIG d   1       5.313  -6.868  -6.205  0.00  0.00     0.026 H 
ENDBRANCH  23  26
ENDBRANCH  22  23
ENDBRANCH  20  22
ENDBRANCH   3  20
BRANCH   1  30
ATOM     30  C   LIG d   1       3.954   0.590  -7.829  0.00  0.00     0.322 C 
ATOM     31  O   LIG d   1       2.799   0.505  -7.486  0.00  0.00    -0.250 OA
BRANCH  30  32
ATOM     32  O   LIG d   1       4.406   1.723  -8.389  0.00  0.00    -0.464 OA
BRANCH  32  33
ATOM     33  C   LIG d   1       3.667   2.240  -9.497  0.00  0.00     0.090 C 
ATOM     34  H   LIG d   1       3.987   3.261  -9.703  0.00  0.00     0.069 H 
ATOM     35  H   LIG d   1       2.603   2.234  -9.258  0.00  0.00     0.069 H 
BRANCH  33  36
ATOM     36  C   LIG d   1       3.917   1.368 -10.728  0.00  0.00    -0.031 C 
ATOM     37  H   LIG d   1       3.338   1.752 -11.569  0.00  0.00     0.026 H 
ATOM     38  H   LIG d   1       4.977   1.388 -10.979  0.00  0.00     0.026 H 
ATOM     39  H   LIG d   1       3.613   0.343 -10.516  0.00  0.00     0.026 H 
ENDBRANCH  33  36
ENDBRANCH  32  33
ENDBRANCH  30  32
ENDBRANCH   1  30
BRANCH   9  40
ATOM     40  C   LIG d   1       4.481   0.450  -1.803  0.00  0.00    -0.036 C 
ATOM     41  H   LIG d   1       4.589  -0.258  -0.982  0.00  0.00     0.026 H 
ATOM     42  H   LIG d   1       4.797   1.440  -1.474  0.00  0.00     0.026 H 
ATOM     43  H   LIG d   1       3.437   0.488  -2.115  0.00  0.00     0.026 H 
ENDBRANCH   9  40
BRANCH   9  44
ATOM     44  C   LIG d   1       6.239   1.164  -3.430  0.00  0.00    -0.036 C 
ATOM     45  H   LIG d   1       6.082   1.352  -4.492  0.00  0.00     0.026 H 
ATOM     46  H   LIG d   1       5.983   2.058  -2.861  0.00  0.00     0.026 H 
ATOM     47  H   LIG d   1       7.284   0.909  -3.256  0.00  0.00     0.026 H 
ENDBRANCH   9  44
TORSDOF 10
ENDMDL
MODEL 3
REMARK VINA RESULT:      -5.2      1.993      5.440
REMARK  10 active torsions:
REMARK  status: ('A' for Active; 'I' for Inactive)
REMARK    1  A    between atoms: C_1  and  C_2 
REMARK    2  A    between atoms: C_2  and  O_3 
REMARK    3  A    between atoms: O_3  and  C_4 
REMARK    4  A    between atoms: C_4  and  C_6 
REMARK    5  A    between atoms: C_8  and  C_21 
REMARK    6  A    between atoms: C_14  and  C_16 
REMARK    7  A    between atoms: C_14  and  C_17 
REMARK    8  A    between atoms: C_21  and  O_23 
REMARK    9  A    between atoms: O_23  and  C_24 
REMARK   10  A    between atoms: C_24  and  C_25 
ROOT
ATOM      1  C   LIG d   1       3.724   0.021  -3.755  0.00  0.00     0.169 C 
ATOM      2  H   LIG d   1       3.456   0.611  -2.879  0.00  0.00     0.054 H 
ATOM      3  C   LIG d   1       5.188   0.299  -4.185  0.00  0.00     0.119 C 
ATOM      4  H   LIG d   1       5.218   0.948  -5.060  0.00  0.00     0.047 H 
ATOM      5  C   LIG d   1       5.704  -1.111  -4.531  0.00  0.00     0.132 C 
ATOM      6  C   LIG d   1       6.852  -1.486  -3.594  0.00  0.00     0.012 C 
ATOM      7  C   LIG d   1       7.402  -2.858  -3.999  0.00  0.00     0.052 C 
ATOM      8  O   LIG d   1       7.812  -2.819  -5.367  0.00  0.00    -0.374 OA
ATOM      9  C   LIG d   1       6.757  -2.533  -6.287  0.00  0.00     0.068 C 
ATOM     10  C   LIG d   1       6.178  -1.148  -5.983  0.00  0.00     0.017 C 
ATOM     11  O   LIG d   1       4.600  -2.007  -4.346  0.00  0.00    -0.456 OA
ATOM     12  C   LIG d   1       3.774  -1.466  -3.416  0.00  0.00     0.323 C 
ATOM     13  O   LIG d   1       3.202  -2.037  -2.517  0.00  0.00    -0.250 OA
ATOM     14  H   LIG d   1       7.642  -0.740  -3.670  0.00  0.00     0.033 H 
ATOM     15  H   LIG d   1       6.486  -1.529  -2.569  0.00  0.00     0.033 H 
ATOM     16  H   LIG d   1       8.256  -3.106  -3.369  0.00  0.00     0.056 H 
ATOM     17  H   LIG d   1       6.625  -3.612  -3.872  0.00  0.00     0.056 H 
ATOM     18  H   LIG d   1       5.336  -0.952  -6.645  0.00  0.00     0.033 H 
ATOM     19  H   LIG d   1       6.947  -0.391  -6.134  0.00  0.00     0.033 H 
ENDROOT
BRANCH   3  20
ATOM     20  C   LIG d   1       5.975   0.900  -3.049  0.00  0.00     0.315 C 
ATOM     21  O   LIG d   1       5.422   1.176  -2.011  0.00  0.00    -0.250 OA
BRANCH  20  22
ATOM     22  O   LIG d   1       7.290   1.126  -3.189  0.00  0.00    -0.465 OA
BRANCH  22  23
ATOM     23  C   LIG d   1       7.687   2.044  -4.210  0.00  0.00     0.090 C 
ATOM     24  H   LIG d   1       6.826   2.288  -4.833  0.00  0.00     0.069 H 
ATOM     25  H   LIG d   1       8.071   2.954  -3.751  0.00  0.00     0.069 H 
BRANCH  23  26
ATOM     26  C   LIG d   1       8.777   1.407  -5.073  0.00  0.00    -0.031 C 
ATOM     27  H   LIG d   1       9.751   1.797  -4.774  0.00  0.00     0.026 H 
ATOM     28  H   LIG d   1       8.763   0.325  -4.936  0.00  0.00     0.026 H 
ATOM     29  H   LIG d   1       8.596   1.643  -6.121  0.00  0.00     0.026 H 
ENDBRANCH  23  26
ENDBRANCH  22  23
ENDBRANCH  20  22
ENDBRANCH   3  20
BRANCH   1  30
ATOM     30  C   LIG d   1       2.769   0.283  -4.892  0.00  0.00     0.322 C 
ATOM     31  O   LIG d   1       1.610  -0.040  -4.792  0.00  0.00    -0.250 OA
BRANCH  30  32
ATOM     32  O   LIG d   1       3.206   0.875  -6.014  0.00  0.00    -0.464 OA
BRANCH  32  33
ATOM     33  C   LIG d   1       2.893   0.233  -7.251  0.00  0.00     0.090 C 
ATOM     34  H   LIG d   1       1.891  -0.190  -7.198  0.00  0.00     0.069 H 
ATOM     35  H   LIG d   1       3.614  -0.563  -7.439  0.00  0.00     0.069 H 
BRANCH  33  36
ATOM     36  C   LIG d   1       2.956   1.256  -8.387  0.00  0.00    -0.031 C 
ATOM     37  H   LIG d   1       3.943   1.227  -8.848  0.00  0.00     0.026 H 
ATOM     38  H   LIG d   1       2.199   1.017  -9.134  0.00  0.00     0.026 H 
ATOM     39  H   LIG d   1       2.770   2.254  -7.988  0.00  0.00     0.026 H 
ENDBRANCH  33  36
ENDBRANCH  32  33
ENDBRANCH  30  32
ENDBRANCH   1  30
BRANCH   9  40
ATOM     40  C   LIG d   1       7.305  -2.555  -7.716  0.00  0.00    -0.036 C 
ATOM     41  H   LIG d   1       7.588  -1.545  -8.012  0.00  0.00     0.026 H 
ATOM     42  H   LIG d   1       8.178  -3.206  -7.761  0.00  0.00     0.026 H 
ATOM     43  H   LIG d   1       6.537  -2.930  -8.393  0.00  0.00     0.026 H 
ENDBRANCH   9  40
BRANCH   9  44
ATOM     44  C   LIG d   1       5.657  -3.588  -6.146  0.00  0.00    -0.036 C 
ATOM     45  H   LIG d   1       6.103  -4.583  -6.172  0.00  0.00     0.026 H 
ATOM     46  H   LIG d   1       5.138  -3.447  -5.198  0.00  0.00     0.026 H 
ATOM     47  H   LIG d   1       4.948  -3.486  -6.968  0.00  0.00     0.026 H 
ENDBRANCH   9  44
TORSDOF 10
ENDMDL
MODEL 4
REMARK VINA RESULT:      -5.1      1.762      5.401
REMARK  10 active torsions:
REMARK  status: ('A' for Active; 'I' for Inactive)
REMARK    1  A    between atoms: C_1  and  C_2 
REMARK    2  A    between atoms: C_2  and  O_3 
REMARK    3  A    between atoms: O_3  and  C_4 
REMARK    4  A    between atoms: C_4  and  C_6 
REMARK    5  A    between atoms: C_8  and  C_21 
REMARK    6  A    between atoms: C_14  and  C_16 
REMARK    7  A    between atoms: C_14  and  C_17 
REMARK    8  A    between atoms: C_21  and  O_23 
REMARK    9  A    between atoms: O_23  and  C_24 
REMARK   10  A    between atoms: C_24  and  C_25 
ROOT
ATOM      1  C   LIG d   1       3.936  -1.093  -6.760  0.00  0.00     0.169 C 
ATOM      2  H   LIG d   1       3.266  -1.927  -6.973  0.00  0.00     0.054 H 
ATOM      3  C   LIG d   1       4.511  -1.195  -5.324  0.00  0.00     0.119 C 
ATOM      4  H   LIG d   1       4.011  -0.494  -4.656  0.00  0.00     0.047 H 
ATOM      5  C   LIG d   1       5.986  -0.799  -5.530  0.00  0.00     0.132 C 
ATOM      6  C   LIG d   1       6.893  -1.971  -5.161  0.00  0.00     0.012 C 
ATOM      7  C   LIG d   1       8.356  -1.537  -5.300  0.00  0.00     0.052 C 
ATOM      8  O   LIG d   1       8.591  -0.392  -4.478  0.00  0.00    -0.374 OA
ATOM      9  C   LIG d   1       7.808   0.751  -4.828  0.00  0.00     0.068 C 
ATOM     10  C   LIG d   1       6.321   0.417  -4.669  0.00  0.00     0.017 C 
ATOM     11  O   LIG d   1       6.132  -0.478  -6.920  0.00  0.00    -0.456 OA
ATOM     12  C   LIG d   1       5.199  -1.179  -7.612  0.00  0.00     0.323 C 
ATOM     13  O   LIG d   1       5.338  -1.746  -8.670  0.00  0.00    -0.250 OA
ATOM     14  H   LIG d   1       6.699  -2.272  -4.131  0.00  0.00     0.033 H 
ATOM     15  H   LIG d   1       6.697  -2.809  -5.829  0.00  0.00     0.033 H 
ATOM     16  H   LIG d   1       9.008  -2.352  -4.985  0.00  0.00     0.056 H 
ATOM     17  H   LIG d   1       8.563  -1.287  -6.340  0.00  0.00     0.056 H 
ATOM     18  H   LIG d   1       5.720   1.267  -4.990  0.00  0.00     0.033 H 
ATOM     19  H   LIG d   1       6.109   0.192  -3.623  0.00  0.00     0.033 H 
ENDROOT
BRANCH   3  20
ATOM     20  C   LIG d   1       4.397  -2.604  -4.800  0.00  0.00     0.315 C 
ATOM     21  O   LIG d   1       4.375  -3.535  -5.570  0.00  0.00    -0.250 OA
BRANCH  20  22
ATOM     22  O   LIG d   1       4.324  -2.825  -3.478  0.00  0.00    -0.465 OA
BRANCH  22  23
ATOM     23  C   LIG d   1       3.572  -1.888  -2.704  0.00  0.00     0.090 C 
ATOM     24  H   LIG d   1       3.091  -1.171  -3.369  0.00  0.00     0.069 H 
ATOM     25  H   LIG d   1       2.813  -2.418  -2.130  0.00  0.00     0.069 H 
BRANCH  23  26
ATOM     26  C   LIG d   1       4.510  -1.147  -1.749  0.00  0.00    -0.031 C 
ATOM     27  H   LIG d   1       5.451  -0.934  -2.257  0.00  0.00     0.026 H 
ATOM     28  H   LIG d   1       4.045  -0.212  -1.437  0.00  0.00     0.026 H 
ATOM     29  H   LIG d   1       4.702  -1.767  -0.874  0.00  0.00     0.026 H 
ENDBRANCH  23  26
ENDBRANCH  22  23
ENDBRANCH  20  22
ENDBRANCH   3  20
BRANCH   1  30
ATOM     30  C   LIG d   1       3.233   0.224  -6.968  0.00  0.00     0.322 C 
ATOM     31  O   LIG d   1       2.919   0.897  -6.016  0.00  0.00    -0.250 OA
BRANCH  30  32
ATOM     32  O   LIG d   1       2.958   0.650  -8.211  0.00  0.00    -0.464 OA
BRANCH  32  33
ATOM     33  C   LIG d   1       2.870   2.062  -8.409  0.00  0.00     0.090 C 
ATOM     34  H   LIG d   1       3.047   2.574  -7.463  0.00  0.00     0.069 H 
ATOM     35  H   LIG d   1       1.876   2.316  -8.778  0.00  0.00     0.069 H 
BRANCH  33  36
ATOM     36  C   LIG d   1       3.921   2.501  -9.430  0.00  0.00    -0.031 C 
ATOM     37  H   LIG d   1       4.531   1.643  -9.715  0.00  0.00     0.026 H 
ATOM     38  H   LIG d   1       3.424   2.901 -10.314  0.00  0.00     0.026 H 
ATOM     39  H   LIG d   1       4.556   3.269  -8.991  0.00  0.00     0.026 H 
ENDBRANCH  33  36
ENDBRANCH  32  33
ENDBRANCH  30  32
ENDBRANCH   1  30
BRANCH   9  40
ATOM     40  C   LIG d   1       8.170   1.919  -3.909  0.00  0.00    -0.036 C 
ATOM     41  H   LIG d   1       8.815   2.616  -4.444  0.00  0.00     0.026 H 
ATOM     42  H   LIG d   1       7.260   2.432  -3.596  0.00  0.00     0.026 H 
ATOM     43  H   LIG d   1       8.693   1.541  -3.030  0.00  0.00     0.026 H 
ENDBRANCH   9  40
BRANCH   9  44
ATOM     44  C   LIG d   1       8.091   1.138  -6.281  0.00  0.00    -0.036 C 
ATOM     45  H   LIG d   1       7.838   0.304  -6.935  0.00  0.00     0.026 H 
ATOM     46  H   LIG d   1       7.488   2.006  -6.549  0.00  0.00     0.026 H 
ATOM     47  H   LIG d   1       9.147   1.382  -6.393  0.00  0.00     0.026 H 
ENDBRANCH   9  44
TORSDOF 10
ENDMDL
MODEL 5
REMARK VINA RESULT:      -5.1      1.908      4.753
REMARK  10 active torsions:
REMARK  status: ('A' for Active; 'I' for Inactive)
REMARK    1  A    between atoms: C_1  and  C_2 
REMARK    2  A    between atoms: C_2  and  O_3 
REMARK    3  A    between atoms: O_3  and  C_4 
REMARK    4  A    between atoms: C_4  and  C_6 
REMARK    5  A    between atoms: C_8  and  C_21 
REMARK    6  A    between atoms: C_14  and  C_16 
REMARK    7  A    between atoms: C_14  and  C_17 
REMARK    8  A    between atoms: C_21  and  O_23 
REMARK    9  A    between atoms: O_23  and  C_24 
REMARK   10  A    between atoms: C_24  and  C_25 
ROOT
ATOM      1  C   LIG d   1       7.115  -1.103  -4.533  0.00  0.00     0.169 C 
ATOM      2  H   LIG d   1       7.358  -1.166  -3.472  0.00  0.00     0.054 H 
ATOM      3  C   LIG d   1       5.831  -1.911  -4.858  0.00  0.00     0.119 C 
ATOM      4  H   LIG d   1       6.081  -2.855  -5.341  0.00  0.00     0.047 H 
ATOM      5  C   LIG d   1       5.091  -0.976  -5.834  0.00  0.00     0.132 C 
ATOM      6  C   LIG d   1       3.755  -0.549  -5.229  0.00  0.00     0.012 C 
ATOM      7  C   LIG d   1       2.999   0.318  -6.241  0.00  0.00     0.052 C 
ATOM      8  O   LIG d   1       2.832  -0.411  -7.459  0.00  0.00    -0.374 OA
ATOM      9  C   LIG d   1       4.058  -0.777  -8.095  0.00  0.00     0.068 C 
ATOM     10  C   LIG d   1       4.861  -1.692  -7.164  0.00  0.00     0.017 C 
ATOM     11  O   LIG d   1       5.936   0.167  -6.026  0.00  0.00    -0.456 OA
ATOM     12  C   LIG d   1       6.698   0.316  -4.913  0.00  0.00     0.323 C 
ATOM     13  O   LIG d   1       6.983   1.345  -4.347  0.00  0.00    -0.250 OA
ATOM     14  H   LIG d   1       3.163  -1.433  -4.993  0.00  0.00     0.033 H 
ATOM     15  H   LIG d   1       3.933   0.024  -4.320  0.00  0.00     0.033 H 
ATOM     16  H   LIG d   1       2.022   0.580  -5.836  0.00  0.00     0.056 H 
ATOM     17  H   LIG d   1       3.568   1.228  -6.436  0.00  0.00     0.056 H 
ATOM     18  H   LIG d   1       5.821  -1.926  -7.622  0.00  0.00     0.033 H 
ATOM     19  H   LIG d   1       4.304  -2.613  -6.990  0.00  0.00     0.033 H 
ENDROOT
BRANCH   3  20
ATOM     20  C   LIG d   1       5.017  -2.147  -3.613  0.00  0.00     0.315 C 
ATOM     21  O   LIG d   1       4.081  -2.910  -3.638  0.00  0.00    -0.250 OA
BRANCH  20  22
ATOM     22  O   LIG d   1       5.334  -1.513  -2.473  0.00  0.00    -0.465 OA
BRANCH  22  23
ATOM     23  C   LIG d   1       4.280  -0.821  -1.801  0.00  0.00     0.090 C 
ATOM     24  H   LIG d   1       3.341  -0.988  -2.329  0.00  0.00     0.069 H 
ATOM     25  H   LIG d   1       4.194  -1.193  -0.781  0.00  0.00     0.069 H 
BRANCH  23  26
ATOM     26  C   LIG d   1       4.590   0.677  -1.774  0.00  0.00    -0.031 C 
ATOM     27  H   LIG d   1       4.753   0.996  -0.743  0.00  0.00     0.026 H 
ATOM     28  H   LIG d   1       5.488   0.873  -2.360  0.00  0.00     0.026 H 
ATOM     29  H   LIG d   1       3.752   1.230  -2.197  0.00  0.00     0.026 H 
ENDBRANCH  23  26
ENDBRANCH  22  23
ENDBRANCH  20  22
ENDBRANCH   3  20
BRANCH   1  30
ATOM     30  C   LIG d   1       8.274  -1.568  -5.377  0.00  0.00     0.322 C 
ATOM     31  O   LIG d   1       8.429  -2.746  -5.591  0.00  0.00    -0.250 OA
BRANCH  30  32
ATOM     32  O   LIG d   1       9.133  -0.674  -5.889  0.00  0.00    -0.464 OA
BRANCH  32  33
ATOM     33  C   LIG d   1       9.598  -0.908  -7.220  0.00  0.00     0.090 C 
ATOM     34  H   LIG d   1       9.769  -1.975  -7.363  0.00  0.00     0.069 H 
ATOM     35  H   LIG d   1      10.530  -0.366  -7.380  0.00  0.00     0.069 H 
BRANCH  33  36
ATOM     36  C   LIG d   1       8.548  -0.421  -8.220  0.00  0.00    -0.031 C 
ATOM     37  H   LIG d   1       7.567  -0.412  -7.742  0.00  0.00     0.026 H 
ATOM     38  H   LIG d   1       8.799   0.586  -8.550  0.00  0.00     0.026 H 
ATOM     39  H   LIG d   1       8.527  -1.091  -9.080  0.00  0.00     0.026 H 
ENDBRANCH  33  36
ENDBRANCH  32  33
ENDBRANCH  30  32
ENDBRANCH   1  30
BRANCH   9  40
ATOM     40  C   LIG d   1       3.756  -1.516  -9.400  0.00  0.00    -0.036 C 
ATOM     41  H   LIG d   1       3.522  -0.792 -10.181  0.00  0.00     0.026 H 
ATOM     42  H   LIG d   1       4.625  -2.103  -9.696  0.00  0.00     0.026 H 
ATOM     43  H   LIG d   1       2.903  -2.179  -9.252  0.00  0.00     0.026 H 
ENDBRANCH   9  40
BRANCH   9  44
ATOM     44  C   LIG d   1       4.872   0.483  -8.398  0.00  0.00    -0.036 C 
ATOM     45  H   LIG d   1       5.379   0.815  -7.492  0.00  0.00     0.026 H 
ATOM     46  H   LIG d   1       5.612   0.260  -9.167  0.00  0.00     0.026 H 
ATOM     47  H   LIG d   1       4.207   1.270  -8.752  0.00  0.00     0.026 H 
ENDBRANCH   9  44
TORSDOF 10
ENDMDL
MODEL 6
REMARK VINA RESULT:      -5.0      1.692      4.873
REMARK  10 active torsions:
REMARK  status: ('A' for Active; 'I' for Inactive)
REMARK    1  A    between atoms: C_1  and  C_2 
REMARK    2  A    between atoms: C_2  and  O_3 
REMARK    3  A    between atoms: O_3  and  C_4 
REMARK    4  A    between atoms: C_4  and  C_6 
REMARK    5  A    between atoms: C_8  and  C_21 
REMARK    6  A    between atoms: C_14  and  C_16 
REMARK    7  A    between atoms: C_14  and  C_17 
REMARK    8  A    between atoms: C_21  and  O_23 
REMARK    9  A    between atoms: O_23  and  C_24 
REMARK   10  A    between atoms: C_24  and  C_25 
ROOT
ATOM      1  C   LIG d   1       5.243  -0.971  -5.654  0.00  0.00     0.169 C 
ATOM      2  H   LIG d   1       5.516  -0.704  -4.633  0.00  0.00     0.054 H 
ATOM      3  C   LIG d   1       3.726  -0.755  -5.897  0.00  0.00     0.119 C 
ATOM      4  H   LIG d   1       3.194  -1.706  -5.889  0.00  0.00     0.047 H 
ATOM      5  C   LIG d   1       3.704  -0.125  -7.303  0.00  0.00     0.132 C 
ATOM      6  C   LIG d   1       3.119   1.284  -7.230  0.00  0.00     0.012 C 
ATOM      7  C   LIG d   1       3.035   1.867  -8.645  0.00  0.00     0.052 C 
ATOM      8  O   LIG d   1       2.253   1.000  -9.468  0.00  0.00    -0.374 OA
ATOM      9  C   LIG d   1       2.795  -0.313  -9.617  0.00  0.00     0.068 C 
ATOM     10  C   LIG d   1       2.870  -0.992  -8.246  0.00  0.00     0.017 C 
ATOM     11  O   LIG d   1       5.066  -0.075  -7.750  0.00  0.00    -0.456 OA
ATOM     12  C   LIG d   1       5.863  -0.000  -6.656  0.00  0.00     0.323 C 
ATOM     13  O   LIG d   1       6.847   0.684  -6.506  0.00  0.00    -0.250 OA
ATOM     14  H   LIG d   1       2.122   1.243  -6.793  0.00  0.00     0.033 H 
ATOM     15  H   LIG d   1       3.762   1.914  -6.615  0.00  0.00     0.033 H 
ATOM     16  H   LIG d   1       2.568   2.851  -8.604  0.00  0.00     0.056 H 
ATOM     17  H   LIG d   1       4.038   1.957  -9.060  0.00  0.00     0.056 H 
ATOM     18  H   LIG d   1       3.336  -1.971  -8.348  0.00  0.00     0.033 H 
ATOM     19  H   LIG d   1       1.864  -1.106  -7.841  0.00  0.00     0.033 H 
ENDROOT
BRANCH   3  20
ATOM     20  C   LIG d   1       3.148   0.187  -4.873  0.00  0.00     0.315 C 
ATOM     21  O   LIG d   1       1.951   0.253  -4.720  0.00  0.00    -0.250 OA
BRANCH  20  22
ATOM     22  O   LIG d   1       3.963   0.952  -4.129  0.00  0.00    -0.465 OA
BRANCH  22  23
ATOM     23  C   LIG d   1       3.538   1.248  -2.797  0.00  0.00     0.090 C 
ATOM     24  H   LIG d   1       3.486   2.329  -2.664  0.00  0.00     0.069 H 
ATOM     25  H   LIG d   1       2.554   0.813  -2.624  0.00  0.00     0.069 H 
BRANCH  23  26
ATOM     26  C   LIG d   1       4.538   0.660  -1.800  0.00  0.00    -0.031 C 
ATOM     27  H   LIG d   1       3.999   0.134  -1.012  0.00  0.00     0.026 H 
ATOM     28  H   LIG d   1       5.198  -0.037  -2.316  0.00  0.00     0.026 H 
ATOM     29  H   LIG d   1       5.130   1.463  -1.362  0.00  0.00     0.026 H 
ENDBRANCH  23  26
ENDBRANCH  22  23
ENDBRANCH  20  22
ENDBRANCH   3  20
BRANCH   1  30
ATOM     30  C   LIG d   1       5.642  -2.391  -5.962  0.00  0.00     0.322 C 
ATOM     31  O   LIG d   1       4.793  -3.236  -6.118  0.00  0.00    -0.250 OA
BRANCH  30  32
ATOM     32  O   LIG d   1       6.940  -2.717  -6.062  0.00  0.00    -0.464 OA
BRANCH  32  33
ATOM     33  C   LIG d   1       7.468  -3.594  -5.066  0.00  0.00     0.090 C 
ATOM     34  H   LIG d   1       8.357  -4.092  -5.454  0.00  0.00     0.069 H 
ATOM     35  H   LIG d   1       6.718  -4.342  -4.805  0.00  0.00     0.069 H 
BRANCH  33  36
ATOM     36  C   LIG d   1       7.838  -2.787  -3.820  0.00  0.00    -0.031 C 
ATOM     37  H   LIG d   1       8.103  -1.771  -4.111  0.00  0.00     0.026 H 
ATOM     38  H   LIG d   1       6.988  -2.760  -3.139  0.00  0.00     0.026 H 
ATOM     39  H   LIG d   1       8.687  -3.256  -3.322  0.00  0.00     0.026 H 
ENDBRANCH  33  36
ENDBRANCH  32  33
ENDBRANCH  30  32
ENDBRANCH   1  30
BRANCH   9  40
ATOM     40  C   LIG d   1       1.898  -1.135 -10.545  0.00  0.00    -0.036 C 
ATOM     41  H   LIG d   1       0.864  -0.807 -10.434  0.00  0.00     0.026 H 
ATOM     42  H   LIG d   1       2.215  -0.994 -11.578  0.00  0.00     0.026 H 
ATOM     43  H   LIG d   1       1.975  -2.190 -10.283  0.00  0.00     0.026 H 
ENDBRANCH   9  40
BRANCH   9  44
ATOM     44  C   LIG d   1       4.200  -0.221 -10.218  0.00  0.00    -0.036 C 
ATOM     45  H   LIG d   1       4.941  -0.296  -9.421  0.00  0.00     0.026 H 
ATOM     46  H   LIG d   1       4.346  -1.034 -10.928  0.00  0.00     0.026 H 
ATOM     47  H   LIG d   1       4.314   0.734 -10.731  0.00  0.00     0.026 H 
ENDBRANCH   9  44
TORSDOF 10
ENDMDL
MODEL 7
REMARK VINA RESULT:      -4.9      2.696      5.398
REMARK  10 active torsions:
REMARK  status: ('A' for Active; 'I' for Inactive)
REMARK    1  A    between atoms: C_1  and  C_2 
REMARK    2  A    between atoms: C_2  and  O_3 
REMARK    3  A    between atoms: O_3  and  C_4 
REMARK    4  A    between atoms: C_4  and  C_6 
REMARK    5  A    between atoms: C_8  and  C_21 
REMARK    6  A    between atoms: C_14  and  C_16 
REMARK    7  A    between atoms: C_14  and  C_17 
REMARK    8  A    between atoms: C_21  and  O_23 
REMARK    9  A    between atoms: O_23  and  C_24 
REMARK   10  A    between atoms: C_24  and  C_25 
ROOT
ATOM      1  C   LIG d   1       2.788   0.117  -7.131  0.00  0.00     0.169 C 
ATOM      2  H   LIG d   1       1.747  -0.095  -7.375  0.00  0.00     0.054 H 
ATOM      3  C   LIG d   1       3.715  -1.035  -7.600  0.00  0.00     0.119 C 
ATOM      4  H   LIG d   1       4.019  -1.654  -6.756  0.00  0.00     0.047 H 
ATOM      5  C   LIG d   1       4.920  -0.272  -8.184  0.00  0.00     0.132 C 
ATOM      6  C   LIG d   1       5.052  -0.578  -9.675  0.00  0.00     0.012 C 
ATOM      7  C   LIG d   1       6.297   0.128 -10.223  0.00  0.00     0.052 C 
ATOM      8  O   LIG d   1       7.444  -0.292  -9.482  0.00  0.00    -0.374 OA
ATOM      9  C   LIG d   1       7.393   0.030  -8.091  0.00  0.00     0.068 C 
ATOM     10  C   LIG d   1       6.196  -0.679  -7.449  0.00  0.00     0.017 C 
ATOM     11  O   LIG d   1       4.656   1.123  -7.985  0.00  0.00    -0.456 OA
ATOM     12  C   LIG d   1       3.311   1.294  -7.951  0.00  0.00     0.323 C 
ATOM     13  O   LIG d   1       2.667   2.182  -8.458  0.00  0.00    -0.250 OA
ATOM     14  H   LIG d   1       5.150  -1.653  -9.820  0.00  0.00     0.033 H 
ATOM     15  H   LIG d   1       4.168  -0.217 -10.200  0.00  0.00     0.033 H 
ATOM     16  H   LIG d   1       6.427  -0.131 -11.274  0.00  0.00     0.056 H 
ATOM     17  H   LIG d   1       6.175   1.207 -10.126  0.00  0.00     0.056 H 
ATOM     18  H   LIG d   1       6.120  -0.390  -6.401  0.00  0.00     0.033 H 
ATOM     19  H   LIG d   1       6.330  -1.758  -7.523  0.00  0.00     0.033 H 
ENDROOT
BRANCH   3  20
ATOM     20  C   LIG d   1       3.039  -1.870  -8.657  0.00  0.00     0.315 C 
ATOM     21  O   LIG d   1       3.440  -2.984  -8.895  0.00  0.00    -0.250 OA
BRANCH  20  22
ATOM     22  O   LIG d   1       1.989  -1.377  -9.332  0.00  0.00    -0.465 OA
BRANCH  22  23
ATOM     23  C   LIG d   1       1.517  -2.138 -10.445  0.00  0.00     0.090 C 
ATOM     24  H   LIG d   1       2.278  -2.861 -10.739  0.00  0.00     0.069 H 
ATOM     25  H   LIG d   1       0.605  -2.664 -10.166  0.00  0.00     0.069 H 
BRANCH  23  26
ATOM     26  C   LIG d   1       1.228  -1.199 -11.618  0.00  0.00    -0.031 C 
ATOM     27  H   LIG d   1       0.179  -1.289 -11.904  0.00  0.00     0.026 H 
ATOM     28  H   LIG d   1       1.436  -0.172 -11.321  0.00  0.00     0.026 H 
ATOM     29  H   LIG d   1       1.859  -1.468 -12.464  0.00  0.00     0.026 H 
ENDBRANCH  23  26
ENDBRANCH  22  23
ENDBRANCH  20  22
ENDBRANCH   3  20
BRANCH   1  30
ATOM     30  C   LIG d   1       2.951   0.374  -5.655  0.00  0.00     0.322 C 
ATOM     31  O   LIG d   1       2.652   1.450  -5.193  0.00  0.00    -0.250 OA
BRANCH  30  32
ATOM     32  O   LIG d   1       3.427  -0.591  -4.854  0.00  0.00    -0.464 OA
BRANCH  32  33
ATOM     33  C   LIG d   1       2.862  -0.686  -3.544  0.00  0.00     0.090 C 
ATOM     34  H   LIG d   1       1.811  -0.964  -3.621  0.00  0.00     0.069 H 
ATOM     35  H   LIG d   1       2.947   0.279  -3.042  0.00  0.00     0.069 H 
BRANCH  33  36
ATOM     36  C   LIG d   1       3.614  -1.747  -2.740  0.00  0.00    -0.031 C 
ATOM     37  H   LIG d   1       3.307  -2.740  -3.072  0.00  0.00     0.026 H 
ATOM     38  H   LIG d   1       4.686  -1.629  -2.895  0.00  0.00     0.026 H 
ATOM     39  H   LIG d   1       3.385  -1.631  -1.681  0.00  0.00     0.026 H 
ENDBRANCH  33  36
ENDBRANCH  32  33
ENDBRANCH  30  32
ENDBRANCH   1  30
BRANCH   9  40
ATOM     40  C   LIG d   1       8.684  -0.432  -7.412  0.00  0.00    -0.036 C 
ATOM     41  H   LIG d   1       9.530   0.111  -7.833  0.00  0.00     0.026 H 
ATOM     42  H   LIG d   1       8.622  -0.236  -6.341  0.00  0.00     0.026 H 
ATOM     43  H   LIG d   1       8.819  -1.501  -7.578  0.00  0.00     0.026 H 
ENDBRANCH   9  40
BRANCH   9  44
ATOM     44  C   LIG d   1       7.240   1.543  -7.922  0.00  0.00    -0.036 C 
ATOM     45  H   LIG d   1       8.191   1.971  -7.604  0.00  0.00     0.026 H 
ATOM     46  H   LIG d   1       6.942   1.986  -8.871  0.00  0.00     0.026 H 
ATOM     47  H   LIG d   1       6.479   1.750  -7.169  0.00  0.00     0.026 H 
ENDBRANCH   9  44
TORSDOF 10
ENDMDL
MODEL 8
REMARK VINA RESULT:      -4.9      1.554      5.464
REMARK  10 active torsions:
REMARK  status: ('A' for Active; 'I' for Inactive)
REMARK    1  A    between atoms: C_1  and  C_2 
REMARK    2  A    between atoms: C_2  and  O_3 
REMARK    3  A    between atoms: O_3  and  C_4 
REMARK    4  A    between atoms: C_4  and  C_6 
REMARK    5  A    between atoms: C_8  and  C_21 
REMARK    6  A    between atoms: C_14  and  C_16 
REMARK    7  A    between atoms: C_14  and  C_17 
REMARK    8  A    between atoms: C_21  and  O_23 
REMARK    9  A    between atoms: O_23  and  C_24 
REMARK   10  A    between atoms: C_24  and  C_25 
ROOT
ATOM      1  C   LIG d   1       5.212  -2.503  -3.838  0.00  0.00     0.169 C 
ATOM      2  H   LIG d   1       5.746  -3.071  -3.076  0.00  0.00     0.054 H 
ATOM      3  C   LIG d   1       6.170  -1.537  -4.584  0.00  0.00     0.119 C 
ATOM      4  H   LIG d   1       6.033  -0.513  -4.238  0.00  0.00     0.047 H 
ATOM      5  C   LIG d   1       5.716  -1.687  -6.048  0.00  0.00     0.132 C 
ATOM      6  C   LIG d   1       6.858  -2.254  -6.889  0.00  0.00     0.012 C 
ATOM      7  C   LIG d   1       6.415  -2.327  -8.354  0.00  0.00     0.052 C 
ATOM      8  O   LIG d   1       6.016  -1.027  -8.793  0.00  0.00    -0.374 OA
ATOM      9  C   LIG d   1       4.907  -0.482  -8.075  0.00  0.00     0.068 C 
ATOM     10  C   LIG d   1       5.283  -0.329  -6.598  0.00  0.00     0.017 C 
ATOM     11  O   LIG d   1       4.606  -2.596  -6.041  0.00  0.00    -0.456 OA
ATOM     12  C   LIG d   1       4.743  -3.415  -4.969  0.00  0.00     0.323 C 
ATOM     13  O   LIG d   1       4.539  -4.605  -4.919  0.00  0.00    -0.250 OA
ATOM     14  H   LIG d   1       7.730  -1.606  -6.804  0.00  0.00     0.033 H 
ATOM     15  H   LIG d   1       7.109  -3.254  -6.535  0.00  0.00     0.033 H 
ATOM     16  H   LIG d   1       7.245  -2.679  -8.967  0.00  0.00     0.056 H 
ATOM     17  H   LIG d   1       5.576  -3.016  -8.446  0.00  0.00     0.056 H 
ATOM     18  H   LIG d   1       4.421   0.033  -6.038  0.00  0.00     0.033 H 
ATOM     19  H   LIG d   1       6.105   0.381  -6.503  0.00  0.00     0.033 H 
ENDROOT
BRANCH   3  20
ATOM     20  C   LIG d   1       7.604  -1.969  -4.415  0.00  0.00     0.315 C 
ATOM     21  O   LIG d   1       8.497  -1.289  -4.863  0.00  0.00    -0.250 OA
BRANCH  20  22
ATOM     22  O   LIG d   1       7.890  -3.107  -3.763  0.00  0.00    -0.465 OA
BRANCH  22  23
ATOM     23  C   LIG d   1       8.830  -3.989  -4.380  0.00  0.00     0.090 C 
ATOM     24  H   LIG d   1       9.345  -3.465  -5.185  0.00  0.00     0.069 H 
ATOM     25  H   LIG d   1       9.556  -4.322  -3.639  0.00  0.00     0.069 H 
BRANCH  23  26
ATOM     26  C   LIG d   1       8.092  -5.201  -4.952  0.00  0.00    -0.031 C 
ATOM     27  H   LIG d   1       7.086  -5.246  -4.532  0.00  0.00     0.026 H 
ATOM     28  H   LIG d   1       8.028  -5.109  -6.036  0.00  0.00     0.026 H 
ATOM     29  H   LIG d   1       8.633  -6.111  -4.696  0.00  0.00     0.026 H 
ENDBRANCH  23  26
ENDBRANCH  22  23
ENDBRANCH  20  22
ENDBRANCH   3  20
BRANCH   1  30
ATOM     30  C   LIG d   1       4.052  -1.753  -3.234  0.00  0.00     0.322 C 
ATOM     31  O   LIG d   1       3.322  -2.305  -2.446  0.00  0.00    -0.250 OA
BRANCH  30  32
ATOM     32  O   LIG d   1       3.830  -0.474  -3.572  0.00  0.00    -0.464 OA
BRANCH  32  33
ATOM     33  C   LIG d   1       3.386   0.404  -2.536  0.00  0.00     0.090 C 
ATOM     34  H   LIG d   1       2.692  -0.125  -1.884  0.00  0.00     0.069 H 
ATOM     35  H   LIG d   1       2.884   1.265  -2.980  0.00  0.00     0.069 H 
BRANCH  33  36
ATOM     36  C   LIG d   1       4.590   0.881  -1.721  0.00  0.00    -0.031 C 
ATOM     37  H   LIG d   1       5.144   1.625  -2.294  0.00  0.00     0.026 H 
ATOM     38  H   LIG d   1       4.244   1.326  -0.788  0.00  0.00     0.026 H 
ATOM     39  H   LIG d   1       5.238   0.034  -1.501  0.00  0.00     0.026 H 
ENDBRANCH  33  36
ENDBRANCH  32  33
ENDBRANCH  30  32
ENDBRANCH   1  30
BRANCH   9  40
ATOM     40  C   LIG d   1       4.547   0.888  -8.655  0.00  0.00    -0.036 C 
ATOM     41  H   LIG d   1       5.447   1.367  -9.042  0.00  0.00     0.026 H 
ATOM     42  H   LIG d   1       3.825   0.764  -9.461  0.00  0.00     0.026 H 
ATOM     43  H   LIG d   1       4.113   1.511  -7.872  0.00  0.00     0.026 H 
ENDBRANCH   9  40
BRANCH   9  44
ATOM     44  C   LIG d   1       3.705  -1.420  -8.201  0.00  0.00    -0.036 C 
ATOM     45  H   LIG d   1       3.863  -2.299  -7.575  0.00  0.00     0.026 H 
ATOM     46  H   LIG d   1       2.803  -0.901  -7.877  0.00  0.00     0.026 H 
ATOM     47  H   LIG d   1       3.593  -1.730  -9.240  0.00  0.00     0.026 H 
ENDBRANCH   9  44
TORSDOF 10
ENDMDL
MODEL 9
REMARK VINA RESULT:      -4.9      1.784      5.103
REMARK  10 active torsions:
REMARK  status: ('A' for Active; 'I' for Inactive)
REMARK    1  A    between atoms: C_1  and  C_2 
REMARK    2  A    between atoms: C_2  and  O_3 
REMARK    3  A    between atoms: O_3  and  C_4 
REMARK    4  A    between atoms: C_4  and  C_6 
REMARK    5  A    between atoms: C_8  and  C_21 
REMARK    6  A    between atoms: C_14  and  C_16 
REMARK    7  A    between atoms: C_14  and  C_17 
REMARK    8  A    between atoms: C_21  and  O_23 
REMARK    9  A    between atoms: O_23  and  C_24 
REMARK   10  A    between atoms: C_24  and  C_25 
ROOT
ATOM      1  C   LIG d   1       6.225  -1.859  -3.959  0.00  0.00     0.169 C 
ATOM      2  H   LIG d   1       6.708  -2.659  -3.398  0.00  0.00     0.054 H 
ATOM      3  C   LIG d   1       6.719  -1.834  -5.429  0.00  0.00     0.119 C 
ATOM      4  H   LIG d   1       7.431  -1.023  -5.584  0.00  0.00     0.047 H 
ATOM      5  C   LIG d   1       5.417  -1.576  -6.211  0.00  0.00     0.132 C 
ATOM      6  C   LIG d   1       5.121  -2.761  -7.129  0.00  0.00     0.012 C 
ATOM      7  C   LIG d   1       3.865  -2.457  -7.953  0.00  0.00     0.052 C 
ATOM      8  O   LIG d   1       4.060  -1.244  -8.683  0.00  0.00    -0.374 OA
ATOM      9  C   LIG d   1       4.278  -0.095  -7.862  0.00  0.00     0.068 C 
ATOM     10  C   LIG d   1       5.551  -0.295  -7.033  0.00  0.00     0.017 C 
ATOM     11  O   LIG d   1       4.376  -1.433  -5.235  0.00  0.00    -0.456 OA
ATOM     12  C   LIG d   1       4.734  -2.138  -4.134  0.00  0.00     0.323 C 
ATOM     13  O   LIG d   1       4.029  -2.835  -3.443  0.00  0.00    -0.250 OA
ATOM     14  H   LIG d   1       5.965  -2.923  -7.798  0.00  0.00     0.033 H 
ATOM     15  H   LIG d   1       4.954  -3.654  -6.528  0.00  0.00     0.033 H 
ATOM     16  H   LIG d   1       3.681  -3.275  -8.649  0.00  0.00     0.056 H 
ATOM     17  H   LIG d   1       3.011  -2.347  -7.285  0.00  0.00     0.056 H 
ATOM     18  H   LIG d   1       5.688   0.554  -6.365  0.00  0.00     0.033 H 
ATOM     19  H   LIG d   1       6.409  -0.379  -7.700  0.00  0.00     0.033 H 
ENDROOT
BRANCH   3  20
ATOM     20  C   LIG d   1       7.328  -3.158  -5.812  0.00  0.00     0.315 C 
ATOM     21  O   LIG d   1       7.982  -3.253  -6.824  0.00  0.00    -0.250 OA
BRANCH  20  22
ATOM     22  O   LIG d   1       7.145  -4.232  -5.029  0.00  0.00    -0.465 OA
BRANCH  22  23
ATOM     23  C   LIG d   1       7.332  -5.514  -5.631  0.00  0.00     0.090 C 
ATOM     24  H   LIG d   1       7.801  -5.392  -6.607  0.00  0.00     0.069 H 
ATOM     25  H   LIG d   1       7.970  -6.125  -4.995  0.00  0.00     0.069 H 
BRANCH  23  26
ATOM     26  C   LIG d   1       5.974  -6.200  -5.802  0.00  0.00    -0.031 C 
ATOM     27  H   LIG d   1       5.344  -5.976  -4.940  0.00  0.00     0.026 H 
ATOM     28  H   LIG d   1       5.493  -5.832  -6.708  0.00  0.00     0.026 H 
ATOM     29  H   LIG d   1       6.118  -7.277  -5.878  0.00  0.00     0.026 H 
ENDBRANCH  23  26
ENDBRANCH  22  23
ENDBRANCH  20  22
ENDBRANCH   3  20
BRANCH   1  30
ATOM     30  C   LIG d   1       6.449  -0.526  -3.292  0.00  0.00     0.322 C 
ATOM     31  O   LIG d   1       7.433   0.122  -3.554  0.00  0.00    -0.250 OA
BRANCH  30  32
ATOM     32  O   LIG d   1       5.554  -0.059  -2.407  0.00  0.00    -0.464 OA
BRANCH  32  33
ATOM     33  C   LIG d   1       5.057   1.263  -2.621  0.00  0.00     0.090 C 
ATOM     34  H   LIG d   1       5.316   1.590  -3.628  0.00  0.00     0.069 H 
ATOM     35  H   LIG d   1       5.504   1.941  -1.893  0.00  0.00     0.069 H 
BRANCH  33  36
ATOM     36  C   LIG d   1       3.537   1.270  -2.457  0.00  0.00    -0.031 C 
ATOM     37  H   LIG d   1       3.228   2.193  -1.966  0.00  0.00     0.026 H 
ATOM     38  H   LIG d   1       3.065   1.205  -3.437  0.00  0.00     0.026 H 
ATOM     39  H   LIG d   1       3.233   0.417  -1.851  0.00  0.00     0.026 H 
ENDBRANCH  33  36
ENDBRANCH  32  33
ENDBRANCH  30  32
ENDBRANCH   1  30
BRANCH   9  40
ATOM     40  C   LIG d   1       4.434   1.143  -8.747  0.00  0.00    -0.036 C 
ATOM     41  H   LIG d   1       3.997   0.948  -9.726  0.00  0.00     0.026 H 
ATOM     42  H   LIG d   1       3.926   1.989  -8.284  0.00  0.00     0.026 H 
ATOM     43  H   LIG d   1       5.494   1.376  -8.862  0.00  0.00     0.026 H 
ENDBRANCH   9  40
BRANCH   9  44
ATOM     44  C   LIG d   1       3.084   0.097  -6.924  0.00  0.00    -0.036 C 
ATOM     45  H   LIG d   1       2.319  -0.647  -7.153  0.00  0.00     0.026 H 
ATOM     46  H   LIG d   1       3.410  -0.024  -5.891  0.00  0.00     0.026 H 
ATOM     47  H   LIG d   1       2.671   1.096  -7.060  0.00  0.00     0.026 H 
ENDBRANCH   9  44
TORSDOF 10
ENDMDL
MODEL 10
REMARK VINA RESULT:      -4.8      1.804      4.582
REMARK  10 active torsions:
REMARK  status: ('A' for Active; 'I' for Inactive)
REMARK    1  A    between atoms: C_1  and  C_2 
REMARK    2  A    between atoms: C_2  and  O_3 
REMARK    3  A    between atoms: O_3  and  C_4 
REMARK    4  A    between atoms: C_4  and  C_6 
REMARK    5  A    between atoms: C_8  and  C_21 
REMARK    6  A    between atoms: C_14  and  C_16 
REMARK    7  A    between atoms: C_14  and  C_17 
REMARK    8  A    between atoms: C_21  and  O_23 
REMARK    9  A    between atoms: O_23  and  C_24 
REMARK   10  A    between atoms: C_24  and  C_25 
ROOT
ATOM      1  C   LIG d   1       6.995  -2.546  -4.113  0.00  0.00     0.169 C 
ATOM      2  H   LIG d   1       7.206  -2.341  -3.063  0.00  0.00     0.054 H 
ATOM      3  C   LIG d   1       5.478  -2.774  -4.341  0.00  0.00     0.119 C 
ATOM      4  H   LIG d   1       5.261  -3.835  -4.464  0.00  0.00     0.047 H 
ATOM      5  C   LIG d   1       5.223  -2.007  -5.653  0.00  0.00     0.132 C 
ATOM      6  C   LIG d   1       4.240  -0.865  -5.401  0.00  0.00     0.012 C 
ATOM      7  C   LIG d   1       3.939  -0.160  -6.728  0.00  0.00     0.052 C 
ATOM      8  O   LIG d   1       3.433  -1.112  -7.667  0.00  0.00    -0.374 OA
ATOM      9  C   LIG d   1       4.345  -2.166  -7.981  0.00  0.00     0.068 C 
ATOM     10  C   LIG d   1       4.664  -2.959  -6.709  0.00  0.00     0.017 C 
ATOM     11  O   LIG d   1       6.490  -1.486  -6.075  0.00  0.00    -0.456 OA
ATOM     12  C   LIG d   1       7.260  -1.312  -4.972  0.00  0.00     0.323 C 
ATOM     13  O   LIG d   1       7.994  -0.385  -4.724  0.00  0.00    -0.250 OA
ATOM     14  H   LIG d   1       3.316  -1.265  -4.984  0.00  0.00     0.033 H 
ATOM     15  H   LIG d   1       4.679  -0.154  -4.703  0.00  0.00     0.033 H 
ATOM     16  H   LIG d   1       3.196   0.620  -6.564  0.00  0.00     0.056 H 
ATOM     17  H   LIG d   1       4.855   0.285  -7.118  0.00  0.00     0.056 H 
ATOM     18  H   LIG d   1       5.403  -3.727  -6.934  0.00  0.00     0.033 H 
ATOM     19  H   LIG d   1       3.753  -3.425  -6.333  0.00  0.00     0.033 H 
ENDROOT
BRANCH   3  20
ATOM     20  C   LIG d   1       4.673  -2.193  -3.208  0.00  0.00     0.315 C 
ATOM     21  O   LIG d   1       3.547  -2.583  -3.004  0.00  0.00    -0.250 OA
BRANCH  20  22
ATOM     22  O   LIG d   1       5.205  -1.243  -2.424  0.00  0.00    -0.465 OA
BRANCH  22  23
ATOM     23  C   LIG d   1       4.295  -0.408  -1.705  0.00  0.00     0.090 C 
ATOM     24  H   LIG d   1       3.280  -0.589  -2.059  0.00  0.00     0.069 H 
ATOM     25  H   LIG d   1       4.354  -0.637  -0.642  0.00  0.00     0.069 H 
BRANCH  23  26
ATOM     26  C   LIG d   1       4.661   1.060  -1.933  0.00  0.00    -0.031 C 
ATOM     27  H   LIG d   1       3.788   1.598  -2.304  0.00  0.00     0.026 H 
ATOM     28  H   LIG d   1       4.987   1.502  -0.992  0.00  0.00     0.026 H 
ATOM     29  H   LIG d   1       5.466   1.125  -2.663  0.00  0.00     0.026 H 
ENDBRANCH  23  26
ENDBRANCH  22  23
ENDBRANCH  20  22
ENDBRANCH   3  20
BRANCH   1  30
ATOM     30  C   LIG d   1       7.798  -3.725  -4.600  0.00  0.00     0.322 C 
ATOM     31  O   LIG d   1       7.234  -4.724  -4.977  0.00  0.00    -0.250 OA
BRANCH  30  32
ATOM     32  O   LIG d   1       9.139  -3.664  -4.615  0.00  0.00    -0.464 OA
BRANCH  32  33
ATOM     33  C   LIG d   1       9.840  -4.582  -3.774  0.00  0.00     0.090 C 
ATOM     34  H   LIG d   1      10.905  -4.539  -3.998  0.00  0.00     0.069 H 
ATOM     35  H   LIG d   1       9.472  -5.593  -3.954  0.00  0.00     0.069 H 
BRANCH  33  36
ATOM     36  C   LIG d   1       9.610  -4.209  -2.309  0.00  0.00    -0.031 C 
ATOM     37  H   LIG d   1      10.294  -3.407  -2.026  0.00  0.00     0.026 H 
ATOM     38  H   LIG d   1       8.582  -3.872  -2.176  0.00  0.00     0.026 H 
ATOM     39  H   LIG d   1       9.791  -5.080  -1.679  0.00  0.00     0.026 H 
ENDBRANCH  33  36
ENDBRANCH  32  33
ENDBRANCH  30  32
ENDBRANCH   1  30
BRANCH   9  40
ATOM     40  C   LIG d   1       3.712  -3.097  -9.017  0.00  0.00    -0.036 C 
ATOM     41  H   LIG d   1       3.911  -2.715 -10.018  0.00  0.00     0.026 H 
ATOM     42  H   LIG d   1       4.137  -4.096  -8.917  0.00  0.00     0.026 H 
ATOM     43  H   LIG d   1       2.635  -3.143  -8.854  0.00  0.00     0.026 H 
ENDBRANCH   9  40
BRANCH   9  44
ATOM     44  C   LIG d   1       5.636  -1.573  -8.549  0.00  0.00    -0.036 C 
ATOM     45  H   LIG d   1       6.450  -1.728  -7.840  0.00  0.00     0.026 H 
ATOM     46  H   LIG d   1       5.877  -2.064  -9.492  0.00  0.00     0.026 H 
ATOM     47  H   LIG d   1       5.501  -0.505  -8.721  0.00  0.00     0.026 H 
ENDBRANCH   9  44
TORSDOF 10
ENDMDL
