MODEL 1
REMARK VINA RESULT:      -6.0      0.000      0.000
REMARK  3 active torsions:
REMARK  status: ('A' for Active; 'I' for Inactive)
REMARK    1  A    between atoms: C_1  and  C_2 
REMARK    2  A    between atoms: C_5  and  S_8 
REMARK    3  A    between atoms: S_8  and  N_11 
REMARK       I    between atoms: C_12  and  N_14 
ROOT
ATOM      1  S   LIG d   1       5.170  -0.053  -8.019  0.00  0.00     0.099 S 
ATOM      2  O   LIG d   1       6.279  -0.852  -8.408  0.00  0.00    -0.146 OA
ATOM      3  O   LIG d   1       5.252   1.361  -7.907  0.00  0.00    -0.146 OA
ENDROOT
BRANCH   1   4
ATOM      4  C   LIG d   1       3.876  -0.394  -9.166  0.00  0.00     0.113 A 
ATOM      5  C   LIG d   1       4.111  -0.286 -10.523  0.00  0.00    -0.035 A 
ATOM      6  C   LIG d   1       3.098  -0.554 -11.424  0.00  0.00    -0.057 A 
ATOM      7  H   LIG d   1       5.088   0.007 -10.882  0.00  0.00     0.064 H 
ATOM      8  C   LIG d   1       1.848  -0.931 -10.966  0.00  0.00    -0.050 A 
ATOM      9  H   LIG d   1       3.281  -0.470 -12.485  0.00  0.00     0.062 H 
ATOM     10  C   LIG d   1       1.613  -1.033  -9.608  0.00  0.00    -0.057 A 
ATOM     11  C   LIG d   1       2.628  -0.770  -8.708  0.00  0.00    -0.035 A 
ATOM     12  H   LIG d   1       0.635  -1.323  -9.250  0.00  0.00     0.062 H 
ATOM     13  H   LIG d   1       2.445  -0.854  -7.647  0.00  0.00     0.064 H 
BRANCH   8  14
ATOM     14  C   LIG d   1       0.743  -1.223 -11.948  0.00  0.00    -0.040 C 
ATOM     15  H   LIG d   1       1.136  -1.816 -12.772  0.00  0.00     0.028 H 
ATOM     16  H   LIG d   1      -0.051  -1.777 -11.447  0.00  0.00     0.028 H 
ATOM     17  H   LIG d   1       0.343  -0.284 -12.333  0.00  0.00     0.028 H 
ENDBRANCH   8  14
ENDBRANCH   1   4
BRANCH   1  18
ATOM     18  N   LIG d   1       4.676  -0.617  -6.542  0.00  0.00    -0.129 NA
ATOM     19  C   LIG d   1       5.358  -0.325  -5.473  0.00  0.00     0.071 C 
ATOM     20  O   LIG d   1       6.470   0.437  -5.568  0.00  0.00    -0.848 OA
ATOM     21  N   LIG d   1       4.949  -0.793  -4.248  0.00  0.00    -0.325 N 
ATOM     22  C   LIG d   1       5.625  -0.540  -2.963  0.00  0.00     0.013 C 
ATOM     23  C   LIG d   1       3.768  -1.634  -4.004  0.00  0.00     0.013 C 
ATOM     24  C   LIG d   1       4.513  -0.708  -1.894  0.00  0.00    -0.036 C 
ATOM     25  H   LIG d   1       6.420  -1.268  -2.803  0.00  0.00     0.046 H 
ATOM     26  H   LIG d   1       6.024   0.474  -2.938  0.00  0.00     0.046 H 
ATOM     27  C   LIG d   1       3.693  -1.886  -2.483  0.00  0.00    -0.036 C 
ATOM     28  H   LIG d   1       3.902   0.191  -1.815  0.00  0.00     0.028 H 
ATOM     29  H   LIG d   1       4.940  -0.974  -0.927  0.00  0.00     0.028 H 
ATOM     30  H   LIG d   1       2.660  -1.849  -2.136  0.00  0.00     0.028 H 
ATOM     31  H   LIG d   1       4.153  -2.841  -2.228  0.00  0.00     0.028 H 
ATOM     32  H   LIG d   1       2.869  -1.115  -4.337  0.00  0.00     0.046 H 
ATOM     33  H   LIG d   1       3.870  -2.581  -4.533  0.00  0.00     0.046 H 
ENDBRANCH   1  18
TORSDOF 3
ENDMDL
MODEL 2
REMARK VINA RESULT:      -5.9      1.634      2.036
REMARK  3 active torsions:
REMARK  status: ('A' for Active; 'I' for Inactive)
REMARK    1  A    between atoms: C_1  and  C_2 
REMARK    2  A    between atoms: C_5  and  S_8 
REMARK    3  A    between atoms: S_8  and  N_11 
REMARK       I    between atoms: C_12  and  N_14 
ROOT
ATOM      1  S   LIG d   1       4.057   0.673  -7.979  0.00  0.00     0.099 S 
ATOM      2  O   LIG d   1       5.261   0.840  -8.715  0.00  0.00    -0.146 OA
ATOM      3  O   LIG d   1       3.173   1.753  -7.711  0.00  0.00    -0.146 OA
ENDROOT
BRANCH   1   4
ATOM      4  C   LIG d   1       3.115  -0.551  -8.826  0.00  0.00     0.113 A 
ATOM      5  C   LIG d   1       3.500  -1.877  -8.775  0.00  0.00    -0.035 A 
ATOM      6  C   LIG d   1       2.761  -2.838  -9.438  0.00  0.00    -0.057 A 
ATOM      7  H   LIG d   1       4.379  -2.163  -8.215  0.00  0.00     0.064 H 
ATOM      8  C   LIG d   1       1.636  -2.473 -10.153  0.00  0.00    -0.050 A 
ATOM      9  H   LIG d   1       3.062  -3.874  -9.398  0.00  0.00     0.062 H 
ATOM     10  C   LIG d   1       1.254  -1.146 -10.209  0.00  0.00    -0.057 A 
ATOM     11  C   LIG d   1       1.990  -0.185  -9.542  0.00  0.00    -0.035 A 
ATOM     12  H   LIG d   1       0.378  -0.859 -10.772  0.00  0.00     0.062 H 
ATOM     13  H   LIG d   1       1.690   0.851  -9.582  0.00  0.00     0.064 H 
BRANCH   8  14
ATOM     14  C   LIG d   1       0.830  -3.521 -10.878  0.00  0.00    -0.040 C 
ATOM     15  H   LIG d   1      -0.049  -3.775 -10.287  0.00  0.00     0.028 H 
ATOM     16  H   LIG d   1       0.518  -3.133 -11.847  0.00  0.00     0.028 H 
ATOM     17  H   LIG d   1       1.441  -4.412 -11.022  0.00  0.00     0.028 H 
ENDBRANCH   8  14
ENDBRANCH   1   4
BRANCH   1  18
ATOM     18  N   LIG d   1       4.483   0.035  -6.512  0.00  0.00    -0.129 NA
ATOM     19  C   LIG d   1       3.581  -0.137  -5.590  0.00  0.00     0.071 C 
ATOM     20  O   LIG d   1       2.296   0.207  -5.830  0.00  0.00    -0.848 OA
ATOM     21  N   LIG d   1       3.935  -0.666  -4.373  0.00  0.00    -0.325 N 
ATOM     22  C   LIG d   1       3.018  -0.913  -3.244  0.00  0.00     0.013 C 
ATOM     23  C   LIG d   1       5.291  -1.075  -3.978  0.00  0.00     0.013 C 
ATOM     24  C   LIG d   1       3.706  -2.029  -2.415  0.00  0.00    -0.036 C 
ATOM     25  H   LIG d   1       2.903  -0.010  -2.645  0.00  0.00     0.046 H 
ATOM     26  H   LIG d   1       2.050  -1.254  -3.610  0.00  0.00     0.046 H 
ATOM     27  C   LIG d   1       5.201  -1.632  -2.542  0.00  0.00    -0.036 C 
ATOM     28  H   LIG d   1       3.525  -3.012  -2.852  0.00  0.00     0.028 H 
ATOM     29  H   LIG d   1       3.380  -2.000  -1.376  0.00  0.00     0.028 H 
ATOM     30  H   LIG d   1       5.843  -2.506  -2.426  0.00  0.00     0.028 H 
ATOM     31  H   LIG d   1       5.457  -0.864  -1.813  0.00  0.00     0.028 H 
ATOM     32  H   LIG d   1       5.655  -1.849  -4.653  0.00  0.00     0.046 H 
ATOM     33  H   LIG d   1       5.959  -0.215  -4.001  0.00  0.00     0.046 H 
ENDBRANCH   1  18
TORSDOF 3
ENDMDL
MODEL 3
REMARK VINA RESULT:      -5.8      5.444      8.170
REMARK  3 active torsions:
REMARK  status: ('A' for Active; 'I' for Inactive)
REMARK    1  A    between atoms: C_1  and  C_2 
REMARK    2  A    between atoms: C_5  and  S_8 
REMARK    3  A    between atoms: S_8  and  N_11 
REMARK       I    between atoms: C_12  and  N_14 
ROOT
ATOM      1  S   LIG d   1       9.036   2.453  -4.501  0.00  0.00     0.099 S 
ATOM      2  O   LIG d   1       8.803   2.510  -5.901  0.00  0.00    -0.146 OA
ATOM      3  O   LIG d   1      10.035   1.619  -3.930  0.00  0.00    -0.146 OA
ENDROOT
BRANCH   1   4
ATOM      4  C   LIG d   1       9.396   4.098  -3.983  0.00  0.00     0.113 A 
ATOM      5  C   LIG d   1       9.902   4.329  -2.718  0.00  0.00    -0.035 A 
ATOM      6  C   LIG d   1      10.185   5.619  -2.311  0.00  0.00    -0.057 A 
ATOM      7  H   LIG d   1      10.077   3.500  -2.046  0.00  0.00     0.064 H 
ATOM      8  C   LIG d   1       9.963   6.679  -3.170  0.00  0.00    -0.050 A 
ATOM      9  H   LIG d   1      10.581   5.799  -1.323  0.00  0.00     0.062 H 
ATOM     10  C   LIG d   1       9.451   6.448  -4.434  0.00  0.00    -0.057 A 
ATOM     11  C   LIG d   1       9.173   5.157  -4.842  0.00  0.00    -0.035 A 
ATOM     12  H   LIG d   1       9.272   7.277  -5.104  0.00  0.00     0.062 H 
ATOM     13  H   LIG d   1       8.777   4.977  -5.830  0.00  0.00     0.064 H 
BRANCH   8  14
ATOM     14  C   LIG d   1      10.271   8.086  -2.727  0.00  0.00    -0.040 C 
ATOM     15  H   LIG d   1      11.276   8.356  -3.048  0.00  0.00     0.028 H 
ATOM     16  H   LIG d   1       9.550   8.773  -3.171  0.00  0.00     0.028 H 
ATOM     17  H   LIG d   1      10.208   8.146  -1.640  0.00  0.00     0.028 H 
ENDBRANCH   8  14
ENDBRANCH   1   4
BRANCH   1  18
ATOM     18  N   LIG d   1       7.600   2.021  -3.799  0.00  0.00    -0.129 NA
ATOM     19  C   LIG d   1       7.202   0.783  -3.839  0.00  0.00     0.071 C 
ATOM     20  O   LIG d   1       7.961  -0.151  -4.455  0.00  0.00    -0.848 OA
ATOM     21  N   LIG d   1       6.011   0.425  -3.257  0.00  0.00    -0.325 N 
ATOM     22  C   LIG d   1       5.442  -0.935  -3.230  0.00  0.00     0.013 C 
ATOM     23  C   LIG d   1       5.089   1.336  -2.563  0.00  0.00     0.013 C 
ATOM     24  C   LIG d   1       4.500  -0.944  -1.997  0.00  0.00    -0.036 C 
ATOM     25  H   LIG d   1       4.878  -1.129  -4.142  0.00  0.00     0.046 H 
ATOM     26  H   LIG d   1       6.234  -1.674  -3.107  0.00  0.00     0.046 H 
ATOM     27  C   LIG d   1       3.904   0.488  -2.054  0.00  0.00    -0.036 C 
ATOM     28  H   LIG d   1       5.060  -1.096  -1.074  0.00  0.00     0.028 H 
ATOM     29  H   LIG d   1       3.720  -1.697  -2.108  0.00  0.00     0.028 H 
ATOM     30  H   LIG d   1       3.594   0.816  -1.061  0.00  0.00     0.028 H 
ATOM     31  H   LIG d   1       3.071   0.530  -2.754  0.00  0.00     0.028 H 
ATOM     32  H   LIG d   1       5.596   1.807  -1.721  0.00  0.00     0.046 H 
ATOM     33  H   LIG d   1       4.729   2.098  -3.255  0.00  0.00     0.046 H 
ENDBRANCH   1  18
TORSDOF 3
ENDMDL
MODEL 4
REMARK VINA RESULT:      -5.7      3.294      7.104
REMARK  3 active torsions:
REMARK  status: ('A' for Active; 'I' for Inactive)
REMARK    1  A    between atoms: C_1  and  C_2 
REMARK    2  A    between atoms: C_5  and  S_8 
REMARK    3  A    between atoms: S_8  and  N_11 
REMARK       I    between atoms: C_12  and  N_14 
ROOT
ATOM      1  S   LIG d   1       5.046  -3.899  -5.222  0.00  0.00     0.099 S 
ATOM      2  O   LIG d   1       6.428  -4.088  -5.491  0.00  0.00    -0.146 OA
ATOM      3  O   LIG d   1       4.238  -4.916  -4.645  0.00  0.00    -0.146 OA
ENDROOT
BRANCH   1   4
ATOM      4  C   LIG d   1       4.927  -2.497  -4.160  0.00  0.00     0.113 A 
ATOM      5  C   LIG d   1       5.618  -1.340  -4.465  0.00  0.00    -0.035 A 
ATOM      6  C   LIG d   1       5.524  -0.240  -3.633  0.00  0.00    -0.057 A 
ATOM      7  H   LIG d   1       6.231  -1.294  -5.354  0.00  0.00     0.064 H 
ATOM      8  C   LIG d   1       4.740  -0.298  -2.497  0.00  0.00    -0.050 A 
ATOM      9  H   LIG d   1       6.064   0.665  -3.871  0.00  0.00     0.062 H 
ATOM     10  C   LIG d   1       4.053  -1.458  -2.189  0.00  0.00    -0.057 A 
ATOM     11  C   LIG d   1       4.143  -2.556  -3.023  0.00  0.00    -0.035 A 
ATOM     12  H   LIG d   1       3.444  -1.505  -1.298  0.00  0.00     0.062 H 
ATOM     13  H   LIG d   1       3.604  -3.461  -2.786  0.00  0.00     0.064 H 
BRANCH   8  14
ATOM     14  C   LIG d   1       4.638   0.902  -1.589  0.00  0.00    -0.040 C 
ATOM     15  H   LIG d   1       3.899   1.597  -1.987  0.00  0.00     0.028 H 
ATOM     16  H   LIG d   1       4.335   0.579  -0.594  0.00  0.00     0.028 H 
ATOM     17  H   LIG d   1       5.608   1.396  -1.532  0.00  0.00     0.028 H 
ENDBRANCH   8  14
ENDBRANCH   1   4
BRANCH   1  18
ATOM     18  N   LIG d   1       4.335  -3.487  -6.659  0.00  0.00    -0.129 NA
ATOM     19  C   LIG d   1       3.981  -4.415  -7.500  0.00  0.00     0.071 C 
ATOM     20  O   LIG d   1       4.195  -5.715  -7.200  0.00  0.00    -0.848 OA
ATOM     21  N   LIG d   1       3.392  -4.073  -8.692  0.00  0.00    -0.325 N 
ATOM     22  C   LIG d   1       2.944  -5.018  -9.732  0.00  0.00     0.013 C 
ATOM     23  C   LIG d   1       3.108  -2.703  -9.146  0.00  0.00     0.013 C 
ATOM     24  C   LIG d   1       1.846  -4.252 -10.514  0.00  0.00    -0.036 C 
ATOM     25  H   LIG d   1       3.773  -5.276 -10.391  0.00  0.00     0.046 H 
ATOM     26  H   LIG d   1       2.528  -5.915  -9.274  0.00  0.00     0.046 H 
ATOM     27  C   LIG d   1       2.421  -2.811 -10.523  0.00  0.00    -0.036 C 
ATOM     28  H   LIG d   1       0.891  -4.287  -9.989  0.00  0.00     0.028 H 
ATOM     29  H   LIG d   1       1.747  -4.640 -11.528  0.00  0.00     0.028 H 
ATOM     30  H   LIG d   1       1.620  -2.076 -10.613  0.00  0.00     0.028 H 
ATOM     31  H   LIG d   1       3.147  -2.692 -11.327  0.00  0.00     0.028 H 
ATOM     32  H   LIG d   1       2.443  -2.209  -8.438  0.00  0.00     0.046 H 
ATOM     33  H   LIG d   1       4.038  -2.143  -9.238  0.00  0.00     0.046 H 
ENDBRANCH   1  18
TORSDOF 3
ENDMDL
MODEL 5
REMARK VINA RESULT:      -5.7      1.872      2.252
REMARK  3 active torsions:
REMARK  status: ('A' for Active; 'I' for Inactive)
REMARK    1  A    between atoms: C_1  and  C_2 
REMARK    2  A    between atoms: C_5  and  S_8 
REMARK    3  A    between atoms: S_8  and  N_11 
REMARK       I    between atoms: C_12  and  N_14 
ROOT
ATOM      1  S   LIG d   1       4.600  -2.281  -7.061  0.00  0.00     0.099 S 
ATOM      2  O   LIG d   1       4.278  -3.583  -6.592  0.00  0.00    -0.146 OA
ATOM      3  O   LIG d   1       5.907  -1.930  -7.493  0.00  0.00    -0.146 OA
ENDROOT
BRANCH   1   4
ATOM      4  C   LIG d   1       3.516  -1.950  -8.410  0.00  0.00     0.113 A 
ATOM      5  C   LIG d   1       2.827  -0.754  -8.464  0.00  0.00    -0.035 A 
ATOM      6  C   LIG d   1       1.977  -0.493  -9.523  0.00  0.00    -0.057 A 
ATOM      7  H   LIG d   1       2.952  -0.021  -7.680  0.00  0.00     0.064 H 
ATOM      8  C   LIG d   1       1.818  -1.429 -10.528  0.00  0.00    -0.050 A 
ATOM      9  H   LIG d   1       1.438   0.442  -9.566  0.00  0.00     0.062 H 
ATOM     10  C   LIG d   1       2.504  -2.628 -10.470  0.00  0.00    -0.057 A 
ATOM     11  C   LIG d   1       3.357  -2.887  -9.414  0.00  0.00    -0.035 A 
ATOM     12  H   LIG d   1       2.375  -3.362 -11.253  0.00  0.00     0.062 H 
ATOM     13  H   LIG d   1       3.896  -3.821  -9.371  0.00  0.00     0.064 H 
BRANCH   8  14
ATOM     14  C   LIG d   1       0.891  -1.145 -11.682  0.00  0.00    -0.040 C 
ATOM     15  H   LIG d   1       1.291  -1.597 -12.589  0.00  0.00     0.028 H 
ATOM     16  H   LIG d   1      -0.092  -1.565 -11.470  0.00  0.00     0.028 H 
ATOM     17  H   LIG d   1       0.804  -0.067 -11.820  0.00  0.00     0.028 H 
ENDBRANCH   8  14
ENDBRANCH   1   4
BRANCH   1  18
ATOM     18  N   LIG d   1       4.204  -1.229  -5.845  0.00  0.00    -0.129 NA
ATOM     19  C   LIG d   1       4.650  -1.430  -4.639  0.00  0.00     0.071 C 
ATOM     20  O   LIG d   1       5.437  -2.498  -4.380  0.00  0.00    -0.848 OA
ATOM     21  N   LIG d   1       4.322  -0.558  -3.631  0.00  0.00    -0.325 N 
ATOM     22  C   LIG d   1       4.756  -0.666  -2.226  0.00  0.00     0.013 C 
ATOM     23  C   LIG d   1       3.474   0.635  -3.772  0.00  0.00     0.013 C 
ATOM     24  C   LIG d   1       4.679   0.783  -1.677  0.00  0.00    -0.036 C 
ATOM     25  H   LIG d   1       4.085  -1.320  -1.671  0.00  0.00     0.046 H 
ATOM     26  H   LIG d   1       5.780  -1.037  -2.174  0.00  0.00     0.046 H 
ATOM     27  C   LIG d   1       3.407   1.316  -2.389  0.00  0.00    -0.036 C 
ATOM     28  H   LIG d   1       5.558   1.361  -1.965  0.00  0.00     0.028 H 
ATOM     29  H   LIG d   1       4.551   0.784  -0.595  0.00  0.00     0.028 H 
ATOM     30  H   LIG d   1       3.448   2.401  -2.491  0.00  0.00     0.028 H 
ATOM     31  H   LIG d   1       2.510   1.011  -1.852  0.00  0.00     0.028 H 
ATOM     32  H   LIG d   1       3.913   1.317  -4.500  0.00  0.00     0.046 H 
ATOM     33  H   LIG d   1       2.473   0.343  -4.091  0.00  0.00     0.046 H 
ENDBRANCH   1  18
TORSDOF 3
ENDMDL
MODEL 6
REMARK VINA RESULT:      -5.5      2.100      6.752
REMARK  3 active torsions:
REMARK  status: ('A' for Active; 'I' for Inactive)
REMARK    1  A    between atoms: C_1  and  C_2 
REMARK    2  A    between atoms: C_5  and  S_8 
REMARK    3  A    between atoms: S_8  and  N_11 
REMARK       I    between atoms: C_12  and  N_14 
ROOT
ATOM      1  S   LIG d   1       3.765   0.225  -7.696  0.00  0.00     0.099 S 
ATOM      2  O   LIG d   1       3.011   1.427  -7.631  0.00  0.00    -0.146 OA
ATOM      3  O   LIG d   1       5.108   0.193  -8.161  0.00  0.00    -0.146 OA
ENDROOT
BRANCH   1   4
ATOM      4  C   LIG d   1       3.779  -0.449  -6.068  0.00  0.00     0.113 A 
ATOM      5  C   LIG d   1       2.984   0.107  -5.084  0.00  0.00    -0.035 A 
ATOM      6  C   LIG d   1       2.993  -0.422  -3.807  0.00  0.00    -0.057 A 
ATOM      7  H   LIG d   1       2.353   0.954  -5.313  0.00  0.00     0.064 H 
ATOM      8  C   LIG d   1       3.799  -1.506  -3.514  0.00  0.00    -0.050 A 
ATOM      9  H   LIG d   1       2.372   0.012  -3.038  0.00  0.00     0.062 H 
ATOM     10  C   LIG d   1       4.599  -2.058  -4.497  0.00  0.00    -0.057 A 
ATOM     11  C   LIG d   1       4.585  -1.533  -5.775  0.00  0.00    -0.035 A 
ATOM     12  H   LIG d   1       5.232  -2.903  -4.267  0.00  0.00     0.062 H 
ATOM     13  H   LIG d   1       5.207  -1.967  -6.544  0.00  0.00     0.064 H 
BRANCH   8  14
ATOM     14  C   LIG d   1       3.810  -2.082  -2.121  0.00  0.00    -0.040 C 
ATOM     15  H   LIG d   1       3.914  -1.277  -1.395  0.00  0.00     0.028 H 
ATOM     16  H   LIG d   1       2.877  -2.616  -1.941  0.00  0.00     0.028 H 
ATOM     17  H   LIG d   1       4.648  -2.773  -2.021  0.00  0.00     0.028 H 
ENDBRANCH   8  14
ENDBRANCH   1   4
BRANCH   1  18
ATOM     18  N   LIG d   1       2.908  -0.821  -8.651  0.00  0.00    -0.129 NA
ATOM     19  C   LIG d   1       2.712  -0.544  -9.908  0.00  0.00     0.071 C 
ATOM     20  O   LIG d   1       3.209   0.599 -10.432  0.00  0.00    -0.848 OA
ATOM     21  N   LIG d   1       2.001  -1.411 -10.700  0.00  0.00    -0.325 N 
ATOM     22  C   LIG d   1       1.707  -1.220 -12.132  0.00  0.00     0.013 C 
ATOM     23  C   LIG d   1       1.402  -2.679 -10.259  0.00  0.00     0.013 C 
ATOM     24  C   LIG d   1       1.472  -2.653 -12.680  0.00  0.00    -0.036 C 
ATOM     25  H   LIG d   1       0.810  -0.613 -12.258  0.00  0.00     0.046 H 
ATOM     26  H   LIG d   1       2.555  -0.757 -12.635  0.00  0.00     0.046 H 
ATOM     27  C   LIG d   1       0.730  -3.320 -11.491  0.00  0.00    -0.036 C 
ATOM     28  H   LIG d   1       2.417  -3.157 -12.882  0.00  0.00     0.028 H 
ATOM     29  H   LIG d   1       0.844  -2.632 -13.570  0.00  0.00     0.028 H 
ATOM     30  H   LIG d   1       0.885  -4.400 -11.497  0.00  0.00     0.028 H 
ATOM     31  H   LIG d   1      -0.333  -3.081 -11.519  0.00  0.00     0.028 H 
ATOM     32  H   LIG d   1       2.178  -3.340  -9.874  0.00  0.00     0.046 H 
ATOM     33  H   LIG d   1       0.657  -2.489  -9.487  0.00  0.00     0.046 H 
ENDBRANCH   1  18
TORSDOF 3
ENDMDL
MODEL 7
REMARK VINA RESULT:      -5.3      4.180      6.466
REMARK  3 active torsions:
REMARK  status: ('A' for Active; 'I' for Inactive)
REMARK    1  A    between atoms: C_1  and  C_2 
REMARK    2  A    between atoms: C_5  and  S_8 
REMARK    3  A    between atoms: S_8  and  N_11 
REMARK       I    between atoms: C_12  and  N_14 
ROOT
ATOM      1  S   LIG d   1       7.737   0.958  -6.432  0.00  0.00     0.099 S 
ATOM      2  O   LIG d   1       6.820   1.311  -7.458  0.00  0.00    -0.146 OA
ATOM      3  O   LIG d   1       8.685  -0.089  -6.586  0.00  0.00    -0.146 OA
ENDROOT
BRANCH   1   4
ATOM      4  C   LIG d   1       8.652   2.415  -6.051  0.00  0.00     0.113 A 
ATOM      5  C   LIG d   1       9.364   3.062  -7.042  0.00  0.00    -0.035 A 
ATOM      6  C   LIG d   1      10.081   4.206  -6.744  0.00  0.00    -0.057 A 
ATOM      7  H   LIG d   1       9.359   2.676  -8.051  0.00  0.00     0.064 H 
ATOM      8  C   LIG d   1      10.086   4.702  -5.454  0.00  0.00    -0.050 A 
ATOM      9  H   LIG d   1      10.637   4.712  -7.519  0.00  0.00     0.062 H 
ATOM     10  C   LIG d   1       9.378   4.050  -4.461  0.00  0.00    -0.057 A 
ATOM     11  C   LIG d   1       8.657   2.910  -4.760  0.00  0.00    -0.035 A 
ATOM     12  H   LIG d   1       9.385   4.435  -3.451  0.00  0.00     0.062 H 
ATOM     13  H   LIG d   1       8.101   2.404  -3.985  0.00  0.00     0.064 H 
BRANCH   8  14
ATOM     14  C   LIG d   1      10.868   5.948  -5.129  0.00  0.00    -0.040 C 
ATOM     15  H   LIG d   1      10.917   6.075  -4.048  0.00  0.00     0.028 H 
ATOM     16  H   LIG d   1      11.877   5.859  -5.531  0.00  0.00     0.028 H 
ATOM     17  H   LIG d   1      10.374   6.813  -5.574  0.00  0.00     0.028 H 
ENDBRANCH   8  14
ENDBRANCH   1   4
BRANCH   1  18
ATOM     18  N   LIG d   1       6.832   0.584  -5.096  0.00  0.00    -0.129 NA
ATOM     19  C   LIG d   1       5.931  -0.352  -5.162  0.00  0.00     0.071 C 
ATOM     20  O   LIG d   1       5.732  -1.018  -6.321  0.00  0.00    -0.848 OA
ATOM     21  N   LIG d   1       5.180  -0.661  -4.054  0.00  0.00    -0.325 N 
ATOM     22  C   LIG d   1       4.130  -1.694  -3.990  0.00  0.00     0.013 C 
ATOM     23  C   LIG d   1       5.287  -0.014  -2.739  0.00  0.00     0.013 C 
ATOM     24  C   LIG d   1       4.048  -2.079  -2.489  0.00  0.00    -0.036 C 
ATOM     25  H   LIG d   1       3.178  -1.289  -4.332  0.00  0.00     0.046 H 
ATOM     26  H   LIG d   1       4.413  -2.560  -4.588  0.00  0.00     0.046 H 
ATOM     27  C   LIG d   1       4.271  -0.705  -1.805  0.00  0.00    -0.036 C 
ATOM     28  H   LIG d   1       4.837  -2.782  -2.219  0.00  0.00     0.028 H 
ATOM     29  H   LIG d   1       3.066  -2.483  -2.244  0.00  0.00     0.028 H 
ATOM     30  H   LIG d   1       4.691  -0.834  -0.806  0.00  0.00     0.028 H 
ATOM     31  H   LIG d   1       3.340  -0.140  -1.763  0.00  0.00     0.028 H 
ATOM     32  H   LIG d   1       6.296  -0.138  -2.345  0.00  0.00     0.046 H 
ATOM     33  H   LIG d   1       5.049   1.046  -2.826  0.00  0.00     0.046 H 
ENDBRANCH   1  18
TORSDOF 3
ENDMDL
MODEL 8
REMARK VINA RESULT:      -5.3      5.629      7.636
REMARK  3 active torsions:
REMARK  status: ('A' for Active; 'I' for Inactive)
REMARK    1  A    between atoms: C_1  and  C_2 
REMARK    2  A    between atoms: C_5  and  S_8 
REMARK    3  A    between atoms: S_8  and  N_11 
REMARK       I    between atoms: C_12  and  N_14 
ROOT
ATOM      1  S   LIG d   1       8.496   1.339  -5.014  0.00  0.00     0.099 S 
ATOM      2  O   LIG d   1       9.589   0.440  -5.145  0.00  0.00    -0.146 OA
ATOM      3  O   LIG d   1       7.840   1.908  -6.139  0.00  0.00    -0.146 OA
ENDROOT
BRANCH   1   4
ATOM      4  C   LIG d   1       7.260   0.497  -4.083  0.00  0.00     0.113 A 
ATOM      5  C   LIG d   1       6.338   1.218  -3.348  0.00  0.00    -0.035 A 
ATOM      6  C   LIG d   1       5.367   0.558  -2.618  0.00  0.00    -0.057 A 
ATOM      7  H   LIG d   1       6.374   2.298  -3.345  0.00  0.00     0.064 H 
ATOM      8  C   LIG d   1       5.319  -0.823  -2.623  0.00  0.00    -0.050 A 
ATOM      9  H   LIG d   1       4.647   1.122  -2.044  0.00  0.00     0.062 H 
ATOM     10  C   LIG d   1       6.245  -1.544  -3.353  0.00  0.00    -0.057 A 
ATOM     11  C   LIG d   1       7.213  -0.884  -4.087  0.00  0.00    -0.035 A 
ATOM     12  H   LIG d   1       6.211  -2.624  -3.353  0.00  0.00     0.062 H 
ATOM     13  H   LIG d   1       7.933  -1.447  -4.661  0.00  0.00     0.064 H 
BRANCH   8  14
ATOM     14  C   LIG d   1       4.261  -1.543  -1.826  0.00  0.00    -0.040 C 
ATOM     15  H   LIG d   1       4.690  -1.899  -0.890  0.00  0.00     0.028 H 
ATOM     16  H   LIG d   1       3.439  -0.860  -1.613  0.00  0.00     0.028 H 
ATOM     17  H   LIG d   1       3.889  -2.392  -2.401  0.00  0.00     0.028 H 
ENDBRANCH   8  14
ENDBRANCH   1   4
BRANCH   1  18
ATOM     18  N   LIG d   1       9.031   2.603  -4.088  0.00  0.00    -0.129 NA
ATOM     19  C   LIG d   1       9.834   3.490  -4.599  0.00  0.00     0.071 C 
ATOM     20  O   LIG d   1      10.233   3.379  -5.886  0.00  0.00    -0.848 OA
ATOM     21  N   LIG d   1      10.278   4.538  -3.831  0.00  0.00    -0.325 N 
ATOM     22  C   LIG d   1      11.187   5.609  -4.281  0.00  0.00     0.013 C 
ATOM     23  C   LIG d   1       9.931   4.776  -2.422  0.00  0.00     0.013 C 
ATOM     24  C   LIG d   1      10.886   6.803  -3.338  0.00  0.00    -0.036 C 
ATOM     25  H   LIG d   1      12.225   5.293  -4.177  0.00  0.00     0.046 H 
ATOM     26  H   LIG d   1      10.973   5.878  -5.315  0.00  0.00     0.046 H 
ATOM     27  C   LIG d   1      10.637   6.077  -1.989  0.00  0.00    -0.036 C 
ATOM     28  H   LIG d   1       9.996   7.345  -3.660  0.00  0.00     0.028 H 
ATOM     29  H   LIG d   1      11.744   7.472  -3.270  0.00  0.00     0.028 H 
ATOM     30  H   LIG d   1       9.988   6.672  -1.345  0.00  0.00     0.028 H 
ATOM     31  H   LIG d   1      11.581   5.857  -1.491  0.00  0.00     0.028 H 
ATOM     32  H   LIG d   1       8.852   4.889  -2.321  0.00  0.00     0.046 H 
ATOM     33  H   LIG d   1      10.278   3.944  -1.809  0.00  0.00     0.046 H 
ENDBRANCH   1  18
TORSDOF 3
ENDMDL
MODEL 9
REMARK VINA RESULT:      -5.2     11.787     14.217
REMARK  3 active torsions:
REMARK  status: ('A' for Active; 'I' for Inactive)
REMARK    1  A    between atoms: C_1  and  C_2 
REMARK    2  A    between atoms: C_5  and  S_8 
REMARK    3  A    between atoms: S_8  and  N_11 
REMARK       I    between atoms: C_12  and  N_14 
ROOT
ATOM      1  S   LIG d   1      11.681   8.534   1.098  0.00  0.00     0.099 S 
ATOM      2  O   LIG d   1      13.072   8.738   0.892  0.00  0.00    -0.146 OA
ATOM      3  O   LIG d   1      10.736   9.591   1.008  0.00  0.00    -0.146 OA
ENDROOT
BRANCH   1   4
ATOM      4  C   LIG d   1      11.175   7.306  -0.061  0.00  0.00     0.113 A 
ATOM      5  C   LIG d   1      10.122   7.558  -0.919  0.00  0.00    -0.035 A 
ATOM      6  C   LIG d   1       9.726   6.596  -1.829  0.00  0.00    -0.057 A 
ATOM      7  H   LIG d   1       9.609   8.509  -0.880  0.00  0.00     0.064 H 
ATOM      8  C   LIG d   1      10.383   5.381  -1.880  0.00  0.00    -0.050 A 
ATOM      9  H   LIG d   1       8.903   6.793  -2.500  0.00  0.00     0.062 H 
ATOM     10  C   LIG d   1      11.433   5.127  -1.016  0.00  0.00    -0.057 A 
ATOM     11  C   LIG d   1      11.832   6.091  -0.110  0.00  0.00    -0.035 A 
ATOM     12  H   LIG d   1      11.944   4.175  -1.052  0.00  0.00     0.062 H 
ATOM     13  H   LIG d   1      12.655   5.894   0.561  0.00  0.00     0.064 H 
BRANCH   8  14
ATOM     14  C   LIG d   1       9.951   4.331  -2.871  0.00  0.00    -0.040 C 
ATOM     15  H   LIG d   1       9.905   4.769  -3.867  0.00  0.00     0.028 H 
ATOM     16  H   LIG d   1      10.668   3.510  -2.866  0.00  0.00     0.028 H 
ATOM     17  H   LIG d   1       8.966   3.955  -2.594  0.00  0.00     0.028 H 
ENDBRANCH   8  14
ENDBRANCH   1   4
BRANCH   1  18
ATOM     18  N   LIG d   1      11.517   7.878   2.609  0.00  0.00    -0.129 NA
ATOM     19  C   LIG d   1      11.881   8.558   3.657  0.00  0.00     0.071 C 
ATOM     20  O   LIG d   1      12.395   9.800   3.511  0.00  0.00    -0.848 OA
ATOM     21  N   LIG d   1      11.745   8.015   4.911  0.00  0.00    -0.325 N 
ATOM     22  C   LIG d   1      12.117   8.672   6.177  0.00  0.00     0.013 C 
ATOM     23  C   LIG d   1      11.211   6.679   5.212  0.00  0.00     0.013 C 
ATOM     24  C   LIG d   1      11.236   7.982   7.252  0.00  0.00    -0.036 C 
ATOM     25  H   LIG d   1      13.173   8.514   6.391  0.00  0.00     0.046 H 
ATOM     26  H   LIG d   1      11.892   9.738   6.131  0.00  0.00     0.046 H 
ATOM     27  C   LIG d   1      11.224   6.515   6.746  0.00  0.00    -0.036 C 
ATOM     28  H   LIG d   1      10.229   8.399   7.264  0.00  0.00     0.028 H 
ATOM     29  H   LIG d   1      11.698   8.052   8.237  0.00  0.00     0.028 H 
ATOM     30  H   LIG d   1      10.326   5.997   7.086  0.00  0.00     0.028 H 
ATOM     31  H   LIG d   1      12.121   5.989   7.070  0.00  0.00     0.028 H 
ATOM     32  H   LIG d   1      10.190   6.596   4.839  0.00  0.00     0.046 H 
ATOM     33  H   LIG d   1      11.839   5.915   4.752  0.00  0.00     0.046 H 
ENDBRANCH   1  18
TORSDOF 3
ENDMDL
MODEL 10
REMARK VINA RESULT:      -5.1      5.553      7.464
REMARK  3 active torsions:
REMARK  status: ('A' for Active; 'I' for Inactive)
REMARK    1  A    between atoms: C_1  and  C_2 
REMARK    2  A    between atoms: C_5  and  S_8 
REMARK    3  A    between atoms: S_8  and  N_11 
REMARK       I    between atoms: C_12  and  N_14 
ROOT
ATOM      1  S   LIG d   1       8.143   1.537  -4.361  0.00  0.00     0.099 S 
ATOM      2  O   LIG d   1       7.723   1.915  -5.665  0.00  0.00    -0.146 OA
ATOM      3  O   LIG d   1       8.437   2.491  -3.350  0.00  0.00    -0.146 OA
ENDROOT
BRANCH   1   4
ATOM      4  C   LIG d   1       6.887   0.485  -3.713  0.00  0.00     0.113 A 
ATOM      5  C   LIG d   1       5.828   1.027  -3.009  0.00  0.00    -0.035 A 
ATOM      6  C   LIG d   1       4.842   0.202  -2.501  0.00  0.00    -0.057 A 
ATOM      7  H   LIG d   1       5.770   2.095  -2.857  0.00  0.00     0.064 H 
ATOM      8  C   LIG d   1       4.916  -1.165  -2.696  0.00  0.00    -0.050 A 
ATOM      9  H   LIG d   1       4.014   0.625  -1.952  0.00  0.00     0.062 H 
ATOM     10  C   LIG d   1       5.978  -1.706  -3.395  0.00  0.00    -0.057 A 
ATOM     11  C   LIG d   1       6.962  -0.881  -3.907  0.00  0.00    -0.035 A 
ATOM     12  H   LIG d   1       6.039  -2.775  -3.543  0.00  0.00     0.062 H 
ATOM     13  H   LIG d   1       7.790  -1.304  -4.457  0.00  0.00     0.064 H 
BRANCH   8  14
ATOM     14  C   LIG d   1       3.841  -2.064  -2.142  0.00  0.00    -0.040 C 
ATOM     15  H   LIG d   1       3.223  -1.503  -1.441  0.00  0.00     0.028 H 
ATOM     16  H   LIG d   1       3.220  -2.434  -2.957  0.00  0.00     0.028 H 
ATOM     17  H   LIG d   1       4.303  -2.906  -1.626  0.00  0.00     0.028 H 
ENDBRANCH   8  14
ENDBRANCH   1   4
BRANCH   1  18
ATOM     18  N   LIG d   1       9.505   0.614  -4.552  0.00  0.00    -0.129 NA
ATOM     19  C   LIG d   1      10.620   1.169  -4.930  0.00  0.00     0.071 C 
ATOM     20  O   LIG d   1      10.665   2.499  -5.169  0.00  0.00    -0.848 OA
ATOM     21  N   LIG d   1      11.749   0.403  -5.089  0.00  0.00    -0.325 N 
ATOM     22  C   LIG d   1      13.071   0.901  -5.511  0.00  0.00     0.013 C 
ATOM     23  C   LIG d   1      11.837  -1.048  -4.871  0.00  0.00     0.013 C 
ATOM     24  C   LIG d   1      14.079  -0.136  -4.949  0.00  0.00    -0.036 C 
ATOM     25  H   LIG d   1      13.132   0.941  -6.599  0.00  0.00     0.046 H 
ATOM     26  H   LIG d   1      13.260   1.885  -5.082  0.00  0.00     0.046 H 
ATOM     27  C   LIG d   1      13.298  -1.463  -5.143  0.00  0.00    -0.036 C 
ATOM     28  H   LIG d   1      14.284   0.045  -3.894  0.00  0.00     0.028 H 
ATOM     29  H   LIG d   1      15.002  -0.136  -5.530  0.00  0.00     0.028 H 
ATOM     30  H   LIG d   1      13.627  -2.213  -4.422  0.00  0.00     0.028 H 
ATOM     31  H   LIG d   1      13.412  -1.830  -6.163  0.00  0.00     0.028 H 
ATOM     32  H   LIG d   1      11.570  -1.285  -3.842  0.00  0.00     0.046 H 
ATOM     33  H   LIG d   1      11.170  -1.567  -5.559  0.00  0.00     0.046 H 
ENDBRANCH   1  18
TORSDOF 3
ENDMDL
