MODEL 1
REMARK VINA RESULT:      -7.3      0.000      0.000
REMARK  8 active torsions:
REMARK  status: ('A' for Active; 'I' for Inactive)
REMARK    1  A    between atoms: C_1  and  O_2 
REMARK    2  A    between atoms: O_2  and  C_3 
REMARK    3  A    between atoms: C_6  and  C_9 
REMARK    4  A    between atoms: C_9  and  N_63 
REMARK    5  A    between atoms: C_20  and  N_25 
REMARK    6  A    between atoms: N_25  and  S_26 
REMARK    7  A    between atoms: S_26  and  C_29 
REMARK    8  A    between atoms: C_29  and  C_30 
ROOT
ATOM      1  C   LIG d   1       1.931   0.061 -10.017  0.00  0.00    -0.027 C 
ATOM      2  C   LIG d   1       2.568   1.337  -9.487  0.00  0.00     0.018 C 
ATOM      3  H   LIG d   1       1.787   2.093  -9.403  0.00  0.00     0.037 H 
ATOM      4  C   LIG d   1       3.638   1.853 -10.454  0.00  0.00    -0.031 C 
ATOM      5  C   LIG d   1       4.662   0.730 -10.654  0.00  0.00     0.040 C 
ATOM      6  H   LIG d   1       5.476   1.065 -11.296  0.00  0.00     0.042 H 
ATOM      7  C   LIG d   1       3.932  -0.474 -11.274  0.00  0.00    -0.023 C 
ATOM      8  C   LIG d   1       5.192   0.295  -9.306  0.00  0.00     0.030 C 
ATOM      9  C   LIG d   1       6.452  -0.212  -9.263  0.00  0.00    -0.040 C 
ATOM     10  C   LIG d   1       6.985  -0.694  -8.063  0.00  0.00    -0.032 C 
ATOM     11  C   LIG d   1       6.208  -0.670  -6.937  0.00  0.00     0.112 C 
ATOM     12  C   LIG d   1       4.906  -0.138  -7.018  0.00  0.00     0.274 C 
ATOM     13  O   LIG d   1       4.180  -0.165  -6.037  0.00  0.00    -0.266 OA
ATOM     14  N   LIG d   1       4.452   0.402  -8.175  0.00  0.00    -0.310 N 
ATOM     15  C   LIG d   1       3.185   1.132  -8.114  0.00  0.00     0.034 C 
ATOM     16  H   LIG d   1       1.231  -0.324  -9.274  0.00  0.00     0.082 H 
ATOM     17  H   LIG d   1       1.389   0.287 -10.935  0.00  0.00     0.082 H 
ATOM     18  H   LIG d   1       4.128   2.729 -10.030  0.00  0.00     0.028 H 
ATOM     19  H   LIG d   1       3.179   2.110 -11.409  0.00  0.00     0.028 H 
ATOM     20  H   LIG d   1       3.425  -0.166 -12.188  0.00  0.00     0.082 H 
ATOM     21  H   LIG d   1       4.649  -1.264 -11.497  0.00  0.00     0.082 H 
ATOM     22  H   LIG d   1       7.046  -0.243 -10.164  0.00  0.00     0.064 H 
ATOM     23  H   LIG d   1       7.994  -1.080  -8.026  0.00  0.00     0.064 H 
ATOM     24  H   LIG d   1       2.486   0.574  -7.492  0.00  0.00     0.050 H 
ATOM     25  H   LIG d   1       3.362   2.106  -7.658  0.00  0.00     0.050 H 
ATOM     26  N   LIG d   1       2.960  -0.967 -10.271  0.00  0.00     0.239 N 
ATOM     27  H   LIG d   1       3.458  -1.165  -9.394  0.00  0.00     0.204 HD
ENDROOT
BRANCH  11  28
ATOM     28  N   LIG d   1       6.700  -1.164  -5.723  0.00  0.00    -0.215 N 
ATOM     29  H   LIG d   1       6.518  -2.081  -5.463  0.00  0.00     0.173 HD
BRANCH  28  30
ATOM     30  S   LIG d   1       7.595  -0.185  -4.732  0.00  0.00     0.047 S 
ATOM     31  O   LIG d   1       8.946  -0.543  -4.990  0.00  0.00    -0.155 OA
ATOM     32  O   LIG d   1       7.129   1.130  -5.004  0.00  0.00    -0.155 OA
BRANCH  30  33
ATOM     33  C   LIG d   1       7.128  -0.675  -3.049  0.00  0.00     0.110 C 
ATOM     34  H   LIG d   1       7.452  -1.700  -2.866  0.00  0.00     0.057 H 
ATOM     35  H   LIG d   1       7.607  -0.009  -2.331  0.00  0.00     0.057 H 
BRANCH  33  36
ATOM     36  C   LIG d   1       5.632  -0.587  -2.896  0.00  0.00    -0.025 A 
ATOM     37  C   LIG d   1       4.862  -1.733  -2.959  0.00  0.00    -0.057 A 
ATOM     38  C   LIG d   1       3.489  -1.651  -2.818  0.00  0.00    -0.061 A 
ATOM     39  H   LIG d   1       5.333  -2.692  -3.116  0.00  0.00     0.062 H 
ATOM     40  C   LIG d   1       2.886  -0.424  -2.615  0.00  0.00    -0.062 A 
ATOM     41  H   LIG d   1       2.887  -2.548  -2.868  0.00  0.00     0.062 H 
ATOM     42  C   LIG d   1       3.656   0.722  -2.553  0.00  0.00    -0.061 A 
ATOM     43  H   LIG d   1       1.813  -0.361  -2.507  0.00  0.00     0.062 H 
ATOM     44  C   LIG d   1       5.029   0.640  -2.688  0.00  0.00    -0.057 A 
ATOM     45  H   LIG d   1       3.185   1.680  -2.394  0.00  0.00     0.062 H 
ATOM     46  H   LIG d   1       5.632   1.535  -2.635  0.00  0.00     0.062 H 
ENDBRANCH  33  36
ENDBRANCH  30  33
ENDBRANCH  28  30
ENDBRANCH  11  28
BRANCH  26  47
ATOM     47  C   LIG d   1       2.324  -2.210 -10.753  0.00  0.00    -0.006 C 
ATOM     48  H   LIG d   1       1.242  -2.091 -10.703  0.00  0.00     0.087 H 
ATOM     49  H   LIG d   1       2.621  -2.418 -11.781  0.00  0.00     0.087 H 
BRANCH  47  50
ATOM     50  C   LIG d   1       2.745  -3.355  -9.868  0.00  0.00    -0.003 A 
ATOM     51  C   LIG d   1       2.394  -4.650 -10.201  0.00  0.00    -0.050 A 
ATOM     52  C   LIG d   1       2.778  -5.701  -9.393  0.00  0.00    -0.019 A 
ATOM     53  H   LIG d   1       1.820  -4.840 -11.097  0.00  0.00     0.062 H 
ATOM     54  C   LIG d   1       3.515  -5.457  -8.242  0.00  0.00     0.120 A 
ATOM     55  H   LIG d   1       2.505  -6.713  -9.654  0.00  0.00     0.065 H 
ATOM     56  C   LIG d   1       3.864  -4.156  -7.909  0.00  0.00    -0.019 A 
ATOM     57  C   LIG d   1       3.484  -3.109  -8.725  0.00  0.00    -0.050 A 
ATOM     58  H   LIG d   1       4.438  -3.964  -7.014  0.00  0.00     0.065 H 
ATOM     59  H   LIG d   1       3.760  -2.097  -8.469  0.00  0.00     0.062 H 
BRANCH  54  60
ATOM     60  O   LIG d   1       3.895  -6.490  -7.445  0.00  0.00    -0.495 OA
BRANCH  60  61
ATOM     61  C   LIG d   1       4.548  -6.156  -6.219  0.00  0.00     0.079 C 
ATOM     62  H   LIG d   1       5.115  -5.233  -6.348  0.00  0.00     0.066 H 
ATOM     63  H   LIG d   1       3.801  -6.016  -5.436  0.00  0.00     0.066 H 
ATOM     64  H   LIG d   1       5.224  -6.961  -5.935  0.00  0.00     0.066 H 
ENDBRANCH  60  61
ENDBRANCH  54  60
ENDBRANCH  47  50
ENDBRANCH  26  47
TORSDOF 8
ENDMDL
MODEL 2
REMARK VINA RESULT:      -7.2      2.765      7.805
REMARK  8 active torsions:
REMARK  status: ('A' for Active; 'I' for Inactive)
REMARK    1  A    between atoms: C_1  and  O_2 
REMARK    2  A    between atoms: O_2  and  C_3 
REMARK    3  A    between atoms: C_6  and  C_9 
REMARK    4  A    between atoms: C_9  and  N_63 
REMARK    5  A    between atoms: C_20  and  N_25 
REMARK    6  A    between atoms: N_25  and  S_26 
REMARK    7  A    between atoms: S_26  and  C_29 
REMARK    8  A    between atoms: C_29  and  C_30 
ROOT
ATOM      1  C   LIG d   1       4.948   0.358  -2.294  0.00  0.00    -0.027 C 
ATOM      2  C   LIG d   1       3.598  -0.306  -2.523  0.00  0.00     0.018 C 
ATOM      3  H   LIG d   1       2.926   0.016  -1.728  0.00  0.00     0.037 H 
ATOM      4  C   LIG d   1       3.724  -1.832  -2.460  0.00  0.00    -0.031 C 
ATOM      5  C   LIG d   1       4.765  -2.254  -3.503  0.00  0.00     0.040 C 
ATOM      6  H   LIG d   1       4.855  -3.339  -3.536  0.00  0.00     0.042 H 
ATOM      7  C   LIG d   1       6.106  -1.601  -3.128  0.00  0.00    -0.023 C 
ATOM      8  C   LIG d   1       4.360  -1.713  -4.857  0.00  0.00     0.030 C 
ATOM      9  C   LIG d   1       4.756  -2.410  -5.953  0.00  0.00    -0.040 C 
ATOM     10  C   LIG d   1       4.474  -1.936  -7.239  0.00  0.00    -0.032 C 
ATOM     11  C   LIG d   1       3.813  -0.746  -7.375  0.00  0.00     0.112 C 
ATOM     12  C   LIG d   1       3.418  -0.049  -6.216  0.00  0.00     0.274 C 
ATOM     13  O   LIG d   1       2.882   1.043  -6.321  0.00  0.00    -0.266 OA
ATOM     14  N   LIG d   1       3.629  -0.579  -4.987  0.00  0.00    -0.310 N 
ATOM     15  C   LIG d   1       2.989   0.096  -3.856  0.00  0.00     0.034 C 
ATOM     16  H   LIG d   1       4.841   1.435  -2.421  0.00  0.00     0.082 H 
ATOM     17  H   LIG d   1       5.281   0.148  -1.278  0.00  0.00     0.082 H 
ATOM     18  H   LIG d   1       2.763  -2.292  -2.689  0.00  0.00     0.028 H 
ATOM     19  H   LIG d   1       4.053  -2.134  -1.466  0.00  0.00     0.028 H 
ATOM     20  H   LIG d   1       6.370  -1.865  -2.104  0.00  0.00     0.082 H 
ATOM     21  H   LIG d   1       6.885  -1.941  -3.810  0.00  0.00     0.082 H 
ATOM     22  H   LIG d   1       5.295  -3.338  -5.831  0.00  0.00     0.064 H 
ATOM     23  H   LIG d   1       4.773  -2.500  -8.110  0.00  0.00     0.064 H 
ATOM     24  H   LIG d   1       3.094   1.173  -3.982  0.00  0.00     0.050 H 
ATOM     25  H   LIG d   1       1.929  -0.157  -3.849  0.00  0.00     0.050 H 
ATOM     26  N   LIG d   1       5.941  -0.136  -3.269  0.00  0.00     0.239 N 
ATOM     27  H   LIG d   1       5.608   0.072  -4.219  0.00  0.00     0.204 HD
ENDROOT
BRANCH  11  28
ATOM     28  N   LIG d   1       3.533  -0.230  -8.646  0.00  0.00    -0.215 N 
ATOM     29  H   LIG d   1       2.658  -0.367  -9.043  0.00  0.00     0.173 HD
BRANCH  28  30
ATOM     30  S   LIG d   1       4.694   0.613  -9.472  0.00  0.00     0.047 S 
ATOM     31  O   LIG d   1       5.005   1.719  -8.635  0.00  0.00    -0.155 OA
ATOM     32  O   LIG d   1       5.685  -0.353  -9.793  0.00  0.00    -0.155 OA
BRANCH  30  33
ATOM     33  C   LIG d   1       3.867   1.186 -10.982  0.00  0.00     0.110 C 
ATOM     34  H   LIG d   1       2.957   1.723 -10.717  0.00  0.00     0.057 H 
ATOM     35  H   LIG d   1       4.535   1.849 -11.531  0.00  0.00     0.057 H 
BRANCH  33  36
ATOM     36  C   LIG d   1       3.517  -0.000 -11.844  0.00  0.00    -0.025 A 
ATOM     37  C   LIG d   1       4.367  -0.391 -12.860  0.00  0.00    -0.057 A 
ATOM     38  C   LIG d   1       4.046  -1.479 -13.650  0.00  0.00    -0.061 A 
ATOM     39  H   LIG d   1       5.283   0.153 -13.037  0.00  0.00     0.062 H 
ATOM     40  C   LIG d   1       2.874  -2.176 -13.423  0.00  0.00    -0.062 A 
ATOM     41  H   LIG d   1       4.711  -1.784 -14.446  0.00  0.00     0.062 H 
ATOM     42  C   LIG d   1       2.023  -1.784 -12.407  0.00  0.00    -0.061 A 
ATOM     43  H   LIG d   1       2.622  -3.025 -14.042  0.00  0.00     0.062 H 
ATOM     44  C   LIG d   1       2.347  -0.700 -11.614  0.00  0.00    -0.057 A 
ATOM     45  H   LIG d   1       1.107  -2.329 -12.230  0.00  0.00     0.062 H 
ATOM     46  H   LIG d   1       1.684  -0.396 -10.816  0.00  0.00     0.062 H 
ENDBRANCH  33  36
ENDBRANCH  30  33
ENDBRANCH  28  30
ENDBRANCH  11  28
BRANCH  26  47
ATOM     47  C   LIG d   1       7.236   0.542  -3.057  0.00  0.00    -0.006 C 
ATOM     48  H   LIG d   1       7.095   1.346  -2.336  0.00  0.00     0.087 H 
ATOM     49  H   LIG d   1       7.978  -0.162  -2.678  0.00  0.00     0.087 H 
BRANCH  47  50
ATOM     50  C   LIG d   1       7.713   1.116  -4.366  0.00  0.00    -0.003 A 
ATOM     51  C   LIG d   1       8.496   2.256  -4.374  0.00  0.00    -0.050 A 
ATOM     52  C   LIG d   1       8.935   2.785  -5.572  0.00  0.00    -0.019 A 
ATOM     53  H   LIG d   1       8.767   2.732  -3.442  0.00  0.00     0.062 H 
ATOM     54  C   LIG d   1       8.588   2.173  -6.768  0.00  0.00     0.120 A 
ATOM     55  H   LIG d   1       9.548   3.674  -5.578  0.00  0.00     0.065 H 
ATOM     56  C   LIG d   1       7.801   1.031  -6.757  0.00  0.00    -0.019 A 
ATOM     57  C   LIG d   1       7.370   0.501  -5.556  0.00  0.00    -0.050 A 
ATOM     58  H   LIG d   1       7.530   0.553  -7.687  0.00  0.00     0.065 H 
ATOM     59  H   LIG d   1       6.762  -0.391  -5.546  0.00  0.00     0.062 H 
BRANCH  54  60
ATOM     60  O   LIG d   1       9.020   2.691  -7.948  0.00  0.00    -0.495 OA
BRANCH  60  61
ATOM     61  C   LIG d   1       8.539   2.072  -9.142  0.00  0.00     0.079 C 
ATOM     62  H   LIG d   1       7.462   1.917  -9.064  0.00  0.00     0.066 H 
ATOM     63  H   LIG d   1       8.752   2.715  -9.997  0.00  0.00     0.066 H 
ATOM     64  H   LIG d   1       9.034   1.111  -9.279  0.00  0.00     0.066 H 
ENDBRANCH  60  61
ENDBRANCH  54  60
ENDBRANCH  47  50
ENDBRANCH  26  47
TORSDOF 8
ENDMDL
MODEL 3
REMARK VINA RESULT:      -7.1      3.214      6.436
REMARK  8 active torsions:
REMARK  status: ('A' for Active; 'I' for Inactive)
REMARK    1  A    between atoms: C_1  and  O_2 
REMARK    2  A    between atoms: O_2  and  C_3 
REMARK    3  A    between atoms: C_6  and  C_9 
REMARK    4  A    between atoms: C_9  and  N_63 
REMARK    5  A    between atoms: C_20  and  N_25 
REMARK    6  A    between atoms: N_25  and  S_26 
REMARK    7  A    between atoms: S_26  and  C_29 
REMARK    8  A    between atoms: C_29  and  C_30 
ROOT
ATOM      1  C   LIG d   1       3.229  -1.473  -3.770  0.00  0.00    -0.027 C 
ATOM      2  C   LIG d   1       4.317  -1.937  -2.813  0.00  0.00     0.018 C 
ATOM      3  H   LIG d   1       4.033  -2.918  -2.431  0.00  0.00     0.037 H 
ATOM      4  C   LIG d   1       4.443  -0.976  -1.626  0.00  0.00    -0.031 C 
ATOM      5  C   LIG d   1       4.720   0.422  -2.190  0.00  0.00     0.040 C 
ATOM      6  H   LIG d   1       4.872   1.137  -1.382  0.00  0.00     0.042 H 
ATOM      7  C   LIG d   1       3.524   0.827  -3.068  0.00  0.00    -0.023 C 
ATOM      8  C   LIG d   1       5.940   0.365  -3.083  0.00  0.00     0.030 C 
ATOM      9  C   LIG d   1       6.686   1.494  -3.197  0.00  0.00    -0.040 C 
ATOM     10  C   LIG d   1       7.791   1.535  -4.055  0.00  0.00    -0.032 C 
ATOM     11  C   LIG d   1       8.093   0.426  -4.797  0.00  0.00     0.112 C 
ATOM     12  C   LIG d   1       7.297  -0.728  -4.655  0.00  0.00     0.274 C 
ATOM     13  O   LIG d   1       7.517  -1.704  -5.354  0.00  0.00    -0.266 OA
ATOM     14  N   LIG d   1       6.288  -0.763  -3.750  0.00  0.00    -0.310 N 
ATOM     15  C   LIG d   1       5.663  -2.064  -3.505  0.00  0.00     0.034 C 
ATOM     16  H   LIG d   1       3.215  -2.130  -4.640  0.00  0.00     0.082 H 
ATOM     17  H   LIG d   1       2.264  -1.525  -3.266  0.00  0.00     0.082 H 
ATOM     18  H   LIG d   1       5.267  -1.287  -0.985  0.00  0.00     0.028 H 
ATOM     19  H   LIG d   1       3.513  -0.968  -1.057  0.00  0.00     0.028 H 
ATOM     20  H   LIG d   1       2.603   0.755  -2.489  0.00  0.00     0.082 H 
ATOM     21  H   LIG d   1       3.658   1.849  -3.424  0.00  0.00     0.082 H 
ATOM     22  H   LIG d   1       6.424   2.368  -2.620  0.00  0.00     0.064 H 
ATOM     23  H   LIG d   1       8.394   2.428  -4.131  0.00  0.00     0.064 H 
ATOM     24  H   LIG d   1       5.524  -2.573  -4.458  0.00  0.00     0.050 H 
ATOM     25  H   LIG d   1       6.326  -2.661  -2.879  0.00  0.00     0.050 H 
ATOM     26  N   LIG d   1       3.493  -0.094  -4.227  0.00  0.00     0.239 N 
ATOM     27  H   LIG d   1       4.405  -0.067  -4.698  0.00  0.00     0.204 HD
ENDROOT
BRANCH  11  28
ATOM     28  N   LIG d   1       9.177   0.437  -5.682  0.00  0.00    -0.215 N 
ATOM     29  H   LIG d   1      10.025   0.045  -5.416  0.00  0.00     0.173 HD
BRANCH  28  30
ATOM     30  S   LIG d   1       9.016   1.119  -7.182  0.00  0.00     0.047 S 
ATOM     31  O   LIG d   1       9.289   0.063  -8.093  0.00  0.00    -0.155 OA
ATOM     32  O   LIG d   1       7.740   1.744  -7.160  0.00  0.00    -0.155 OA
BRANCH  30  33
ATOM     33  C   LIG d   1      10.324   2.373  -7.268  0.00  0.00     0.110 C 
ATOM     34  H   LIG d   1      11.286   1.884  -7.420  0.00  0.00     0.057 H 
ATOM     35  H   LIG d   1      10.123   3.049  -8.098  0.00  0.00     0.057 H 
BRANCH  33  36
ATOM     36  C   LIG d   1      10.356   3.154  -5.979  0.00  0.00    -0.025 A 
ATOM     37  C   LIG d   1       9.527   4.247  -5.812  0.00  0.00    -0.057 A 
ATOM     38  C   LIG d   1       9.557   4.963  -4.630  0.00  0.00    -0.061 A 
ATOM     39  H   LIG d   1       8.855   4.540  -6.605  0.00  0.00     0.062 H 
ATOM     40  C   LIG d   1      10.416   4.587  -3.616  0.00  0.00    -0.062 A 
ATOM     41  H   LIG d   1       8.909   5.818  -4.501  0.00  0.00     0.062 H 
ATOM     42  C   LIG d   1      11.246   3.494  -3.783  0.00  0.00    -0.061 A 
ATOM     43  H   LIG d   1      10.441   5.148  -2.693  0.00  0.00     0.062 H 
ATOM     44  C   LIG d   1      11.213   2.775  -4.962  0.00  0.00    -0.057 A 
ATOM     45  H   LIG d   1      11.918   3.201  -2.990  0.00  0.00     0.062 H 
ATOM     46  H   LIG d   1      11.858   1.918  -5.092  0.00  0.00     0.062 H 
ENDBRANCH  33  36
ENDBRANCH  30  33
ENDBRANCH  28  30
ENDBRANCH  11  28
BRANCH  26  47
ATOM     47  C   LIG d   1       2.448   0.330  -5.181  0.00  0.00    -0.006 C 
ATOM     48  H   LIG d   1       1.704  -0.461  -5.259  0.00  0.00     0.087 H 
ATOM     49  H   LIG d   1       1.969   1.249  -4.840  0.00  0.00     0.087 H 
BRANCH  47  50
ATOM     50  C   LIG d   1       3.077   0.563  -6.530  0.00  0.00    -0.003 A 
ATOM     51  C   LIG d   1       4.164  -0.195  -6.926  0.00  0.00    -0.050 A 
ATOM     52  C   LIG d   1       4.742   0.015  -8.162  0.00  0.00    -0.019 A 
ATOM     53  H   LIG d   1       4.559  -0.955  -6.267  0.00  0.00     0.062 H 
ATOM     54  C   LIG d   1       4.233   0.992  -9.007  0.00  0.00     0.120 A 
ATOM     55  H   LIG d   1       5.589  -0.578  -8.471  0.00  0.00     0.065 H 
ATOM     56  C   LIG d   1       3.144   1.752  -8.608  0.00  0.00    -0.019 A 
ATOM     57  C   LIG d   1       2.564   1.533  -7.373  0.00  0.00    -0.050 A 
ATOM     58  H   LIG d   1       2.746   2.512  -9.264  0.00  0.00     0.065 H 
ATOM     59  H   LIG d   1       1.714   2.121  -7.063  0.00  0.00     0.062 H 
BRANCH  54  60
ATOM     60  O   LIG d   1       4.800   1.200 -10.224  0.00  0.00    -0.495 OA
BRANCH  60  61
ATOM     61  C   LIG d   1       4.100   0.691 -11.361  0.00  0.00     0.079 C 
ATOM     62  H   LIG d   1       4.736  -0.016 -11.894  0.00  0.00     0.066 H 
ATOM     63  H   LIG d   1       3.191   0.184 -11.032  0.00  0.00     0.066 H 
ATOM     64  H   LIG d   1       3.836   1.513 -12.025  0.00  0.00     0.066 H 
ENDBRANCH  60  61
ENDBRANCH  54  60
ENDBRANCH  47  50
ENDBRANCH  26  47
TORSDOF 8
ENDMDL
MODEL 4
REMARK VINA RESULT:      -7.0      2.680      5.699
REMARK  8 active torsions:
REMARK  status: ('A' for Active; 'I' for Inactive)
REMARK    1  A    between atoms: C_1  and  O_2 
REMARK    2  A    between atoms: O_2  and  C_3 
REMARK    3  A    between atoms: C_6  and  C_9 
REMARK    4  A    between atoms: C_9  and  N_63 
REMARK    5  A    between atoms: C_20  and  N_25 
REMARK    6  A    between atoms: N_25  and  S_26 
REMARK    7  A    between atoms: S_26  and  C_29 
REMARK    8  A    between atoms: C_29  and  C_30 
ROOT
ATOM      1  C   LIG d   1       2.996  -0.590  -3.382  0.00  0.00    -0.027 C 
ATOM      2  C   LIG d   1       3.935  -0.909  -2.229  0.00  0.00     0.018 C 
ATOM      3  H   LIG d   1       3.387  -1.513  -1.506  0.00  0.00     0.037 H 
ATOM      4  C   LIG d   1       4.398   0.374  -1.532  0.00  0.00    -0.031 C 
ATOM      5  C   LIG d   1       5.058   1.264  -2.591  0.00  0.00     0.040 C 
ATOM      6  H   LIG d   1       5.453   2.171  -2.136  0.00  0.00     0.042 H 
ATOM      7  C   LIG d   1       4.001   1.598  -3.658  0.00  0.00    -0.023 C 
ATOM      8  C   LIG d   1       6.162   0.488  -3.274  0.00  0.00     0.030 C 
ATOM      9  C   LIG d   1       7.208   1.197  -3.775  0.00  0.00    -0.040 C 
ATOM     10  C   LIG d   1       8.234   0.553  -4.476  0.00  0.00    -0.032 C 
ATOM     11  C   LIG d   1       8.155  -0.799  -4.671  0.00  0.00     0.112 C 
ATOM     12  C   LIG d   1       7.056  -1.502  -4.139  0.00  0.00     0.274 C 
ATOM     13  O   LIG d   1       6.940  -2.698  -4.357  0.00  0.00    -0.266 OA
ATOM     14  N   LIG d   1       6.125  -0.862  -3.389  0.00  0.00    -0.310 N 
ATOM     15  C   LIG d   1       5.148  -1.699  -2.690  0.00  0.00     0.034 C 
ATOM     16  H   LIG d   1       2.746  -1.513  -3.905  0.00  0.00     0.082 H 
ATOM     17  H   LIG d   1       2.083  -0.144  -2.986  0.00  0.00     0.082 H 
ATOM     18  H   LIG d   1       5.118   0.132  -0.751  0.00  0.00     0.028 H 
ATOM     19  H   LIG d   1       3.540   0.889  -1.099  0.00  0.00     0.028 H 
ATOM     20  H   LIG d   1       3.128   2.045  -3.182  0.00  0.00     0.082 H 
ATOM     21  H   LIG d   1       4.420   2.291  -4.388  0.00  0.00     0.082 H 
ATOM     22  H   LIG d   1       7.247   2.265  -3.631  0.00  0.00     0.064 H 
ATOM     23  H   LIG d   1       9.074   1.114  -4.857  0.00  0.00     0.064 H 
ATOM     24  H   LIG d   1       4.819  -2.493  -3.359  0.00  0.00     0.050 H 
ATOM     25  H   LIG d   1       5.628  -2.148  -1.820  0.00  0.00     0.050 H 
ATOM     26  N   LIG d   1       3.642   0.332  -4.338  0.00  0.00     0.239 N 
ATOM     27  H   LIG d   1       4.498  -0.106  -4.698  0.00  0.00     0.204 HD
ENDROOT
BRANCH  11  28
ATOM     28  N   LIG d   1       9.151  -1.473  -5.386  0.00  0.00    -0.215 N 
ATOM     29  H   LIG d   1       9.893  -1.884  -4.914  0.00  0.00     0.173 HD
BRANCH  28  30
ATOM     30  S   LIG d   1       9.066  -1.569  -7.037  0.00  0.00     0.047 S 
ATOM     31  O   LIG d   1      10.254  -2.246  -7.423  0.00  0.00    -0.155 OA
ATOM     32  O   LIG d   1       7.790  -2.136  -7.301  0.00  0.00    -0.155 OA
BRANCH  30  33
ATOM     33  C   LIG d   1       9.114   0.153  -7.607  0.00  0.00     0.110 C 
ATOM     34  H   LIG d   1       9.133   0.820  -6.745  0.00  0.00     0.057 H 
ATOM     35  H   LIG d   1      10.009   0.310  -8.208  0.00  0.00     0.057 H 
BRANCH  33  36
ATOM     36  C   LIG d   1       7.891   0.441  -8.439  0.00  0.00    -0.025 A 
ATOM     37  C   LIG d   1       7.748  -0.143  -9.683  0.00  0.00    -0.057 A 
ATOM     38  C   LIG d   1       6.626   0.121 -10.446  0.00  0.00    -0.061 A 
ATOM     39  H   LIG d   1       8.513  -0.807 -10.058  0.00  0.00     0.062 H 
ATOM     40  C   LIG d   1       5.648   0.970  -9.965  0.00  0.00    -0.062 A 
ATOM     41  H   LIG d   1       6.516  -0.335 -11.419  0.00  0.00     0.062 H 
ATOM     42  C   LIG d   1       5.791   1.555  -8.721  0.00  0.00    -0.061 A 
ATOM     43  H   LIG d   1       4.772   1.178 -10.562  0.00  0.00     0.062 H 
ATOM     44  C   LIG d   1       6.910   1.287  -7.956  0.00  0.00    -0.057 A 
ATOM     45  H   LIG d   1       5.026   2.218  -8.345  0.00  0.00     0.062 H 
ATOM     46  H   LIG d   1       7.020   1.740  -6.981  0.00  0.00     0.062 H 
ENDBRANCH  33  36
ENDBRANCH  30  33
ENDBRANCH  28  30
ENDBRANCH  11  28
BRANCH  26  47
ATOM     47  C   LIG d   1       2.732   0.607  -5.468  0.00  0.00    -0.006 C 
ATOM     48  H   LIG d   1       1.716   0.353  -5.168  0.00  0.00     0.087 H 
ATOM     49  H   LIG d   1       2.777   1.659  -5.748  0.00  0.00     0.087 H 
BRANCH  47  50
ATOM     50  C   LIG d   1       3.136  -0.243  -6.645  0.00  0.00    -0.003 A 
ATOM     51  C   LIG d   1       4.230  -1.083  -6.547  0.00  0.00    -0.050 A 
ATOM     52  C   LIG d   1       4.603  -1.863  -7.623  0.00  0.00    -0.019 A 
ATOM     53  H   LIG d   1       4.793  -1.129  -5.626  0.00  0.00     0.062 H 
ATOM     54  C   LIG d   1       3.879  -1.803  -8.806  0.00  0.00     0.120 A 
ATOM     55  H   LIG d   1       5.456  -2.520  -7.546  0.00  0.00     0.065 H 
ATOM     56  C   LIG d   1       2.782  -0.959  -8.902  0.00  0.00    -0.019 A 
ATOM     57  C   LIG d   1       2.409  -0.185  -7.820  0.00  0.00    -0.050 A 
ATOM     58  H   LIG d   1       2.217  -0.910  -9.822  0.00  0.00     0.065 H 
ATOM     59  H   LIG d   1       1.553   0.468  -7.893  0.00  0.00     0.062 H 
BRANCH  54  60
ATOM     60  O   LIG d   1       4.243  -2.570  -9.866  0.00  0.00    -0.495 OA
BRANCH  60  61
ATOM     61  C   LIG d   1       5.419  -3.367  -9.715  0.00  0.00     0.079 C 
ATOM     62  H   LIG d   1       6.175  -2.801  -9.169  0.00  0.00     0.066 H 
ATOM     63  H   LIG d   1       5.175  -4.275  -9.162  0.00  0.00     0.066 H 
ATOM     64  H   LIG d   1       5.807  -3.635 -10.698  0.00  0.00     0.066 H 
ENDBRANCH  60  61
ENDBRANCH  54  60
ENDBRANCH  47  50
ENDBRANCH  26  47
TORSDOF 8
ENDMDL
MODEL 5
REMARK VINA RESULT:      -6.8      2.865      6.357
REMARK  8 active torsions:
REMARK  status: ('A' for Active; 'I' for Inactive)
REMARK    1  A    between atoms: C_1  and  O_2 
REMARK    2  A    between atoms: O_2  and  C_3 
REMARK    3  A    between atoms: C_6  and  C_9 
REMARK    4  A    between atoms: C_9  and  N_63 
REMARK    5  A    between atoms: C_20  and  N_25 
REMARK    6  A    between atoms: N_25  and  S_26 
REMARK    7  A    between atoms: S_26  and  C_29 
REMARK    8  A    between atoms: C_29  and  C_30 
ROOT
ATOM      1  C   LIG d   1       3.051  -1.088  -3.426  0.00  0.00    -0.027 C 
ATOM      2  C   LIG d   1       4.111  -1.473  -2.405  0.00  0.00     0.018 C 
ATOM      3  H   LIG d   1       3.717  -2.294  -1.805  0.00  0.00     0.037 H 
ATOM      4  C   LIG d   1       4.418  -0.298  -1.471  0.00  0.00    -0.031 C 
ATOM      5  C   LIG d   1       4.852   0.885  -2.344  0.00  0.00     0.040 C 
ATOM      6  H   LIG d   1       5.135   1.735  -1.723  0.00  0.00     0.042 H 
ATOM      7  C   LIG d   1       3.681   1.247  -3.272  0.00  0.00    -0.023 C 
ATOM      8  C   LIG d   1       6.011   0.459  -3.218  0.00  0.00     0.030 C 
ATOM      9  C   LIG d   1       6.894   1.419  -3.599  0.00  0.00    -0.040 C 
ATOM     10  C   LIG d   1       7.953   1.111  -4.460  0.00  0.00    -0.032 C 
ATOM     11  C   LIG d   1       8.070  -0.167  -4.934  0.00  0.00     0.112 C 
ATOM     12  C   LIG d   1       7.136  -1.137  -4.520  0.00  0.00     0.274 C 
ATOM     13  O   LIG d   1       7.192  -2.266  -4.981  0.00  0.00    -0.266 OA
ATOM     14  N   LIG d   1       6.175  -0.827  -3.615  0.00  0.00    -0.310 N 
ATOM     15  C   LIG d   1       5.394  -1.939  -3.071  0.00  0.00     0.034 C 
ATOM     16  H   LIG d   1       2.909  -1.915  -4.122  0.00  0.00     0.082 H 
ATOM     17  H   LIG d   1       2.112  -0.890  -2.909  0.00  0.00     0.082 H 
ATOM     18  H   LIG d   1       5.223  -0.569  -0.789  0.00  0.00     0.028 H 
ATOM     19  H   LIG d   1       3.526  -0.033  -0.905  0.00  0.00     0.028 H 
ATOM     20  H   LIG d   1       2.786   1.436  -2.679  0.00  0.00     0.082 H 
ATOM     21  H   LIG d   1       3.933   2.133  -3.855  0.00  0.00     0.082 H 
ATOM     22  H   LIG d   1       6.777   2.427  -3.233  0.00  0.00     0.064 H 
ATOM     23  H   LIG d   1       8.666   1.870  -4.747  0.00  0.00     0.064 H 
ATOM     24  H   LIG d   1       5.144  -2.625  -3.879  0.00  0.00     0.050 H 
ATOM     25  H   LIG d   1       6.001  -2.468  -2.335  0.00  0.00     0.050 H 
ATOM     26  N   LIG d   1       3.473   0.103  -4.190  0.00  0.00     0.239 N 
ATOM     27  H   LIG d   1       4.359  -0.105  -4.669  0.00  0.00     0.204 HD
ENDROOT
BRANCH  11  28
ATOM     28  N   LIG d   1       9.104  -0.506  -5.814  0.00  0.00    -0.215 N 
ATOM     29  H   LIG d   1       9.775  -1.155  -5.548  0.00  0.00     0.173 HD
BRANCH  28  30
ATOM     30  S   LIG d   1       9.183   0.199  -7.310  0.00  0.00     0.047 S 
ATOM     31  O   LIG d   1       7.850   0.605  -7.591  0.00  0.00    -0.155 OA
ATOM     32  O   LIG d   1      10.226   1.158  -7.204  0.00  0.00    -0.155 OA
BRANCH  30  33
ATOM     33  C   LIG d   1       9.678  -1.140  -8.431  0.00  0.00     0.110 C 
ATOM     34  H   LIG d   1      10.295  -0.733  -9.232  0.00  0.00     0.057 H 
ATOM     35  H   LIG d   1      10.247  -1.885  -7.876  0.00  0.00     0.057 H 
BRANCH  33  36
ATOM     36  C   LIG d   1       8.448  -1.782  -9.020  0.00  0.00    -0.025 A 
ATOM     37  C   LIG d   1       7.987  -1.384 -10.260  0.00  0.00    -0.057 A 
ATOM     38  C   LIG d   1       6.860  -1.974 -10.800  0.00  0.00    -0.061 A 
ATOM     39  H   LIG d   1       8.508  -0.612 -10.807  0.00  0.00     0.062 H 
ATOM     40  C   LIG d   1       6.194  -2.962 -10.100  0.00  0.00    -0.062 A 
ATOM     41  H   LIG d   1       6.499  -1.661 -11.770  0.00  0.00     0.062 H 
ATOM     42  C   LIG d   1       6.655  -3.360  -8.859  0.00  0.00    -0.061 A 
ATOM     43  H   LIG d   1       5.311  -3.421 -10.521  0.00  0.00     0.062 H 
ATOM     44  C   LIG d   1       7.785  -2.774  -8.322  0.00  0.00    -0.057 A 
ATOM     45  H   LIG d   1       6.134  -4.132  -8.312  0.00  0.00     0.062 H 
ATOM     46  H   LIG d   1       8.148  -3.088  -7.354  0.00  0.00     0.062 H 
ENDBRANCH  33  36
ENDBRANCH  30  33
ENDBRANCH  28  30
ENDBRANCH  11  28
BRANCH  26  47
ATOM     47  C   LIG d   1       2.451   0.444  -5.200  0.00  0.00    -0.006 C 
ATOM     48  H   LIG d   1       1.704  -0.348  -5.222  0.00  0.00     0.087 H 
ATOM     49  H   LIG d   1       1.971   1.391  -4.953  0.00  0.00     0.087 H 
BRANCH  47  50
ATOM     50  C   LIG d   1       3.109   0.553  -6.551  0.00  0.00    -0.003 A 
ATOM     51  C   LIG d   1       2.714   1.542  -7.433  0.00  0.00    -0.050 A 
ATOM     52  C   LIG d   1       3.314   1.644  -8.672  0.00  0.00    -0.019 A 
ATOM     53  H   LIG d   1       1.935   2.236  -7.152  0.00  0.00     0.062 H 
ATOM     54  C   LIG d   1       4.315   0.752  -9.033  0.00  0.00     0.120 A 
ATOM     55  H   LIG d   1       3.007   2.417  -9.361  0.00  0.00     0.065 H 
ATOM     56  C   LIG d   1       4.709  -0.239  -8.146  0.00  0.00    -0.019 A 
ATOM     57  C   LIG d   1       4.110  -0.333  -6.905  0.00  0.00    -0.050 A 
ATOM     58  H   LIG d   1       5.488  -0.934  -8.425  0.00  0.00     0.065 H 
ATOM     59  H   LIG d   1       4.419  -1.102  -6.213  0.00  0.00     0.062 H 
BRANCH  54  60
ATOM     60  O   LIG d   1       4.908   0.852 -10.251  0.00  0.00    -0.495 OA
BRANCH  60  61
ATOM     61  C   LIG d   1       4.090   0.593 -11.393  0.00  0.00     0.079 C 
ATOM     62  H   LIG d   1       4.718   0.279 -12.228  0.00  0.00     0.066 H 
ATOM     63  H   LIG d   1       3.377  -0.199 -11.158  0.00  0.00     0.066 H 
ATOM     64  H   LIG d   1       3.549   1.498 -11.667  0.00  0.00     0.066 H 
ENDBRANCH  60  61
ENDBRANCH  54  60
ENDBRANCH  47  50
ENDBRANCH  26  47
TORSDOF 8
ENDMDL
MODEL 6
REMARK VINA RESULT:      -6.8      2.082      3.421
REMARK  8 active torsions:
REMARK  status: ('A' for Active; 'I' for Inactive)
REMARK    1  A    between atoms: C_1  and  O_2 
REMARK    2  A    between atoms: O_2  and  C_3 
REMARK    3  A    between atoms: C_6  and  C_9 
REMARK    4  A    between atoms: C_9  and  N_63 
REMARK    5  A    between atoms: C_20  and  N_25 
REMARK    6  A    between atoms: N_25  and  S_26 
REMARK    7  A    between atoms: S_26  and  C_29 
REMARK    8  A    between atoms: C_29  and  C_30 
ROOT
ATOM      1  C   LIG d   1       2.701  -3.628 -12.941  0.00  0.00    -0.027 C 
ATOM      2  C   LIG d   1       2.142  -2.264 -13.316  0.00  0.00     0.018 C 
ATOM      3  H   LIG d   1       1.288  -2.420 -13.974  0.00  0.00     0.037 H 
ATOM      4  C   LIG d   1       3.187  -1.435 -14.070  0.00  0.00    -0.031 C 
ATOM      5  C   LIG d   1       4.428  -1.331 -13.175  0.00  0.00     0.040 C 
ATOM      6  H   LIG d   1       5.186  -0.705 -13.644  0.00  0.00     0.042 H 
ATOM      7  C   LIG d   1       4.961  -2.754 -12.933  0.00  0.00    -0.023 C 
ATOM      8  C   LIG d   1       4.027  -0.762 -11.833  0.00  0.00     0.030 C 
ATOM      9  C   LIG d   1       4.964  -0.059 -11.145  0.00  0.00    -0.040 C 
ATOM     10  C   LIG d   1       4.684   0.442  -9.869  0.00  0.00    -0.032 C 
ATOM     11  C   LIG d   1       3.460   0.190  -9.313  0.00  0.00     0.112 C 
ATOM     12  C   LIG d   1       2.512  -0.544 -10.053  0.00  0.00     0.274 C 
ATOM     13  O   LIG d   1       1.438  -0.829  -9.547  0.00  0.00    -0.266 OA
ATOM     14  N   LIG d   1       2.783  -0.939 -11.322  0.00  0.00    -0.310 N 
ATOM     15  C   LIG d   1       1.671  -1.492 -12.095  0.00  0.00     0.034 C 
ATOM     16  H   LIG d   1       1.965  -4.163 -12.341  0.00  0.00     0.082 H 
ATOM     17  H   LIG d   1       2.901  -4.194 -13.851  0.00  0.00     0.082 H 
ATOM     18  H   LIG d   1       2.794  -0.440 -14.273  0.00  0.00     0.028 H 
ATOM     19  H   LIG d   1       3.447  -1.931 -15.005  0.00  0.00     0.028 H 
ATOM     20  H   LIG d   1       5.142  -3.246 -13.889  0.00  0.00     0.082 H 
ATOM     21  H   LIG d   1       5.888  -2.707 -12.360  0.00  0.00     0.082 H 
ATOM     22  H   LIG d   1       5.933   0.115 -11.588  0.00  0.00     0.064 H 
ATOM     23  H   LIG d   1       5.424   1.017  -9.330  0.00  0.00     0.064 H 
ATOM     24  H   LIG d   1       1.093  -2.159 -11.456  0.00  0.00     0.050 H 
ATOM     25  H   LIG d   1       1.028  -0.674 -12.422  0.00  0.00     0.050 H 
ATOM     26  N   LIG d   1       3.939  -3.483 -12.148  0.00  0.00     0.239 N 
ATOM     27  H   LIG d   1       3.729  -2.947 -11.297  0.00  0.00     0.204 HD
ENDROOT
BRANCH  11  28
ATOM     28  N   LIG d   1       3.153   0.656  -8.029  0.00  0.00    -0.215 N 
ATOM     29  H   LIG d   1       2.596   1.443  -7.919  0.00  0.00     0.173 HD
BRANCH  28  30
ATOM     30  S   LIG d   1       3.740  -0.134  -6.698  0.00  0.00     0.047 S 
ATOM     31  O   LIG d   1       3.577  -1.515  -6.994  0.00  0.00    -0.155 OA
ATOM     32  O   LIG d   1       5.035   0.414  -6.492  0.00  0.00    -0.155 OA
BRANCH  30  33
ATOM     33  C   LIG d   1       2.635   0.350  -5.343  0.00  0.00     0.110 C 
ATOM     34  H   LIG d   1       2.458   1.425  -5.386  0.00  0.00     0.057 H 
ATOM     35  H   LIG d   1       1.688  -0.180  -5.442  0.00  0.00     0.057 H 
BRANCH  33  36
ATOM     36  C   LIG d   1       3.273  -0.002  -4.024  0.00  0.00    -0.025 A 
ATOM     37  C   LIG d   1       3.788   0.994  -3.218  0.00  0.00    -0.057 A 
ATOM     38  C   LIG d   1       4.373   0.671  -2.008  0.00  0.00    -0.061 A 
ATOM     39  H   LIG d   1       3.733   2.026  -3.533  0.00  0.00     0.062 H 
ATOM     40  C   LIG d   1       4.443  -0.649  -1.604  0.00  0.00    -0.062 A 
ATOM     41  H   LIG d   1       4.776   1.451  -1.378  0.00  0.00     0.062 H 
ATOM     42  C   LIG d   1       3.928  -1.646  -2.411  0.00  0.00    -0.061 A 
ATOM     43  H   LIG d   1       4.902  -0.901  -0.659  0.00  0.00     0.062 H 
ATOM     44  C   LIG d   1       3.339  -1.322  -3.619  0.00  0.00    -0.057 A 
ATOM     45  H   LIG d   1       3.983  -2.677  -2.096  0.00  0.00     0.062 H 
ATOM     46  H   LIG d   1       2.932  -2.101  -4.248  0.00  0.00     0.062 H 
ENDBRANCH  33  36
ENDBRANCH  30  33
ENDBRANCH  28  30
ENDBRANCH  11  28
BRANCH  26  47
ATOM     47  C   LIG d   1       4.451  -4.813 -11.763  0.00  0.00    -0.006 C 
ATOM     48  H   LIG d   1       3.912  -5.572 -12.329  0.00  0.00     0.087 H 
ATOM     49  H   LIG d   1       5.518  -4.889 -11.977  0.00  0.00     0.087 H 
BRANCH  47  50
ATOM     50  C   LIG d   1       4.219  -5.024 -10.289  0.00  0.00    -0.003 A 
ATOM     51  C   LIG d   1       4.280  -6.299  -9.757  0.00  0.00    -0.050 A 
ATOM     52  C   LIG d   1       4.068  -6.496  -8.407  0.00  0.00    -0.019 A 
ATOM     53  H   LIG d   1       4.496  -7.141 -10.398  0.00  0.00     0.062 H 
ATOM     54  C   LIG d   1       3.791  -5.413  -7.584  0.00  0.00     0.120 A 
ATOM     55  H   LIG d   1       4.118  -7.491  -7.991  0.00  0.00     0.065 H 
ATOM     56  C   LIG d   1       3.729  -4.135  -8.121  0.00  0.00    -0.019 A 
ATOM     57  C   LIG d   1       3.949  -3.943  -9.471  0.00  0.00    -0.050 A 
ATOM     58  H   LIG d   1       3.514  -3.291  -7.482  0.00  0.00     0.065 H 
ATOM     59  H   LIG d   1       3.905  -2.948  -9.889  0.00  0.00     0.062 H 
BRANCH  54  60
ATOM     60  O   LIG d   1       3.583  -5.604  -6.255  0.00  0.00    -0.495 OA
BRANCH  60  61
ATOM     61  C   LIG d   1       4.707  -5.425  -5.391  0.00  0.00     0.079 C 
ATOM     62  H   LIG d   1       5.336  -6.316  -5.422  0.00  0.00     0.066 H 
ATOM     63  H   LIG d   1       5.285  -4.561  -5.720  0.00  0.00     0.066 H 
ATOM     64  H   LIG d   1       4.360  -5.262  -4.371  0.00  0.00     0.066 H 
ENDBRANCH  60  61
ENDBRANCH  54  60
ENDBRANCH  47  50
ENDBRANCH  26  47
TORSDOF 8
ENDMDL
MODEL 7
REMARK VINA RESULT:      -6.8      3.195      6.631
REMARK  8 active torsions:
REMARK  status: ('A' for Active; 'I' for Inactive)
REMARK    1  A    between atoms: C_1  and  O_2 
REMARK    2  A    between atoms: O_2  and  C_3 
REMARK    3  A    between atoms: C_6  and  C_9 
REMARK    4  A    between atoms: C_9  and  N_63 
REMARK    5  A    between atoms: C_20  and  N_25 
REMARK    6  A    between atoms: N_25  and  S_26 
REMARK    7  A    between atoms: S_26  and  C_29 
REMARK    8  A    between atoms: C_29  and  C_30 
ROOT
ATOM      1  C   LIG d   1       3.065  -1.204  -3.639  0.00  0.00    -0.027 C 
ATOM      2  C   LIG d   1       4.093  -1.611  -2.593  0.00  0.00     0.018 C 
ATOM      3  H   LIG d   1       3.714  -2.493  -2.076  0.00  0.00     0.037 H 
ATOM      4  C   LIG d   1       4.293  -0.496  -1.562  0.00  0.00    -0.031 C 
ATOM      5  C   LIG d   1       4.707   0.769  -2.324  0.00  0.00     0.040 C 
ATOM      6  H   LIG d   1       4.914   1.582  -1.629  0.00  0.00     0.042 H 
ATOM      7  C   LIG d   1       3.565   1.141  -3.285  0.00  0.00    -0.023 C 
ATOM      8  C   LIG d   1       5.927   0.466  -3.165  0.00  0.00     0.030 C 
ATOM      9  C   LIG d   1       6.777   1.493  -3.428  0.00  0.00    -0.040 C 
ATOM     10  C   LIG d   1       7.891   1.301  -4.253  0.00  0.00    -0.032 C 
ATOM     11  C   LIG d   1       8.098   0.069  -4.810  0.00  0.00     0.112 C 
ATOM     12  C   LIG d   1       7.196  -0.973  -4.517  0.00  0.00     0.274 C 
ATOM     13  O   LIG d   1       7.333  -2.061  -5.054  0.00  0.00    -0.266 OA
ATOM     14  N   LIG d   1       6.177  -0.778  -3.644  0.00  0.00    -0.310 N 
ATOM     15  C   LIG d   1       5.430  -1.964  -3.222  0.00  0.00     0.034 C 
ATOM     16  H   LIG d   1       3.001  -1.982  -4.399  0.00  0.00     0.082 H 
ATOM     17  H   LIG d   1       2.093  -1.090  -3.159  0.00  0.00     0.082 H 
ATOM     18  H   LIG d   1       5.077  -0.778  -0.860  0.00  0.00     0.028 H 
ATOM     19  H   LIG d   1       3.361  -0.317  -1.027  0.00  0.00     0.028 H 
ATOM     20  H   LIG d   1       2.634   1.242  -2.727  0.00  0.00     0.082 H 
ATOM     21  H   LIG d   1       3.798   2.080  -3.788  0.00  0.00     0.082 H 
ATOM     22  H   LIG d   1       6.589   2.464  -2.998  0.00  0.00     0.064 H 
ATOM     23  H   LIG d   1       8.576   2.114  -4.447  0.00  0.00     0.064 H 
ATOM     24  H   LIG d   1       5.256  -2.599  -4.090  0.00  0.00     0.050 H 
ATOM     25  H   LIG d   1       6.027  -2.516  -2.496  0.00  0.00     0.050 H 
ATOM     26  N   LIG d   1       3.463   0.060  -4.292  0.00  0.00     0.239 N 
ATOM     27  H   LIG d   1       4.380  -0.068  -4.737  0.00  0.00     0.204 HD
ENDROOT
BRANCH  11  28
ATOM     28  N   LIG d   1       9.190  -0.153  -5.657  0.00  0.00    -0.215 N 
ATOM     29  H   LIG d   1       9.917  -0.729  -5.371  0.00  0.00     0.173 HD
BRANCH  28  30
ATOM     30  S   LIG d   1       9.242   0.566  -7.147  0.00  0.00     0.047 S 
ATOM     31  O   LIG d   1       9.667  -0.461  -8.032  0.00  0.00    -0.155 OA
ATOM     32  O   LIG d   1       7.967   1.174  -7.302  0.00  0.00    -0.155 OA
BRANCH  30  33
ATOM     33  C   LIG d   1      10.527   1.839  -7.006  0.00  0.00     0.110 C 
ATOM     34  H   LIG d   1      10.639   2.128  -5.960  0.00  0.00     0.057 H 
ATOM     35  H   LIG d   1      11.472   1.444  -7.377  0.00  0.00     0.057 H 
BRANCH  33  36
ATOM     36  C   LIG d   1      10.132   3.045  -7.819  0.00  0.00    -0.025 A 
ATOM     37  C   LIG d   1       9.992   2.938  -9.190  0.00  0.00    -0.057 A 
ATOM     38  C   LIG d   1       9.629   4.044  -9.936  0.00  0.00    -0.061 A 
ATOM     39  H   LIG d   1      10.165   1.990  -9.678  0.00  0.00     0.062 H 
ATOM     40  C   LIG d   1       9.407   5.256  -9.311  0.00  0.00    -0.062 A 
ATOM     41  H   LIG d   1       9.521   3.960 -11.008  0.00  0.00     0.062 H 
ATOM     42  C   LIG d   1       9.548   5.363  -7.941  0.00  0.00    -0.061 A 
ATOM     43  H   LIG d   1       9.125   6.121  -9.895  0.00  0.00     0.062 H 
ATOM     44  C   LIG d   1       9.905   4.257  -7.194  0.00  0.00    -0.057 A 
ATOM     45  H   LIG d   1       9.374   6.311  -7.453  0.00  0.00     0.062 H 
ATOM     46  H   LIG d   1      10.010   4.339  -6.122  0.00  0.00     0.062 H 
ENDBRANCH  33  36
ENDBRANCH  30  33
ENDBRANCH  28  30
ENDBRANCH  11  28
BRANCH  26  47
ATOM     47  C   LIG d   1       2.475   0.426  -5.326  0.00  0.00    -0.006 C 
ATOM     48  H   LIG d   1       1.712  -0.352  -5.372  0.00  0.00     0.087 H 
ATOM     49  H   LIG d   1       2.006   1.381  -5.088  0.00  0.00     0.087 H 
BRANCH  47  50
ATOM     50  C   LIG d   1       3.170   0.527  -6.659  0.00  0.00    -0.003 A 
ATOM     51  C   LIG d   1       2.752   1.464  -7.586  0.00  0.00    -0.050 A 
ATOM     52  C   LIG d   1       3.388   1.560  -8.809  0.00  0.00    -0.019 A 
ATOM     53  H   LIG d   1       1.929   2.124  -7.353  0.00  0.00     0.062 H 
ATOM     54  C   LIG d   1       4.445   0.712  -9.107  0.00  0.00     0.120 A 
ATOM     55  H   LIG d   1       3.063   2.292  -9.532  0.00  0.00     0.065 H 
ATOM     56  C   LIG d   1       4.861  -0.229  -8.176  0.00  0.00    -0.019 A 
ATOM     57  C   LIG d   1       4.227  -0.315  -6.952  0.00  0.00    -0.050 A 
ATOM     58  H   LIG d   1       5.684  -0.890  -8.407  0.00  0.00     0.065 H 
ATOM     59  H   LIG d   1       4.553  -1.044  -6.225  0.00  0.00     0.062 H 
BRANCH  54  60
ATOM     60  O   LIG d   1       5.073   0.804 -10.309  0.00  0.00    -0.495 OA
BRANCH  60  61
ATOM     61  C   LIG d   1       6.166  -0.086 -10.539  0.00  0.00     0.079 C 
ATOM     62  H   LIG d   1       5.994  -0.644 -11.461  0.00  0.00     0.066 H 
ATOM     63  H   LIG d   1       7.089   0.488 -10.631  0.00  0.00     0.066 H 
ATOM     64  H   LIG d   1       6.252  -0.782  -9.705  0.00  0.00     0.066 H 
ENDBRANCH  60  61
ENDBRANCH  54  60
ENDBRANCH  47  50
ENDBRANCH  26  47
TORSDOF 8
ENDMDL
MODEL 8
REMARK VINA RESULT:      -6.7      2.685      3.826
REMARK  8 active torsions:
REMARK  status: ('A' for Active; 'I' for Inactive)
REMARK    1  A    between atoms: C_1  and  O_2 
REMARK    2  A    between atoms: O_2  and  C_3 
REMARK    3  A    between atoms: C_6  and  C_9 
REMARK    4  A    between atoms: C_9  and  N_63 
REMARK    5  A    between atoms: C_20  and  N_25 
REMARK    6  A    between atoms: N_25  and  S_26 
REMARK    7  A    between atoms: S_26  and  C_29 
REMARK    8  A    between atoms: C_29  and  C_30 
ROOT
ATOM      1  C   LIG d   1       3.802  -2.037 -13.789  0.00  0.00    -0.027 C 
ATOM      2  C   LIG d   1       4.574  -0.814 -13.314  0.00  0.00     0.018 C 
ATOM      3  H   LIG d   1       4.586  -0.089 -14.127  0.00  0.00     0.037 H 
ATOM      4  C   LIG d   1       6.021  -1.182 -12.974  0.00  0.00    -0.031 C 
ATOM      5  C   LIG d   1       5.980  -2.292 -11.917  0.00  0.00     0.040 C 
ATOM      6  H   LIG d   1       6.988  -2.556 -11.599  0.00  0.00     0.042 H 
ATOM      7  C   LIG d   1       5.260  -3.506 -12.529  0.00  0.00    -0.023 C 
ATOM      8  C   LIG d   1       5.158  -1.824 -10.736  0.00  0.00     0.030 C 
ATOM      9  C   LIG d   1       5.461  -2.343  -9.518  0.00  0.00    -0.040 C 
ATOM     10  C   LIG d   1       4.701  -2.005  -8.391  0.00  0.00    -0.032 C 
ATOM     11  C   LIG d   1       3.633  -1.164  -8.542  0.00  0.00     0.112 C 
ATOM     12  C   LIG d   1       3.347  -0.646  -9.821  0.00  0.00     0.274 C 
ATOM     13  O   LIG d   1       2.361   0.056  -9.982  0.00  0.00    -0.266 OA
ATOM     14  N   LIG d   1       4.154  -0.923 -10.874  0.00  0.00    -0.310 N 
ATOM     15  C   LIG d   1       3.919  -0.167 -12.105  0.00  0.00     0.034 C 
ATOM     16  H   LIG d   1       2.760  -1.761 -13.949  0.00  0.00     0.082 H 
ATOM     17  H   LIG d   1       4.229  -2.385 -14.729  0.00  0.00     0.082 H 
ATOM     18  H   LIG d   1       6.540  -0.312 -12.575  0.00  0.00     0.028 H 
ATOM     19  H   LIG d   1       6.531  -1.542 -13.867  0.00  0.00     0.028 H 
ATOM     20  H   LIG d   1       5.751  -3.795 -13.458  0.00  0.00     0.082 H 
ATOM     21  H   LIG d   1       5.280  -4.339 -11.826  0.00  0.00     0.082 H 
ATOM     22  H   LIG d   1       6.294  -3.021  -9.418  0.00  0.00     0.064 H 
ATOM     23  H   LIG d   1       4.954  -2.404  -7.420  0.00  0.00     0.064 H 
ATOM     24  H   LIG d   1       2.846  -0.100 -12.278  0.00  0.00     0.050 H 
ATOM     25  H   LIG d   1       4.321   0.839 -11.983  0.00  0.00     0.050 H 
ATOM     26  N   LIG d   1       3.855  -3.110 -12.775  0.00  0.00     0.239 N 
ATOM     27  H   LIG d   1       3.448  -2.761 -11.899  0.00  0.00     0.204 HD
ENDROOT
BRANCH  11  28
ATOM     28  N   LIG d   1       2.838  -0.822  -7.442  0.00  0.00    -0.215 N 
ATOM     29  H   LIG d   1       2.025  -1.320  -7.257  0.00  0.00     0.173 HD
BRANCH  28  30
ATOM     30  S   LIG d   1       3.282   0.432  -6.457  0.00  0.00     0.047 S 
ATOM     31  O   LIG d   1       4.625   0.149  -6.091  0.00  0.00    -0.155 OA
ATOM     32  O   LIG d   1       2.963   1.604  -7.195  0.00  0.00    -0.155 OA
BRANCH  30  33
ATOM     33  C   LIG d   1       2.197   0.293  -5.009  0.00  0.00     0.110 C 
ATOM     34  H   LIG d   1       1.686   1.242  -4.846  0.00  0.00     0.057 H 
ATOM     35  H   LIG d   1       1.462  -0.492  -5.181  0.00  0.00     0.057 H 
BRANCH  33  36
ATOM     36  C   LIG d   1       3.022  -0.047  -3.794  0.00  0.00    -0.025 A 
ATOM     37  C   LIG d   1       3.231  -1.369  -3.449  0.00  0.00    -0.057 A 
ATOM     38  C   LIG d   1       3.988  -1.681  -2.335  0.00  0.00    -0.061 A 
ATOM     39  H   LIG d   1       2.804  -2.158  -4.050  0.00  0.00     0.062 H 
ATOM     40  C   LIG d   1       4.535  -0.671  -1.566  0.00  0.00    -0.062 A 
ATOM     41  H   LIG d   1       4.150  -2.714  -2.065  0.00  0.00     0.062 H 
ATOM     42  C   LIG d   1       4.326   0.651  -1.911  0.00  0.00    -0.061 A 
ATOM     43  H   LIG d   1       5.125  -0.915  -0.694  0.00  0.00     0.062 H 
ATOM     44  C   LIG d   1       3.574   0.963  -3.028  0.00  0.00    -0.057 A 
ATOM     45  H   LIG d   1       4.753   1.439  -1.310  0.00  0.00     0.062 H 
ATOM     46  H   LIG d   1       3.414   1.996  -3.301  0.00  0.00     0.062 H 
ENDBRANCH  33  36
ENDBRANCH  30  33
ENDBRANCH  28  30
ENDBRANCH  11  28
BRANCH  26  47
ATOM     47  C   LIG d   1       3.074  -4.276 -13.235  0.00  0.00    -0.006 C 
ATOM     48  H   LIG d   1       2.761  -4.104 -14.264  0.00  0.00     0.087 H 
ATOM     49  H   LIG d   1       3.677  -5.184 -13.184  0.00  0.00     0.087 H 
BRANCH  47  50
ATOM     50  C   LIG d   1       1.858  -4.432 -12.359  0.00  0.00    -0.003 A 
ATOM     51  C   LIG d   1       0.872  -5.339 -12.703  0.00  0.00    -0.050 A 
ATOM     52  C   LIG d   1      -0.244  -5.485 -11.902  0.00  0.00    -0.019 A 
ATOM     53  H   LIG d   1       0.976  -5.935 -13.598  0.00  0.00     0.062 H 
ATOM     54  C   LIG d   1      -0.376  -4.718 -10.753  0.00  0.00     0.120 A 
ATOM     55  H   LIG d   1      -1.013  -6.193 -12.170  0.00  0.00     0.065 H 
ATOM     56  C   LIG d   1       0.614  -3.808 -10.411  0.00  0.00    -0.019 A 
ATOM     57  C   LIG d   1       1.731  -3.672 -11.211  0.00  0.00    -0.050 A 
ATOM     58  H   LIG d   1       0.513  -3.211  -9.516  0.00  0.00     0.065 H 
ATOM     59  H   LIG d   1       2.505  -2.967 -10.943  0.00  0.00     0.062 H 
BRANCH  54  60
ATOM     60  O   LIG d   1      -1.473  -4.860  -9.963  0.00  0.00    -0.495 OA
BRANCH  60  61
ATOM     61  C   LIG d   1      -1.684  -6.144  -9.372  0.00  0.00     0.079 C 
ATOM     62  H   LIG d   1      -2.125  -6.816 -10.109  0.00  0.00     0.066 H 
ATOM     63  H   LIG d   1      -0.729  -6.551  -9.036  0.00  0.00     0.066 H 
ATOM     64  H   LIG d   1      -2.357  -6.047  -8.521  0.00  0.00     0.066 H 
ENDBRANCH  60  61
ENDBRANCH  54  60
ENDBRANCH  47  50
ENDBRANCH  26  47
TORSDOF 8
ENDMDL
MODEL 9
REMARK VINA RESULT:      -6.5      2.939      6.350
REMARK  8 active torsions:
REMARK  status: ('A' for Active; 'I' for Inactive)
REMARK    1  A    between atoms: C_1  and  O_2 
REMARK    2  A    between atoms: O_2  and  C_3 
REMARK    3  A    between atoms: C_6  and  C_9 
REMARK    4  A    between atoms: C_9  and  N_63 
REMARK    5  A    between atoms: C_20  and  N_25 
REMARK    6  A    between atoms: N_25  and  S_26 
REMARK    7  A    between atoms: S_26  and  C_29 
REMARK    8  A    between atoms: C_29  and  C_30 
ROOT
ATOM      1  C   LIG d   1       3.246  -1.264  -3.623  0.00  0.00    -0.027 C 
ATOM      2  C   LIG d   1       4.328  -1.697  -2.645  0.00  0.00     0.018 C 
ATOM      3  H   LIG d   1       4.002  -2.624  -2.172  0.00  0.00     0.037 H 
ATOM      4  C   LIG d   1       4.528  -0.643  -1.552  0.00  0.00    -0.031 C 
ATOM      5  C   LIG d   1       4.865   0.683  -2.245  0.00  0.00     0.040 C 
ATOM      6  H   LIG d   1       5.070   1.458  -1.507  0.00  0.00     0.042 H 
ATOM      7  C   LIG d   1       3.674   1.071  -3.136  0.00  0.00    -0.023 C 
ATOM      8  C   LIG d   1       6.061   0.481  -3.148  0.00  0.00     0.030 C 
ATOM      9  C   LIG d   1       6.862   1.555  -3.376  0.00  0.00    -0.040 C 
ATOM     10  C   LIG d   1       7.950   1.459  -4.252  0.00  0.00    -0.032 C 
ATOM     11  C   LIG d   1       8.179   0.274  -4.896  0.00  0.00     0.112 C 
ATOM     12  C   LIG d   1       7.327  -0.819  -4.637  0.00  0.00     0.274 C 
ATOM     13  O   LIG d   1       7.482  -1.864  -5.248  0.00  0.00    -0.266 OA
ATOM     14  N   LIG d   1       6.337  -0.719  -3.716  0.00  0.00    -0.310 N 
ATOM     15  C   LIG d   1       5.651  -1.957  -3.345  0.00  0.00     0.034 C 
ATOM     16  H   LIG d   1       3.180  -1.995  -4.429  0.00  0.00     0.082 H 
ATOM     17  H   LIG d   1       2.290  -1.219  -3.101  0.00  0.00     0.082 H 
ATOM     18  H   LIG d   1       5.348  -0.938  -0.899  0.00  0.00     0.028 H 
ATOM     19  H   LIG d   1       3.612  -0.534  -0.972  0.00  0.00     0.028 H 
ATOM     20  H   LIG d   1       2.762   1.100  -2.539  0.00  0.00     0.082 H 
ATOM     21  H   LIG d   1       3.853   2.048  -3.586  0.00  0.00     0.082 H 
ATOM     22  H   LIG d   1       6.657   2.489  -2.877  0.00  0.00     0.064 H 
ATOM     23  H   LIG d   1       8.597   2.308  -4.419  0.00  0.00     0.064 H 
ATOM     24  H   LIG d   1       5.466  -2.542  -4.245  0.00  0.00     0.050 H 
ATOM     25  H   LIG d   1       6.295  -2.531  -2.678  0.00  0.00     0.050 H 
ATOM     26  N   LIG d   1       3.571   0.053  -4.207  0.00  0.00     0.239 N 
ATOM     27  H   LIG d   1       4.473  -0.011  -4.693  0.00  0.00     0.204 HD
ENDROOT
BRANCH  11  28
ATOM     28  N   LIG d   1       9.243   0.148  -5.795  0.00  0.00    -0.215 N 
ATOM     29  H   LIG d   1       9.963  -0.477  -5.611  0.00  0.00     0.173 HD
BRANCH  28  30
ATOM     30  S   LIG d   1       9.276   1.065  -7.173  0.00  0.00     0.047 S 
ATOM     31  O   LIG d   1       9.411   2.404  -6.716  0.00  0.00    -0.155 OA
ATOM     32  O   LIG d   1      10.284   0.471  -7.980  0.00  0.00    -0.155 OA
BRANCH  30  33
ATOM     33  C   LIG d   1       7.646   0.824  -7.933  0.00  0.00     0.110 C 
ATOM     34  H   LIG d   1       6.938   0.490  -7.174  0.00  0.00     0.057 H 
ATOM     35  H   LIG d   1       7.304   1.766  -8.361  0.00  0.00     0.057 H 
BRANCH  33  36
ATOM     36  C   LIG d   1       7.747  -0.215  -9.019  0.00  0.00    -0.025 A 
ATOM     37  C   LIG d   1       7.718  -1.558  -8.696  0.00  0.00    -0.057 A 
ATOM     38  C   LIG d   1       7.810  -2.511  -9.693  0.00  0.00    -0.061 A 
ATOM     39  H   LIG d   1       7.624  -1.863  -7.664  0.00  0.00     0.062 H 
ATOM     40  C   LIG d   1       7.930  -2.120 -11.014  0.00  0.00    -0.062 A 
ATOM     41  H   LIG d   1       7.789  -3.561  -9.440  0.00  0.00     0.062 H 
ATOM     42  C   LIG d   1       7.959  -0.777 -11.337  0.00  0.00    -0.061 A 
ATOM     43  H   LIG d   1       8.004  -2.866 -11.793  0.00  0.00     0.062 H 
ATOM     44  C   LIG d   1       7.862   0.176 -10.341  0.00  0.00    -0.057 A 
ATOM     45  H   LIG d   1       8.053  -0.473 -12.369  0.00  0.00     0.062 H 
ATOM     46  H   LIG d   1       7.880   1.226 -10.593  0.00  0.00     0.062 H 
ENDBRANCH  33  36
ENDBRANCH  30  33
ENDBRANCH  28  30
ENDBRANCH  11  28
BRANCH  26  47
ATOM     47  C   LIG d   1       2.530   0.445  -5.178  0.00  0.00    -0.006 C 
ATOM     48  H   LIG d   1       1.657  -0.191  -5.031  0.00  0.00     0.087 H 
ATOM     49  H   LIG d   1       2.248   1.488  -5.037  0.00  0.00     0.087 H 
BRANCH  47  50
ATOM     50  C   LIG d   1       3.061   0.253  -6.575  0.00  0.00    -0.003 A 
ATOM     51  C   LIG d   1       2.852   1.228  -7.533  0.00  0.00    -0.050 A 
ATOM     52  C   LIG d   1       3.337   1.056  -8.814  0.00  0.00    -0.019 A 
ATOM     53  H   LIG d   1       2.309   2.127  -7.278  0.00  0.00     0.062 H 
ATOM     54  C   LIG d   1       4.035  -0.099  -9.141  0.00  0.00     0.120 A 
ATOM     55  H   LIG d   1       3.175   1.818  -9.561  0.00  0.00     0.065 H 
ATOM     56  C   LIG d   1       4.243  -1.076  -8.178  0.00  0.00    -0.019 A 
ATOM     57  C   LIG d   1       3.761  -0.896  -6.896  0.00  0.00    -0.050 A 
ATOM     58  H   LIG d   1       4.785  -1.975  -8.431  0.00  0.00     0.065 H 
ATOM     59  H   LIG d   1       3.926  -1.654  -6.145  0.00  0.00     0.062 H 
BRANCH  54  60
ATOM     60  O   LIG d   1       4.515  -0.270 -10.400  0.00  0.00    -0.495 OA
BRANCH  60  61
ATOM     61  C   LIG d   1       4.030   0.623 -11.405  0.00  0.00     0.079 C 
ATOM     62  H   LIG d   1       4.584   0.465 -12.331  0.00  0.00     0.066 H 
ATOM     63  H   LIG d   1       2.970   0.433 -11.580  0.00  0.00     0.066 H 
ATOM     64  H   LIG d   1       4.165   1.652 -11.074  0.00  0.00     0.066 H 
ENDBRANCH  60  61
ENDBRANCH  54  60
ENDBRANCH  47  50
ENDBRANCH  26  47
TORSDOF 8
ENDMDL
