MODEL 1
REMARK VINA RESULT:      -8.1      0.000      0.000
REMARK  10 active torsions:
REMARK  status: ('A' for Active; 'I' for Inactive)
REMARK    1  A    between atoms: C_1  and  C_2 
REMARK    2  A    between atoms: C_12  and  C_13 
REMARK    3  A    between atoms: C_13  and  C_14 
REMARK    4  A    between atoms: C_14  and  C_15 
REMARK       I    between atoms: C_15  and  N_17 
REMARK    5  A    between atoms: N_17  and  C_18 
REMARK    6  A    between atoms: C_18  and  C_19 
REMARK    7  A    between atoms: C_19  and  C_20 
REMARK    8  A    between atoms: C_20  and  C_21 
REMARK    9  A    between atoms: C_24  and  C_32 
REMARK   10  A    between atoms: C_25  and  C_26 
ROOT
ATOM      1  C   LIG d   1       5.263   0.397  -3.203  0.00  0.00    -0.030 A 
ATOM      2  C   LIG d   1       6.613   0.381  -3.773  0.00  0.00     0.022 A 
ATOM      3  C   LIG d   1       7.433   1.507  -3.701  0.00  0.00    -0.040 A 
ATOM      4  C   LIG d   1       8.704   1.459  -4.251  0.00  0.00     0.029 A 
ATOM      5  C   LIG d   1       9.168   0.286  -4.877  0.00  0.00     0.139 A 
ATOM      6  C   LIG d   1       8.348  -0.831  -4.945  0.00  0.00     0.024 A 
ATOM      7  C   LIG d   1       7.076  -0.794  -4.400  0.00  0.00     0.143 A 
ATOM      8  O   LIG d   1       6.273  -1.880  -4.464  0.00  0.00    -0.422 OA
ATOM      9  C   LIG d   1       5.037  -1.869  -3.943  0.00  0.00     0.341 A 
ATOM     10  O   LIG d   1       4.351  -2.872  -4.026  0.00  0.00    -0.245 OA
ATOM     11  C   LIG d   1       4.510  -0.728  -3.303  0.00  0.00     0.041 A 
ATOM     12  O   LIG d   1      10.421   0.531  -5.312  0.00  0.00    -0.459 OA
ATOM     13  C   LIG d   1      10.805   1.783  -5.011  0.00  0.00     0.111 A 
ATOM     14  C   LIG d   1       9.812   2.427  -4.358  0.00  0.00     0.030 A 
ATOM     15  H   LIG d   1       7.081   2.409  -3.221  0.00  0.00     0.063 H 
ATOM     16  H   LIG d   1       8.703  -1.731  -5.426  0.00  0.00     0.069 H 
ENDROOT
BRANCH  11  17
ATOM     17  C   LIG d   1       3.116  -0.758  -2.731  0.00  0.00    -0.012 C 
ATOM     18  H   LIG d   1       2.977  -1.676  -2.159  0.00  0.00     0.032 H 
ATOM     19  H   LIG d   1       2.973   0.102  -2.077  0.00  0.00     0.032 H 
BRANCH  17  20
ATOM     20  C   LIG d   1       2.097  -0.708  -3.871  0.00  0.00     0.028 C 
ATOM     21  H   LIG d   1       1.906  -1.718  -4.233  0.00  0.00     0.036 H 
ATOM     22  H   LIG d   1       1.167  -0.270  -3.507  0.00  0.00     0.036 H 
BRANCH  20  23
ATOM     23  C   LIG d   1       2.641   0.134  -4.996  0.00  0.00     0.213 C 
ATOM     24  O   LIG d   1       2.575   1.344  -4.934  0.00  0.00    -0.276 OA
ATOM     25  N   LIG d   1       3.202  -0.456  -6.070  0.00  0.00    -0.315 N 
ATOM     26  H   LIG d   1       3.255  -1.424  -6.119  0.00  0.00     0.149 HD
BRANCH  25  27
ATOM     27  C   LIG d   1       3.731   0.363  -7.163  0.00  0.00     0.012 C 
ATOM     28  H   LIG d   1       3.976   1.356  -6.787  0.00  0.00     0.046 H 
ATOM     29  H   LIG d   1       4.629  -0.105  -7.566  0.00  0.00     0.046 H 
BRANCH  27  30
ATOM     30  C   LIG d   1       2.679   0.481  -8.268  0.00  0.00    -0.032 C 
ATOM     31  H   LIG d   1       2.893  -0.244  -9.053  0.00  0.00     0.028 H 
ATOM     32  H   LIG d   1       1.691   0.283  -7.851  0.00  0.00     0.028 H 
BRANCH  30  33
ATOM     33  C   LIG d   1       2.711   1.894  -8.853  0.00  0.00    -0.012 C 
ATOM     34  H   LIG d   1       1.786   2.083  -9.398  0.00  0.00     0.033 H 
ATOM     35  H   LIG d   1       2.813   2.619  -8.046  0.00  0.00     0.033 H 
BRANCH  33  36
ATOM     36  C   LIG d   1       3.883   2.021  -9.793  0.00  0.00     0.042 C 
ATOM     37  O   LIG d   1       3.830   1.529 -10.896  0.00  0.00    -0.550 OA
ATOM     38  O   LIG d   1       4.985   2.681  -9.405  0.00  0.00    -0.550 OA
ENDBRANCH  33  36
ENDBRANCH  30  33
ENDBRANCH  27  30
ENDBRANCH  25  27
ENDBRANCH  20  23
ENDBRANCH  17  20
ENDBRANCH  11  17
BRANCH   1  39
ATOM     39  C   LIG d   1       4.725   1.631  -2.523  0.00  0.00    -0.039 C 
ATOM     40  H   LIG d   1       3.744   1.872  -2.932  0.00  0.00     0.028 H 
ATOM     41  H   LIG d   1       4.636   1.445  -1.452  0.00  0.00     0.028 H 
ATOM     42  H   LIG d   1       5.405   2.464  -2.692  0.00  0.00     0.028 H 
ENDBRANCH   1  39
BRANCH  14  43
ATOM     43  C   LIG d   1       9.833   3.821  -3.853  0.00  0.00    -0.014 A 
ATOM     44  C   LIG d   1       9.380   4.864  -4.659  0.00  0.00    -0.054 A 
ATOM     45  C   LIG d   1       9.401   6.159  -4.184  0.00  0.00    -0.061 A 
ATOM     46  H   LIG d   1       9.012   4.659  -5.653  0.00  0.00     0.062 H 
ATOM     47  C   LIG d   1       9.870   6.423  -2.909  0.00  0.00    -0.062 A 
ATOM     48  H   LIG d   1       9.050   6.968  -4.806  0.00  0.00     0.062 H 
ATOM     49  C   LIG d   1      10.322   5.393  -2.105  0.00  0.00    -0.061 A 
ATOM     50  H   LIG d   1       9.886   7.439  -2.542  0.00  0.00     0.062 H 
ATOM     51  C   LIG d   1      10.301   4.092  -2.568  0.00  0.00    -0.054 A 
ATOM     52  H   LIG d   1      10.688   5.605  -1.112  0.00  0.00     0.062 H 
ATOM     53  H   LIG d   1      10.648   3.287  -1.938  0.00  0.00     0.062 H 
ENDBRANCH  14  43
BRANCH  13  54
ATOM     54  C   LIG d   1      12.146   2.380  -5.351  0.00  0.00    -0.006 C 
ATOM     55  H   LIG d   1      12.236   2.477  -6.433  0.00  0.00     0.031 H 
ATOM     56  H   LIG d   1      12.233   3.364  -4.889  0.00  0.00     0.031 H 
ATOM     57  H   LIG d   1      12.938   1.732  -4.977  0.00  0.00     0.031 H 
ENDBRANCH  13  54
TORSDOF 10
ENDMDL
MODEL 2
REMARK VINA RESULT:      -8.0      3.469      6.785
REMARK  10 active torsions:
REMARK  status: ('A' for Active; 'I' for Inactive)
REMARK    1  A    between atoms: C_1  and  C_2 
REMARK    2  A    between atoms: C_12  and  C_13 
REMARK    3  A    between atoms: C_13  and  C_14 
REMARK    4  A    between atoms: C_14  and  C_15 
REMARK       I    between atoms: C_15  and  N_17 
REMARK    5  A    between atoms: N_17  and  C_18 
REMARK    6  A    between atoms: C_18  and  C_19 
REMARK    7  A    between atoms: C_19  and  C_20 
REMARK    8  A    between atoms: C_20  and  C_21 
REMARK    9  A    between atoms: C_24  and  C_32 
REMARK   10  A    between atoms: C_25  and  C_26 
ROOT
ATOM      1  C   LIG d   1       5.327  -1.559  -3.229  0.00  0.00    -0.030 A 
ATOM      2  C   LIG d   1       6.388  -2.134  -4.061  0.00  0.00     0.022 A 
ATOM      3  C   LIG d   1       6.387  -3.492  -4.382  0.00  0.00    -0.040 A 
ATOM      4  C   LIG d   1       7.406  -4.004  -5.170  0.00  0.00     0.029 A 
ATOM      5  C   LIG d   1       8.434  -3.166  -5.644  0.00  0.00     0.139 A 
ATOM      6  C   LIG d   1       8.428  -1.817  -5.322  0.00  0.00     0.024 A 
ATOM      7  C   LIG d   1       7.416  -1.294  -4.535  0.00  0.00     0.143 A 
ATOM      8  O   LIG d   1       7.407   0.020  -4.217  0.00  0.00    -0.422 OA
ATOM      9  C   LIG d   1       6.437   0.550  -3.457  0.00  0.00     0.341 A 
ATOM     10  O   LIG d   1       6.471   1.740  -3.198  0.00  0.00    -0.245 OA
ATOM     11  C   LIG d   1       5.378  -0.232  -2.949  0.00  0.00     0.041 A 
ATOM     12  O   LIG d   1       9.272  -3.931  -6.373  0.00  0.00    -0.459 OA
ATOM     13  C   LIG d   1       8.860  -5.209  -6.406  0.00  0.00     0.111 A 
ATOM     14  C   LIG d   1       7.721  -5.347  -5.693  0.00  0.00     0.030 A 
ATOM     15  H   LIG d   1       5.601  -4.138  -4.020  0.00  0.00     0.063 H 
ATOM     16  H   LIG d   1       9.216  -1.173  -5.684  0.00  0.00     0.069 H 
ENDROOT
BRANCH  11  17
ATOM     17  C   LIG d   1       4.309   0.403  -2.099  0.00  0.00    -0.012 C 
ATOM     18  H   LIG d   1       3.656  -0.371  -1.697  0.00  0.00     0.032 H 
ATOM     19  H   LIG d   1       4.775   0.948  -1.277  0.00  0.00     0.032 H 
BRANCH  17  20
ATOM     20  C   LIG d   1       3.487   1.372  -2.952  0.00  0.00     0.028 C 
ATOM     21  H   LIG d   1       2.691   1.804  -2.346  0.00  0.00     0.036 H 
ATOM     22  H   LIG d   1       4.134   2.166  -3.324  0.00  0.00     0.036 H 
BRANCH  20  23
ATOM     23  C   LIG d   1       2.885   0.629  -4.116  0.00  0.00     0.213 C 
ATOM     24  O   LIG d   1       2.071  -0.249  -3.919  0.00  0.00    -0.276 OA
ATOM     25  N   LIG d   1       3.249   0.940  -5.376  0.00  0.00    -0.315 N 
ATOM     26  H   LIG d   1       3.900   1.642  -5.533  0.00  0.00     0.149 HD
BRANCH  25  27
ATOM     27  C   LIG d   1       2.663   0.217  -6.508  0.00  0.00     0.012 C 
ATOM     28  H   LIG d   1       2.626  -0.848  -6.279  0.00  0.00     0.046 H 
ATOM     29  H   LIG d   1       1.653   0.585  -6.690  0.00  0.00     0.046 H 
BRANCH  27  30
ATOM     30  C   LIG d   1       3.520   0.442  -7.756  0.00  0.00    -0.032 C 
ATOM     31  H   LIG d   1       4.563   0.558  -7.463  0.00  0.00     0.028 H 
ATOM     32  H   LIG d   1       3.423  -0.415  -8.422  0.00  0.00     0.028 H 
BRANCH  30  33
ATOM     33  C   LIG d   1       3.048   1.705  -8.477  0.00  0.00    -0.012 C 
ATOM     34  H   LIG d   1       2.065   1.528  -8.915  0.00  0.00     0.033 H 
ATOM     35  H   LIG d   1       2.987   2.528  -7.766  0.00  0.00     0.033 H 
BRANCH  33  36
ATOM     36  C   LIG d   1       4.027   2.055  -9.568  0.00  0.00     0.042 C 
ATOM     37  O   LIG d   1       5.042   2.654  -9.299  0.00  0.00    -0.550 OA
ATOM     38  O   LIG d   1       3.772   1.703 -10.838  0.00  0.00    -0.550 OA
ENDBRANCH  33  36
ENDBRANCH  30  33
ENDBRANCH  27  30
ENDBRANCH  25  27
ENDBRANCH  20  23
ENDBRANCH  17  20
ENDBRANCH  11  17
BRANCH   1  39
ATOM     39  C   LIG d   1       4.206  -2.419  -2.700  0.00  0.00    -0.039 C 
ATOM     40  H   LIG d   1       3.284  -1.839  -2.678  0.00  0.00     0.028 H 
ATOM     41  H   LIG d   1       4.076  -3.285  -3.349  0.00  0.00     0.028 H 
ATOM     42  H   LIG d   1       4.451  -2.753  -1.692  0.00  0.00     0.028 H 
ENDBRANCH   1  39
BRANCH  14  43
ATOM     43  C   LIG d   1       6.945  -6.593  -5.481  0.00  0.00    -0.014 A 
ATOM     44  C   LIG d   1       5.678  -6.733  -6.045  0.00  0.00    -0.054 A 
ATOM     45  C   LIG d   1       4.960  -7.894  -5.846  0.00  0.00    -0.061 A 
ATOM     46  H   LIG d   1       5.258  -5.932  -6.636  0.00  0.00     0.062 H 
ATOM     47  C   LIG d   1       5.498  -8.921  -5.090  0.00  0.00    -0.062 A 
ATOM     48  H   LIG d   1       3.979  -8.003  -6.282  0.00  0.00     0.062 H 
ATOM     49  C   LIG d   1       6.754  -8.789  -4.528  0.00  0.00    -0.061 A 
ATOM     50  H   LIG d   1       4.932  -9.828  -4.936  0.00  0.00     0.062 H 
ATOM     51  C   LIG d   1       7.484  -7.633  -4.725  0.00  0.00    -0.054 A 
ATOM     52  H   LIG d   1       7.169  -9.593  -3.938  0.00  0.00     0.062 H 
ATOM     53  H   LIG d   1       8.467  -7.532  -4.290  0.00  0.00     0.062 H 
ENDBRANCH  14  43
BRANCH  13  54
ATOM     54  C   LIG d   1       9.566  -6.325  -7.132  0.00  0.00    -0.006 C 
ATOM     55  H   LIG d   1      10.277  -5.905  -7.843  0.00  0.00     0.031 H 
ATOM     56  H   LIG d   1      10.097  -6.948  -6.413  0.00  0.00     0.031 H 
ATOM     57  H   LIG d   1       8.834  -6.931  -7.667  0.00  0.00     0.031 H 
ENDBRANCH  13  54
TORSDOF 10
ENDMDL
MODEL 3
REMARK VINA RESULT:      -7.8      5.444      9.578
REMARK  10 active torsions:
REMARK  status: ('A' for Active; 'I' for Inactive)
REMARK    1  A    between atoms: C_1  and  C_2 
REMARK    2  A    between atoms: C_12  and  C_13 
REMARK    3  A    between atoms: C_13  and  C_14 
REMARK    4  A    between atoms: C_14  and  C_15 
REMARK       I    between atoms: C_15  and  N_17 
REMARK    5  A    between atoms: N_17  and  C_18 
REMARK    6  A    between atoms: C_18  and  C_19 
REMARK    7  A    between atoms: C_19  and  C_20 
REMARK    8  A    between atoms: C_20  and  C_21 
REMARK    9  A    between atoms: C_24  and  C_32 
REMARK   10  A    between atoms: C_25  and  C_26 
ROOT
ATOM      1  C   LIG d   1       4.999  -3.857  -6.217  0.00  0.00    -0.030 A 
ATOM      2  C   LIG d   1       4.764  -5.218  -6.708  0.00  0.00     0.022 A 
ATOM      3  C   LIG d   1       5.053  -6.325  -5.910  0.00  0.00    -0.040 A 
ATOM      4  C   LIG d   1       4.819  -7.598  -6.405  0.00  0.00     0.029 A 
ATOM      5  C   LIG d   1       4.294  -7.777  -7.699  0.00  0.00     0.139 A 
ATOM      6  C   LIG d   1       4.008  -6.672  -8.487  0.00  0.00     0.024 A 
ATOM      7  C   LIG d   1       4.238  -5.395  -8.004  0.00  0.00     0.143 A 
ATOM      8  O   LIG d   1       3.962  -4.315  -8.768  0.00  0.00    -0.422 OA
ATOM      9  C   LIG d   1       4.175  -3.068  -8.322  0.00  0.00     0.341 A 
ATOM     10  O   LIG d   1       3.911  -2.126  -9.047  0.00  0.00    -0.245 OA
ATOM     11  C   LIG d   1       4.699  -2.818  -7.036  0.00  0.00     0.041 A 
ATOM     12  O   LIG d   1       4.175  -9.105  -7.905  0.00  0.00    -0.459 OA
ATOM     13  C   LIG d   1       4.586  -9.803  -6.833  0.00  0.00     0.111 A 
ATOM     14  C   LIG d   1       5.000  -8.958  -5.862  0.00  0.00     0.030 A 
ATOM     15  H   LIG d   1       5.456  -6.192  -4.916  0.00  0.00     0.063 H 
ATOM     16  H   LIG d   1       3.606  -6.808  -9.481  0.00  0.00     0.069 H 
ENDROOT
BRANCH  11  17
ATOM     17  C   LIG d   1       4.925  -1.401  -6.574  0.00  0.00    -0.012 C 
ATOM     18  H   LIG d   1       5.321  -1.408  -5.559  0.00  0.00     0.032 H 
ATOM     19  H   LIG d   1       5.637  -0.911  -7.239  0.00  0.00     0.032 H 
BRANCH  17  20
ATOM     20  C   LIG d   1       3.598  -0.639  -6.599  0.00  0.00     0.028 C 
ATOM     21  H   LIG d   1       3.690   0.230  -7.250  0.00  0.00     0.036 H 
ATOM     22  H   LIG d   1       2.811  -1.293  -6.975  0.00  0.00     0.036 H 
BRANCH  20  23
ATOM     23  C   LIG d   1       3.251  -0.188  -5.204  0.00  0.00     0.213 C 
ATOM     24  O   LIG d   1       3.025   0.983  -4.985  0.00  0.00    -0.276 OA
ATOM     25  N   LIG d   1       3.192  -1.085  -4.200  0.00  0.00    -0.315 N 
ATOM     26  H   LIG d   1       3.373  -2.022  -4.375  0.00  0.00     0.149 HD
BRANCH  25  27
ATOM     27  C   LIG d   1       2.854  -0.645  -2.844  0.00  0.00     0.012 C 
ATOM     28  H   LIG d   1       2.491   0.382  -2.875  0.00  0.00     0.046 H 
ATOM     29  H   LIG d   1       2.079  -1.293  -2.434  0.00  0.00     0.046 H 
BRANCH  27  30
ATOM     30  C   LIG d   1       4.100  -0.720  -1.958  0.00  0.00    -0.032 C 
ATOM     31  H   LIG d   1       3.809  -0.996  -0.945  0.00  0.00     0.028 H 
ATOM     32  H   LIG d   1       4.785  -1.468  -2.357  0.00  0.00     0.028 H 
BRANCH  30  33
ATOM     33  C   LIG d   1       4.792   0.644  -1.937  0.00  0.00    -0.012 C 
ATOM     34  H   LIG d   1       4.075   1.420  -2.206  0.00  0.00     0.033 H 
ATOM     35  H   LIG d   1       5.181   0.839  -0.938  0.00  0.00     0.033 H 
BRANCH  33  36
ATOM     36  C   LIG d   1       5.928   0.646  -2.927  0.00  0.00     0.042 C 
ATOM     37  O   LIG d   1       6.324  -0.396  -3.395  0.00  0.00    -0.550 OA
ATOM     38  O   LIG d   1       6.501   1.804  -3.290  0.00  0.00    -0.550 OA
ENDBRANCH  33  36
ENDBRANCH  30  33
ENDBRANCH  27  30
ENDBRANCH  25  27
ENDBRANCH  20  23
ENDBRANCH  17  20
ENDBRANCH  11  17
BRANCH   1  39
ATOM     39  C   LIG d   1       5.560  -3.618  -4.837  0.00  0.00    -0.039 C 
ATOM     40  H   LIG d   1       6.258  -4.415  -4.586  0.00  0.00     0.028 H 
ATOM     41  H   LIG d   1       6.079  -2.659  -4.818  0.00  0.00     0.028 H 
ATOM     42  H   LIG d   1       4.746  -3.605  -4.113  0.00  0.00     0.028 H 
ENDBRANCH   1  39
BRANCH  14  43
ATOM     43  C   LIG d   1       5.525  -9.325  -4.525  0.00  0.00    -0.014 A 
ATOM     44  C   LIG d   1       6.837  -9.003  -4.177  0.00  0.00    -0.054 A 
ATOM     45  C   LIG d   1       7.321  -9.346  -2.931  0.00  0.00    -0.061 A 
ATOM     46  H   LIG d   1       7.472  -8.488  -4.881  0.00  0.00     0.062 H 
ATOM     47  C   LIG d   1       6.507 -10.005  -2.028  0.00  0.00    -0.062 A 
ATOM     48  H   LIG d   1       8.336  -9.098  -2.661  0.00  0.00     0.062 H 
ATOM     49  C   LIG d   1       5.206 -10.327  -2.367  0.00  0.00    -0.061 A 
ATOM     50  H   LIG d   1       6.891 -10.272  -1.054  0.00  0.00     0.062 H 
ATOM     51  C   LIG d   1       4.708  -9.985  -3.608  0.00  0.00    -0.054 A 
ATOM     52  H   LIG d   1       4.575 -10.843  -1.658  0.00  0.00     0.062 H 
ATOM     53  H   LIG d   1       3.691 -10.231  -3.871  0.00  0.00     0.062 H 
ENDBRANCH  14  43
BRANCH  13  54
ATOM     54  C   LIG d   1       4.586 -11.306  -6.729  0.00  0.00    -0.006 C 
ATOM     55  H   LIG d   1       5.548 -11.694  -7.062  0.00  0.00     0.031 H 
ATOM     56  H   LIG d   1       4.414 -11.598  -5.693  0.00  0.00     0.031 H 
ATOM     57  H   LIG d   1       3.793 -11.713  -7.357  0.00  0.00     0.031 H 
ENDBRANCH  13  54
TORSDOF 10
ENDMDL
MODEL 4
REMARK VINA RESULT:      -7.4      4.843     10.803
REMARK  10 active torsions:
REMARK  status: ('A' for Active; 'I' for Inactive)
REMARK    1  A    between atoms: C_1  and  C_2 
REMARK    2  A    between atoms: C_12  and  C_13 
REMARK    3  A    between atoms: C_13  and  C_14 
REMARK    4  A    between atoms: C_14  and  C_15 
REMARK       I    between atoms: C_15  and  N_17 
REMARK    5  A    between atoms: N_17  and  C_18 
REMARK    6  A    between atoms: C_18  and  C_19 
REMARK    7  A    between atoms: C_19  and  C_20 
REMARK    8  A    between atoms: C_20  and  C_21 
REMARK    9  A    between atoms: C_24  and  C_32 
REMARK   10  A    between atoms: C_25  and  C_26 
ROOT
ATOM      1  C   LIG d   1       2.614  -0.203 -10.010  0.00  0.00    -0.030 A 
ATOM      2  C   LIG d   1       3.023  -0.498 -11.386  0.00  0.00     0.022 A 
ATOM      3  C   LIG d   1       2.232  -1.300 -12.210  0.00  0.00    -0.040 A 
ATOM      4  C   LIG d   1       2.647  -1.560 -13.506  0.00  0.00     0.029 A 
ATOM      5  C   LIG d   1       3.855  -1.022 -13.991  0.00  0.00     0.139 A 
ATOM      6  C   LIG d   1       4.637  -0.225 -13.168  0.00  0.00     0.024 A 
ATOM      7  C   LIG d   1       4.232   0.042 -11.871  0.00  0.00     0.143 A 
ATOM      8  O   LIG d   1       4.990   0.816 -11.064  0.00  0.00    -0.422 OA
ATOM      9  C   LIG d   1       4.619   1.089  -9.804  0.00  0.00     0.341 A 
ATOM     10  O   LIG d   1       5.336   1.793  -9.115  0.00  0.00    -0.245 OA
ATOM     11  C   LIG d   1       3.423   0.583  -9.255  0.00  0.00     0.041 A 
ATOM     12  O   LIG d   1       3.997  -1.439 -15.267  0.00  0.00    -0.459 OA
ATOM     13  C   LIG d   1       2.965  -2.211 -15.645  0.00  0.00     0.111 A 
ATOM     14  C   LIG d   1       2.086  -2.340 -14.626  0.00  0.00     0.030 A 
ATOM     15  H   LIG d   1       1.305  -1.714 -11.842  0.00  0.00     0.063 H 
ATOM     16  H   LIG d   1       5.564   0.188 -13.539  0.00  0.00     0.069 H 
ENDROOT
BRANCH  11  17
ATOM     17  C   LIG d   1       3.044   0.913  -7.834  0.00  0.00    -0.012 C 
ATOM     18  H   LIG d   1       3.449   1.889  -7.567  0.00  0.00     0.032 H 
ATOM     19  H   LIG d   1       1.958   0.934  -7.743  0.00  0.00     0.032 H 
BRANCH  17  20
ATOM     20  C   LIG d   1       3.614  -0.151  -6.894  0.00  0.00     0.028 C 
ATOM     21  H   LIG d   1       3.279  -1.137  -7.216  0.00  0.00     0.036 H 
ATOM     22  H   LIG d   1       4.702  -0.111  -6.917  0.00  0.00     0.036 H 
BRANCH  20  23
ATOM     23  C   LIG d   1       3.132   0.108  -5.490  0.00  0.00     0.213 C 
ATOM     24  O   LIG d   1       2.727   1.209  -5.182  0.00  0.00    -0.276 OA
ATOM     25  N   LIG d   1       3.150  -0.882  -4.576  0.00  0.00    -0.315 N 
ATOM     26  H   LIG d   1       3.474  -1.763  -4.823  0.00  0.00     0.149 HD
BRANCH  25  27
ATOM     27  C   LIG d   1       2.682  -0.630  -3.211  0.00  0.00     0.012 C 
ATOM     28  H   LIG d   1       2.320   0.396  -3.136  0.00  0.00     0.046 H 
ATOM     29  H   LIG d   1       1.873  -1.319  -2.971  0.00  0.00     0.046 H 
BRANCH  27  30
ATOM     30  C   LIG d   1       3.837  -0.837  -2.229  0.00  0.00    -0.032 C 
ATOM     31  H   LIG d   1       3.450  -1.244  -1.295  0.00  0.00     0.028 H 
ATOM     32  H   LIG d   1       4.557  -1.533  -2.658  0.00  0.00     0.028 H 
BRANCH  30  33
ATOM     33  C   LIG d   1       4.522   0.503  -1.958  0.00  0.00    -0.012 C 
ATOM     34  H   LIG d   1       3.810   1.314  -2.113  0.00  0.00     0.033 H 
ATOM     35  H   LIG d   1       4.880   0.526  -0.929  0.00  0.00     0.033 H 
BRANCH  33  36
ATOM     36  C   LIG d   1       5.687   0.671  -2.899  0.00  0.00     0.042 C 
ATOM     37  O   LIG d   1       6.164   1.767  -3.080  0.00  0.00    -0.550 OA
ATOM     38  O   LIG d   1       6.196  -0.395  -3.534  0.00  0.00    -0.550 OA
ENDBRANCH  33  36
ENDBRANCH  30  33
ENDBRANCH  27  30
ENDBRANCH  25  27
ENDBRANCH  20  23
ENDBRANCH  17  20
ENDBRANCH  11  17
BRANCH   1  39
ATOM     39  C   LIG d   1       1.329  -0.757  -9.448  0.00  0.00    -0.039 C 
ATOM     40  H   LIG d   1       0.799  -1.305 -10.227  0.00  0.00     0.028 H 
ATOM     41  H   LIG d   1       1.555  -1.429  -8.620  0.00  0.00     0.028 H 
ATOM     42  H   LIG d   1       0.706   0.063  -9.092  0.00  0.00     0.028 H 
ENDBRANCH   1  39
BRANCH  14  43
ATOM     43  C   LIG d   1       0.818  -3.108 -14.633  0.00  0.00    -0.014 A 
ATOM     44  C   LIG d   1      -0.373  -2.488 -15.012  0.00  0.00    -0.054 A 
ATOM     45  C   LIG d   1      -1.550  -3.206 -15.017  0.00  0.00    -0.061 A 
ATOM     46  H   LIG d   1      -0.373  -1.447 -15.299  0.00  0.00     0.062 H 
ATOM     47  C   LIG d   1      -1.551  -4.540 -14.650  0.00  0.00    -0.062 A 
ATOM     48  H   LIG d   1      -2.473  -2.728 -15.310  0.00  0.00     0.062 H 
ATOM     49  C   LIG d   1      -0.374  -5.161 -14.273  0.00  0.00    -0.061 A 
ATOM     50  H   LIG d   1      -2.476  -5.099 -14.655  0.00  0.00     0.062 H 
ATOM     51  C   LIG d   1       0.811  -4.453 -14.268  0.00  0.00    -0.054 A 
ATOM     52  H   LIG d   1      -0.381  -6.202 -13.986  0.00  0.00     0.062 H 
ATOM     53  H   LIG d   1       1.731  -4.939 -13.980  0.00  0.00     0.062 H 
ENDBRANCH  14  43
BRANCH  13  54
ATOM     54  C   LIG d   1       2.810  -2.840 -17.005  0.00  0.00    -0.006 C 
ATOM     55  H   LIG d   1       3.729  -2.708 -17.574  0.00  0.00     0.031 H 
ATOM     56  H   LIG d   1       2.603  -3.904 -16.891  0.00  0.00     0.031 H 
ATOM     57  H   LIG d   1       1.984  -2.364 -17.533  0.00  0.00     0.031 H 
ENDBRANCH  13  54
TORSDOF 10
ENDMDL
MODEL 5
REMARK VINA RESULT:      -7.4      2.472      5.098
REMARK  10 active torsions:
REMARK  status: ('A' for Active; 'I' for Inactive)
REMARK    1  A    between atoms: C_1  and  C_2 
REMARK    2  A    between atoms: C_12  and  C_13 
REMARK    3  A    between atoms: C_13  and  C_14 
REMARK    4  A    between atoms: C_14  and  C_15 
REMARK       I    between atoms: C_15  and  N_17 
REMARK    5  A    between atoms: N_17  and  C_18 
REMARK    6  A    between atoms: C_18  and  C_19 
REMARK    7  A    between atoms: C_19  and  C_20 
REMARK    8  A    between atoms: C_20  and  C_21 
REMARK    9  A    between atoms: C_24  and  C_32 
REMARK   10  A    between atoms: C_25  and  C_26 
ROOT
ATOM      1  C   LIG d   1       8.029   1.817  -5.189  0.00  0.00    -0.030 A 
ATOM      2  C   LIG d   1       9.012   2.867  -5.471  0.00  0.00     0.022 A 
ATOM      3  C   LIG d   1       9.511   3.673  -4.446  0.00  0.00    -0.040 A 
ATOM      4  C   LIG d   1      10.438   4.657  -4.747  0.00  0.00     0.029 A 
ATOM      5  C   LIG d   1      10.876   4.847  -6.072  0.00  0.00     0.139 A 
ATOM      6  C   LIG d   1      10.377   4.043  -7.086  0.00  0.00     0.024 A 
ATOM      7  C   LIG d   1       9.450   3.056  -6.798  0.00  0.00     0.143 A 
ATOM      8  O   LIG d   1       8.959   2.271  -7.783  0.00  0.00    -0.422 OA
ATOM      9  C   LIG d   1       8.060   1.307  -7.529  0.00  0.00     0.341 A 
ATOM     10  O   LIG d   1       7.648   0.625  -8.449  0.00  0.00    -0.245 OA
ATOM     11  C   LIG d   1       7.580   1.064  -6.225  0.00  0.00     0.041 A 
ATOM     12  O   LIG d   1      11.765   5.862  -6.060  0.00  0.00    -0.459 OA
ATOM     13  C   LIG d   1      11.937   6.345  -4.818  0.00  0.00     0.111 A 
ATOM     14  C   LIG d   1      11.160   5.665  -3.946  0.00  0.00     0.030 A 
ATOM     15  H   LIG d   1       9.177   3.530  -3.429  0.00  0.00     0.063 H 
ATOM     16  H   LIG d   1      10.711   4.188  -8.103  0.00  0.00     0.069 H 
ENDROOT
BRANCH  11  17
ATOM     17  C   LIG d   1       6.569  -0.027  -5.984  0.00  0.00    -0.012 C 
ATOM     18  H   LIG d   1       5.902   0.267  -5.173  0.00  0.00     0.032 H 
ATOM     19  H   LIG d   1       5.988  -0.192  -6.891  0.00  0.00     0.032 H 
BRANCH  17  20
ATOM     20  C   LIG d   1       7.296  -1.319  -5.603  0.00  0.00     0.028 C 
ATOM     21  H   LIG d   1       7.340  -1.980  -6.469  0.00  0.00     0.036 H 
ATOM     22  H   LIG d   1       8.308  -1.083  -5.274  0.00  0.00     0.036 H 
BRANCH  20  23
ATOM     23  C   LIG d   1       6.552  -2.004  -4.486  0.00  0.00     0.213 C 
ATOM     24  O   LIG d   1       7.131  -2.787  -3.764  0.00  0.00    -0.276 OA
ATOM     25  N   LIG d   1       5.244  -1.747  -4.289  0.00  0.00    -0.315 N 
ATOM     26  H   LIG d   1       4.780  -1.120  -4.867  0.00  0.00     0.149 HD
BRANCH  25  27
ATOM     27  C   LIG d   1       4.521  -2.413  -3.203  0.00  0.00     0.012 C 
ATOM     28  H   LIG d   1       3.581  -2.813  -3.584  0.00  0.00     0.046 H 
ATOM     29  H   LIG d   1       5.129  -3.226  -2.807  0.00  0.00     0.046 H 
BRANCH  27  30
ATOM     30  C   LIG d   1       4.232  -1.405  -2.089  0.00  0.00    -0.032 C 
ATOM     31  H   LIG d   1       3.701  -1.902  -1.277  0.00  0.00     0.028 H 
ATOM     32  H   LIG d   1       5.171  -0.999  -1.714  0.00  0.00     0.028 H 
BRANCH  30  33
ATOM     33  C   LIG d   1       3.370  -0.268  -2.641  0.00  0.00    -0.012 C 
ATOM     34  H   LIG d   1       3.234  -0.403  -3.714  0.00  0.00     0.033 H 
ATOM     35  H   LIG d   1       2.398  -0.276  -2.148  0.00  0.00     0.033 H 
BRANCH  33  36
ATOM     36  C   LIG d   1       4.052   1.051  -2.383  0.00  0.00     0.042 C 
ATOM     37  O   LIG d   1       4.794   1.172  -1.436  0.00  0.00    -0.550 OA
ATOM     38  O   LIG d   1       3.837   2.090  -3.204  0.00  0.00    -0.550 OA
ENDBRANCH  33  36
ENDBRANCH  30  33
ENDBRANCH  27  30
ENDBRANCH  25  27
ENDBRANCH  20  23
ENDBRANCH  17  20
ENDBRANCH  11  17
BRANCH   1  39
ATOM     39  C   LIG d   1       7.533   1.578  -3.786  0.00  0.00    -0.039 C 
ATOM     40  H   LIG d   1       7.124   0.570  -3.712  0.00  0.00     0.028 H 
ATOM     41  H   LIG d   1       8.361   1.687  -3.084  0.00  0.00     0.028 H 
ATOM     42  H   LIG d   1       6.756   2.303  -3.547  0.00  0.00     0.028 H 
ENDBRANCH   1  39
BRANCH  14  43
ATOM     43  C   LIG d   1      11.056   5.885  -2.483  0.00  0.00    -0.014 A 
ATOM     44  C   LIG d   1      11.839   5.137  -1.606  0.00  0.00    -0.054 A 
ATOM     45  C   LIG d   1      11.739   5.346  -0.246  0.00  0.00    -0.061 A 
ATOM     46  H   LIG d   1      12.521   4.393  -1.990  0.00  0.00     0.062 H 
ATOM     47  C   LIG d   1      10.865   6.299   0.247  0.00  0.00    -0.062 A 
ATOM     48  H   LIG d   1      12.344   4.767   0.435  0.00  0.00     0.062 H 
ATOM     49  C   LIG d   1      10.086   7.045  -0.618  0.00  0.00    -0.061 A 
ATOM     50  H   LIG d   1      10.790   6.459   1.313  0.00  0.00     0.062 H 
ATOM     51  C   LIG d   1      10.181   6.847  -1.981  0.00  0.00    -0.054 A 
ATOM     52  H   LIG d   1       9.405   7.786  -0.227  0.00  0.00     0.062 H 
ATOM     53  H   LIG d   1       9.577   7.434  -2.656  0.00  0.00     0.062 H 
ENDBRANCH  14  43
BRANCH  13  54
ATOM     54  C   LIG d   1      12.859   7.479  -4.452  0.00  0.00    -0.006 C 
ATOM     55  H   LIG d   1      13.697   7.505  -5.148  0.00  0.00     0.031 H 
ATOM     56  H   LIG d   1      12.314   8.421  -4.504  0.00  0.00     0.031 H 
ATOM     57  H   LIG d   1      13.233   7.330  -3.439  0.00  0.00     0.031 H 
ENDBRANCH  13  54
TORSDOF 10
ENDMDL
MODEL 6
REMARK VINA RESULT:      -7.4      2.745      5.289
REMARK  10 active torsions:
REMARK  status: ('A' for Active; 'I' for Inactive)
REMARK    1  A    between atoms: C_1  and  C_2 
REMARK    2  A    between atoms: C_12  and  C_13 
REMARK    3  A    between atoms: C_13  and  C_14 
REMARK    4  A    between atoms: C_14  and  C_15 
REMARK       I    between atoms: C_15  and  N_17 
REMARK    5  A    between atoms: N_17  and  C_18 
REMARK    6  A    between atoms: C_18  and  C_19 
REMARK    7  A    between atoms: C_19  and  C_20 
REMARK    8  A    between atoms: C_20  and  C_21 
REMARK    9  A    between atoms: C_24  and  C_32 
REMARK   10  A    between atoms: C_25  and  C_26 
ROOT
ATOM      1  C   LIG d   1       8.269   1.873  -6.425  0.00  0.00    -0.030 A 
ATOM      2  C   LIG d   1       8.842   2.877  -5.524  0.00  0.00     0.022 A 
ATOM      3  C   LIG d   1       9.236   4.127  -6.005  0.00  0.00    -0.040 A 
ATOM      4  C   LIG d   1       9.776   5.053  -5.127  0.00  0.00     0.029 A 
ATOM      5  C   LIG d   1       9.926   4.741  -3.762  0.00  0.00     0.139 A 
ATOM      6  C   LIG d   1       9.532   3.498  -3.289  0.00  0.00     0.024 A 
ATOM      7  C   LIG d   1       8.992   2.564  -4.157  0.00  0.00     0.143 A 
ATOM      8  O   LIG d   1       8.607   1.350  -3.703  0.00  0.00    -0.422 OA
ATOM      9  C   LIG d   1       8.081   0.429  -4.524  0.00  0.00     0.341 A 
ATOM     10  O   LIG d   1       7.749  -0.650  -4.068  0.00  0.00    -0.245 OA
ATOM     11  C   LIG d   1       7.903   0.676  -5.901  0.00  0.00     0.041 A 
ATOM     12  O   LIG d   1      10.470   5.820  -3.160  0.00  0.00    -0.459 OA
ATOM     13  C   LIG d   1      10.684   6.812  -4.040  0.00  0.00     0.111 A 
ATOM     14  C   LIG d   1      10.287   6.429  -5.275  0.00  0.00     0.030 A 
ATOM     15  H   LIG d   1       9.122   4.370  -7.051  0.00  0.00     0.063 H 
ATOM     16  H   LIG d   1       9.648   3.257  -2.243  0.00  0.00     0.069 H 
ENDROOT
BRANCH  11  17
ATOM     17  C   LIG d   1       7.309  -0.387  -6.789  0.00  0.00    -0.012 C 
ATOM     18  H   LIG d   1       7.715  -0.290  -7.796  0.00  0.00     0.032 H 
ATOM     19  H   LIG d   1       7.555  -1.372  -6.391  0.00  0.00     0.032 H 
BRANCH  17  20
ATOM     20  C   LIG d   1       5.788  -0.222  -6.835  0.00  0.00     0.028 C 
ATOM     21  H   LIG d   1       5.518   0.759  -6.444  0.00  0.00     0.036 H 
ATOM     22  H   LIG d   1       5.444  -0.310  -7.865  0.00  0.00     0.036 H 
BRANCH  20  23
ATOM     23  C   LIG d   1       5.140  -1.293  -5.996  0.00  0.00     0.213 C 
ATOM     24  O   LIG d   1       4.918  -2.385  -6.475  0.00  0.00    -0.276 OA
ATOM     25  N   LIG d   1       4.809  -1.039  -4.715  0.00  0.00    -0.315 N 
ATOM     26  H   LIG d   1       4.988  -0.165  -4.332  0.00  0.00     0.149 HD
BRANCH  25  27
ATOM     27  C   LIG d   1       4.179  -2.081  -3.900  0.00  0.00     0.012 C 
ATOM     28  H   LIG d   1       3.493  -2.659  -4.518  0.00  0.00     0.046 H 
ATOM     29  H   LIG d   1       4.948  -2.740  -3.496  0.00  0.00     0.046 H 
BRANCH  27  30
ATOM     30  C   LIG d   1       3.407  -1.432  -2.749  0.00  0.00    -0.032 C 
ATOM     31  H   LIG d   1       2.717  -0.689  -3.149  0.00  0.00     0.028 H 
ATOM     32  H   LIG d   1       2.846  -2.197  -2.212  0.00  0.00     0.028 H 
BRANCH  30  33
ATOM     33  C   LIG d   1       4.391  -0.755  -1.794  0.00  0.00    -0.012 C 
ATOM     34  H   LIG d   1       4.086  -0.943  -0.764  0.00  0.00     0.033 H 
ATOM     35  H   LIG d   1       5.391  -1.158  -1.956  0.00  0.00     0.033 H 
BRANCH  33  36
ATOM     36  C   LIG d   1       4.400   0.730  -2.051  0.00  0.00     0.042 C 
ATOM     37  O   LIG d   1       3.380   1.368  -1.942  0.00  0.00    -0.550 OA
ATOM     38  O   LIG d   1       5.541   1.343  -2.401  0.00  0.00    -0.550 OA
ENDBRANCH  33  36
ENDBRANCH  30  33
ENDBRANCH  27  30
ENDBRANCH  25  27
ENDBRANCH  20  23
ENDBRANCH  17  20
ENDBRANCH  11  17
BRANCH   1  39
ATOM     39  C   LIG d   1       8.088   2.164  -7.893  0.00  0.00    -0.039 C 
ATOM     40  H   LIG d   1       9.065   2.275  -8.364  0.00  0.00     0.028 H 
ATOM     41  H   LIG d   1       7.550   1.340  -8.363  0.00  0.00     0.028 H 
ATOM     42  H   LIG d   1       7.519   3.085  -8.013  0.00  0.00     0.028 H 
ENDBRANCH   1  39
BRANCH  14  43
ATOM     43  C   LIG d   1      10.351   7.230  -6.521  0.00  0.00    -0.014 A 
ATOM     44  C   LIG d   1       9.280   8.046  -6.884  0.00  0.00    -0.054 A 
ATOM     45  C   LIG d   1       9.345   8.789  -8.045  0.00  0.00    -0.061 A 
ATOM     46  H   LIG d   1       8.401   8.095  -6.259  0.00  0.00     0.062 H 
ATOM     47  C   LIG d   1      10.471   8.727  -8.847  0.00  0.00    -0.062 A 
ATOM     48  H   LIG d   1       8.517   9.421  -8.327  0.00  0.00     0.062 H 
ATOM     49  C   LIG d   1      11.536   7.920  -8.492  0.00  0.00    -0.061 A 
ATOM     50  H   LIG d   1      10.517   9.311  -9.754  0.00  0.00     0.062 H 
ATOM     51  C   LIG d   1      11.485   7.175  -7.330  0.00  0.00    -0.054 A 
ATOM     52  H   LIG d   1      12.412   7.875  -9.122  0.00  0.00     0.062 H 
ATOM     53  H   LIG d   1      12.319   6.550  -7.051  0.00  0.00     0.062 H 
ENDBRANCH  14  43
BRANCH  13  54
ATOM     54  C   LIG d   1      11.278   8.154  -3.701  0.00  0.00    -0.006 C 
ATOM     55  H   LIG d   1      12.348   8.141  -3.910  0.00  0.00     0.031 H 
ATOM     56  H   LIG d   1      10.800   8.926  -4.303  0.00  0.00     0.031 H 
ATOM     57  H   LIG d   1      11.117   8.366  -2.644  0.00  0.00     0.031 H 
ENDBRANCH  13  54
TORSDOF 10
ENDMDL
MODEL 7
REMARK VINA RESULT:      -7.4      7.260     10.910
REMARK  10 active torsions:
REMARK  status: ('A' for Active; 'I' for Inactive)
REMARK    1  A    between atoms: C_1  and  C_2 
REMARK    2  A    between atoms: C_12  and  C_13 
REMARK    3  A    between atoms: C_13  and  C_14 
REMARK    4  A    between atoms: C_14  and  C_15 
REMARK       I    between atoms: C_15  and  N_17 
REMARK    5  A    between atoms: N_17  and  C_18 
REMARK    6  A    between atoms: C_18  and  C_19 
REMARK    7  A    between atoms: C_19  and  C_20 
REMARK    8  A    between atoms: C_20  and  C_21 
REMARK    9  A    between atoms: C_24  and  C_32 
REMARK   10  A    between atoms: C_25  and  C_26 
ROOT
ATOM      1  C   LIG d   1       9.522  -4.957  -3.200  0.00  0.00    -0.030 A 
ATOM      2  C   LIG d   1       8.600  -4.434  -4.212  0.00  0.00     0.022 A 
ATOM      3  C   LIG d   1       7.724  -3.391  -3.911  0.00  0.00    -0.040 A 
ATOM      4  C   LIG d   1       6.864  -2.921  -4.891  0.00  0.00     0.029 A 
ATOM      5  C   LIG d   1       6.872  -3.488  -6.180  0.00  0.00     0.139 A 
ATOM      6  C   LIG d   1       7.747  -4.524  -6.475  0.00  0.00     0.024 A 
ATOM      7  C   LIG d   1       8.610  -5.002  -5.503  0.00  0.00     0.143 A 
ATOM      8  O   LIG d   1       9.462  -6.012  -5.784  0.00  0.00    -0.422 OA
ATOM      9  C   LIG d   1      10.308  -6.493  -4.860  0.00  0.00     0.341 A 
ATOM     10  O   LIG d   1      11.058  -7.404  -5.161  0.00  0.00    -0.245 OA
ATOM     11  C   LIG d   1      10.352  -5.972  -3.550  0.00  0.00     0.041 A 
ATOM     12  O   LIG d   1       5.943  -2.837  -6.911  0.00  0.00    -0.459 OA
ATOM     13  C   LIG d   1       5.331  -1.886  -6.185  0.00  0.00     0.111 A 
ATOM     14  C   LIG d   1       5.834  -1.866  -4.931  0.00  0.00     0.030 A 
ATOM     15  H   LIG d   1       7.714  -2.954  -2.923  0.00  0.00     0.063 H 
ATOM     16  H   LIG d   1       7.753  -4.959  -7.463  0.00  0.00     0.069 H 
ENDROOT
BRANCH  11  17
ATOM     17  C   LIG d   1      11.317  -6.541  -2.542  0.00  0.00    -0.012 C 
ATOM     18  H   LIG d   1      12.142  -7.027  -3.063  0.00  0.00     0.032 H 
ATOM     19  H   LIG d   1      11.705  -5.738  -1.916  0.00  0.00     0.032 H 
BRANCH  17  20
ATOM     20  C   LIG d   1      10.593  -7.566  -1.666  0.00  0.00     0.028 C 
ATOM     21  H   LIG d   1       9.604  -7.189  -1.408  0.00  0.00     0.036 H 
ATOM     22  H   LIG d   1      10.494  -8.505  -2.211  0.00  0.00     0.036 H 
BRANCH  20  23
ATOM     23  C   LIG d   1      11.386  -7.799  -0.406  0.00  0.00     0.213 C 
ATOM     24  O   LIG d   1      12.580  -8.000  -0.470  0.00  0.00    -0.276 OA
ATOM     25  N   LIG d   1      10.769  -7.783   0.792  0.00  0.00    -0.315 N 
ATOM     26  H   LIG d   1       9.813  -7.622   0.843  0.00  0.00     0.149 HD
BRANCH  25  27
ATOM     27  C   LIG d   1      11.540  -8.010   2.017  0.00  0.00     0.012 C 
ATOM     28  H   LIG d   1      12.586  -8.174   1.762  0.00  0.00     0.046 H 
ATOM     29  H   LIG d   1      11.456  -7.138   2.666  0.00  0.00     0.046 H 
BRANCH  27  30
ATOM     30  C   LIG d   1      10.993  -9.241   2.744  0.00  0.00    -0.032 C 
ATOM     31  H   LIG d   1      10.477  -8.927   3.652  0.00  0.00     0.028 H 
ATOM     32  H   LIG d   1      10.295  -9.767   2.093  0.00  0.00     0.028 H 
BRANCH  30  33
ATOM     33  C   LIG d   1      12.150 -10.172   3.110  0.00  0.00    -0.012 C 
ATOM     34  H   LIG d   1      12.509 -10.676   2.212  0.00  0.00     0.033 H 
ATOM     35  H   LIG d   1      12.960  -9.590   3.548  0.00  0.00     0.033 H 
BRANCH  33  36
ATOM     36  C   LIG d   1      11.673 -11.198   4.105  0.00  0.00     0.042 C 
ATOM     37  O   LIG d   1      10.750 -11.927   3.827  0.00  0.00    -0.550 OA
ATOM     38  O   LIG d   1      12.274 -11.303   5.301  0.00  0.00    -0.550 OA
ENDBRANCH  33  36
ENDBRANCH  30  33
ENDBRANCH  27  30
ENDBRANCH  25  27
ENDBRANCH  20  23
ENDBRANCH  17  20
ENDBRANCH  11  17
BRANCH   1  39
ATOM     39  C   LIG d   1       9.548  -4.381  -1.806  0.00  0.00    -0.039 C 
ATOM     40  H   LIG d   1       8.616  -3.851  -1.615  0.00  0.00     0.028 H 
ATOM     41  H   LIG d   1       9.664  -5.188  -1.082  0.00  0.00     0.028 H 
ATOM     42  H   LIG d   1      10.385  -3.689  -1.716  0.00  0.00     0.028 H 
ENDBRANCH   1  39
BRANCH  14  43
ATOM     43  C   LIG d   1       5.432  -0.967  -3.822  0.00  0.00    -0.014 A 
ATOM     44  C   LIG d   1       4.597  -1.436  -2.809  0.00  0.00    -0.054 A 
ATOM     45  C   LIG d   1       4.226  -0.596  -1.779  0.00  0.00    -0.061 A 
ATOM     46  H   LIG d   1       4.240  -2.455  -2.830  0.00  0.00     0.062 H 
ATOM     47  C   LIG d   1       4.682   0.710  -1.751  0.00  0.00    -0.062 A 
ATOM     48  H   LIG d   1       3.579  -0.958  -0.994  0.00  0.00     0.062 H 
ATOM     49  C   LIG d   1       5.511   1.181  -2.753  0.00  0.00    -0.061 A 
ATOM     50  H   LIG d   1       4.389   1.364  -0.943  0.00  0.00     0.062 H 
ATOM     51  C   LIG d   1       5.893   0.348  -3.785  0.00  0.00    -0.054 A 
ATOM     52  H   LIG d   1       5.864   2.201  -2.726  0.00  0.00     0.062 H 
ATOM     53  H   LIG d   1       6.544   0.714  -4.564  0.00  0.00     0.062 H 
ENDBRANCH  14  43
BRANCH  13  54
ATOM     54  C   LIG d   1       4.245  -0.976  -6.696  0.00  0.00    -0.006 C 
ATOM     55  H   LIG d   1       3.691  -0.563  -5.854  0.00  0.00     0.031 H 
ATOM     56  H   LIG d   1       4.691  -0.164  -7.271  0.00  0.00     0.031 H 
ATOM     57  H   LIG d   1       3.566  -1.543  -7.334  0.00  0.00     0.031 H 
ENDBRANCH  13  54
TORSDOF 10
ENDMDL
MODEL 8
REMARK VINA RESULT:      -7.3      2.660      4.935
REMARK  10 active torsions:
REMARK  status: ('A' for Active; 'I' for Inactive)
REMARK    1  A    between atoms: C_1  and  C_2 
REMARK    2  A    between atoms: C_12  and  C_13 
REMARK    3  A    between atoms: C_13  and  C_14 
REMARK    4  A    between atoms: C_14  and  C_15 
REMARK       I    between atoms: C_15  and  N_17 
REMARK    5  A    between atoms: N_17  and  C_18 
REMARK    6  A    between atoms: C_18  and  C_19 
REMARK    7  A    between atoms: C_19  and  C_20 
REMARK    8  A    between atoms: C_20  and  C_21 
REMARK    9  A    between atoms: C_24  and  C_32 
REMARK   10  A    between atoms: C_25  and  C_26 
ROOT
ATOM      1  C   LIG d   1       7.414   0.808  -6.901  0.00  0.00    -0.030 A 
ATOM      2  C   LIG d   1       8.151   2.016  -7.282  0.00  0.00     0.022 A 
ATOM      3  C   LIG d   1       8.859   2.751  -6.330  0.00  0.00    -0.040 A 
ATOM      4  C   LIG d   1       9.545   3.889  -6.723  0.00  0.00     0.029 A 
ATOM      5  C   LIG d   1       9.530   4.303  -8.069  0.00  0.00     0.139 A 
ATOM      6  C   LIG d   1       8.826   3.568  -9.011  0.00  0.00     0.024 A 
ATOM      7  C   LIG d   1       8.136   2.430  -8.630  0.00  0.00     0.143 A 
ATOM      8  O   LIG d   1       7.446   1.710  -9.543  0.00  0.00    -0.422 OA
ATOM      9  C   LIG d   1       6.771   0.603  -9.199  0.00  0.00     0.341 A 
ATOM     10  O   LIG d   1       6.165  -0.012 -10.057  0.00  0.00    -0.245 OA
ATOM     11  C   LIG d   1       6.743   0.133  -7.869  0.00  0.00     0.041 A 
ATOM     12  O   LIG d   1      10.274   5.427  -8.152  0.00  0.00    -0.459 OA
ATOM     13  C   LIG d   1      10.771   5.771  -6.953  0.00  0.00     0.111 A 
ATOM     14  C   LIG d   1      10.374   4.882  -6.014  0.00  0.00     0.030 A 
ATOM     15  H   LIG d   1       8.872   2.436  -5.297  0.00  0.00     0.063 H 
ATOM     16  H   LIG d   1       8.813   3.886 -10.043  0.00  0.00     0.069 H 
ENDROOT
BRANCH  11  17
ATOM     17  C   LIG d   1       5.972  -1.115  -7.525  0.00  0.00    -0.012 C 
ATOM     18  H   LIG d   1       6.147  -1.873  -8.288  0.00  0.00     0.032 H 
ATOM     19  H   LIG d   1       6.302  -1.491  -6.556  0.00  0.00     0.032 H 
BRANCH  17  20
ATOM     20  C   LIG d   1       4.478  -0.789  -7.463  0.00  0.00     0.028 C 
ATOM     21  H   LIG d   1       4.285   0.138  -8.002  0.00  0.00     0.036 H 
ATOM     22  H   LIG d   1       3.910  -1.600  -7.920  0.00  0.00     0.036 H 
BRANCH  20  23
ATOM     23  C   LIG d   1       4.057  -0.630  -6.024  0.00  0.00     0.213 C 
ATOM     24  O   LIG d   1       3.757   0.465  -5.599  0.00  0.00    -0.276 OA
ATOM     25  N   LIG d   1       4.012  -1.705  -5.212  0.00  0.00    -0.315 N 
ATOM     26  H   LIG d   1       4.252  -2.581  -5.553  0.00  0.00     0.149 HD
BRANCH  25  27
ATOM     27  C   LIG d   1       3.603  -1.550  -3.814  0.00  0.00     0.012 C 
ATOM     28  H   LIG d   1       3.040  -0.624  -3.701  0.00  0.00     0.046 H 
ATOM     29  H   LIG d   1       2.977  -2.394  -3.523  0.00  0.00     0.046 H 
BRANCH  27  30
ATOM     30  C   LIG d   1       4.844  -1.505  -2.921  0.00  0.00    -0.032 C 
ATOM     31  H   LIG d   1       5.113  -2.518  -2.620  0.00  0.00     0.028 H 
ATOM     32  H   LIG d   1       5.672  -1.057  -3.471  0.00  0.00     0.028 H 
BRANCH  30  33
ATOM     33  C   LIG d   1       4.547  -0.665  -1.677  0.00  0.00    -0.012 C 
ATOM     34  H   LIG d   1       3.574  -0.946  -1.273  0.00  0.00     0.033 H 
ATOM     35  H   LIG d   1       5.317  -0.842  -0.927  0.00  0.00     0.033 H 
BRANCH  33  36
ATOM     36  C   LIG d   1       4.535   0.795  -2.048  0.00  0.00     0.042 C 
ATOM     37  O   LIG d   1       5.562   1.346  -2.369  0.00  0.00    -0.550 OA
ATOM     38  O   LIG d   1       3.383   1.485  -2.024  0.00  0.00    -0.550 OA
ENDBRANCH  33  36
ENDBRANCH  30  33
ENDBRANCH  27  30
ENDBRANCH  25  27
ENDBRANCH  20  23
ENDBRANCH  17  20
ENDBRANCH  11  17
BRANCH   1  39
ATOM     39  C   LIG d   1       7.402   0.327  -5.472  0.00  0.00    -0.039 C 
ATOM     40  H   LIG d   1       7.612   1.163  -4.806  0.00  0.00     0.028 H 
ATOM     41  H   LIG d   1       6.421  -0.088  -5.237  0.00  0.00     0.028 H 
ATOM     42  H   LIG d   1       8.162  -0.443  -5.342  0.00  0.00     0.028 H 
ENDBRANCH   1  39
BRANCH  14  43
ATOM     43  C   LIG d   1      10.706   4.902  -4.569  0.00  0.00    -0.014 A 
ATOM     44  C   LIG d   1      11.900   4.342  -4.118  0.00  0.00    -0.054 A 
ATOM     45  C   LIG d   1      12.205   4.363  -2.773  0.00  0.00    -0.061 A 
ATOM     46  H   LIG d   1      12.585   3.891  -4.821  0.00  0.00     0.062 H 
ATOM     47  C   LIG d   1      11.328   4.941  -1.872  0.00  0.00    -0.062 A 
ATOM     48  H   LIG d   1      13.129   3.929  -2.422  0.00  0.00     0.062 H 
ATOM     49  C   LIG d   1      10.142   5.498  -2.313  0.00  0.00    -0.061 A 
ATOM     50  H   LIG d   1      11.570   4.955  -0.819  0.00  0.00     0.062 H 
ATOM     51  C   LIG d   1       9.829   5.488  -3.658  0.00  0.00    -0.054 A 
ATOM     52  H   LIG d   1       9.461   5.947  -1.606  0.00  0.00     0.062 H 
ATOM     53  H   LIG d   1       8.905   5.928  -4.002  0.00  0.00     0.062 H 
ENDBRANCH  14  43
BRANCH  13  54
ATOM     54  C   LIG d   1      11.643   6.971  -6.692  0.00  0.00    -0.006 C 
ATOM     55  H   LIG d   1      12.242   7.185  -7.577  0.00  0.00     0.031 H 
ATOM     56  H   LIG d   1      11.016   7.832  -6.460  0.00  0.00     0.031 H 
ATOM     57  H   LIG d   1      12.303   6.765  -5.849  0.00  0.00     0.031 H 
ENDBRANCH  13  54
TORSDOF 10
ENDMDL
MODEL 9
REMARK VINA RESULT:      -7.3      3.794      7.637
REMARK  10 active torsions:
REMARK  status: ('A' for Active; 'I' for Inactive)
REMARK    1  A    between atoms: C_1  and  C_2 
REMARK    2  A    between atoms: C_12  and  C_13 
REMARK    3  A    between atoms: C_13  and  C_14 
REMARK    4  A    between atoms: C_14  and  C_15 
REMARK       I    between atoms: C_15  and  N_17 
REMARK    5  A    between atoms: N_17  and  C_18 
REMARK    6  A    between atoms: C_18  and  C_19 
REMARK    7  A    between atoms: C_19  and  C_20 
REMARK    8  A    between atoms: C_20  and  C_21 
REMARK    9  A    between atoms: C_24  and  C_32 
REMARK   10  A    between atoms: C_25  and  C_26 
ROOT
ATOM      1  C   LIG d   1      10.038   5.404  -3.944  0.00  0.00    -0.030 A 
ATOM      2  C   LIG d   1      10.309   6.232  -2.765  0.00  0.00     0.022 A 
ATOM      3  C   LIG d   1      10.189   7.621  -2.824  0.00  0.00    -0.040 A 
ATOM      4  C   LIG d   1      10.453   8.374  -1.692  0.00  0.00     0.029 A 
ATOM      5  C   LIG d   1      10.839   7.748  -0.490  0.00  0.00     0.139 A 
ATOM      6  C   LIG d   1      10.955   6.367  -0.437  0.00  0.00     0.024 A 
ATOM      7  C   LIG d   1      10.694   5.604  -1.562  0.00  0.00     0.143 A 
ATOM      8  O   LIG d   1      10.808   4.258  -1.517  0.00  0.00    -0.422 OA
ATOM      9  C   LIG d   1      10.560   3.496  -2.593  0.00  0.00     0.341 A 
ATOM     10  O   LIG d   1      10.676   2.287  -2.503  0.00  0.00    -0.245 OA
ATOM     11  C   LIG d   1      10.170   4.058  -3.827  0.00  0.00     0.041 A 
ATOM     12  O   LIG d   1      11.026   8.720   0.427  0.00  0.00    -0.459 OA
ATOM     13  C   LIG d   1      10.789   9.935  -0.095  0.00  0.00     0.111 A 
ATOM     14  C   LIG d   1      10.431   9.819  -1.393  0.00  0.00     0.030 A 
ATOM     15  H   LIG d   1       9.893   8.104  -3.744  0.00  0.00     0.063 H 
ATOM     16  H   LIG d   1      11.252   5.886   0.483  0.00  0.00     0.069 H 
ENDROOT
BRANCH  11  17
ATOM     17  C   LIG d   1       9.902   3.167  -5.012  0.00  0.00    -0.012 C 
ATOM     18  H   LIG d   1      10.317   3.623  -5.912  0.00  0.00     0.032 H 
ATOM     19  H   LIG d   1      10.369   2.195  -4.849  0.00  0.00     0.032 H 
BRANCH  17  20
ATOM     20  C   LIG d   1       8.393   2.985  -5.183  0.00  0.00     0.028 C 
ATOM     21  H   LIG d   1       7.872   3.830  -4.731  0.00  0.00     0.036 H 
ATOM     22  H   LIG d   1       8.150   2.934  -6.244  0.00  0.00     0.036 H 
BRANCH  20  23
ATOM     23  C   LIG d   1       7.960   1.709  -4.507  0.00  0.00     0.213 C 
ATOM     24  O   LIG d   1       8.641   0.710  -4.607  0.00  0.00    -0.276 OA
ATOM     25  N   LIG d   1       6.819   1.678  -3.792  0.00  0.00    -0.315 N 
ATOM     26  H   LIG d   1       6.274   2.477  -3.712  0.00  0.00     0.149 HD
BRANCH  25  27
ATOM     27  C   LIG d   1       6.399   0.437  -3.136  0.00  0.00     0.012 C 
ATOM     28  H   LIG d   1       6.370  -0.369  -3.869  0.00  0.00     0.046 H 
ATOM     29  H   LIG d   1       7.108   0.186  -2.346  0.00  0.00     0.046 H 
BRANCH  27  30
ATOM     30  C   LIG d   1       5.007   0.626  -2.529  0.00  0.00    -0.032 C 
ATOM     31  H   LIG d   1       5.033   1.443  -1.808  0.00  0.00     0.028 H 
ATOM     32  H   LIG d   1       4.295   0.862  -3.320  0.00  0.00     0.028 H 
BRANCH  30  33
ATOM     33  C   LIG d   1       4.578  -0.663  -1.826  0.00  0.00    -0.012 C 
ATOM     34  H   LIG d   1       5.453  -1.287  -1.646  0.00  0.00     0.033 H 
ATOM     35  H   LIG d   1       4.105  -0.417  -0.875  0.00  0.00     0.033 H 
BRANCH  33  36
ATOM     36  C   LIG d   1       3.599  -1.408  -2.696  0.00  0.00     0.042 C 
ATOM     37  O   LIG d   1       3.845  -2.536  -3.053  0.00  0.00    -0.550 OA
ATOM     38  O   LIG d   1       2.453  -0.819  -3.073  0.00  0.00    -0.550 OA
ENDBRANCH  33  36
ENDBRANCH  30  33
ENDBRANCH  27  30
ENDBRANCH  25  27
ENDBRANCH  20  23
ENDBRANCH  17  20
ENDBRANCH  11  17
BRANCH   1  39
ATOM     39  C   LIG d   1       9.622   6.031  -5.251  0.00  0.00    -0.039 C 
ATOM     40  H   LIG d   1       9.125   5.284  -5.869  0.00  0.00     0.028 H 
ATOM     41  H   LIG d   1       8.936   6.856  -5.055  0.00  0.00     0.028 H 
ATOM     42  H   LIG d   1      10.503   6.405  -5.770  0.00  0.00     0.028 H 
ENDBRANCH   1  39
BRANCH  14  43
ATOM     43  C   LIG d   1      10.085  10.919  -2.326  0.00  0.00    -0.014 A 
ATOM     44  C   LIG d   1      11.088  11.564  -3.049  0.00  0.00    -0.054 A 
ATOM     45  C   LIG d   1      10.761  12.586  -3.915  0.00  0.00    -0.061 A 
ATOM     46  H   LIG d   1      12.118  11.264  -2.930  0.00  0.00     0.062 H 
ATOM     47  C   LIG d   1       9.441  12.971  -4.069  0.00  0.00    -0.062 A 
ATOM     48  H   LIG d   1      11.536  13.087  -4.476  0.00  0.00     0.062 H 
ATOM     49  C   LIG d   1       8.442  12.335  -3.355  0.00  0.00    -0.061 A 
ATOM     50  H   LIG d   1       9.190  13.772  -4.748  0.00  0.00     0.062 H 
ATOM     51  C   LIG d   1       8.756  11.307  -2.488  0.00  0.00    -0.054 A 
ATOM     52  H   LIG d   1       7.413  12.640  -3.478  0.00  0.00     0.062 H 
ATOM     53  H   LIG d   1       7.976  10.807  -1.935  0.00  0.00     0.062 H 
ENDBRANCH  14  43
BRANCH  13  54
ATOM     54  C   LIG d   1      10.904  11.235   0.657  0.00  0.00    -0.006 C 
ATOM     55  H   LIG d   1      11.540  11.922   0.099  0.00  0.00     0.031 H 
ATOM     56  H   LIG d   1       9.914  11.674   0.779  0.00  0.00     0.031 H 
ATOM     57  H   LIG d   1      11.343  11.050   1.638  0.00  0.00     0.031 H 
ENDBRANCH  13  54
TORSDOF 10
ENDMDL
