MODEL 1
REMARK VINA RESULT:      -7.7      0.000      0.000
REMARK  7 active torsions:
REMARK  status: ('A' for Active; 'I' for Inactive)
REMARK    1  A    between atoms: C_1  and  N_2 
REMARK    2  A    between atoms: N_2  and  C_3 
REMARK    3  A    between atoms: N_2  and  C_4 
REMARK    4  A    between atoms: C_7  and  C_10 
REMARK    5  A    between atoms: C_10  and  N_11 
REMARK    6  A    between atoms: C_20  and  C_22 
REMARK    7  A    between atoms: C_24  and  C_27 
ROOT
ATOM      1  N   LIG d   1      10.097   6.097  -5.388  0.00  0.00    -0.279 N 
ATOM      2  C   LIG d   1       9.974   7.390  -6.082  0.00  0.00     0.066 C 
ATOM      3  C   LIG d   1      11.048   7.464  -7.139  0.00  0.00     0.159 A 
ATOM      4  C   LIG d   1      11.726   6.383  -7.585  0.00  0.00     0.148 A 
ATOM      5  N   LIG d   1      12.607   6.820  -8.522  0.00  0.00    -0.247 N 
ATOM      6  H   LIG d   1      13.235   6.276  -9.023  0.00  0.00     0.310 HD
ATOM      7  C   LIG d   1      12.441   8.159  -8.626  0.00  0.00     0.243 A 
ATOM      8  N   LIG d   1      11.504   8.534  -7.793  0.00  0.00    -0.246 N 
ATOM      9  C   LIG d   1      11.483   4.983  -7.082  0.00  0.00     0.037 C 
ATOM     10  C   LIG d   1      10.139   4.977  -6.338  0.00  0.00     0.098 C 
ATOM     11  H   LIG d   1       9.327   5.080  -7.058  0.00  0.00     0.057 H 
ATOM     12  H   LIG d   1       8.992   7.464  -6.551  0.00  0.00     0.051 H 
ATOM     13  H   LIG d   1      10.104   8.204  -5.369  0.00  0.00     0.051 H 
ATOM     14  H   LIG d   1      12.992   8.812  -9.287  0.00  0.00     0.158 H 
ATOM     15  H   LIG d   1      11.443   4.290  -7.922  0.00  0.00     0.037 H 
ATOM     16  H   LIG d   1      12.283   4.692  -6.400  0.00  0.00     0.037 H 
ATOM     17  H   LIG d   1      11.190   9.443  -7.671  0.00  0.00     0.310 HD
ENDROOT
BRANCH  10  18
ATOM     18  C   LIG d   1       9.986   3.678  -5.590  0.00  0.00     0.245 A 
ATOM     19  O   LIG d   1      10.978   2.975  -5.030  0.00  0.00    -0.336 OA
ATOM     20  N   LIG d   1      10.377   1.834  -4.437  0.00  0.00    -0.056 NA
ATOM     21  C   LIG d   1       9.093   1.922  -4.682  0.00  0.00     0.202 A 
ATOM     22  N   LIG d   1       8.865   3.046  -5.384  0.00  0.00    -0.190 NA
BRANCH  21  23
ATOM     23  C   LIG d   1       8.062   0.943  -4.257  0.00  0.00     0.023 A 
ATOM     24  C   LIG d   1       7.017   1.355  -3.453  0.00  0.00    -0.043 A 
ATOM     25  C   LIG d   1       6.041   0.426  -3.060  0.00  0.00    -0.017 A 
ATOM     26  H   LIG d   1       6.948   2.384  -3.132  0.00  0.00     0.063 H 
ATOM     27  C   LIG d   1       6.149  -0.922  -3.485  0.00  0.00    -0.018 A 
ATOM     28  C   LIG d   1       4.958   0.808  -2.246  0.00  0.00    -0.054 A 
ATOM     29  C   LIG d   1       7.229  -1.311  -4.299  0.00  0.00    -0.053 A 
ATOM     30  C   LIG d   1       5.173  -1.850  -3.084  0.00  0.00    -0.054 A 
ATOM     31  C   LIG d   1       8.159  -0.395  -4.672  0.00  0.00    -0.050 A 
ATOM     32  H   LIG d   1       7.316  -2.335  -4.626  0.00  0.00     0.062 H 
ATOM     33  H   LIG d   1       8.986  -0.701  -5.297  0.00  0.00     0.062 H 
ATOM     34  C   LIG d   1       4.140  -1.444  -2.296  0.00  0.00    -0.061 A 
ATOM     35  H   LIG d   1       5.242  -2.881  -3.399  0.00  0.00     0.062 H 
ATOM     36  C   LIG d   1       4.033  -0.119  -1.878  0.00  0.00    -0.061 A 
ATOM     37  H   LIG d   1       3.391  -2.160  -1.989  0.00  0.00     0.062 H 
ATOM     38  H   LIG d   1       3.203   0.177  -1.253  0.00  0.00     0.062 H 
ATOM     39  H   LIG d   1       4.863   1.832  -1.916  0.00  0.00     0.062 H 
ENDBRANCH  21  23
ENDBRANCH  10  18
BRANCH   1  40
ATOM     40  C   LIG d   1       9.014   5.919  -4.412  0.00  0.00     0.025 C 
ATOM     41  H   LIG d   1       8.630   4.901  -4.478  0.00  0.00     0.048 H 
ATOM     42  H   LIG d   1       8.211   6.624  -4.626  0.00  0.00     0.048 H 
BRANCH  40  43
ATOM     43  C   LIG d   1       9.545   6.166  -3.023  0.00  0.00    -0.033 A 
ATOM     44  C   LIG d   1       9.307   7.378  -2.400  0.00  0.00    -0.056 A 
ATOM     45  C   LIG d   1       9.790   7.608  -1.127  0.00  0.00    -0.040 A 
ATOM     46  H   LIG d   1       8.742   8.145  -2.910  0.00  0.00     0.062 H 
ATOM     47  C   LIG d   1      10.516   6.621  -0.472  0.00  0.00     0.029 A 
ATOM     48  H   LIG d   1       9.604   8.555  -0.641  0.00  0.00     0.064 H 
ATOM     49  C   LIG d   1      10.757   5.407  -1.103  0.00  0.00    -0.040 A 
ATOM     50  C   LIG d   1      10.266   5.182  -2.374  0.00  0.00    -0.056 A 
ATOM     51  H   LIG d   1      11.325   4.639  -0.599  0.00  0.00     0.064 H 
ATOM     52  H   LIG d   1      10.449   4.235  -2.863  0.00  0.00     0.062 H 
BRANCH  47  53
ATOM     53  N   LIG d   1      11.006   6.850   0.815  0.00  0.00    -0.336 N 
BRANCH  53  54
ATOM     54  C   LIG d   1      11.011   5.767   1.801  0.00  0.00     0.000 C 
ATOM     55  H   LIG d   1      11.491   4.887   1.372  0.00  0.00     0.043 H 
ATOM     56  H   LIG d   1      11.560   6.084   2.688  0.00  0.00     0.043 H 
ATOM     57  H   LIG d   1       9.985   5.523   2.077  0.00  0.00     0.043 H 
ENDBRANCH  53  54
BRANCH  53  58
ATOM     58  C   LIG d   1      11.517   8.174   1.179  0.00  0.00     0.000 C 
ATOM     59  H   LIG d   1      11.266   8.388   2.217  0.00  0.00     0.043 H 
ATOM     60  H   LIG d   1      12.601   8.191   1.057  0.00  0.00     0.043 H 
ATOM     61  H   LIG d   1      11.067   8.927   0.532  0.00  0.00     0.043 H 
ENDBRANCH  53  58
ENDBRANCH  47  53
ENDBRANCH  40  43
ENDBRANCH   1  40
TORSDOF 7
ENDMDL
MODEL 2
REMARK VINA RESULT:      -7.4      2.535      3.842
REMARK  7 active torsions:
REMARK  status: ('A' for Active; 'I' for Inactive)
REMARK    1  A    between atoms: C_1  and  N_2 
REMARK    2  A    between atoms: N_2  and  C_3 
REMARK    3  A    between atoms: N_2  and  C_4 
REMARK    4  A    between atoms: C_7  and  C_10 
REMARK    5  A    between atoms: C_10  and  N_11 
REMARK    6  A    between atoms: C_20  and  C_22 
REMARK    7  A    between atoms: C_24  and  C_27 
ROOT
ATOM      1  N   LIG d   1      11.948   3.811  -3.965  0.00  0.00    -0.279 N 
ATOM      2  C   LIG d   1      13.309   4.371  -3.894  0.00  0.00     0.066 C 
ATOM      3  C   LIG d   1      14.240   3.289  -3.407  0.00  0.00     0.159 A 
ATOM      4  C   LIG d   1      13.919   1.976  -3.410  0.00  0.00     0.148 A 
ATOM      5  N   LIG d   1      14.984   1.301  -2.905  0.00  0.00    -0.247 N 
ATOM      6  H   LIG d   1      15.054   0.341  -2.782  0.00  0.00     0.310 HD
ATOM      7  C   LIG d   1      15.930   2.222  -2.608  0.00  0.00     0.243 A 
ATOM      8  N   LIG d   1      15.474   3.409  -2.914  0.00  0.00    -0.246 N 
ATOM      9  C   LIG d   1      12.598   1.444  -3.906  0.00  0.00     0.037 C 
ATOM     10  C   LIG d   1      11.922   2.553  -4.725  0.00  0.00     0.098 C 
ATOM     11  H   LIG d   1      12.456   2.686  -5.666  0.00  0.00     0.057 H 
ATOM     12  H   LIG d   1      13.621   4.706  -4.883  0.00  0.00     0.051 H 
ATOM     13  H   LIG d   1      13.325   5.210  -3.199  0.00  0.00     0.051 H 
ATOM     14  H   LIG d   1      16.903   2.011  -2.188  0.00  0.00     0.158 H 
ATOM     15  H   LIG d   1      12.765   0.570  -4.535  0.00  0.00     0.037 H 
ATOM     16  H   LIG d   1      11.968   1.174  -3.058  0.00  0.00     0.037 H 
ATOM     17  H   LIG d   1      15.955   4.244  -2.800  0.00  0.00     0.310 HD
ENDROOT
BRANCH  10  18
ATOM     18  C   LIG d   1      10.494   2.167  -5.007  0.00  0.00     0.245 A 
ATOM     19  O   LIG d   1       9.858   2.318  -6.176  0.00  0.00    -0.336 OA
ATOM     20  N   LIG d   1       8.542   1.820  -5.986  0.00  0.00    -0.056 NA
ATOM     21  C   LIG d   1       8.475   1.420  -4.740  0.00  0.00     0.202 A 
ATOM     22  N   LIG d   1       9.665   1.635  -4.154  0.00  0.00    -0.190 NA
BRANCH  21  23
ATOM     23  C   LIG d   1       7.281   0.828  -4.085  0.00  0.00     0.023 A 
ATOM     24  C   LIG d   1       6.954  -0.492  -4.323  0.00  0.00    -0.043 A 
ATOM     25  C   LIG d   1       5.828  -1.048  -3.695  0.00  0.00    -0.017 A 
ATOM     26  H   LIG d   1       7.561  -1.094  -4.983  0.00  0.00     0.063 H 
ATOM     27  C   LIG d   1       5.039  -0.242  -2.836  0.00  0.00    -0.018 A 
ATOM     28  C   LIG d   1       5.465  -2.390  -3.907  0.00  0.00    -0.054 A 
ATOM     29  C   LIG d   1       5.397   1.101  -2.619  0.00  0.00    -0.053 A 
ATOM     30  C   LIG d   1       3.910  -0.802  -2.215  0.00  0.00    -0.054 A 
ATOM     31  C   LIG d   1       6.493   1.617  -3.232  0.00  0.00    -0.050 A 
ATOM     32  H   LIG d   1       4.800   1.719  -1.966  0.00  0.00     0.062 H 
ATOM     33  H   LIG d   1       6.761   2.650  -3.061  0.00  0.00     0.062 H 
ATOM     34  C   LIG d   1       3.589  -2.104  -2.444  0.00  0.00    -0.061 A 
ATOM     35  H   LIG d   1       3.299  -0.200  -1.557  0.00  0.00     0.062 H 
ATOM     36  C   LIG d   1       4.364  -2.896  -3.288  0.00  0.00    -0.061 A 
ATOM     37  H   LIG d   1       2.719  -2.531  -1.965  0.00  0.00     0.062 H 
ATOM     38  H   LIG d   1       4.088  -3.928  -3.453  0.00  0.00     0.062 H 
ATOM     39  H   LIG d   1       6.058  -3.016  -4.558  0.00  0.00     0.062 H 
ENDBRANCH  21  23
ENDBRANCH  10  18
BRANCH   1  40
ATOM     40  C   LIG d   1      11.007   4.787  -4.531  0.00  0.00     0.025 C 
ATOM     41  H   LIG d   1      10.080   4.282  -4.801  0.00  0.00     0.048 H 
ATOM     42  H   LIG d   1      11.445   5.242  -5.420  0.00  0.00     0.048 H 
BRANCH  40  43
ATOM     43  C   LIG d   1      10.717   5.856  -3.509  0.00  0.00    -0.033 A 
ATOM     44  C   LIG d   1      10.885   7.189  -3.839  0.00  0.00    -0.056 A 
ATOM     45  C   LIG d   1      10.619   8.171  -2.906  0.00  0.00    -0.040 A 
ATOM     46  H   LIG d   1      11.222   7.462  -4.828  0.00  0.00     0.062 H 
ATOM     47  C   LIG d   1      10.184   7.820  -1.634  0.00  0.00     0.029 A 
ATOM     48  H   LIG d   1      10.749   9.212  -3.164  0.00  0.00     0.064 H 
ATOM     49  C   LIG d   1      10.022   6.480  -1.304  0.00  0.00    -0.040 A 
ATOM     50  C   LIG d   1      10.285   5.503  -2.245  0.00  0.00    -0.056 A 
ATOM     51  H   LIG d   1       9.689   6.203  -0.316  0.00  0.00     0.064 H 
ATOM     52  H   LIG d   1      10.154   4.461  -1.990  0.00  0.00     0.062 H 
BRANCH  47  53
ATOM     53  N   LIG d   1       9.915   8.811  -0.688  0.00  0.00    -0.336 N 
BRANCH  53  54
ATOM     54  C   LIG d   1       8.671   9.581  -0.766  0.00  0.00     0.000 C 
ATOM     55  H   LIG d   1       8.677  10.360  -0.003  0.00  0.00     0.043 H 
ATOM     56  H   LIG d   1       8.589  10.039  -1.752  0.00  0.00     0.043 H 
ATOM     57  H   LIG d   1       7.822   8.918  -0.602  0.00  0.00     0.043 H 
ENDBRANCH  53  54
BRANCH  53  58
ATOM     58  C   LIG d   1      10.876   9.080   0.385  0.00  0.00     0.000 C 
ATOM     59  H   LIG d   1      11.302  10.073   0.250  0.00  0.00     0.043 H 
ATOM     60  H   LIG d   1      10.368   9.029   1.348  0.00  0.00     0.043 H 
ATOM     61  H   LIG d   1      11.672   8.335   0.354  0.00  0.00     0.043 H 
ENDBRANCH  53  58
ENDBRANCH  47  53
ENDBRANCH  40  43
ENDBRANCH   1  40
TORSDOF 7
ENDMDL
MODEL 3
REMARK VINA RESULT:      -7.4      5.539      9.754
REMARK  7 active torsions:
REMARK  status: ('A' for Active; 'I' for Inactive)
REMARK    1  A    between atoms: C_1  and  N_2 
REMARK    2  A    between atoms: N_2  and  C_3 
REMARK    3  A    between atoms: N_2  and  C_4 
REMARK    4  A    between atoms: C_7  and  C_10 
REMARK    5  A    between atoms: C_10  and  N_11 
REMARK    6  A    between atoms: C_20  and  C_22 
REMARK    7  A    between atoms: C_24  and  C_27 
ROOT
ATOM      1  N   LIG d   1      11.474  -5.453  -3.389  0.00  0.00    -0.279 N 
ATOM      2  C   LIG d   1      12.482  -6.479  -3.071  0.00  0.00     0.066 C 
ATOM      3  C   LIG d   1      12.055  -7.187  -1.809  0.00  0.00     0.159 A 
ATOM      4  C   LIG d   1      10.800  -7.122  -1.311  0.00  0.00     0.148 A 
ATOM      5  N   LIG d   1      10.779  -7.870  -0.177  0.00  0.00    -0.247 N 
ATOM      6  H   LIG d   1      10.017  -8.016   0.404  0.00  0.00     0.310 HD
ATOM      7  C   LIG d   1      12.025  -8.375  -0.015  0.00  0.00     0.243 A 
ATOM      8  N   LIG d   1      12.780  -7.959  -0.999  0.00  0.00    -0.246 N 
ATOM      9  C   LIG d   1       9.686  -6.342  -1.961  0.00  0.00     0.037 C 
ATOM     10  C   LIG d   1      10.117  -6.015  -3.398  0.00  0.00     0.098 C 
ATOM     11  H   LIG d   1      10.105  -6.926  -3.996  0.00  0.00     0.057 H 
ATOM     12  H   LIG d   1      12.548  -7.195  -3.890  0.00  0.00     0.051 H 
ATOM     13  H   LIG d   1      13.452  -6.006  -2.917  0.00  0.00     0.051 H 
ATOM     14  H   LIG d   1      12.343  -9.015   0.795  0.00  0.00     0.158 H 
ATOM     15  H   LIG d   1       8.775  -6.941  -1.976  0.00  0.00     0.037 H 
ATOM     16  H   LIG d   1       9.511  -5.418  -1.408  0.00  0.00     0.037 H 
ATOM     17  H   LIG d   1      13.717  -8.177  -1.120  0.00  0.00     0.310 HD
ENDROOT
BRANCH  10  18
ATOM     18  C   LIG d   1       9.162  -5.012  -3.992  0.00  0.00     0.245 A 
ATOM     19  O   LIG d   1       8.689  -5.027  -5.244  0.00  0.00    -0.336 OA
ATOM     20  N   LIG d   1       7.829  -3.904  -5.362  0.00  0.00    -0.056 NA
ATOM     21  C   LIG d   1       7.847  -3.300  -4.200  0.00  0.00     0.202 A 
ATOM     22  N   LIG d   1       8.660  -3.980  -3.374  0.00  0.00    -0.190 NA
BRANCH  21  23
ATOM     23  C   LIG d   1       7.095  -2.067  -3.854  0.00  0.00     0.023 A 
ATOM     24  C   LIG d   1       5.776  -2.159  -3.456  0.00  0.00    -0.043 A 
ATOM     25  C   LIG d   1       5.073  -0.991  -3.124  0.00  0.00    -0.017 A 
ATOM     26  H   LIG d   1       5.290  -3.122  -3.397  0.00  0.00     0.063 H 
ATOM     27  C   LIG d   1       5.724   0.265  -3.212  0.00  0.00    -0.018 A 
ATOM     28  C   LIG d   1       3.730  -1.042  -2.708  0.00  0.00    -0.054 A 
ATOM     29  C   LIG d   1       7.067   0.325  -3.625  0.00  0.00    -0.053 A 
ATOM     30  C   LIG d   1       5.014   1.433  -2.883  0.00  0.00    -0.054 A 
ATOM     31  C   LIG d   1       7.731  -0.818  -3.938  0.00  0.00    -0.050 A 
ATOM     32  H   LIG d   1       7.569   1.278  -3.694  0.00  0.00     0.062 H 
ATOM     33  H   LIG d   1       8.763  -0.765  -4.256  0.00  0.00     0.062 H 
ATOM     34  C   LIG d   1       3.716   1.344  -2.486  0.00  0.00    -0.061 A 
ATOM     35  H   LIG d   1       5.498   2.397  -2.946  0.00  0.00     0.062 H 
ATOM     36  C   LIG d   1       3.075   0.109  -2.399  0.00  0.00    -0.061 A 
ATOM     37  H   LIG d   1       3.173   2.243  -2.235  0.00  0.00     0.062 H 
ATOM     38  H   LIG d   1       2.043   0.066  -2.081  0.00  0.00     0.062 H 
ATOM     39  H   LIG d   1       3.221  -1.993  -2.636  0.00  0.00     0.062 H 
ENDBRANCH  21  23
ENDBRANCH  10  18
BRANCH   1  40
ATOM     40  C   LIG d   1      11.779  -4.793  -4.666  0.00  0.00     0.025 C 
ATOM     41  H   LIG d   1      10.881  -4.762  -5.281  0.00  0.00     0.048 H 
ATOM     42  H   LIG d   1      12.557  -5.351  -5.187  0.00  0.00     0.048 H 
BRANCH  40  43
ATOM     43  C   LIG d   1      12.258  -3.388  -4.403  0.00  0.00    -0.033 A 
ATOM     44  C   LIG d   1      11.464  -2.312  -4.757  0.00  0.00    -0.056 A 
ATOM     45  C   LIG d   1      11.898  -1.024  -4.516  0.00  0.00    -0.040 A 
ATOM     46  H   LIG d   1      10.503  -2.480  -5.221  0.00  0.00     0.062 H 
ATOM     47  C   LIG d   1      13.133  -0.808  -3.918  0.00  0.00     0.029 A 
ATOM     48  H   LIG d   1      11.277  -0.183  -4.792  0.00  0.00     0.064 H 
ATOM     49  C   LIG d   1      13.931  -1.891  -3.569  0.00  0.00    -0.040 A 
ATOM     50  C   LIG d   1      13.487  -3.178  -3.808  0.00  0.00    -0.056 A 
ATOM     51  H   LIG d   1      14.893  -1.728  -3.109  0.00  0.00     0.064 H 
ATOM     52  H   LIG d   1      14.105  -4.021  -3.532  0.00  0.00     0.062 H 
BRANCH  47  53
ATOM     53  N   LIG d   1      13.576   0.493  -3.674  0.00  0.00    -0.336 N 
BRANCH  53  54
ATOM     54  C   LIG d   1      12.667   1.626  -3.873  0.00  0.00     0.000 C 
ATOM     55  H   LIG d   1      12.024   1.428  -4.731  0.00  0.00     0.043 H 
ATOM     56  H   LIG d   1      12.054   1.761  -2.982  0.00  0.00     0.043 H 
ATOM     57  H   LIG d   1      13.249   2.529  -4.055  0.00  0.00     0.043 H 
ENDBRANCH  53  54
BRANCH  53  58
ATOM     58  C   LIG d   1      14.948   0.727  -3.218  0.00  0.00     0.000 C 
ATOM     59  H   LIG d   1      15.547   1.105  -4.045  0.00  0.00     0.043 H 
ATOM     60  H   LIG d   1      14.942   1.458  -2.409  0.00  0.00     0.043 H 
ATOM     61  H   LIG d   1      15.375  -0.209  -2.857  0.00  0.00     0.043 H 
ENDBRANCH  53  58
ENDBRANCH  47  53
ENDBRANCH  40  43
ENDBRANCH   1  40
TORSDOF 7
ENDMDL
MODEL 4
REMARK VINA RESULT:      -7.2      8.241     11.830
REMARK  7 active torsions:
REMARK  status: ('A' for Active; 'I' for Inactive)
REMARK    1  A    between atoms: C_1  and  N_2 
REMARK    2  A    between atoms: N_2  and  C_3 
REMARK    3  A    between atoms: N_2  and  C_4 
REMARK    4  A    between atoms: C_7  and  C_10 
REMARK    5  A    between atoms: C_10  and  N_11 
REMARK    6  A    between atoms: C_20  and  C_22 
REMARK    7  A    between atoms: C_24  and  C_27 
ROOT
ATOM      1  N   LIG d   1       2.632  -2.391 -11.610  0.00  0.00    -0.279 N 
ATOM      2  C   LIG d   1       2.277  -2.963 -12.920  0.00  0.00     0.066 C 
ATOM      3  C   LIG d   1       0.834  -2.628 -13.207  0.00  0.00     0.159 A 
ATOM      4  C   LIG d   1       0.150  -1.668 -12.546  0.00  0.00     0.148 A 
ATOM      5  N   LIG d   1      -1.108  -1.645 -13.060  0.00  0.00    -0.247 N 
ATOM      6  H   LIG d   1      -1.832  -1.061 -12.788  0.00  0.00     0.310 HD
ATOM      7  C   LIG d   1      -1.156  -2.592 -14.026  0.00  0.00     0.243 A 
ATOM      8  N   LIG d   1       0.013  -3.174 -14.106  0.00  0.00    -0.246 N 
ATOM      9  C   LIG d   1       0.750  -0.821 -11.452  0.00  0.00     0.037 C 
ATOM     10  C   LIG d   1       2.276  -0.967 -11.529  0.00  0.00     0.098 C 
ATOM     11  H   LIG d   1       2.645  -0.450 -12.415  0.00  0.00     0.057 H 
ATOM     12  H   LIG d   1       2.915  -2.534 -13.693  0.00  0.00     0.051 H 
ATOM     13  H   LIG d   1       2.405  -4.045 -12.895  0.00  0.00     0.051 H 
ATOM     14  H   LIG d   1      -2.019  -2.829 -14.632  0.00  0.00     0.158 H 
ATOM     15  H   LIG d   1       0.470   0.222 -11.598  0.00  0.00     0.037 H 
ATOM     16  H   LIG d   1       0.394  -1.167 -10.481  0.00  0.00     0.037 H 
ATOM     17  H   LIG d   1       0.246  -3.888 -14.719  0.00  0.00     0.310 HD
ENDROOT
BRANCH  10  18
ATOM     18  C   LIG d   1       2.900  -0.363 -10.298  0.00  0.00     0.245 A 
ATOM     19  O   LIG d   1       3.787   0.640 -10.282  0.00  0.00    -0.336 OA
ATOM     20  N   LIG d   1       4.096   0.881  -8.917  0.00  0.00    -0.056 NA
ATOM     21  C   LIG d   1       3.395   0.020  -8.221  0.00  0.00     0.202 A 
ATOM     22  N   LIG d   1       2.672  -0.731  -9.070  0.00  0.00    -0.190 NA
BRANCH  21  23
ATOM     23  C   LIG d   1       3.400  -0.105  -6.742  0.00  0.00     0.023 A 
ATOM     24  C   LIG d   1       4.330  -0.920  -6.127  0.00  0.00    -0.043 A 
ATOM     25  C   LIG d   1       4.334  -1.030  -4.728  0.00  0.00    -0.017 A 
ATOM     26  H   LIG d   1       5.050  -1.467  -6.718  0.00  0.00     0.063 H 
ATOM     27  C   LIG d   1       3.377  -0.310  -3.969  0.00  0.00    -0.018 A 
ATOM     28  C   LIG d   1       5.268  -1.845  -4.064  0.00  0.00    -0.054 A 
ATOM     29  C   LIG d   1       2.440   0.509  -4.626  0.00  0.00    -0.053 A 
ATOM     30  C   LIG d   1       3.382  -0.427  -2.569  0.00  0.00    -0.054 A 
ATOM     31  C   LIG d   1       2.457   0.604  -5.980  0.00  0.00    -0.050 A 
ATOM     32  H   LIG d   1       1.710   1.059  -4.054  0.00  0.00     0.062 H 
ATOM     33  H   LIG d   1       1.734   1.234  -6.479  0.00  0.00     0.062 H 
ATOM     34  C   LIG d   1       4.300  -1.226  -1.961  0.00  0.00    -0.061 A 
ATOM     35  H   LIG d   1       2.659   0.116  -1.977  0.00  0.00     0.062 H 
ATOM     36  C   LIG d   1       5.241  -1.934  -2.707  0.00  0.00    -0.061 A 
ATOM     37  H   LIG d   1       4.300  -1.314  -0.884  0.00  0.00     0.062 H 
ATOM     38  H   LIG d   1       5.959  -2.561  -2.200  0.00  0.00     0.062 H 
ATOM     39  H   LIG d   1       6.003  -2.399  -4.630  0.00  0.00     0.062 H 
ENDBRANCH  21  23
ENDBRANCH  10  18
BRANCH   1  40
ATOM     40  C   LIG d   1       4.057  -2.595 -11.315  0.00  0.00     0.025 C 
ATOM     41  H   LIG d   1       4.524  -1.634 -11.101  0.00  0.00     0.048 H 
ATOM     42  H   LIG d   1       4.544  -3.052 -12.176  0.00  0.00     0.048 H 
BRANCH  40  43
ATOM     43  C   LIG d   1       4.197  -3.499 -10.117  0.00  0.00    -0.033 A 
ATOM     44  C   LIG d   1       3.214  -4.432  -9.840  0.00  0.00    -0.056 A 
ATOM     45  C   LIG d   1       3.340  -5.264  -8.745  0.00  0.00    -0.040 A 
ATOM     46  H   LIG d   1       2.349  -4.512 -10.482  0.00  0.00     0.062 H 
ATOM     47  C   LIG d   1       4.453  -5.162  -7.921  0.00  0.00     0.029 A 
ATOM     48  H   LIG d   1       2.572  -5.993  -8.529  0.00  0.00     0.064 H 
ATOM     49  C   LIG d   1       5.435  -4.219  -8.199  0.00  0.00    -0.040 A 
ATOM     50  C   LIG d   1       5.306  -3.395  -9.300  0.00  0.00    -0.056 A 
ATOM     51  H   LIG d   1       6.300  -4.134  -7.559  0.00  0.00     0.064 H 
ATOM     52  H   LIG d   1       6.072  -2.665  -9.519  0.00  0.00     0.062 H 
BRANCH  47  53
ATOM     53  N   LIG d   1       4.583  -6.001  -6.812  0.00  0.00    -0.336 N 
BRANCH  53  54
ATOM     54  C   LIG d   1       4.721  -5.427  -5.471  0.00  0.00     0.000 C 
ATOM     55  H   LIG d   1       4.233  -4.452  -5.441  0.00  0.00     0.043 H 
ATOM     56  H   LIG d   1       4.254  -6.089  -4.742  0.00  0.00     0.043 H 
ATOM     57  H   LIG d   1       5.778  -5.311  -5.233  0.00  0.00     0.043 H 
ENDBRANCH  53  54
BRANCH  53  58
ATOM     58  C   LIG d   1       4.582  -7.455  -6.989  0.00  0.00     0.000 C 
ATOM     59  H   LIG d   1       5.300  -7.728  -7.761  0.00  0.00     0.043 H 
ATOM     60  H   LIG d   1       4.857  -7.935  -6.050  0.00  0.00     0.043 H 
ATOM     61  H   LIG d   1       3.585  -7.783  -7.287  0.00  0.00     0.043 H 
ENDBRANCH  53  58
ENDBRANCH  47  53
ENDBRANCH  40  43
ENDBRANCH   1  40
TORSDOF 7
ENDMDL
MODEL 5
REMARK VINA RESULT:      -7.2      3.820      6.747
REMARK  7 active torsions:
REMARK  status: ('A' for Active; 'I' for Inactive)
REMARK    1  A    between atoms: C_1  and  N_2 
REMARK    2  A    between atoms: N_2  and  C_3 
REMARK    3  A    between atoms: N_2  and  C_4 
REMARK    4  A    between atoms: C_7  and  C_10 
REMARK    5  A    between atoms: C_10  and  N_11 
REMARK    6  A    between atoms: C_20  and  C_22 
REMARK    7  A    between atoms: C_24  and  C_27 
ROOT
ATOM      1  N   LIG d   1       9.068   3.232  -8.848  0.00  0.00    -0.279 N 
ATOM      2  C   LIG d   1       9.536   4.086  -9.953  0.00  0.00     0.066 C 
ATOM      3  C   LIG d   1       9.688   5.494  -9.431  0.00  0.00     0.159 A 
ATOM      4  C   LIG d   1       9.742   5.795  -8.114  0.00  0.00     0.148 A 
ATOM      5  N   LIG d   1       9.878   7.143  -8.016  0.00  0.00    -0.247 N 
ATOM      6  H   LIG d   1       9.943   7.659  -7.197  0.00  0.00     0.310 HD
ATOM      7  C   LIG d   1       9.907   7.629  -9.279  0.00  0.00     0.243 A 
ATOM      8  N   LIG d   1       9.793   6.632 -10.118  0.00  0.00    -0.246 N 
ATOM      9  C   LIG d   1       9.661   4.761  -7.020  0.00  0.00     0.037 C 
ATOM     10  C   LIG d   1       9.911   3.385  -7.654  0.00  0.00     0.098 C 
ATOM     11  H   LIG d   1      10.961   3.302  -7.937  0.00  0.00     0.057 H 
ATOM     12  H   LIG d   1      10.497   3.723 -10.316  0.00  0.00     0.051 H 
ATOM     13  H   LIG d   1       8.807   4.072 -10.763  0.00  0.00     0.051 H 
ATOM     14  H   LIG d   1      10.007   8.671  -9.550  0.00  0.00     0.158 H 
ATOM     15  H   LIG d   1      10.420   4.963  -6.264  0.00  0.00     0.037 H 
ATOM     16  H   LIG d   1       8.670   4.783  -6.564  0.00  0.00     0.037 H 
ATOM     17  H   LIG d   1       9.786   6.708 -11.085  0.00  0.00     0.310 HD
ENDROOT
BRANCH  10  18
ATOM     18  C   LIG d   1       9.573   2.305  -6.659  0.00  0.00     0.245 A 
ATOM     19  O   LIG d   1      10.410   1.359  -6.215  0.00  0.00    -0.336 OA
ATOM     20  N   LIG d   1       9.671   0.568  -5.297  0.00  0.00    -0.056 NA
ATOM     21  C   LIG d   1       8.464   1.076  -5.257  0.00  0.00     0.202 A 
ATOM     22  N   LIG d   1       8.414   2.132  -6.089  0.00  0.00    -0.190 NA
BRANCH  21  23
ATOM     23  C   LIG d   1       7.339   0.570  -4.432  0.00  0.00     0.023 A 
ATOM     24  C   LIG d   1       6.871  -0.715  -4.628  0.00  0.00    -0.043 A 
ATOM     25  C   LIG d   1       5.811  -1.190  -3.840  0.00  0.00    -0.017 A 
ATOM     26  H   LIG d   1       7.318  -1.350  -5.378  0.00  0.00     0.063 H 
ATOM     27  C   LIG d   1       5.231  -0.341  -2.864  0.00  0.00    -0.018 A 
ATOM     28  C   LIG d   1       5.309  -2.494  -4.005  0.00  0.00    -0.054 A 
ATOM     29  C   LIG d   1       5.728   0.963  -2.692  0.00  0.00    -0.053 A 
ATOM     30  C   LIG d   1       4.167  -0.820  -2.081  0.00  0.00    -0.054 A 
ATOM     31  C   LIG d   1       6.758   1.402  -3.462  0.00  0.00    -0.050 A 
ATOM     32  H   LIG d   1       5.292   1.615  -1.951  0.00  0.00     0.062 H 
ATOM     33  H   LIG d   1       7.134   2.406  -3.325  0.00  0.00     0.062 H 
ATOM     34  C   LIG d   1       3.707  -2.086  -2.269  0.00  0.00    -0.061 A 
ATOM     35  H   LIG d   1       3.715  -0.184  -1.333  0.00  0.00     0.062 H 
ATOM     36  C   LIG d   1       4.276  -2.921  -3.229  0.00  0.00    -0.061 A 
ATOM     37  H   LIG d   1       2.887  -2.451  -1.667  0.00  0.00     0.062 H 
ATOM     38  H   LIG d   1       3.893  -3.923  -3.359  0.00  0.00     0.062 H 
ATOM     39  H   LIG d   1       5.741  -3.152  -4.745  0.00  0.00     0.062 H 
ENDBRANCH  21  23
ENDBRANCH  10  18
BRANCH   1  40
ATOM     40  C   LIG d   1       8.996   1.825  -9.265  0.00  0.00     0.025 C 
ATOM     41  H   LIG d   1       9.531   1.206  -8.545  0.00  0.00     0.048 H 
ATOM     42  H   LIG d   1       9.452   1.714 -10.249  0.00  0.00     0.048 H 
BRANCH  40  43
ATOM     43  C   LIG d   1       7.554   1.393  -9.326  0.00  0.00    -0.033 A 
ATOM     44  C   LIG d   1       7.239   0.081  -9.631  0.00  0.00    -0.056 A 
ATOM     45  C   LIG d   1       5.919  -0.319  -9.685  0.00  0.00    -0.040 A 
ATOM     46  H   LIG d   1       8.027  -0.632  -9.825  0.00  0.00     0.062 H 
ATOM     47  C   LIG d   1       4.906   0.598  -9.435  0.00  0.00     0.029 A 
ATOM     48  H   LIG d   1       5.674  -1.344  -9.924  0.00  0.00     0.064 H 
ATOM     49  C   LIG d   1       5.225   1.916  -9.134  0.00  0.00    -0.040 A 
ATOM     50  C   LIG d   1       6.548   2.308  -9.075  0.00  0.00    -0.056 A 
ATOM     51  H   LIG d   1       4.441   2.633  -8.943  0.00  0.00     0.064 H 
ATOM     52  H   LIG d   1       6.797   3.332  -8.836  0.00  0.00     0.062 H 
BRANCH  47  53
ATOM     53  N   LIG d   1       3.569   0.197  -9.490  0.00  0.00    -0.336 N 
BRANCH  53  54
ATOM     54  C   LIG d   1       2.811  -0.001  -8.252  0.00  0.00     0.000 C 
ATOM     55  H   LIG d   1       2.517   0.968  -7.848  0.00  0.00     0.043 H 
ATOM     56  H   LIG d   1       1.921  -0.593  -8.461  0.00  0.00     0.043 H 
ATOM     57  H   LIG d   1       3.433  -0.524  -7.525  0.00  0.00     0.043 H 
ENDBRANCH  53  54
BRANCH  53  58
ATOM     58  C   LIG d   1       2.924  -0.026 -10.787  0.00  0.00     0.000 C 
ATOM     59  H   LIG d   1       1.842   0.009 -10.665  0.00  0.00     0.043 H 
ATOM     60  H   LIG d   1       3.237   0.750 -11.485  0.00  0.00     0.043 H 
ATOM     61  H   LIG d   1       3.216  -1.003 -11.174  0.00  0.00     0.043 H 
ENDBRANCH  53  58
ENDBRANCH  47  53
ENDBRANCH  40  43
ENDBRANCH   1  40
TORSDOF 7
ENDMDL
MODEL 6
REMARK VINA RESULT:      -7.2      2.727      5.778
REMARK  7 active torsions:
REMARK  status: ('A' for Active; 'I' for Inactive)
REMARK    1  A    between atoms: C_1  and  N_2 
REMARK    2  A    between atoms: N_2  and  C_3 
REMARK    3  A    between atoms: N_2  and  C_4 
REMARK    4  A    between atoms: C_7  and  C_10 
REMARK    5  A    between atoms: C_10  and  N_11 
REMARK    6  A    between atoms: C_20  and  C_22 
REMARK    7  A    between atoms: C_24  and  C_27 
ROOT
ATOM      1  N   LIG d   1       9.969   4.776  -6.991  0.00  0.00    -0.279 N 
ATOM      2  C   LIG d   1      10.478   5.997  -7.637  0.00  0.00     0.066 C 
ATOM      3  C   LIG d   1       9.951   7.190  -6.878  0.00  0.00     0.159 A 
ATOM      4  C   LIG d   1       9.431   7.105  -5.633  0.00  0.00     0.148 A 
ATOM      5  N   LIG d   1       9.060   8.360  -5.267  0.00  0.00    -0.247 N 
ATOM      6  H   LIG d   1       8.654   8.620  -4.426  0.00  0.00     0.310 HD
ATOM      7  C   LIG d   1       9.367   9.179  -6.301  0.00  0.00     0.243 A 
ATOM      8  N   LIG d   1       9.901   8.467  -7.259  0.00  0.00    -0.246 N 
ATOM      9  C   LIG d   1       9.324   5.815  -4.861  0.00  0.00     0.037 C 
ATOM     10  C   LIG d   1      10.231   4.781  -5.545  0.00  0.00     0.098 C 
ATOM     11  H   LIG d   1      11.275   5.041  -5.366  0.00  0.00     0.057 H 
ATOM     12  H   LIG d   1      11.568   5.999  -7.613  0.00  0.00     0.051 H 
ATOM     13  H   LIG d   1      10.133   6.038  -8.670  0.00  0.00     0.051 H 
ATOM     14  H   LIG d   1       9.197  10.246  -6.329  0.00  0.00     0.158 H 
ATOM     15  H   LIG d   1       9.651   5.971  -3.834  0.00  0.00     0.037 H 
ATOM     16  H   LIG d   1       8.291   5.463  -4.872  0.00  0.00     0.037 H 
ATOM     17  H   LIG d   1      10.210   8.812  -8.111  0.00  0.00     0.310 HD
ENDROOT
BRANCH  10  18
ATOM     18  C   LIG d   1       9.950   3.414  -4.979  0.00  0.00     0.245 A 
ATOM     19  O   LIG d   1      10.870   2.533  -4.566  0.00  0.00    -0.336 OA
ATOM     20  N   LIG d   1      10.157   1.392  -4.112  0.00  0.00    -0.056 NA
ATOM     21  C   LIG d   1       8.886   1.656  -4.283  0.00  0.00     0.202 A 
ATOM     22  N   LIG d   1       8.770   2.888  -4.812  0.00  0.00    -0.190 NA
BRANCH  21  23
ATOM     23  C   LIG d   1       7.761   0.747  -3.952  0.00  0.00     0.023 A 
ATOM     24  C   LIG d   1       6.586   1.268  -3.446  0.00  0.00    -0.043 A 
ATOM     25  C   LIG d   1       5.523   0.404  -3.141  0.00  0.00    -0.017 A 
ATOM     26  H   LIG d   1       6.484   2.332  -3.288  0.00  0.00     0.063 H 
ATOM     27  C   LIG d   1       5.675  -0.991  -3.348  0.00  0.00    -0.018 A 
ATOM     28  C   LIG d   1       4.308   0.895  -2.628  0.00  0.00    -0.054 A 
ATOM     29  C   LIG d   1       6.886  -1.490  -3.861  0.00  0.00    -0.053 A 
ATOM     30  C   LIG d   1       4.610  -1.853  -3.036  0.00  0.00    -0.054 A 
ATOM     31  C   LIG d   1       7.900  -0.636  -4.154  0.00  0.00    -0.050 A 
ATOM     32  H   LIG d   1       7.008  -2.550  -4.021  0.00  0.00     0.062 H 
ATOM     33  H   LIG d   1       8.828  -1.026  -4.547  0.00  0.00     0.062 H 
ATOM     34  C   LIG d   1       3.450  -1.341  -2.541  0.00  0.00    -0.061 A 
ATOM     35  H   LIG d   1       4.711  -2.917  -3.188  0.00  0.00     0.062 H 
ATOM     36  C   LIG d   1       3.300   0.030  -2.337  0.00  0.00    -0.061 A 
ATOM     37  H   LIG d   1       2.634  -2.006  -2.301  0.00  0.00     0.062 H 
ATOM     38  H   LIG d   1       2.369   0.411  -1.944  0.00  0.00     0.062 H 
ATOM     39  H   LIG d   1       4.178   1.955  -2.466  0.00  0.00     0.062 H 
ENDBRANCH  21  23
ENDBRANCH  10  18
BRANCH   1  40
ATOM     40  C   LIG d   1      10.529   3.574  -7.623  0.00  0.00     0.025 C 
ATOM     41  H   LIG d   1      11.149   3.041  -6.903  0.00  0.00     0.048 H 
ATOM     42  H   LIG d   1      11.136   3.863  -8.481  0.00  0.00     0.048 H 
BRANCH  40  43
ATOM     43  C   LIG d   1       9.406   2.678  -8.079  0.00  0.00    -0.033 A 
ATOM     44  C   LIG d   1       9.509   1.308  -7.918  0.00  0.00    -0.056 A 
ATOM     45  C   LIG d   1       8.481   0.484  -8.333  0.00  0.00    -0.040 A 
ATOM     46  H   LIG d   1      10.392   0.882  -7.466  0.00  0.00     0.062 H 
ATOM     47  C   LIG d   1       7.344   1.032  -8.914  0.00  0.00     0.029 A 
ATOM     48  H   LIG d   1       8.561  -0.586  -8.207  0.00  0.00     0.064 H 
ATOM     49  C   LIG d   1       7.247   2.408  -9.079  0.00  0.00    -0.040 A 
ATOM     50  C   LIG d   1       8.277   3.226  -8.657  0.00  0.00    -0.056 A 
ATOM     51  H   LIG d   1       6.368   2.837  -9.534  0.00  0.00     0.064 H 
ATOM     52  H   LIG d   1       8.199   4.297  -8.780  0.00  0.00     0.062 H 
BRANCH  47  53
ATOM     53  N   LIG d   1       6.304   0.202  -9.335  0.00  0.00    -0.336 N 
BRANCH  53  54
ATOM     54  C   LIG d   1       6.603  -1.059 -10.020  0.00  0.00     0.000 C 
ATOM     55  H   LIG d   1       6.044  -1.868  -9.551  0.00  0.00     0.043 H 
ATOM     56  H   LIG d   1       6.316  -0.979 -11.069  0.00  0.00     0.043 H 
ATOM     57  H   LIG d   1       7.671  -1.265  -9.950  0.00  0.00     0.043 H 
ENDBRANCH  53  54
BRANCH  53  58
ATOM     58  C   LIG d   1       4.912   0.591  -9.093  0.00  0.00     0.000 C 
ATOM     59  H   LIG d   1       4.840   1.106  -8.136  0.00  0.00     0.043 H 
ATOM     60  H   LIG d   1       4.577   1.255  -9.890  0.00  0.00     0.043 H 
ATOM     61  H   LIG d   1       4.284  -0.300  -9.075  0.00  0.00     0.043 H 
ENDBRANCH  53  58
ENDBRANCH  47  53
ENDBRANCH  40  43
ENDBRANCH   1  40
TORSDOF 7
ENDMDL
MODEL 7
REMARK VINA RESULT:      -7.1      2.319      5.845
REMARK  7 active torsions:
REMARK  status: ('A' for Active; 'I' for Inactive)
REMARK    1  A    between atoms: C_1  and  N_2 
REMARK    2  A    between atoms: N_2  and  C_3 
REMARK    3  A    between atoms: N_2  and  C_4 
REMARK    4  A    between atoms: C_7  and  C_10 
REMARK    5  A    between atoms: C_10  and  N_11 
REMARK    6  A    between atoms: C_20  and  C_22 
REMARK    7  A    between atoms: C_24  and  C_27 
ROOT
ATOM      1  N   LIG d   1       9.947   5.437  -6.076  0.00  0.00    -0.279 N 
ATOM      2  C   LIG d   1      10.519   6.765  -6.353  0.00  0.00     0.066 C 
ATOM      3  C   LIG d   1      10.217   7.665  -5.181  0.00  0.00     0.159 A 
ATOM      4  C   LIG d   1       9.827   7.202  -3.972  0.00  0.00     0.148 A 
ATOM      5  N   LIG d   1       9.643   8.283  -3.169  0.00  0.00    -0.247 N 
ATOM      6  H   LIG d   1       9.362   8.271  -2.241  0.00  0.00     0.310 HD
ATOM      7  C   LIG d   1       9.928   9.378  -3.911  0.00  0.00     0.243 A 
ATOM      8  N   LIG d   1      10.271   8.996  -5.114  0.00  0.00    -0.246 N 
ATOM      9  C   LIG d   1       9.658   5.738  -3.656  0.00  0.00     0.037 C 
ATOM     10  C   LIG d   1      10.363   4.934  -4.759  0.00  0.00     0.098 C 
ATOM     11  H   LIG d   1      11.442   5.043  -4.653  0.00  0.00     0.057 H 
ATOM     12  H   LIG d   1      11.599   6.680  -6.482  0.00  0.00     0.051 H 
ATOM     13  H   LIG d   1      10.072   7.176  -7.258  0.00  0.00     0.051 H 
ATOM     14  H   LIG d   1       9.879  10.401  -3.567  0.00  0.00     0.158 H 
ATOM     15  H   LIG d   1      10.110   5.514  -2.690  0.00  0.00     0.037 H 
ATOM     16  H   LIG d   1       8.597   5.485  -3.636  0.00  0.00     0.037 H 
ATOM     17  H   LIG d   1      10.524   9.585  -5.842  0.00  0.00     0.310 HD
ENDROOT
BRANCH  10  18
ATOM     18  C   LIG d   1       9.990   3.480  -4.635  0.00  0.00     0.245 A 
ATOM     19  O   LIG d   1      10.807   2.441  -4.850  0.00  0.00    -0.336 OA
ATOM     20  N   LIG d   1      10.038   1.271  -4.618  0.00  0.00    -0.056 NA
ATOM     21  C   LIG d   1       8.836   1.676  -4.292  0.00  0.00     0.202 A 
ATOM     22  N   LIG d   1       8.816   3.020  -4.306  0.00  0.00    -0.190 NA
BRANCH  21  23
ATOM     23  C   LIG d   1       7.686   0.796  -3.964  0.00  0.00     0.023 A 
ATOM     24  C   LIG d   1       6.534   1.345  -3.436  0.00  0.00    -0.043 A 
ATOM     25  C   LIG d   1       5.447   0.509  -3.133  0.00  0.00    -0.017 A 
ATOM     26  H   LIG d   1       6.467   2.408  -3.259  0.00  0.00     0.063 H 
ATOM     27  C   LIG d   1       5.553  -0.885  -3.366  0.00  0.00    -0.018 A 
ATOM     28  C   LIG d   1       4.254   1.030  -2.599  0.00  0.00    -0.054 A 
ATOM     29  C   LIG d   1       6.742  -1.413  -3.901  0.00  0.00    -0.053 A 
ATOM     30  C   LIG d   1       4.464  -1.718  -3.057  0.00  0.00    -0.054 A 
ATOM     31  C   LIG d   1       7.780  -0.586  -4.191  0.00  0.00    -0.050 A 
ATOM     32  H   LIG d   1       6.829  -2.474  -4.081  0.00  0.00     0.062 H 
ATOM     33  H   LIG d   1       8.691  -0.999  -4.601  0.00  0.00     0.062 H 
ATOM     34  C   LIG d   1       3.327  -1.179  -2.541  0.00  0.00    -0.061 A 
ATOM     35  H   LIG d   1       4.531  -2.783  -3.229  0.00  0.00     0.062 H 
ATOM     36  C   LIG d   1       3.222   0.192  -2.312  0.00  0.00    -0.061 A 
ATOM     37  H   LIG d   1       2.492  -1.823  -2.304  0.00  0.00     0.062 H 
ATOM     38  H   LIG d   1       2.308   0.595  -1.902  0.00  0.00     0.062 H 
ATOM     39  H   LIG d   1       4.159   2.091  -2.418  0.00  0.00     0.062 H 
ENDBRANCH  21  23
ENDBRANCH  10  18
BRANCH   1  40
ATOM     40  C   LIG d   1      10.295   4.481  -7.137  0.00  0.00     0.025 C 
ATOM     41  H   LIG d   1       9.664   3.597  -7.050  0.00  0.00     0.048 H 
ATOM     42  H   LIG d   1      11.341   4.192  -7.037  0.00  0.00     0.048 H 
BRANCH  40  43
ATOM     43  C   LIG d   1      10.077   5.124  -8.482  0.00  0.00    -0.033 A 
ATOM     44  C   LIG d   1      11.164   5.515  -9.244  0.00  0.00    -0.056 A 
ATOM     45  C   LIG d   1      10.967   6.102 -10.478  0.00  0.00    -0.040 A 
ATOM     46  H   LIG d   1      12.166   5.358  -8.874  0.00  0.00     0.062 H 
ATOM     47  C   LIG d   1       9.678   6.302 -10.954  0.00  0.00     0.029 A 
ATOM     48  H   LIG d   1      11.817   6.407 -11.073  0.00  0.00     0.064 H 
ATOM     49  C   LIG d   1       8.589   5.915 -10.184  0.00  0.00    -0.040 A 
ATOM     50  C   LIG d   1       8.792   5.322  -8.953  0.00  0.00    -0.056 A 
ATOM     51  H   LIG d   1       7.585   6.073 -10.547  0.00  0.00     0.064 H 
ATOM     52  H   LIG d   1       7.945   5.015  -8.355  0.00  0.00     0.062 H 
BRANCH  47  53
ATOM     53  N   LIG d   1       9.476   6.897 -12.201  0.00  0.00    -0.336 N 
BRANCH  53  54
ATOM     54  C   LIG d   1       9.928   8.270 -12.440  0.00  0.00     0.000 C 
ATOM     55  H   LIG d   1      10.126   8.408 -13.504  0.00  0.00     0.043 H 
ATOM     56  H   LIG d   1       9.154   8.968 -12.122  0.00  0.00     0.043 H 
ATOM     57  H   LIG d   1      10.841   8.456 -11.874  0.00  0.00     0.043 H 
ENDBRANCH  53  54
BRANCH  53  58
ATOM     58  C   LIG d   1       8.812   6.148 -13.271  0.00  0.00     0.000 C 
ATOM     59  H   LIG d   1       8.922   5.080 -13.090  0.00  0.00     0.043 H 
ATOM     60  H   LIG d   1       7.753   6.407 -13.291  0.00  0.00     0.043 H 
ATOM     61  H   LIG d   1       9.266   6.404 -14.229  0.00  0.00     0.043 H 
ENDBRANCH  53  58
ENDBRANCH  47  53
ENDBRANCH  40  43
ENDBRANCH   1  40
TORSDOF 7
ENDMDL
MODEL 8
REMARK VINA RESULT:      -6.8      1.521      2.069
REMARK  7 active torsions:
REMARK  status: ('A' for Active; 'I' for Inactive)
REMARK    1  A    between atoms: C_1  and  N_2 
REMARK    2  A    between atoms: N_2  and  C_3 
REMARK    3  A    between atoms: N_2  and  C_4 
REMARK    4  A    between atoms: C_7  and  C_10 
REMARK    5  A    between atoms: C_10  and  N_11 
REMARK    6  A    between atoms: C_20  and  C_22 
REMARK    7  A    between atoms: C_24  and  C_27 
ROOT
ATOM      1  N   LIG d   1      10.774   5.324  -5.935  0.00  0.00    -0.279 N 
ATOM      2  C   LIG d   1      11.197   6.122  -7.098  0.00  0.00     0.066 C 
ATOM      3  C   LIG d   1      12.487   5.543  -7.625  0.00  0.00     0.159 A 
ATOM      4  C   LIG d   1      12.933   4.308  -7.302  0.00  0.00     0.148 A 
ATOM      5  N   LIG d   1      14.113   4.125  -7.949  0.00  0.00    -0.247 N 
ATOM      6  H   LIG d   1      14.674   3.335  -7.914  0.00  0.00     0.310 HD
ATOM      7  C   LIG d   1      14.355   5.255  -8.654  0.00  0.00     0.243 A 
ATOM      8  N   LIG d   1      13.375   6.097  -8.453  0.00  0.00    -0.246 N 
ATOM      9  C   LIG d   1      12.190   3.370  -6.385  0.00  0.00     0.037 C 
ATOM     10  C   LIG d   1      10.752   3.888  -6.245  0.00  0.00     0.098 C 
ATOM     11  H   LIG d   1      10.216   3.727  -7.181  0.00  0.00     0.057 H 
ATOM     12  H   LIG d   1      10.432   6.078  -7.873  0.00  0.00     0.051 H 
ATOM     13  H   LIG d   1      11.356   7.157  -6.796  0.00  0.00     0.051 H 
ATOM     14  H   LIG d   1      15.218   5.433  -9.280  0.00  0.00     0.158 H 
ATOM     15  H   LIG d   1      12.182   2.367  -6.812  0.00  0.00     0.037 H 
ATOM     16  H   LIG d   1      12.673   3.351  -5.407  0.00  0.00     0.037 H 
ATOM     17  H   LIG d   1      13.303   6.982  -8.843  0.00  0.00     0.310 HD
ENDROOT
BRANCH  10  18
ATOM     18  C   LIG d   1      10.057   3.145  -5.135  0.00  0.00     0.245 A 
ATOM     19  O   LIG d   1      10.374   3.202  -3.835  0.00  0.00    -0.336 OA
ATOM     20  N   LIG d   1       9.461   2.351  -3.160  0.00  0.00    -0.056 NA
ATOM     21  C   LIG d   1       8.677   1.845  -4.080  0.00  0.00     0.202 A 
ATOM     22  N   LIG d   1       9.047   2.333  -5.277  0.00  0.00    -0.190 NA
BRANCH  21  23
ATOM     23  C   LIG d   1       7.566   0.891  -3.840  0.00  0.00     0.023 A 
ATOM     24  C   LIG d   1       6.363   1.351  -3.342  0.00  0.00    -0.043 A 
ATOM     25  C   LIG d   1       5.314   0.445  -3.124  0.00  0.00    -0.017 A 
ATOM     26  H   LIG d   1       6.229   2.401  -3.125  0.00  0.00     0.063 H 
ATOM     27  C   LIG d   1       5.509  -0.930  -3.409  0.00  0.00    -0.018 A 
ATOM     28  C   LIG d   1       4.072   0.875  -2.623  0.00  0.00    -0.054 A 
ATOM     29  C   LIG d   1       6.747  -1.368  -3.911  0.00  0.00    -0.053 A 
ATOM     30  C   LIG d   1       4.457  -1.835  -3.184  0.00  0.00    -0.054 A 
ATOM     31  C   LIG d   1       7.748  -0.474  -4.120  0.00  0.00    -0.050 A 
ATOM     32  H   LIG d   1       6.902  -2.413  -4.131  0.00  0.00     0.062 H 
ATOM     33  H   LIG d   1       8.697  -0.817  -4.505  0.00  0.00     0.062 H 
ATOM     34  C   LIG d   1       3.270  -1.382  -2.698  0.00  0.00    -0.061 A 
ATOM     35  H   LIG d   1       4.591  -2.886  -3.396  0.00  0.00     0.062 H 
ATOM     36  C   LIG d   1       3.078  -0.031  -2.417  0.00  0.00    -0.061 A 
ATOM     37  H   LIG d   1       2.463  -2.080  -2.525  0.00  0.00     0.062 H 
ATOM     38  H   LIG d   1       2.125   0.303  -2.032  0.00  0.00     0.062 H 
ATOM     39  H   LIG d   1       3.909   1.920  -2.402  0.00  0.00     0.062 H 
ENDBRANCH  21  23
ENDBRANCH  10  18
BRANCH   1  40
ATOM     40  C   LIG d   1       9.468   5.775  -5.435  0.00  0.00     0.025 C 
ATOM     41  H   LIG d   1       8.894   4.914  -5.093  0.00  0.00     0.048 H 
ATOM     42  H   LIG d   1       8.926   6.277  -6.236  0.00  0.00     0.048 H 
BRANCH  40  43
ATOM     43  C   LIG d   1       9.672   6.731  -4.288  0.00  0.00    -0.033 A 
ATOM     44  C   LIG d   1      10.019   8.046  -4.540  0.00  0.00    -0.056 A 
ATOM     45  C   LIG d   1      10.205   8.925  -3.492  0.00  0.00    -0.040 A 
ATOM     46  H   LIG d   1      10.144   8.385  -5.558  0.00  0.00     0.062 H 
ATOM     47  C   LIG d   1      10.044   8.488  -2.183  0.00  0.00     0.029 A 
ATOM     48  H   LIG d   1      10.477   9.952  -3.689  0.00  0.00     0.064 H 
ATOM     49  C   LIG d   1       9.701   7.165  -1.933  0.00  0.00    -0.040 A 
ATOM     50  C   LIG d   1       9.511   6.292  -2.987  0.00  0.00    -0.056 A 
ATOM     51  H   LIG d   1       9.580   6.820  -0.918  0.00  0.00     0.064 H 
ATOM     52  H   LIG d   1       9.239   5.264  -2.794  0.00  0.00     0.062 H 
BRANCH  47  53
ATOM     53  N   LIG d   1      10.233   9.374  -1.121  0.00  0.00    -0.336 N 
BRANCH  53  54
ATOM     54  C   LIG d   1       9.898  10.791  -1.280  0.00  0.00     0.000 C 
ATOM     55  H   LIG d   1       8.841  10.942  -1.058  0.00  0.00     0.043 H 
ATOM     56  H   LIG d   1      10.502  11.386  -0.595  0.00  0.00     0.043 H 
ATOM     57  H   LIG d   1      10.102  11.099  -2.306  0.00  0.00     0.043 H 
ENDBRANCH  53  54
BRANCH  53  58
ATOM     58  C   LIG d   1      10.765   8.886   0.155  0.00  0.00     0.000 C 
ATOM     59  H   LIG d   1      11.243   7.919   0.003  0.00  0.00     0.043 H 
ATOM     60  H   LIG d   1      11.497   9.597   0.538  0.00  0.00     0.043 H 
ATOM     61  H   LIG d   1       9.950   8.782   0.871  0.00  0.00     0.043 H 
ENDBRANCH  53  58
ENDBRANCH  47  53
ENDBRANCH  40  43
ENDBRANCH   1  40
TORSDOF 7
ENDMDL
MODEL 9
REMARK VINA RESULT:      -6.8      1.794      5.406
REMARK  7 active torsions:
REMARK  status: ('A' for Active; 'I' for Inactive)
REMARK    1  A    between atoms: C_1  and  N_2 
REMARK    2  A    between atoms: N_2  and  C_3 
REMARK    3  A    between atoms: N_2  and  C_4 
REMARK    4  A    between atoms: C_7  and  C_10 
REMARK    5  A    between atoms: C_10  and  N_11 
REMARK    6  A    between atoms: C_20  and  C_22 
REMARK    7  A    between atoms: C_24  and  C_27 
ROOT
ATOM      1  N   LIG d   1      11.275   5.493  -3.941  0.00  0.00    -0.279 N 
ATOM      2  C   LIG d   1      12.103   6.627  -3.497  0.00  0.00     0.066 C 
ATOM      3  C   LIG d   1      11.420   7.279  -2.320  0.00  0.00     0.159 A 
ATOM      4  C   LIG d   1      10.439   6.681  -1.607  0.00  0.00     0.148 A 
ATOM      5  N   LIG d   1      10.061   7.552  -0.635  0.00  0.00    -0.247 N 
ATOM      6  H   LIG d   1       9.376   7.408   0.035  0.00  0.00     0.310 HD
ATOM      7  C   LIG d   1      10.825   8.661  -0.781  0.00  0.00     0.243 A 
ATOM      8  N   LIG d   1      11.635   8.485  -1.792  0.00  0.00    -0.246 N 
ATOM      9  C   LIG d   1       9.922   5.296  -1.901  0.00  0.00     0.037 C 
ATOM     10  C   LIG d   1      10.936   4.602  -2.823  0.00  0.00     0.098 C 
ATOM     11  H   LIG d   1      11.838   4.368  -2.258  0.00  0.00     0.057 H 
ATOM     12  H   LIG d   1      13.088   6.268  -3.197  0.00  0.00     0.051 H 
ATOM     13  H   LIG d   1      12.205   7.348  -4.308  0.00  0.00     0.051 H 
ATOM     14  H   LIG d   1      10.773   9.545  -0.162  0.00  0.00     0.158 H 
ATOM     15  H   LIG d   1       9.823   4.734  -0.973  0.00  0.00     0.037 H 
ATOM     16  H   LIG d   1       8.954   5.362  -2.400  0.00  0.00     0.037 H 
ATOM     17  H   LIG d   1      12.288   9.128  -2.109  0.00  0.00     0.310 HD
ENDROOT
BRANCH  10  18
ATOM     18  C   LIG d   1      10.335   3.329  -3.360  0.00  0.00     0.245 A 
ATOM     19  O   LIG d   1      11.008   2.336  -3.955  0.00  0.00    -0.336 OA
ATOM     20  N   LIG d   1      10.047   1.347  -4.294  0.00  0.00    -0.056 NA
ATOM     21  C   LIG d   1       8.887   1.805  -3.894  0.00  0.00     0.202 A 
ATOM     22  N   LIG d   1       9.072   3.011  -3.329  0.00  0.00    -0.190 NA
BRANCH  21  23
ATOM     23  C   LIG d   1       7.584   1.110  -4.044  0.00  0.00     0.023 A 
ATOM     24  C   LIG d   1       6.586   1.318  -3.111  0.00  0.00    -0.043 A 
ATOM     25  C   LIG d   1       5.354   0.662  -3.261  0.00  0.00    -0.017 A 
ATOM     26  H   LIG d   1       6.751   1.981  -2.275  0.00  0.00     0.063 H 
ATOM     27  C   LIG d   1       5.157  -0.210  -4.361  0.00  0.00    -0.018 A 
ATOM     28  C   LIG d   1       4.311   0.852  -2.337  0.00  0.00    -0.054 A 
ATOM     29  C   LIG d   1       6.195  -0.404  -5.291  0.00  0.00    -0.053 A 
ATOM     30  C   LIG d   1       3.923  -0.868  -4.504  0.00  0.00    -0.054 A 
ATOM     31  C   LIG d   1       7.378   0.244  -5.130  0.00  0.00    -0.050 A 
ATOM     32  H   LIG d   1       6.051  -1.067  -6.130  0.00  0.00     0.062 H 
ATOM     33  H   LIG d   1       8.171   0.089  -5.847  0.00  0.00     0.062 H 
ATOM     34  C   LIG d   1       2.938  -0.661  -3.589  0.00  0.00    -0.061 A 
ATOM     35  H   LIG d   1       3.758  -1.536  -5.337  0.00  0.00     0.062 H 
ATOM     36  C   LIG d   1       3.131   0.197  -2.508  0.00  0.00    -0.061 A 
ATOM     37  H   LIG d   1       1.991  -1.169  -3.702  0.00  0.00     0.062 H 
ATOM     38  H   LIG d   1       2.332   0.345  -1.796  0.00  0.00     0.062 H 
ATOM     39  H   LIG d   1       4.447   1.515  -1.494  0.00  0.00     0.062 H 
ENDBRANCH  21  23
ENDBRANCH  10  18
BRANCH   1  40
ATOM     40  C   LIG d   1      11.936   4.751  -5.024  0.00  0.00     0.025 C 
ATOM     41  H   LIG d   1      11.722   3.688  -4.918  0.00  0.00     0.048 H 
ATOM     42  H   LIG d   1      13.013   4.912  -4.970  0.00  0.00     0.048 H 
BRANCH  40  43
ATOM     43  C   LIG d   1      11.420   5.238  -6.354  0.00  0.00    -0.033 A 
ATOM     44  C   LIG d   1      12.234   6.001  -7.172  0.00  0.00    -0.056 A 
ATOM     45  C   LIG d   1      11.765   6.446  -8.391  0.00  0.00    -0.040 A 
ATOM     46  H   LIG d   1      13.238   6.246  -6.857  0.00  0.00     0.062 H 
ATOM     47  C   LIG d   1      10.475   6.129  -8.797  0.00  0.00     0.029 A 
ATOM     48  H   LIG d   1      12.402   7.042  -9.030  0.00  0.00     0.064 H 
ATOM     49  C   LIG d   1       9.658   5.368  -7.970  0.00  0.00    -0.040 A 
ATOM     50  C   LIG d   1      10.136   4.921  -6.754  0.00  0.00    -0.056 A 
ATOM     51  H   LIG d   1       8.653   5.124  -8.279  0.00  0.00     0.064 H 
ATOM     52  H   LIG d   1       9.502   4.324  -6.112  0.00  0.00     0.062 H 
BRANCH  47  53
ATOM     53  N   LIG d   1       9.997   6.580 -10.029  0.00  0.00    -0.336 N 
BRANCH  53  54
ATOM     54  C   LIG d   1       8.732   6.064 -10.558  0.00  0.00     0.000 C 
ATOM     55  H   LIG d   1       8.157   6.884 -10.988  0.00  0.00     0.043 H 
ATOM     56  H   LIG d   1       8.936   5.320 -11.327  0.00  0.00     0.043 H 
ATOM     57  H   LIG d   1       8.162   5.605  -9.750  0.00  0.00     0.043 H 
ENDBRANCH  53  54
BRANCH  53  58
ATOM     58  C   LIG d   1      10.762   7.568 -10.795  0.00  0.00     0.000 C 
ATOM     59  H   LIG d   1      10.719   8.532 -10.289  0.00  0.00     0.043 H 
ATOM     60  H   LIG d   1      11.800   7.244 -10.871  0.00  0.00     0.043 H 
ATOM     61  H   LIG d   1      10.336   7.661 -11.794  0.00  0.00     0.043 H 
ENDBRANCH  53  58
ENDBRANCH  47  53
ENDBRANCH  40  43
ENDBRANCH   1  40
TORSDOF 7
ENDMDL
MODEL 10
REMARK VINA RESULT:      -6.7      7.232     10.876
REMARK  7 active torsions:
REMARK  status: ('A' for Active; 'I' for Inactive)
REMARK    1  A    between atoms: C_1  and  N_2 
REMARK    2  A    between atoms: N_2  and  C_3 
REMARK    3  A    between atoms: N_2  and  C_4 
REMARK    4  A    between atoms: C_7  and  C_10 
REMARK    5  A    between atoms: C_10  and  N_11 
REMARK    6  A    between atoms: C_20  and  C_22 
REMARK    7  A    between atoms: C_24  and  C_27 
ROOT
ATOM      1  N   LIG d   1       5.693  -1.636  -5.216  0.00  0.00    -0.279 N 
ATOM      2  C   LIG d   1       4.786  -0.497  -5.434  0.00  0.00     0.066 C 
ATOM      3  C   LIG d   1       4.526   0.162  -4.102  0.00  0.00     0.159 A 
ATOM      4  C   LIG d   1       5.292  -0.047  -3.008  0.00  0.00     0.148 A 
ATOM      5  N   LIG d   1       4.767   0.699  -2.002  0.00  0.00    -0.247 N 
ATOM      6  H   LIG d   1       5.099   0.757  -1.092  0.00  0.00     0.310 HD
ATOM      7  C   LIG d   1       3.693   1.348  -2.510  0.00  0.00     0.243 A 
ATOM      8  N   LIG d   1       3.559   1.019  -3.769  0.00  0.00    -0.246 N 
ATOM      9  C   LIG d   1       6.494  -0.956  -2.996  0.00  0.00     0.037 C 
ATOM     10  C   LIG d   1       6.885  -1.238  -4.454  0.00  0.00     0.098 C 
ATOM     11  H   LIG d   1       7.314  -0.337  -4.895  0.00  0.00     0.057 H 
ATOM     12  H   LIG d   1       5.250   0.218  -6.113  0.00  0.00     0.051 H 
ATOM     13  H   LIG d   1       3.846  -0.852  -5.858  0.00  0.00     0.051 H 
ATOM     14  H   LIG d   1       3.052   2.025  -1.966  0.00  0.00     0.158 H 
ATOM     15  H   LIG d   1       7.321  -0.468  -2.480  0.00  0.00     0.037 H 
ATOM     16  H   LIG d   1       6.244  -1.892  -2.494  0.00  0.00     0.037 H 
ATOM     17  H   LIG d   1       2.867   1.345  -4.366  0.00  0.00     0.310 HD
ENDROOT
BRANCH  10  18
ATOM     18  C   LIG d   1       7.902  -2.349  -4.495  0.00  0.00     0.245 A 
ATOM     19  O   LIG d   1       9.071  -2.317  -5.146  0.00  0.00    -0.336 OA
ATOM     20  N   LIG d   1       9.698  -3.569  -4.907  0.00  0.00    -0.056 NA
ATOM     21  C   LIG d   1       8.878  -4.256  -4.151  0.00  0.00     0.202 A 
ATOM     22  N   LIG d   1       7.788  -3.506  -3.907  0.00  0.00    -0.190 NA
BRANCH  21  23
ATOM     23  C   LIG d   1       9.111  -5.633  -3.650  0.00  0.00     0.023 A 
ATOM     24  C   LIG d   1       9.827  -5.826  -2.485  0.00  0.00    -0.043 A 
ATOM     25  C   LIG d   1      10.039  -7.130  -2.012  0.00  0.00    -0.017 A 
ATOM     26  H   LIG d   1      10.218  -4.979  -1.939  0.00  0.00     0.063 H 
ATOM     27  C   LIG d   1       9.524  -8.230  -2.744  0.00  0.00    -0.018 A 
ATOM     28  C   LIG d   1      10.758  -7.367  -0.827  0.00  0.00    -0.054 A 
ATOM     29  C   LIG d   1       8.803  -8.000  -3.930  0.00  0.00    -0.053 A 
ATOM     30  C   LIG d   1       9.743  -9.534  -2.270  0.00  0.00    -0.054 A 
ATOM     31  C   LIG d   1       8.605  -6.730  -4.367  0.00  0.00    -0.050 A 
ATOM     32  H   LIG d   1       8.408  -8.833  -4.491  0.00  0.00     0.062 H 
ATOM     33  H   LIG d   1       8.051  -6.561  -5.279  0.00  0.00     0.062 H 
ATOM     34  C   LIG d   1      10.444  -9.725  -1.119  0.00  0.00    -0.061 A 
ATOM     35  H   LIG d   1       9.357 -10.382  -2.816  0.00  0.00     0.062 H 
ATOM     36  C   LIG d   1      10.951  -8.645  -0.400  0.00  0.00    -0.061 A 
ATOM     37  H   LIG d   1      10.612 -10.730  -0.758  0.00  0.00     0.062 H 
ATOM     38  H   LIG d   1      11.504  -8.823   0.511  0.00  0.00     0.062 H 
ATOM     39  H   LIG d   1      11.156  -6.539  -0.259  0.00  0.00     0.062 H 
ENDBRANCH  21  23
ENDBRANCH  10  18
BRANCH   1  40
ATOM     40  C   LIG d   1       6.068  -2.262  -6.491  0.00  0.00     0.025 C 
ATOM     41  H   LIG d   1       7.135  -2.123  -6.664  0.00  0.00     0.048 H 
ATOM     42  H   LIG d   1       5.506  -1.800  -7.302  0.00  0.00     0.048 H 
BRANCH  40  43
ATOM     43  C   LIG d   1       5.756  -3.736  -6.438  0.00  0.00    -0.033 A 
ATOM     44  C   LIG d   1       4.759  -4.199  -5.599  0.00  0.00    -0.056 A 
ATOM     45  C   LIG d   1       4.469  -5.548  -5.549  0.00  0.00    -0.040 A 
ATOM     46  H   LIG d   1       4.205  -3.505  -4.984  0.00  0.00     0.062 H 
ATOM     47  C   LIG d   1       5.180  -6.440  -6.341  0.00  0.00     0.029 A 
ATOM     48  H   LIG d   1       3.689  -5.910  -4.894  0.00  0.00     0.064 H 
ATOM     49  C   LIG d   1       6.186  -5.972  -7.178  0.00  0.00    -0.040 A 
ATOM     50  C   LIG d   1       6.466  -4.621  -7.227  0.00  0.00    -0.056 A 
ATOM     51  H   LIG d   1       6.744  -6.662  -7.791  0.00  0.00     0.064 H 
ATOM     52  H   LIG d   1       7.245  -4.255  -7.882  0.00  0.00     0.062 H 
BRANCH  47  53
ATOM     53  N   LIG d   1       4.890  -7.805  -6.292  0.00  0.00    -0.336 N 
BRANCH  53  54
ATOM     54  C   LIG d   1       4.415  -8.497  -7.493  0.00  0.00     0.000 C 
ATOM     55  H   LIG d   1       3.357  -8.277  -7.644  0.00  0.00     0.043 H 
ATOM     56  H   LIG d   1       4.983  -8.156  -8.358  0.00  0.00     0.043 H 
ATOM     57  H   LIG d   1       4.549  -9.572  -7.370  0.00  0.00     0.043 H 
ENDBRANCH  53  54
BRANCH  53  58
ATOM     58  C   LIG d   1       5.062  -8.546  -5.040  0.00  0.00     0.000 C 
ATOM     59  H   LIG d   1       5.568  -9.489  -5.242  0.00  0.00     0.043 H 
ATOM     60  H   LIG d   1       5.659  -7.954  -4.347  0.00  0.00     0.043 H 
ATOM     61  H   LIG d   1       4.084  -8.745  -4.599  0.00  0.00     0.043 H 
ENDBRANCH  53  58
ENDBRANCH  47  53
ENDBRANCH  40  43
ENDBRANCH   1  40
TORSDOF 7
ENDMDL
