MODEL 1
REMARK VINA RESULT:      -6.8      0.000      0.000
REMARK  7 active torsions:
REMARK  status: ('A' for Active; 'I' for Inactive)
REMARK    1  A    between atoms: C_1  and  C_2 
REMARK    2  A    between atoms: C_19  and  C_21 
REMARK    3  A    between atoms: C_21  and  N_60 
REMARK    4  A    between atoms: C_22  and  C_23 
REMARK    5  A    between atoms: C_22  and  N_60 
REMARK    6  A    between atoms: C_23  and  C_24 
REMARK    7  A    between atoms: C_24  and  N_25 
ROOT
ATOM      1  C   LIG d   1       4.373  -1.460  -3.575  0.00  0.00    -0.022 C 
ATOM      2  C   LIG d   1       3.367  -1.038  -2.506  0.00  0.00    -0.047 C 
ATOM      3  C   LIG d   1       3.342   0.488  -2.394  0.00  0.00    -0.049 C 
ATOM      4  C   LIG d   1       4.712   0.992  -1.930  0.00  0.00    -0.032 C 
ATOM      5  C   LIG d   1       5.772   0.447  -2.863  0.00  0.00    -0.073 C 
ATOM      6  C   LIG d   1       6.653   1.241  -3.419  0.00  0.00    -0.099 C 
ATOM      7  C   LIG d   1       5.783  -1.039  -3.137  0.00  0.00    -0.014 C 
ATOM      8  H   LIG d   1       6.069  -1.580  -2.235  0.00  0.00     0.035 H 
ATOM      9  C   LIG d   1       6.758  -1.356  -4.266  0.00  0.00    -0.039 C 
ATOM     10  C   LIG d   1       6.787  -2.877  -4.523  0.00  0.00     0.015 C 
ATOM     11  H   LIG d   1       7.337  -3.425  -3.758  0.00  0.00     0.035 H 
ATOM     12  C   LIG d   1       5.370  -3.436  -4.752  0.00  0.00     0.107 C 
ATOM     13  H   LIG d   1       5.414  -4.525  -4.748  0.00  0.00     0.074 H 
ATOM     14  C   LIG d   1       4.364  -2.981  -3.723  0.00  0.00    -0.009 C 
ATOM     15  O   LIG d   1       5.046  -3.002  -6.104  0.00  0.00    -0.461 OA
ATOM     16  C   LIG d   1       6.162  -3.159  -6.851  0.00  0.00     0.316 C 
ATOM     17  O   LIG d   1       6.185  -3.343  -8.045  0.00  0.00    -0.250 OA
ATOM     18  C   LIG d   1       7.380  -3.069  -5.951  0.00  0.00     0.102 C 
ATOM     19  H   LIG d   1       7.961  -3.991  -6.003  0.00  0.00     0.047 H 
ATOM     20  H   LIG d   1       3.656  -1.468  -1.547  0.00  0.00     0.027 H 
ATOM     21  H   LIG d   1       2.374  -1.398  -2.779  0.00  0.00     0.027 H 
ATOM     22  H   LIG d   1       2.581   0.786  -1.673  0.00  0.00     0.027 H 
ATOM     23  H   LIG d   1       3.108   0.919  -3.368  0.00  0.00     0.027 H 
ATOM     24  H   LIG d   1       4.905   0.643  -0.915  0.00  0.00     0.031 H 
ATOM     25  H   LIG d   1       4.728   2.081  -1.954  0.00  0.00     0.031 H 
ATOM     26  H   LIG d   1       7.402   0.836  -4.084  0.00  0.00     0.053 H 
ATOM     27  H   LIG d   1       6.630   2.302  -3.213  0.00  0.00     0.053 H 
ATOM     28  H   LIG d   1       6.435  -0.848  -5.175  0.00  0.00     0.028 H 
ATOM     29  H   LIG d   1       7.753  -1.004  -3.992  0.00  0.00     0.028 H 
ATOM     30  H   LIG d   1       4.605  -3.434  -2.762  0.00  0.00     0.031 H 
ATOM     31  H   LIG d   1       3.368  -3.304  -4.029  0.00  0.00     0.031 H 
ENDROOT
BRANCH  18  32
ATOM     32  C   LIG d   1       8.248  -1.870  -6.338  0.00  0.00    -0.020 C 
ATOM     33  H   LIG d   1       7.688  -0.949  -6.171  0.00  0.00     0.082 H 
ATOM     34  H   LIG d   1       9.151  -1.862  -5.726  0.00  0.00     0.082 H 
BRANCH  32  35
ATOM     35  N   LIG d   1       8.614  -1.976  -7.762  0.00  0.00     0.228 N 
ATOM     36  H   LIG d   1       7.932  -2.573  -8.244  0.00  0.00     0.201 HD
ATOM     37  H   LIG d   1       9.549  -2.393  -7.840  0.00  0.00     0.201 HD
BRANCH  35  38
ATOM     38  C   LIG d   1       8.621  -0.641  -8.391  0.00  0.00    -0.032 C 
ATOM     39  H   LIG d   1       9.429  -0.043  -7.970  0.00  0.00     0.081 H 
ATOM     40  H   LIG d   1       8.767  -0.744  -9.466  0.00  0.00     0.081 H 
BRANCH  38  41
ATOM     41  C   LIG d   1       7.282   0.047  -8.121  0.00  0.00     0.003 C 
ATOM     42  H   LIG d   1       6.751  -0.489  -7.334  0.00  0.00     0.033 H 
ATOM     43  H   LIG d   1       7.458   1.075  -7.806  0.00  0.00     0.033 H 
BRANCH  41  44
ATOM     44  C   LIG d   1       6.440   0.042  -9.399  0.00  0.00     0.019 C 
ATOM     45  H   LIG d   1       6.921   0.665 -10.153  0.00  0.00     0.047 H 
ATOM     46  H   LIG d   1       6.352  -0.978  -9.773  0.00  0.00     0.047 H 
BRANCH  44  47
ATOM     47  N   LIG d   1       5.106   0.571  -9.106  0.00  0.00    -0.301 N 
ATOM     48  C   LIG d   1       4.792   1.878  -9.106  0.00  0.00     0.216 C 
ATOM     49  C   LIG d   1       3.332   2.064  -8.753  0.00  0.00     0.026 C 
ATOM     50  O   LIG d   1       5.565   2.779  -9.354  0.00  0.00    -0.276 OA
ATOM     51  C   LIG d   1       2.918   0.708  -8.134  0.00  0.00    -0.029 C 
ATOM     52  H   LIG d   1       3.214   2.866  -8.025  0.00  0.00     0.036 H 
ATOM     53  H   LIG d   1       2.747   2.272  -9.648  0.00  0.00     0.036 H 
ATOM     54  C   LIG d   1       3.938  -0.258  -8.781  0.00  0.00     0.015 C 
ATOM     55  H   LIG d   1       3.024   0.725  -7.049  0.00  0.00     0.029 H 
ATOM     56  H   LIG d   1       1.900   0.444  -8.420  0.00  0.00     0.029 H 
ATOM     57  H   LIG d   1       3.524  -0.697  -9.688  0.00  0.00     0.046 H 
ATOM     58  H   LIG d   1       4.217  -1.040  -8.075  0.00  0.00     0.046 H 
ENDBRANCH  44  47
ENDBRANCH  41  44
ENDBRANCH  38  41
ENDBRANCH  35  38
ENDBRANCH  32  35
ENDBRANCH  18  32
BRANCH   1  59
ATOM     59  C   LIG d   1       4.029  -0.797  -4.911  0.00  0.00    -0.059 C 
ATOM     60  H   LIG d   1       3.911   0.277  -4.763  0.00  0.00     0.024 H 
ATOM     61  H   LIG d   1       4.833  -0.979  -5.624  0.00  0.00     0.024 H 
ATOM     62  H   LIG d   1       3.099  -1.215  -5.296  0.00  0.00     0.024 H 
ENDBRANCH   1  59
TORSDOF 7
ENDMDL
MODEL 2
REMARK VINA RESULT:      -6.7      2.134      3.068
REMARK  7 active torsions:
REMARK  status: ('A' for Active; 'I' for Inactive)
REMARK    1  A    between atoms: C_1  and  C_2 
REMARK    2  A    between atoms: C_19  and  C_21 
REMARK    3  A    between atoms: C_21  and  N_60 
REMARK    4  A    between atoms: C_22  and  C_23 
REMARK    5  A    between atoms: C_22  and  N_60 
REMARK    6  A    between atoms: C_23  and  C_24 
REMARK    7  A    between atoms: C_24  and  N_25 
ROOT
ATOM      1  C   LIG d   1       5.244  -0.922  -3.388  0.00  0.00    -0.022 C 
ATOM      2  C   LIG d   1       5.375   0.091  -2.252  0.00  0.00    -0.047 C 
ATOM      3  C   LIG d   1       3.994   0.648  -1.897  0.00  0.00    -0.049 C 
ATOM      4  C   LIG d   1       3.422   1.408  -3.098  0.00  0.00    -0.032 C 
ATOM      5  C   LIG d   1       3.439   0.494  -4.304  0.00  0.00    -0.073 C 
ATOM      6  C   LIG d   1       2.364   0.314  -5.029  0.00  0.00    -0.099 C 
ATOM      7  C   LIG d   1       4.734  -0.206  -4.647  0.00  0.00    -0.014 C 
ATOM      8  H   LIG d   1       5.471   0.522  -4.986  0.00  0.00     0.035 H 
ATOM      9  C   LIG d   1       4.493  -1.248  -5.735  0.00  0.00    -0.039 C 
ATOM     10  C   LIG d   1       5.822  -1.941  -6.102  0.00  0.00     0.015 C 
ATOM     11  H   LIG d   1       6.474  -1.312  -6.708  0.00  0.00     0.035 H 
ATOM     12  C   LIG d   1       6.528  -2.500  -4.852  0.00  0.00     0.107 C 
ATOM     13  H   LIG d   1       7.536  -2.816  -5.126  0.00  0.00     0.074 H 
ATOM     14  C   LIG d   1       6.615  -1.516  -3.711  0.00  0.00    -0.009 C 
ATOM     15  O   LIG d   1       5.755  -3.691  -4.527  0.00  0.00    -0.461 OA
ATOM     16  C   LIG d   1       5.461  -4.306  -5.694  0.00  0.00     0.316 C 
ATOM     17  O   LIG d   1       5.250  -5.488  -5.829  0.00  0.00    -0.250 OA
ATOM     18  C   LIG d   1       5.440  -3.276  -6.808  0.00  0.00     0.102 C 
ATOM     19  H   LIG d   1       6.175  -3.527  -7.574  0.00  0.00     0.047 H 
ATOM     20  H   LIG d   1       6.026   0.907  -2.566  0.00  0.00     0.027 H 
ATOM     21  H   LIG d   1       5.804  -0.398  -1.377  0.00  0.00     0.027 H 
ATOM     22  H   LIG d   1       4.084   1.325  -1.048  0.00  0.00     0.027 H 
ATOM     23  H   LIG d   1       3.327  -0.175  -1.636  0.00  0.00     0.027 H 
ATOM     24  H   LIG d   1       4.033   2.289  -3.298  0.00  0.00     0.031 H 
ATOM     25  H   LIG d   1       2.397   1.712  -2.884  0.00  0.00     0.031 H 
ATOM     26  H   LIG d   1       2.393  -0.343  -5.886  0.00  0.00     0.053 H 
ATOM     27  H   LIG d   1       1.446   0.822  -4.769  0.00  0.00     0.053 H 
ATOM     28  H   LIG d   1       3.792  -1.997  -5.368  0.00  0.00     0.028 H 
ATOM     29  H   LIG d   1       4.071  -0.760  -6.613  0.00  0.00     0.028 H 
ATOM     30  H   LIG d   1       7.297  -0.712  -3.984  0.00  0.00     0.031 H 
ATOM     31  H   LIG d   1       7.000  -2.025  -2.828  0.00  0.00     0.031 H 
ENDROOT
BRANCH  18  32
ATOM     32  C   LIG d   1       4.043  -3.177  -7.424  0.00  0.00    -0.020 C 
ATOM     33  H   LIG d   1       3.295  -3.216  -6.632  0.00  0.00     0.082 H 
ATOM     34  H   LIG d   1       3.950  -2.235  -7.965  0.00  0.00     0.082 H 
BRANCH  32  35
ATOM     35  N   LIG d   1       3.841  -4.305  -8.352  0.00  0.00     0.228 N 
ATOM     36  H   LIG d   1       3.187  -4.976  -7.932  0.00  0.00     0.201 HD
ATOM     37  H   LIG d   1       4.742  -4.767  -8.523  0.00  0.00     0.201 HD
BRANCH  35  38
ATOM     38  C   LIG d   1       3.289  -3.824  -9.632  0.00  0.00    -0.032 C 
ATOM     39  H   LIG d   1       4.094  -3.701 -10.356  0.00  0.00     0.081 H 
ATOM     40  H   LIG d   1       2.565  -4.545 -10.013  0.00  0.00     0.081 H 
BRANCH  38  41
ATOM     41  C   LIG d   1       2.598  -2.478  -9.405  0.00  0.00     0.003 C 
ATOM     42  H   LIG d   1       1.519  -2.627  -9.359  0.00  0.00     0.033 H 
ATOM     43  H   LIG d   1       2.946  -2.044  -8.469  0.00  0.00     0.033 H 
BRANCH  41  44
ATOM     44  C   LIG d   1       2.933  -1.533 -10.561  0.00  0.00     0.019 C 
ATOM     45  H   LIG d   1       3.882  -1.829 -11.009  0.00  0.00     0.047 H 
ATOM     46  H   LIG d   1       2.145  -1.582 -11.313  0.00  0.00     0.047 H 
BRANCH  44  47
ATOM     47  N   LIG d   1       3.039  -0.162 -10.055  0.00  0.00    -0.301 N 
ATOM     48  C   LIG d   1       3.670   0.837 -10.695  0.00  0.00     0.216 C 
ATOM     49  C   LIG d   1       3.591   2.110  -9.882  0.00  0.00     0.026 C 
ATOM     50  O   LIG d   1       4.223   0.733 -11.770  0.00  0.00    -0.276 OA
ATOM     51  C   LIG d   1       3.181   1.632  -8.469  0.00  0.00    -0.029 C 
ATOM     52  H   LIG d   1       4.561   2.604  -9.851  0.00  0.00     0.036 H 
ATOM     53  H   LIG d   1       2.837   2.780 -10.295  0.00  0.00     0.036 H 
ATOM     54  C   LIG d   1       2.463   0.300  -8.785  0.00  0.00     0.015 C 
ATOM     55  H   LIG d   1       4.058   1.468  -7.843  0.00  0.00     0.029 H 
ATOM     56  H   LIG d   1       2.497   2.340  -8.002  0.00  0.00     0.029 H 
ATOM     57  H   LIG d   1       1.391   0.462  -8.895  0.00  0.00     0.046 H 
ATOM     58  H   LIG d   1       2.656  -0.428  -7.997  0.00  0.00     0.046 H 
ENDBRANCH  44  47
ENDBRANCH  41  44
ENDBRANCH  38  41
ENDBRANCH  35  38
ENDBRANCH  32  35
ENDBRANCH  18  32
BRANCH   1  59
ATOM     59  C   LIG d   1       4.267  -2.031  -2.994  0.00  0.00    -0.059 C 
ATOM     60  H   LIG d   1       4.812  -2.968  -2.869  0.00  0.00     0.024 H 
ATOM     61  H   LIG d   1       3.776  -1.768  -2.058  0.00  0.00     0.024 H 
ATOM     62  H   LIG d   1       3.518  -2.150  -3.777  0.00  0.00     0.024 H 
ENDBRANCH   1  59
TORSDOF 7
ENDMDL
MODEL 3
REMARK VINA RESULT:      -6.5      2.412      6.022
REMARK  7 active torsions:
REMARK  status: ('A' for Active; 'I' for Inactive)
REMARK    1  A    between atoms: C_1  and  C_2 
REMARK    2  A    between atoms: C_19  and  C_21 
REMARK    3  A    between atoms: C_21  and  N_60 
REMARK    4  A    between atoms: C_22  and  C_23 
REMARK    5  A    between atoms: C_22  and  N_60 
REMARK    6  A    between atoms: C_23  and  C_24 
REMARK    7  A    between atoms: C_24  and  N_25 
ROOT
ATOM      1  C   LIG d   1       3.993   0.126 -10.155  0.00  0.00    -0.022 C 
ATOM      2  C   LIG d   1       3.796   1.574 -10.600  0.00  0.00    -0.047 C 
ATOM      3  C   LIG d   1       3.935   2.508  -9.396  0.00  0.00    -0.049 C 
ATOM      4  C   LIG d   1       2.827   2.206  -8.382  0.00  0.00    -0.032 C 
ATOM      5  C   LIG d   1       2.867   0.732  -8.042  0.00  0.00    -0.073 C 
ATOM      6  C   LIG d   1       2.899   0.328  -6.797  0.00  0.00    -0.099 C 
ATOM      7  C   LIG d   1       2.871  -0.261  -9.181  0.00  0.00    -0.014 C 
ATOM      8  H   LIG d   1       1.910  -0.240  -9.695  0.00  0.00     0.035 H 
ATOM      9  C   LIG d   1       3.148  -1.664  -8.652  0.00  0.00    -0.039 C 
ATOM     10  C   LIG d   1       3.124  -2.678  -9.815  0.00  0.00     0.015 C 
ATOM     11  H   LIG d   1       2.114  -2.899 -10.161  0.00  0.00     0.035 H 
ATOM     12  C   LIG d   1       4.065  -2.248 -10.956  0.00  0.00     0.107 C 
ATOM     13  H   LIG d   1       3.884  -2.884 -11.823  0.00  0.00     0.074 H 
ATOM     14  C   LIG d   1       3.904  -0.804 -11.364  0.00  0.00    -0.009 C 
ATOM     15  O   LIG d   1       5.391  -2.555 -10.439  0.00  0.00    -0.461 OA
ATOM     16  C   LIG d   1       5.304  -3.743  -9.800  0.00  0.00     0.316 C 
ATOM     17  O   LIG d   1       6.214  -4.523  -9.644  0.00  0.00    -0.250 OA
ATOM     18  C   LIG d   1       3.882  -3.942  -9.310  0.00  0.00     0.102 C 
ATOM     19  H   LIG d   1       3.451  -4.845  -9.745  0.00  0.00     0.047 H 
ATOM     20  H   LIG d   1       2.803   1.687 -11.036  0.00  0.00     0.027 H 
ATOM     21  H   LIG d   1       4.550   1.830 -11.346  0.00  0.00     0.027 H 
ATOM     22  H   LIG d   1       3.852   3.542  -9.728  0.00  0.00     0.027 H 
ATOM     23  H   LIG d   1       4.907   2.353  -8.927  0.00  0.00     0.027 H 
ATOM     24  H   LIG d   1       1.858   2.455  -8.815  0.00  0.00     0.031 H 
ATOM     25  H   LIG d   1       2.988   2.795  -7.478  0.00  0.00     0.031 H 
ATOM     26  H   LIG d   1       2.929  -0.728  -6.571  0.00  0.00     0.053 H 
ATOM     27  H   LIG d   1       2.896   1.052  -5.994  0.00  0.00     0.053 H 
ATOM     28  H   LIG d   1       4.132  -1.685  -8.183  0.00  0.00     0.028 H 
ATOM     29  H   LIG d   1       2.392  -1.925  -7.912  0.00  0.00     0.028 H 
ATOM     30  H   LIG d   1       2.935  -0.673 -11.844  0.00  0.00     0.031 H 
ATOM     31  H   LIG d   1       4.690  -0.543 -12.073  0.00  0.00     0.031 H 
ENDROOT
BRANCH  18  32
ATOM     32  C   LIG d   1       3.844  -4.017  -7.782  0.00  0.00    -0.020 C 
ATOM     33  H   LIG d   1       3.091  -3.324  -7.404  0.00  0.00     0.082 H 
ATOM     34  H   LIG d   1       3.591  -5.031  -7.474  0.00  0.00     0.082 H 
BRANCH  32  35
ATOM     35  N   LIG d   1       5.168  -3.650  -7.246  0.00  0.00     0.228 N 
ATOM     36  H   LIG d   1       5.406  -2.700  -7.552  0.00  0.00     0.201 HD
ATOM     37  H   LIG d   1       5.870  -4.310  -7.601  0.00  0.00     0.201 HD
BRANCH  35  38
ATOM     38  C   LIG d   1       5.156  -3.698  -5.772  0.00  0.00    -0.032 C 
ATOM     39  H   LIG d   1       4.432  -4.441  -5.435  0.00  0.00     0.081 H 
ATOM     40  H   LIG d   1       6.147  -3.966  -5.406  0.00  0.00     0.081 H 
BRANCH  38  41
ATOM     41  C   LIG d   1       4.765  -2.323  -5.229  0.00  0.00     0.003 C 
ATOM     42  H   LIG d   1       5.529  -1.595  -5.500  0.00  0.00     0.033 H 
ATOM     43  H   LIG d   1       3.808  -2.022  -5.655  0.00  0.00     0.033 H 
BRANCH  41  44
ATOM     44  C   LIG d   1       4.644  -2.392  -3.705  0.00  0.00     0.019 C 
ATOM     45  H   LIG d   1       3.738  -2.936  -3.437  0.00  0.00     0.047 H 
ATOM     46  H   LIG d   1       5.512  -2.909  -3.294  0.00  0.00     0.047 H 
BRANCH  44  47
ATOM     47  N   LIG d   1       4.580  -1.035  -3.158  0.00  0.00    -0.301 N 
ATOM     48  C   LIG d   1       3.439  -0.383  -2.879  0.00  0.00     0.216 C 
ATOM     49  C   LIG d   1       3.745   0.997  -2.340  0.00  0.00     0.026 C 
ATOM     50  O   LIG d   1       2.324  -0.835  -3.037  0.00  0.00    -0.276 OA
ATOM     51  C   LIG d   1       5.224   1.234  -2.725  0.00  0.00    -0.029 C 
ATOM     52  H   LIG d   1       3.105   1.742  -2.811  0.00  0.00     0.036 H 
ATOM     53  H   LIG d   1       3.622   1.019  -1.257  0.00  0.00     0.036 H 
ATOM     54  C   LIG d   1       5.755  -0.214  -2.838  0.00  0.00     0.015 C 
ATOM     55  H   LIG d   1       5.300   1.758  -3.678  0.00  0.00     0.029 H 
ATOM     56  H   LIG d   1       5.748   1.779  -1.939  0.00  0.00     0.029 H 
ATOM     57  H   LIG d   1       6.192  -0.534  -1.892  0.00  0.00     0.046 H 
ATOM     58  H   LIG d   1       6.492  -0.283  -3.638  0.00  0.00     0.046 H 
ENDBRANCH  44  47
ENDBRANCH  41  44
ENDBRANCH  38  41
ENDBRANCH  35  38
ENDBRANCH  32  35
ENDBRANCH  18  32
BRANCH   1  59
ATOM     59  C   LIG d   1       5.350  -0.032  -9.465  0.00  0.00    -0.059 C 
ATOM     60  H   LIG d   1       6.125  -0.182 -10.218  0.00  0.00     0.024 H 
ATOM     61  H   LIG d   1       5.572   0.866  -8.889  0.00  0.00     0.024 H 
ATOM     62  H   LIG d   1       5.321  -0.894  -8.799  0.00  0.00     0.024 H 
ENDBRANCH   1  59
TORSDOF 7
ENDMDL
MODEL 4
REMARK VINA RESULT:      -6.4      1.787      3.193
REMARK  7 active torsions:
REMARK  status: ('A' for Active; 'I' for Inactive)
REMARK    1  A    between atoms: C_1  and  C_2 
REMARK    2  A    between atoms: C_19  and  C_21 
REMARK    3  A    between atoms: C_21  and  N_60 
REMARK    4  A    between atoms: C_22  and  C_23 
REMARK    5  A    between atoms: C_22  and  N_60 
REMARK    6  A    between atoms: C_23  and  C_24 
REMARK    7  A    between atoms: C_24  and  N_25 
ROOT
ATOM      1  C   LIG d   1       5.199  -1.513  -3.844  0.00  0.00    -0.022 C 
ATOM      2  C   LIG d   1       5.622  -1.144  -2.423  0.00  0.00    -0.047 C 
ATOM      3  C   LIG d   1       4.437  -0.527  -1.677  0.00  0.00    -0.049 C 
ATOM      4  C   LIG d   1       4.022   0.778  -2.362  0.00  0.00    -0.032 C 
ATOM      5  C   LIG d   1       3.763   0.497  -3.827  0.00  0.00    -0.073 C 
ATOM      6  C   LIG d   1       2.648   0.875  -4.399  0.00  0.00    -0.099 C 
ATOM      7  C   LIG d   1       4.830  -0.234  -4.609  0.00  0.00    -0.014 C 
ATOM      8  H   LIG d   1       5.710   0.401  -4.720  0.00  0.00     0.035 H 
ATOM      9  C   LIG d   1       4.295  -0.625  -5.983  0.00  0.00    -0.039 C 
ATOM     10  C   LIG d   1       5.396  -1.346  -6.789  0.00  0.00     0.015 C 
ATOM     11  H   LIG d   1       6.157  -0.665  -7.168  0.00  0.00     0.035 H 
ATOM     12  C   LIG d   1       5.993  -2.525  -5.996  0.00  0.00     0.107 C 
ATOM     13  H   LIG d   1       6.879  -2.889  -6.517  0.00  0.00     0.074 H 
ATOM     14  C   LIG d   1       6.366  -2.175  -4.576  0.00  0.00    -0.009 C 
ATOM     15  O   LIG d   1       4.964  -3.552  -6.084  0.00  0.00    -0.461 OA
ATOM     16  C   LIG d   1       4.480  -3.524  -7.345  0.00  0.00     0.316 C 
ATOM     17  O   LIG d   1       3.978  -4.458  -7.924  0.00  0.00    -0.250 OA
ATOM     18  C   LIG d   1       4.668  -2.132  -7.920  0.00  0.00     0.102 C 
ATOM     19  H   LIG d   1       5.286  -2.171  -8.818  0.00  0.00     0.047 H 
ATOM     20  H   LIG d   1       6.440  -0.426  -2.463  0.00  0.00     0.027 H 
ATOM     21  H   LIG d   1       5.952  -2.042  -1.899  0.00  0.00     0.027 H 
ATOM     22  H   LIG d   1       4.725  -0.320  -0.647  0.00  0.00     0.027 H 
ATOM     23  H   LIG d   1       3.599  -1.225  -1.686  0.00  0.00     0.027 H 
ATOM     24  H   LIG d   1       4.822   1.512  -2.267  0.00  0.00     0.031 H 
ATOM     25  H   LIG d   1       3.113   1.162  -1.898  0.00  0.00     0.031 H 
ATOM     26  H   LIG d   1       2.479   0.665  -5.446  0.00  0.00     0.053 H 
ATOM     27  H   LIG d   1       1.895   1.396  -3.825  0.00  0.00     0.053 H 
ATOM     28  H   LIG d   1       3.446  -1.298  -5.861  0.00  0.00     0.028 H 
ATOM     29  H   LIG d   1       3.971   0.271  -6.512  0.00  0.00     0.028 H 
ATOM     30  H   LIG d   1       7.214  -1.491  -4.587  0.00  0.00     0.031 H 
ATOM     31  H   LIG d   1       6.650  -3.084  -4.046  0.00  0.00     0.031 H 
ENDROOT
BRANCH  18  32
ATOM     32  C   LIG d   1       3.314  -1.491  -8.233  0.00  0.00    -0.020 C 
ATOM     33  H   LIG d   1       2.587  -1.793  -7.479  0.00  0.00     0.082 H 
ATOM     34  H   LIG d   1       3.416  -0.406  -8.226  0.00  0.00     0.082 H 
BRANCH  32  35
ATOM     35  N   LIG d   1       2.862  -1.939  -9.564  0.00  0.00     0.228 N 
ATOM     36  H   LIG d   1       2.116  -2.635  -9.451  0.00  0.00     0.201 HD
ATOM     37  H   LIG d   1       3.653  -2.362 -10.065  0.00  0.00     0.201 HD
BRANCH  35  38
ATOM     38  C   LIG d   1       2.348  -0.796 -10.342  0.00  0.00    -0.032 C 
ATOM     39  H   LIG d   1       1.407  -1.072 -10.819  0.00  0.00     0.081 H 
ATOM     40  H   LIG d   1       2.184   0.054  -9.680  0.00  0.00     0.081 H 
BRANCH  38  41
ATOM     41  C   LIG d   1       3.371  -0.419 -11.415  0.00  0.00     0.003 C 
ATOM     42  H   LIG d   1       4.224  -1.095 -11.357  0.00  0.00     0.033 H 
ATOM     43  H   LIG d   1       2.912  -0.496 -12.399  0.00  0.00     0.033 H 
BRANCH  41  44
ATOM     44  C   LIG d   1       3.843   1.018 -11.184  0.00  0.00     0.019 C 
ATOM     45  H   LIG d   1       4.125   1.465 -12.137  0.00  0.00     0.047 H 
ATOM     46  H   LIG d   1       3.037   1.599 -10.735  0.00  0.00     0.047 H 
BRANCH  44  47
ATOM     47  N   LIG d   1       5.000   1.014 -10.285  0.00  0.00    -0.301 N 
ATOM     48  C   LIG d   1       5.135   1.821  -9.219  0.00  0.00     0.216 C 
ATOM     49  C   LIG d   1       6.452   1.552  -8.525  0.00  0.00     0.026 C 
ATOM     50  O   LIG d   1       4.319   2.645  -8.864  0.00  0.00    -0.276 OA
ATOM     51  C   LIG d   1       7.274   0.758  -9.568  0.00  0.00    -0.029 C 
ATOM     52  H   LIG d   1       6.952   2.488  -8.279  0.00  0.00     0.036 H 
ATOM     53  H   LIG d   1       6.295   0.957  -7.626  0.00  0.00     0.036 H 
ATOM     54  C   LIG d   1       6.157   0.122 -10.428  0.00  0.00     0.015 C 
ATOM     55  H   LIG d   1       7.899   1.424 -10.162  0.00  0.00     0.029 H 
ATOM     56  H   LIG d   1       7.877  -0.011  -9.084  0.00  0.00     0.029 H 
ATOM     57  H   LIG d   1       5.914  -0.874 -10.060  0.00  0.00     0.046 H 
ATOM     58  H   LIG d   1       6.468   0.073 -11.472  0.00  0.00     0.046 H 
ENDBRANCH  44  47
ENDBRANCH  41  44
ENDBRANCH  38  41
ENDBRANCH  35  38
ENDBRANCH  32  35
ENDBRANCH  18  32
BRANCH   1  59
ATOM     59  C   LIG d   1       3.995  -2.456  -3.808  0.00  0.00    -0.059 C 
ATOM     60  H   LIG d   1       4.212  -3.344  -4.402  0.00  0.00     0.024 H 
ATOM     61  H   LIG d   1       3.793  -2.748  -2.778  0.00  0.00     0.024 H 
ATOM     62  H   LIG d   1       3.123  -1.949  -4.220  0.00  0.00     0.024 H 
ENDBRANCH   1  59
TORSDOF 7
ENDMDL
MODEL 5
REMARK VINA RESULT:      -6.3      2.339      4.851
REMARK  7 active torsions:
REMARK  status: ('A' for Active; 'I' for Inactive)
REMARK    1  A    between atoms: C_1  and  C_2 
REMARK    2  A    between atoms: C_19  and  C_21 
REMARK    3  A    between atoms: C_21  and  N_60 
REMARK    4  A    between atoms: C_22  and  C_23 
REMARK    5  A    between atoms: C_22  and  N_60 
REMARK    6  A    between atoms: C_23  and  C_24 
REMARK    7  A    between atoms: C_24  and  N_25 
ROOT
ATOM      1  C   LIG d   1       7.031  -2.718  -4.838  0.00  0.00    -0.022 C 
ATOM      2  C   LIG d   1       8.066  -3.654  -5.459  0.00  0.00    -0.047 C 
ATOM      3  C   LIG d   1       7.617  -4.059  -6.865  0.00  0.00    -0.049 C 
ATOM      4  C   LIG d   1       6.307  -4.849  -6.778  0.00  0.00    -0.032 C 
ATOM      5  C   LIG d   1       5.295  -4.029  -6.007  0.00  0.00    -0.073 C 
ATOM      6  C   LIG d   1       4.099  -3.807  -6.490  0.00  0.00    -0.099 C 
ATOM      7  C   LIG d   1       5.706  -3.473  -4.663  0.00  0.00    -0.014 C 
ATOM      8  H   LIG d   1       5.834  -4.286  -3.948  0.00  0.00     0.035 H 
ATOM      9  C   LIG d   1       4.651  -2.495  -4.156  0.00  0.00    -0.039 C 
ATOM     10  C   LIG d   1       5.061  -1.951  -2.772  0.00  0.00     0.015 C 
ATOM     11  H   LIG d   1       4.916  -2.678  -1.973  0.00  0.00     0.035 H 
ATOM     12  C   LIG d   1       6.487  -1.369  -2.796  0.00  0.00     0.107 C 
ATOM     13  H   LIG d   1       6.803  -1.165  -1.773  0.00  0.00     0.074 H 
ATOM     14  C   LIG d   1       7.502  -2.272  -3.453  0.00  0.00    -0.009 C 
ATOM     15  O   LIG d   1       6.323  -0.094  -3.481  0.00  0.00    -0.461 OA
ATOM     16  C   LIG d   1       5.178   0.459  -3.024  0.00  0.00     0.316 C 
ATOM     17  O   LIG d   1       4.935   1.643  -2.993  0.00  0.00    -0.250 OA
ATOM     18  C   LIG d   1       4.245  -0.642  -2.556  0.00  0.00     0.102 C 
ATOM     19  H   LIG d   1       4.002  -0.513  -1.500  0.00  0.00     0.047 H 
ATOM     20  H   LIG d   1       8.168  -4.545  -4.840  0.00  0.00     0.027 H 
ATOM     21  H   LIG d   1       9.028  -3.143  -5.520  0.00  0.00     0.027 H 
ATOM     22  H   LIG d   1       8.385  -4.678  -7.327  0.00  0.00     0.027 H 
ATOM     23  H   LIG d   1       7.461  -3.163  -7.468  0.00  0.00     0.027 H 
ATOM     24  H   LIG d   1       6.483  -5.792  -6.261  0.00  0.00     0.031 H 
ATOM     25  H   LIG d   1       5.931  -5.044  -7.782  0.00  0.00     0.031 H 
ATOM     26  H   LIG d   1       3.389  -3.218  -5.928  0.00  0.00     0.053 H 
ATOM     27  H   LIG d   1       3.821  -4.211  -7.453  0.00  0.00     0.053 H 
ATOM     28  H   LIG d   1       4.567  -1.662  -4.855  0.00  0.00     0.028 H 
ATOM     29  H   LIG d   1       3.691  -3.005  -4.088  0.00  0.00     0.028 H 
ATOM     30  H   LIG d   1       7.655  -3.152  -2.829  0.00  0.00     0.031 H 
ATOM     31  H   LIG d   1       8.446  -1.737  -3.553  0.00  0.00     0.031 H 
ENDROOT
BRANCH  18  32
ATOM     32  C   LIG d   1       2.968  -0.660  -3.398  0.00  0.00    -0.020 C 
ATOM     33  H   LIG d   1       3.016  -1.484  -4.111  0.00  0.00     0.082 H 
ATOM     34  H   LIG d   1       2.104  -0.794  -2.746  0.00  0.00     0.082 H 
BRANCH  32  35
ATOM     35  N   LIG d   1       2.848   0.618  -4.125  0.00  0.00     0.228 N 
ATOM     36  H   LIG d   1       3.781   1.031  -4.239  0.00  0.00     0.201 HD
ATOM     37  H   LIG d   1       2.254   1.258  -3.585  0.00  0.00     0.201 HD
BRANCH  35  38
ATOM     38  C   LIG d   1       2.247   0.398  -5.454  0.00  0.00    -0.032 C 
ATOM     39  H   LIG d   1       1.503  -0.396  -5.393  0.00  0.00     0.081 H 
ATOM     40  H   LIG d   1       1.770   1.316  -5.796  0.00  0.00     0.081 H 
BRANCH  38  41
ATOM     41  C   LIG d   1       3.345  -0.006  -6.439  0.00  0.00     0.003 C 
ATOM     42  H   LIG d   1       3.995   0.848  -6.629  0.00  0.00     0.033 H 
ATOM     43  H   LIG d   1       3.931  -0.822  -6.017  0.00  0.00     0.033 H 
BRANCH  41  44
ATOM     44  C   LIG d   1       2.707  -0.464  -7.753  0.00  0.00     0.019 C 
ATOM     45  H   LIG d   1       3.071  -1.460  -8.006  0.00  0.00     0.047 H 
ATOM     46  H   LIG d   1       1.623  -0.491  -7.640  0.00  0.00     0.047 H 
BRANCH  44  47
ATOM     47  N   LIG d   1       3.063   0.473  -8.821  0.00  0.00    -0.301 N 
ATOM     48  C   LIG d   1       3.650   0.118  -9.976  0.00  0.00     0.216 C 
ATOM     49  C   LIG d   1       3.882   1.339 -10.840  0.00  0.00     0.026 C 
ATOM     50  O   LIG d   1       3.952  -1.016 -10.283  0.00  0.00    -0.276 OA
ATOM     51  C   LIG d   1       3.727   2.528  -9.863  0.00  0.00    -0.029 C 
ATOM     52  H   LIG d   1       4.885   1.322 -11.264  0.00  0.00     0.036 H 
ATOM     53  H   LIG d   1       3.134   1.393 -11.631  0.00  0.00     0.036 H 
ATOM     54  C   LIG d   1       2.819   1.920  -8.769  0.00  0.00     0.015 C 
ATOM     55  H   LIG d   1       4.693   2.825  -9.454  0.00  0.00     0.029 H 
ATOM     56  H   LIG d   1       3.237   3.371 -10.351  0.00  0.00     0.029 H 
ATOM     57  H   LIG d   1       1.772   2.133  -8.983  0.00  0.00     0.046 H 
ATOM     58  H   LIG d   1       3.093   2.314  -7.791  0.00  0.00     0.046 H 
ENDBRANCH  44  47
ENDBRANCH  41  44
ENDBRANCH  38  41
ENDBRANCH  35  38
ENDBRANCH  32  35
ENDBRANCH  18  32
BRANCH   1  59
ATOM     59  C   LIG d   1       6.814  -1.500  -5.739  0.00  0.00    -0.059 C 
ATOM     60  H   LIG d   1       7.316  -0.634  -5.306  0.00  0.00     0.024 H 
ATOM     61  H   LIG d   1       7.225  -1.701  -6.728  0.00  0.00     0.024 H 
ATOM     62  H   LIG d   1       5.747  -1.296  -5.823  0.00  0.00     0.024 H 
ENDBRANCH   1  59
TORSDOF 7
ENDMDL
MODEL 6
REMARK VINA RESULT:      -6.1      2.453      3.869
REMARK  7 active torsions:
REMARK  status: ('A' for Active; 'I' for Inactive)
REMARK    1  A    between atoms: C_1  and  C_2 
REMARK    2  A    between atoms: C_19  and  C_21 
REMARK    3  A    between atoms: C_21  and  N_60 
REMARK    4  A    between atoms: C_22  and  C_23 
REMARK    5  A    between atoms: C_22  and  N_60 
REMARK    6  A    between atoms: C_23  and  C_24 
REMARK    7  A    between atoms: C_24  and  N_25 
ROOT
ATOM      1  C   LIG d   1       4.481  -1.436  -3.595  0.00  0.00    -0.022 C 
ATOM      2  C   LIG d   1       3.463  -1.058  -2.520  0.00  0.00    -0.047 C 
ATOM      3  C   LIG d   1       3.379   0.465  -2.403  0.00  0.00    -0.049 C 
ATOM      4  C   LIG d   1       4.730   1.021  -1.942  0.00  0.00    -0.032 C 
ATOM      5  C   LIG d   1       5.807   0.523  -2.882  0.00  0.00    -0.073 C 
ATOM      6  C   LIG d   1       6.653   1.352  -3.438  0.00  0.00    -0.099 C 
ATOM      7  C   LIG d   1       5.875  -0.961  -3.161  0.00  0.00    -0.014 C 
ATOM      8  H   LIG d   1       6.186  -1.494  -2.263  0.00  0.00     0.035 H 
ATOM      9  C   LIG d   1       6.858  -1.236  -4.295  0.00  0.00    -0.039 C 
ATOM     10  C   LIG d   1       6.945  -2.754  -4.558  0.00  0.00     0.015 C 
ATOM     11  H   LIG d   1       7.520  -3.281  -3.798  0.00  0.00     0.035 H 
ATOM     12  C   LIG d   1       5.550  -3.367  -4.784  0.00  0.00     0.107 C 
ATOM     13  H   LIG d   1       5.637  -4.454  -4.784  0.00  0.00     0.074 H 
ATOM     14  C   LIG d   1       4.531  -2.956  -3.749  0.00  0.00    -0.009 C 
ATOM     15  O   LIG d   1       5.204  -2.941  -6.133  0.00  0.00    -0.461 OA
ATOM     16  C   LIG d   1       6.322  -3.052  -6.885  0.00  0.00     0.316 C 
ATOM     17  O   LIG d   1       6.347  -3.230  -8.079  0.00  0.00    -0.250 OA
ATOM     18  C   LIG d   1       7.539  -2.917  -5.989  0.00  0.00     0.102 C 
ATOM     19  H   LIG d   1       8.156  -3.815  -6.047  0.00  0.00     0.047 H 
ATOM     20  H   LIG d   1       3.773  -1.480  -1.564  0.00  0.00     0.027 H 
ATOM     21  H   LIG d   1       2.485  -1.456  -2.791  0.00  0.00     0.027 H 
ATOM     22  H   LIG d   1       2.610   0.731  -1.678  0.00  0.00     0.027 H 
ATOM     23  H   LIG d   1       3.124   0.890  -3.374  0.00  0.00     0.027 H 
ATOM     24  H   LIG d   1       4.941   0.677  -0.929  0.00  0.00     0.031 H 
ATOM     25  H   LIG d   1       4.703   2.111  -1.962  0.00  0.00     0.031 H 
ATOM     26  H   LIG d   1       7.415   0.980  -4.108  0.00  0.00     0.053 H 
ATOM     27  H   LIG d   1       6.590   2.410  -3.228  0.00  0.00     0.053 H 
ATOM     28  H   LIG d   1       6.511  -0.737  -5.201  0.00  0.00     0.028 H 
ATOM     29  H   LIG d   1       7.838  -0.846  -4.024  0.00  0.00     0.028 H 
ATOM     30  H   LIG d   1       4.794  -3.402  -2.791  0.00  0.00     0.031 H 
ATOM     31  H   LIG d   1       3.548  -3.316  -4.052  0.00  0.00     0.031 H 
ENDROOT
BRANCH  18  32
ATOM     32  C   LIG d   1       8.357  -1.683  -6.375  0.00  0.00    -0.020 C 
ATOM     33  H   LIG d   1       8.589  -1.107  -5.478  0.00  0.00     0.082 H 
ATOM     34  H   LIG d   1       9.284  -1.997  -6.855  0.00  0.00     0.082 H 
BRANCH  32  35
ATOM     35  N   LIG d   1       7.572  -0.852  -7.307  0.00  0.00     0.228 N 
ATOM     36  H   LIG d   1       6.739  -0.496  -6.823  0.00  0.00     0.201 HD
ATOM     37  H   LIG d   1       7.283  -1.426  -8.109  0.00  0.00     0.201 HD
BRANCH  35  38
ATOM     38  C   LIG d   1       8.380   0.285  -7.787  0.00  0.00    -0.032 C 
ATOM     39  H   LIG d   1       9.426  -0.014  -7.860  0.00  0.00     0.081 H 
ATOM     40  H   LIG d   1       8.023   0.599  -8.767  0.00  0.00     0.081 H 
BRANCH  38  41
ATOM     41  C   LIG d   1       8.249   1.445  -6.798  0.00  0.00     0.003 C 
ATOM     42  H   LIG d   1       7.455   2.115  -7.129  0.00  0.00     0.033 H 
ATOM     43  H   LIG d   1       8.007   1.055  -5.810  0.00  0.00     0.033 H 
BRANCH  41  44
ATOM     44  C   LIG d   1       9.572   2.212  -6.735  0.00  0.00     0.019 C 
ATOM     45  H   LIG d   1      10.379   1.573  -7.092  0.00  0.00     0.047 H 
ATOM     46  H   LIG d   1       9.507   3.101  -7.362  0.00  0.00     0.047 H 
BRANCH  44  47
ATOM     47  N   LIG d   1       9.838   2.609  -5.350  0.00  0.00    -0.301 N 
ATOM     48  C   LIG d   1      10.427   1.821  -4.435  0.00  0.00     0.216 C 
ATOM     49  C   LIG d   1      10.535   2.548  -3.113  0.00  0.00     0.026 C 
ATOM     50  O   LIG d   1      10.816   0.690  -4.639  0.00  0.00    -0.276 OA
ATOM     51  C   LIG d   1       9.552   3.734  -3.252  0.00  0.00    -0.029 C 
ATOM     52  H   LIG d   1      10.233   1.897  -2.293  0.00  0.00     0.036 H 
ATOM     53  H   LIG d   1      11.552   2.908  -2.957  0.00  0.00     0.036 H 
ATOM     54  C   LIG d   1       9.503   3.923  -4.786  0.00  0.00     0.015 C 
ATOM     55  H   LIG d   1       8.571   3.476  -2.855  0.00  0.00     0.029 H 
ATOM     56  H   LIG d   1       9.946   4.625  -2.763  0.00  0.00     0.029 H 
ATOM     57  H   LIG d   1      10.235   4.666  -5.101  0.00  0.00     0.046 H 
ATOM     58  H   LIG d   1       8.502   4.222  -5.096  0.00  0.00     0.046 H 
ENDBRANCH  44  47
ENDBRANCH  41  44
ENDBRANCH  38  41
ENDBRANCH  35  38
ENDBRANCH  32  35
ENDBRANCH  18  32
BRANCH   1  59
ATOM     59  C   LIG d   1       4.106  -0.782  -4.927  0.00  0.00    -0.059 C 
ATOM     60  H   LIG d   1       3.340  -0.025  -4.757  0.00  0.00     0.024 H 
ATOM     61  H   LIG d   1       4.988  -0.316  -5.364  0.00  0.00     0.024 H 
ATOM     62  H   LIG d   1       3.721  -1.541  -5.608  0.00  0.00     0.024 H 
ENDBRANCH   1  59
TORSDOF 7
ENDMDL
MODEL 7
REMARK VINA RESULT:      -6.0      4.106      7.113
REMARK  7 active torsions:
REMARK  status: ('A' for Active; 'I' for Inactive)
REMARK    1  A    between atoms: C_1  and  C_2 
REMARK    2  A    between atoms: C_19  and  C_21 
REMARK    3  A    between atoms: C_21  and  N_60 
REMARK    4  A    between atoms: C_22  and  C_23 
REMARK    5  A    between atoms: C_22  and  N_60 
REMARK    6  A    between atoms: C_23  and  C_24 
REMARK    7  A    between atoms: C_24  and  N_25 
ROOT
ATOM      1  C   LIG d   1       5.838  -0.078  -3.681  0.00  0.00    -0.022 C 
ATOM      2  C   LIG d   1       5.842   1.208  -2.855  0.00  0.00    -0.047 C 
ATOM      3  C   LIG d   1       4.772   1.124  -1.765  0.00  0.00    -0.049 C 
ATOM      4  C   LIG d   1       3.387   1.023  -2.411  0.00  0.00    -0.032 C 
ATOM      5  C   LIG d   1       3.387  -0.138  -3.382  0.00  0.00    -0.073 C 
ATOM      6  C   LIG d   1       2.457  -1.058  -3.332  0.00  0.00    -0.099 C 
ATOM      7  C   LIG d   1       4.493  -0.206  -4.410  0.00  0.00    -0.014 C 
ATOM      8  H   LIG d   1       4.381   0.605  -5.129  0.00  0.00     0.035 H 
ATOM      9  C   LIG d   1       4.456  -1.550  -5.131  0.00  0.00    -0.039 C 
ATOM     10  C   LIG d   1       5.569  -1.604  -6.198  0.00  0.00     0.015 C 
ATOM     11  H   LIG d   1       5.336  -1.010  -7.081  0.00  0.00     0.035 H 
ATOM     12  C   LIG d   1       6.944  -1.261  -5.595  0.00  0.00     0.107 C 
ATOM     13  H   LIG d   1       7.663  -1.132  -6.404  0.00  0.00     0.074 H 
ATOM     14  C   LIG d   1       6.939  -0.017  -4.739  0.00  0.00    -0.009 C 
ATOM     15  O   LIG d   1       7.303  -2.464  -4.857  0.00  0.00    -0.461 OA
ATOM     16  C   LIG d   1       6.939  -3.521  -5.618  0.00  0.00     0.316 C 
ATOM     17  O   LIG d   1       7.447  -4.617  -5.584  0.00  0.00    -0.250 OA
ATOM     18  C   LIG d   1       5.792  -3.111  -6.523  0.00  0.00     0.102 C 
ATOM     19  H   LIG d   1       6.067  -3.239  -7.570  0.00  0.00     0.047 H 
ATOM     20  H   LIG d   1       5.633   2.057  -3.506  0.00  0.00     0.027 H 
ATOM     21  H   LIG d   1       6.821   1.338  -2.393  0.00  0.00     0.027 H 
ATOM     22  H   LIG d   1       4.818   2.017  -1.142  0.00  0.00     0.027 H 
ATOM     23  H   LIG d   1       4.950   0.242  -1.149  0.00  0.00     0.027 H 
ATOM     24  H   LIG d   1       3.165   1.947  -2.947  0.00  0.00     0.031 H 
ATOM     25  H   LIG d   1       2.635   0.855  -1.640  0.00  0.00     0.031 H 
ATOM     26  H   LIG d   1       2.472  -1.882  -4.031  0.00  0.00     0.053 H 
ATOM     27  H   LIG d   1       1.673  -0.995  -2.590  0.00  0.00     0.053 H 
ATOM     28  H   LIG d   1       4.617  -2.351  -4.409  0.00  0.00     0.028 H 
ATOM     29  H   LIG d   1       3.481  -1.680  -5.600  0.00  0.00     0.028 H 
ATOM     30  H   LIG d   1       6.776   0.853  -5.374  0.00  0.00     0.031 H 
ATOM     31  H   LIG d   1       7.905   0.080  -4.243  0.00  0.00     0.031 H 
ENDROOT
BRANCH  18  32
ATOM     32  C   LIG d   1       4.535  -3.922  -6.200  0.00  0.00    -0.020 C 
ATOM     33  H   LIG d   1       3.848  -3.308  -5.617  0.00  0.00     0.082 H 
ATOM     34  H   LIG d   1       4.051  -4.228  -7.127  0.00  0.00     0.082 H 
BRANCH  32  35
ATOM     35  N   LIG d   1       4.915  -5.115  -5.421  0.00  0.00     0.228 N 
ATOM     36  H   LIG d   1       4.416  -5.107  -4.524  0.00  0.00     0.201 HD
ATOM     37  H   LIG d   1       5.927  -5.098  -5.249  0.00  0.00     0.201 HD
BRANCH  35  38
ATOM     38  C   LIG d   1       4.567  -6.343  -6.161  0.00  0.00    -0.032 C 
ATOM     39  H   LIG d   1       3.534  -6.619  -5.946  0.00  0.00     0.081 H 
ATOM     40  H   LIG d   1       4.682  -6.170  -7.231  0.00  0.00     0.081 H 
BRANCH  38  41
ATOM     41  C   LIG d   1       5.498  -7.474  -5.722  0.00  0.00     0.003 C 
ATOM     42  H   LIG d   1       6.288  -7.601  -6.462  0.00  0.00     0.033 H 
ATOM     43  H   LIG d   1       5.940  -7.227  -4.757  0.00  0.00     0.033 H 
BRANCH  41  44
ATOM     44  C   LIG d   1       4.700  -8.773  -5.599  0.00  0.00     0.019 C 
ATOM     45  H   LIG d   1       3.637  -8.541  -5.525  0.00  0.00     0.047 H 
ATOM     46  H   LIG d   1       4.876  -9.393  -6.479  0.00  0.00     0.047 H 
BRANCH  44  47
ATOM     47  N   LIG d   1       5.127  -9.497  -4.399  0.00  0.00    -0.301 N 
ATOM     48  C   LIG d   1       4.288  -9.983  -3.468  0.00  0.00     0.216 C 
ATOM     49  C   LIG d   1       5.070 -10.662  -2.365  0.00  0.00     0.026 C 
ATOM     50  O   LIG d   1       3.079  -9.892  -3.507  0.00  0.00    -0.276 OA
ATOM     51  C   LIG d   1       6.517 -10.150  -2.558  0.00  0.00    -0.029 C 
ATOM     52  H   LIG d   1       4.689 -10.366  -1.389  0.00  0.00     0.036 H 
ATOM     53  H   LIG d   1       5.028 -11.745  -2.479  0.00  0.00     0.036 H 
ATOM     54  C   LIG d   1       6.525  -9.790  -4.062  0.00  0.00     0.015 C 
ATOM     55  H   LIG d   1       6.706  -9.272  -1.941  0.00  0.00     0.029 H 
ATOM     56  H   LIG d   1       7.240 -10.937  -2.344  0.00  0.00     0.029 H 
ATOM     57  H   LIG d   1       6.887 -10.631  -4.652  0.00  0.00     0.046 H 
ATOM     58  H   LIG d   1       7.147  -8.911  -4.235  0.00  0.00     0.046 H 
ENDBRANCH  44  47
ENDBRANCH  41  44
ENDBRANCH  38  41
ENDBRANCH  35  38
ENDBRANCH  32  35
ENDBRANCH  18  32
BRANCH   1  59
ATOM     59  C   LIG d   1       6.047  -1.289  -2.770  0.00  0.00    -0.059 C 
ATOM     60  H   LIG d   1       5.881  -2.204  -3.339  0.00  0.00     0.024 H 
ATOM     61  H   LIG d   1       7.066  -1.282  -2.383  0.00  0.00     0.024 H 
ATOM     62  H   LIG d   1       5.342  -1.245  -1.939  0.00  0.00     0.024 H 
ENDBRANCH   1  59
TORSDOF 7
ENDMDL
MODEL 8
REMARK VINA RESULT:      -6.0      2.466      5.520
REMARK  7 active torsions:
REMARK  status: ('A' for Active; 'I' for Inactive)
REMARK    1  A    between atoms: C_1  and  C_2 
REMARK    2  A    between atoms: C_19  and  C_21 
REMARK    3  A    between atoms: C_21  and  N_60 
REMARK    4  A    between atoms: C_22  and  C_23 
REMARK    5  A    between atoms: C_22  and  N_60 
REMARK    6  A    between atoms: C_23  and  C_24 
REMARK    7  A    between atoms: C_24  and  N_25 
ROOT
ATOM      1  C   LIG d   1       3.348  -2.335  -9.193  0.00  0.00    -0.022 C 
ATOM      2  C   LIG d   1       2.070  -2.814  -9.878  0.00  0.00    -0.047 C 
ATOM      3  C   LIG d   1       1.609  -1.771 -10.899  0.00  0.00    -0.049 C 
ATOM      4  C   LIG d   1       1.258  -0.466 -10.177  0.00  0.00    -0.032 C 
ATOM      5  C   LIG d   1       2.442  -0.042  -9.336  0.00  0.00    -0.073 C 
ATOM      6  C   LIG d   1       2.930   1.170  -9.421  0.00  0.00    -0.099 C 
ATOM      7  C   LIG d   1       3.047  -1.059  -8.395  0.00  0.00    -0.014 C 
ATOM      8  H   LIG d   1       2.348  -1.281  -7.589  0.00  0.00     0.035 H 
ATOM      9  C   LIG d   1       4.355  -0.525  -7.818  0.00  0.00    -0.039 C 
ATOM     10  C   LIG d   1       4.954  -1.555  -6.837  0.00  0.00     0.015 C 
ATOM     11  H   LIG d   1       4.429  -1.585  -5.883  0.00  0.00     0.035 H 
ATOM     12  C   LIG d   1       5.085  -2.944  -7.491  0.00  0.00     0.107 C 
ATOM     13  H   LIG d   1       5.337  -3.674  -6.721  0.00  0.00     0.074 H 
ATOM     14  C   LIG d   1       3.837  -3.398  -8.209  0.00  0.00    -0.009 C 
ATOM     15  O   LIG d   1       6.236  -2.800  -8.372  0.00  0.00    -0.461 OA
ATOM     16  C   LIG d   1       7.161  -2.075  -7.703  0.00  0.00     0.316 C 
ATOM     17  O   LIG d   1       8.354  -2.124  -7.886  0.00  0.00    -0.250 OA
ATOM     18  C   LIG d   1       6.461  -1.191  -6.688  0.00  0.00     0.102 C 
ATOM     19  H   LIG d   1       6.811  -1.418  -5.680  0.00  0.00     0.047 H 
ATOM     20  H   LIG d   1       1.290  -2.959  -9.130  0.00  0.00     0.027 H 
ATOM     21  H   LIG d   1       2.263  -3.759 -10.388  0.00  0.00     0.027 H 
ATOM     22  H   LIG d   1       0.732  -2.142 -11.426  0.00  0.00     0.027 H 
ATOM     23  H   LIG d   1       2.412  -1.585 -11.614  0.00  0.00     0.027 H 
ATOM     24  H   LIG d   1       0.392  -0.626  -9.535  0.00  0.00     0.031 H 
ATOM     25  H   LIG d   1       1.034   0.309 -10.911  0.00  0.00     0.031 H 
ATOM     26  H   LIG d   1       3.777   1.457  -8.814  0.00  0.00     0.053 H 
ATOM     27  H   LIG d   1       2.486   1.885 -10.099  0.00  0.00     0.053 H 
ATOM     28  H   LIG d   1       5.062  -0.353  -8.629  0.00  0.00     0.028 H 
ATOM     29  H   LIG d   1       4.163   0.415  -7.302  0.00  0.00     0.028 H 
ATOM     30  H   LIG d   1       3.054  -3.593  -7.477  0.00  0.00     0.031 H 
ATOM     31  H   LIG d   1       4.053  -4.317  -8.754  0.00  0.00     0.031 H 
ENDROOT
BRANCH  18  32
ATOM     32  C   LIG d   1       6.692   0.287  -7.011  0.00  0.00    -0.020 C 
ATOM     33  H   LIG d   1       7.544   0.381  -7.685  0.00  0.00     0.082 H 
ATOM     34  H   LIG d   1       5.803   0.697  -7.489  0.00  0.00     0.082 H 
BRANCH  32  35
ATOM     35  N   LIG d   1       6.966   1.019  -5.760  0.00  0.00     0.228 N 
ATOM     36  H   LIG d   1       6.098   1.101  -5.219  0.00  0.00     0.201 HD
ATOM     37  H   LIG d   1       7.317   1.957  -5.989  0.00  0.00     0.201 HD
BRANCH  35  38
ATOM     38  C   LIG d   1       7.975   0.303  -4.957  0.00  0.00    -0.032 C 
ATOM     39  H   LIG d   1       8.195  -0.660  -5.418  0.00  0.00     0.081 H 
ATOM     40  H   LIG d   1       8.888   0.897  -4.903  0.00  0.00     0.081 H 
BRANCH  38  41
ATOM     41  C   LIG d   1       7.426   0.080  -3.547  0.00  0.00     0.003 C 
ATOM     42  H   LIG d   1       7.229  -0.981  -3.397  0.00  0.00     0.033 H 
ATOM     43  H   LIG d   1       8.156   0.421  -2.814  0.00  0.00     0.033 H 
BRANCH  41  44
ATOM     44  C   LIG d   1       6.126   0.869  -3.376  0.00  0.00     0.019 C 
ATOM     45  H   LIG d   1       6.192   1.490  -2.483  0.00  0.00     0.047 H 
ATOM     46  H   LIG d   1       5.968   1.504  -4.249  0.00  0.00     0.047 H 
BRANCH  44  47
ATOM     47  N   LIG d   1       5.004  -0.063  -3.241  0.00  0.00    -0.301 N 
ATOM     48  C   LIG d   1       3.718   0.262  -3.461  0.00  0.00     0.216 C 
ATOM     49  C   LIG d   1       2.829  -0.939  -3.220  0.00  0.00     0.026 C 
ATOM     50  O   LIG d   1       3.327   1.357  -3.804  0.00  0.00    -0.276 OA
ATOM     51  C   LIG d   1       3.723  -1.917  -2.421  0.00  0.00    -0.029 C 
ATOM     52  H   LIG d   1       1.956  -0.656  -2.633  0.00  0.00     0.036 H 
ATOM     53  H   LIG d   1       2.524  -1.384  -4.166  0.00  0.00     0.036 H 
ATOM     54  C   LIG d   1       5.139  -1.473  -2.855  0.00  0.00     0.015 C 
ATOM     55  H   LIG d   1       3.580  -1.789  -1.349  0.00  0.00     0.029 H 
ATOM     56  H   LIG d   1       3.532  -2.949  -2.718  0.00  0.00     0.029 H 
ATOM     57  H   LIG d   1       5.480  -2.065  -3.704  0.00  0.00     0.046 H 
ATOM     58  H   LIG d   1       5.835  -1.570  -2.022  0.00  0.00     0.046 H 
ENDBRANCH  44  47
ENDBRANCH  41  44
ENDBRANCH  38  41
ENDBRANCH  35  38
ENDBRANCH  32  35
ENDBRANCH  18  32
BRANCH   1  59
ATOM     59  C   LIG d   1       4.429  -2.046 -10.238  0.00  0.00    -0.059 C 
ATOM     60  H   LIG d   1       4.091  -2.394 -11.215  0.00  0.00     0.024 H 
ATOM     61  H   LIG d   1       4.617  -0.974 -10.279  0.00  0.00     0.024 H 
ATOM     62  H   LIG d   1       5.346  -2.567  -9.965  0.00  0.00     0.024 H 
ENDBRANCH   1  59
TORSDOF 7
ENDMDL
MODEL 9
REMARK VINA RESULT:      -5.9      3.956      5.436
REMARK  7 active torsions:
REMARK  status: ('A' for Active; 'I' for Inactive)
REMARK    1  A    between atoms: C_1  and  C_2 
REMARK    2  A    between atoms: C_19  and  C_21 
REMARK    3  A    between atoms: C_21  and  N_60 
REMARK    4  A    between atoms: C_22  and  C_23 
REMARK    5  A    between atoms: C_22  and  N_60 
REMARK    6  A    between atoms: C_23  and  C_24 
REMARK    7  A    between atoms: C_24  and  N_25 
ROOT
ATOM      1  C   LIG d   1       5.537  -1.842  -4.169  0.00  0.00    -0.022 C 
ATOM      2  C   LIG d   1       4.621  -2.657  -3.258  0.00  0.00    -0.047 C 
ATOM      3  C   LIG d   1       3.548  -1.746  -2.656  0.00  0.00    -0.049 C 
ATOM      4  C   LIG d   1       4.211  -0.684  -1.774  0.00  0.00    -0.032 C 
ATOM      5  C   LIG d   1       5.263   0.037  -2.589  0.00  0.00    -0.073 C 
ATOM      6  C   LIG d   1       5.287   1.345  -2.652  0.00  0.00    -0.099 C 
ATOM      7  C   LIG d   1       6.284  -0.796  -3.329  0.00  0.00    -0.014 C 
ATOM      8  H   LIG d   1       6.944  -1.292  -2.618  0.00  0.00     0.035 H 
ATOM      9  C   LIG d   1       7.100   0.089  -4.267  0.00  0.00    -0.039 C 
ATOM     10  C   LIG d   1       8.160  -0.761  -5.000  0.00  0.00     0.015 C 
ATOM     11  H   LIG d   1       9.000  -1.032  -4.361  0.00  0.00     0.035 H 
ATOM     12  C   LIG d   1       7.522  -1.979  -5.694  0.00  0.00     0.107 C 
ATOM     13  H   LIG d   1       8.313  -2.644  -6.041  0.00  0.00     0.074 H 
ATOM     14  C   LIG d   1       6.579  -2.758  -4.809  0.00  0.00    -0.009 C 
ATOM     15  O   LIG d   1       6.870  -1.404  -6.863  0.00  0.00    -0.461 OA
ATOM     16  C   LIG d   1       7.708  -0.470  -7.367  0.00  0.00     0.316 C 
ATOM     17  O   LIG d   1       7.748  -0.115  -8.521  0.00  0.00    -0.250 OA
ATOM     18  C   LIG d   1       8.590   0.060  -6.252  0.00  0.00     0.102 C 
ATOM     19  H   LIG d   1       9.642  -0.116  -6.481  0.00  0.00     0.047 H 
ATOM     20  H   LIG d   1       5.210  -3.103  -2.456  0.00  0.00     0.027 H 
ATOM     21  H   LIG d   1       4.142  -3.447  -3.838  0.00  0.00     0.027 H 
ATOM     22  H   LIG d   1       2.862  -2.342  -2.055  0.00  0.00     0.027 H 
ATOM     23  H   LIG d   1       2.996  -1.257  -3.460  0.00  0.00     0.027 H 
ATOM     24  H   LIG d   1       4.681  -1.164  -0.915  0.00  0.00     0.031 H 
ATOM     25  H   LIG d   1       3.460   0.028  -1.433  0.00  0.00     0.031 H 
ATOM     26  H   LIG d   1       6.044   1.844  -3.240  0.00  0.00     0.053 H 
ATOM     27  H   LIG d   1       4.549   1.925  -2.117  0.00  0.00     0.053 H 
ATOM     28  H   LIG d   1       6.436   0.542  -5.003  0.00  0.00     0.028 H 
ATOM     29  H   LIG d   1       7.585   0.874  -3.689  0.00  0.00     0.028 H 
ATOM     30  H   LIG d   1       7.151  -3.251  -4.024  0.00  0.00     0.031 H 
ATOM     31  H   LIG d   1       6.070  -3.514  -5.407  0.00  0.00     0.031 H 
ENDROOT
BRANCH  18  32
ATOM     32  C   LIG d   1       8.336   1.553  -6.028  0.00  0.00    -0.020 C 
ATOM     33  H   LIG d   1       7.281   1.711  -5.803  0.00  0.00     0.082 H 
ATOM     34  H   LIG d   1       8.943   1.904  -5.193  0.00  0.00     0.082 H 
BRANCH  32  35
ATOM     35  N   LIG d   1       8.699   2.294  -7.251  0.00  0.00     0.228 N 
ATOM     36  H   LIG d   1       7.842   2.597  -7.729  0.00  0.00     0.201 HD
ATOM     37  H   LIG d   1       9.238   1.679  -7.872  0.00  0.00     0.201 HD
BRANCH  35  38
ATOM     38  C   LIG d   1       9.511   3.478  -6.911  0.00  0.00    -0.032 C 
ATOM     39  H   LIG d   1      10.548   3.306  -7.201  0.00  0.00     0.081 H 
ATOM     40  H   LIG d   1       9.126   4.350  -7.440  0.00  0.00     0.081 H 
BRANCH  38  41
ATOM     41  C   LIG d   1       9.436   3.721  -5.403  0.00  0.00     0.003 C 
ATOM     42  H   LIG d   1       8.588   4.368  -5.181  0.00  0.00     0.033 H 
ATOM     43  H   LIG d   1       9.312   2.769  -4.887  0.00  0.00     0.033 H 
BRANCH  41  44
ATOM     44  C   LIG d   1      10.728   4.392  -4.931  0.00  0.00     0.019 C 
ATOM     45  H   LIG d   1      11.482   3.630  -4.732  0.00  0.00     0.047 H 
ATOM     46  H   LIG d   1      11.090   5.069  -5.705  0.00  0.00     0.047 H 
BRANCH  44  47
ATOM     47  N   LIG d   1      10.463   5.150  -3.705  0.00  0.00    -0.301 N 
ATOM     48  C   LIG d   1      10.565   4.643  -2.464  0.00  0.00     0.216 C 
ATOM     49  C   LIG d   1      10.211   5.699  -1.440  0.00  0.00     0.026 C 
ATOM     50  O   LIG d   1      10.892   3.505  -2.203  0.00  0.00    -0.276 OA
ATOM     51  C   LIG d   1       9.482   6.791  -2.258  0.00  0.00    -0.029 C 
ATOM     52  H   LIG d   1       9.549   5.287  -0.679  0.00  0.00     0.036 H 
ATOM     53  H   LIG d   1      11.114   6.103  -0.981  0.00  0.00     0.036 H 
ATOM     54  C   LIG d   1      10.061   6.561  -3.674  0.00  0.00     0.015 C 
ATOM     55  H   LIG d   1       8.403   6.634  -2.243  0.00  0.00     0.029 H 
ATOM     56  H   LIG d   1       9.735   7.786  -1.892  0.00  0.00     0.029 H 
ATOM     57  H   LIG d   1      10.925   7.204  -3.840  0.00  0.00     0.046 H 
ATOM     58  H   LIG d   1       9.297   6.752  -4.428  0.00  0.00     0.046 H 
ENDBRANCH  44  47
ENDBRANCH  41  44
ENDBRANCH  38  41
ENDBRANCH  35  38
ENDBRANCH  32  35
ENDBRANCH  18  32
BRANCH   1  59
ATOM     59  C   LIG d   1       4.713  -1.140  -5.251  0.00  0.00    -0.059 C 
ATOM     60  H   LIG d   1       3.655  -1.196  -4.996  0.00  0.00     0.024 H 
ATOM     61  H   LIG d   1       5.016  -0.096  -5.319  0.00  0.00     0.024 H 
ATOM     62  H   LIG d   1       4.881  -1.631  -6.210  0.00  0.00     0.024 H 
ENDBRANCH   1  59
TORSDOF 7
ENDMDL
