MODEL 1
REMARK VINA RESULT:      -7.2      0.000      0.000
REMARK  9 active torsions:
REMARK  status: ('A' for Active; 'I' for Inactive)
REMARK    1  A    between atoms: C_1  and  C_2 
REMARK    2  A    between atoms: C_7  and  C_8 
REMARK    3  A    between atoms: N_26  and  C_29 
REMARK    4  A    between atoms: C_34  and  C_35 
REMARK       I    between atoms: C_35  and  N_37 
REMARK    5  A    between atoms: N_37  and  C_38 
REMARK    6  A    between atoms: C_38  and  C_39 
REMARK    7  A    between atoms: C_39  and  C_40 
REMARK    8  A    between atoms: C_40  and  C_41 
REMARK    9  A    between atoms: C_40  and  C_42 
ROOT
ATOM      1  C   LIG d   1       4.388  -4.621  -7.045  0.00  0.00     0.094 C 
ATOM      2  H   LIG d   1       3.871  -5.208  -6.286  0.00  0.00     0.062 H 
ATOM      3  C   LIG d   1       3.569  -4.584  -8.320  0.00  0.00     0.046 A 
ATOM      4  C   LIG d   1       3.227  -3.442  -8.956  0.00  0.00    -0.015 A 
ATOM      5  C   LIG d   1       2.467  -3.829 -10.129  0.00  0.00     0.003 A 
ATOM      6  C   LIG d   1       1.862  -3.089 -11.149  0.00  0.00    -0.052 A 
ATOM      7  C   LIG d   1       1.207  -3.800 -12.125  0.00  0.00    -0.061 A 
ATOM      8  C   LIG d   1       1.141  -5.183 -12.110  0.00  0.00    -0.060 A 
ATOM      9  C   LIG d   1       1.730  -5.940 -11.113  0.00  0.00    -0.038 A 
ATOM     10  C   LIG d   1       2.404  -5.246 -10.108  0.00  0.00     0.047 A 
ATOM     11  N   LIG d   1       3.081  -5.666  -9.001  0.00  0.00    -0.356 N 
ATOM     12  H   LIG d   1       3.198  -6.592  -8.736  0.00  0.00     0.166 HD
ATOM     13  C   LIG d   1       3.575  -2.044  -8.509  0.00  0.00     0.002 C 
ATOM     14  C   LIG d   1       4.753  -2.100  -7.529  0.00  0.00     0.110 A 
ATOM     15  H   LIG d   1       5.705  -2.196  -8.053  0.00  0.00     0.060 H 
ATOM     16  N   LIG d   1       4.522  -3.228  -6.601  0.00  0.00    -0.261 N 
ATOM     17  C   LIG d   1       4.445  -2.719  -5.369  0.00  0.00     0.317 A 
ATOM     18  O   LIG d   1       4.309  -3.389  -4.365  0.00  0.00    -0.252 OA
ATOM     19  N   LIG d   1       4.538  -1.381  -5.368  0.00  0.00    -0.192 N 
ATOM     20  C   LIG d   1       4.711  -0.894  -6.614  0.00  0.00     0.248 A 
ATOM     21  O   LIG d   1       4.814   0.271  -6.935  0.00  0.00    -0.273 OA
ATOM     22  H   LIG d   1       1.908  -2.010 -11.170  0.00  0.00     0.062 H 
ATOM     23  H   LIG d   1       0.727  -3.262 -12.930  0.00  0.00     0.062 H 
ATOM     24  H   LIG d   1       0.612  -5.689 -12.904  0.00  0.00     0.062 H 
ATOM     25  H   LIG d   1       1.672  -7.018 -11.112  0.00  0.00     0.064 H 
ATOM     26  H   LIG d   1       2.713  -1.596  -8.016  0.00  0.00     0.034 H 
ATOM     27  H   LIG d   1       3.850  -1.444  -9.375  0.00  0.00     0.034 H 
ENDROOT
BRANCH  19  28
ATOM     28  C   LIG d   1       4.465  -0.590  -4.221  0.00  0.00     0.058 A 
ATOM     29  C   LIG d   1       5.617  -0.343  -3.460  0.00  0.00     0.059 A 
ATOM     30  C   LIG d   1       5.530   0.454  -2.317  0.00  0.00    -0.048 A 
ATOM     31  C   LIG d   1       4.316   0.982  -1.936  0.00  0.00    -0.061 A 
ATOM     32  H   LIG d   1       6.414   0.652  -1.728  0.00  0.00     0.063 H 
ATOM     33  C   LIG d   1       3.179   0.731  -2.686  0.00  0.00    -0.060 A 
ATOM     34  H   LIG d   1       4.250   1.594  -1.048  0.00  0.00     0.062 H 
ATOM     35  C   LIG d   1       3.249  -0.050  -3.822  0.00  0.00    -0.039 A 
ATOM     36  H   LIG d   1       2.231   1.148  -2.381  0.00  0.00     0.062 H 
ATOM     37  H   LIG d   1       2.358  -0.242  -4.401  0.00  0.00     0.064 H 
BRANCH  29  38
ATOM     38  C   LIG d   1       6.913  -0.917  -3.870  0.00  0.00     0.246 C 
ATOM     39  O   LIG d   1       7.706  -0.240  -4.496  0.00  0.00    -0.270 OA
ATOM     40  N   LIG d   1       7.219  -2.190  -3.550  0.00  0.00    -0.311 N 
ATOM     41  H   LIG d   1       6.586  -2.729  -3.050  0.00  0.00     0.149 HD
BRANCH  40  42
ATOM     42  C   LIG d   1       8.505  -2.759  -3.957  0.00  0.00     0.012 C 
ATOM     43  H   LIG d   1       8.880  -2.224  -4.830  0.00  0.00     0.046 H 
ATOM     44  H   LIG d   1       9.219  -2.664  -3.139  0.00  0.00     0.046 H 
BRANCH  42  45
ATOM     45  C   LIG d   1       8.322  -4.237  -4.305  0.00  0.00    -0.035 C 
ATOM     46  H   LIG d   1       7.378  -4.594  -3.892  0.00  0.00     0.028 H 
ATOM     47  H   LIG d   1       8.312  -4.357  -5.388  0.00  0.00     0.028 H 
BRANCH  45  48
ATOM     48  C   LIG d   1       9.475  -5.049  -3.712  0.00  0.00    -0.045 C 
ATOM     49  H   LIG d   1      10.363  -4.922  -4.332  0.00  0.00     0.030 H 
BRANCH  48  50
ATOM     50  C   LIG d   1       9.768  -4.557  -2.294  0.00  0.00    -0.063 C 
ATOM     51  H   LIG d   1       9.239  -5.184  -1.575  0.00  0.00     0.023 H 
ATOM     52  H   LIG d   1      10.840  -4.612  -2.104  0.00  0.00     0.023 H 
ATOM     53  H   LIG d   1       9.435  -3.524  -2.191  0.00  0.00     0.023 H 
ENDBRANCH  48  50
BRANCH  48  54
ATOM     54  C   LIG d   1       9.089  -6.528  -3.670  0.00  0.00    -0.063 C 
ATOM     55  H   LIG d   1       8.451  -6.762  -4.523  0.00  0.00     0.023 H 
ATOM     56  H   LIG d   1       9.991  -7.140  -3.714  0.00  0.00     0.023 H 
ATOM     57  H   LIG d   1       8.553  -6.738  -2.745  0.00  0.00     0.023 H 
ENDBRANCH  48  54
ENDBRANCH  45  48
ENDBRANCH  42  45
ENDBRANCH  40  42
ENDBRANCH  29  38
ENDBRANCH  19  28
BRANCH   1  58
ATOM     58  C   LIG d   1       5.749  -5.209  -7.319  0.00  0.00    -0.018 A 
ATOM     59  C   LIG d   1       6.183  -6.309  -6.604  0.00  0.00    -0.045 A 
ATOM     60  C   LIG d   1       7.429  -6.852  -6.859  0.00  0.00    -0.059 A 
ATOM     61  C   LIG d   1       8.244  -6.288  -7.821  0.00  0.00    -0.061 A 
ATOM     62  H   LIG d   1       7.766  -7.714  -6.303  0.00  0.00     0.062 H 
ATOM     63  C   LIG d   1       7.812  -5.184  -8.534  0.00  0.00    -0.061 A 
ATOM     64  H   LIG d   1       9.219  -6.709  -8.018  0.00  0.00     0.062 H 
ATOM     65  C   LIG d   1       6.564  -4.645  -8.282  0.00  0.00    -0.056 A 
ATOM     66  H   LIG d   1       8.450  -4.743  -9.285  0.00  0.00     0.062 H 
ATOM     67  H   LIG d   1       6.227  -3.782  -8.838  0.00  0.00     0.062 H 
BRANCH  59  68
ATOM     68  C   LIG d   1       5.296  -6.920  -5.550  0.00  0.00    -0.039 C 
ATOM     69  H   LIG d   1       5.570  -7.966  -5.405  0.00  0.00     0.028 H 
ATOM     70  H   LIG d   1       5.421  -6.380  -4.612  0.00  0.00     0.028 H 
ATOM     71  H   LIG d   1       4.255  -6.859  -5.869  0.00  0.00     0.028 H 
ENDBRANCH  59  68
ENDBRANCH   1  58
TORSDOF 9
ENDMDL
MODEL 2
REMARK VINA RESULT:      -7.1      2.391      6.394
REMARK  9 active torsions:
REMARK  status: ('A' for Active; 'I' for Inactive)
REMARK    1  A    between atoms: C_1  and  C_2 
REMARK    2  A    between atoms: C_7  and  C_8 
REMARK    3  A    between atoms: N_26  and  C_29 
REMARK    4  A    between atoms: C_34  and  C_35 
REMARK       I    between atoms: C_35  and  N_37 
REMARK    5  A    between atoms: N_37  and  C_38 
REMARK    6  A    between atoms: C_38  and  C_39 
REMARK    7  A    between atoms: C_39  and  C_40 
REMARK    8  A    between atoms: C_40  and  C_41 
REMARK    9  A    between atoms: C_40  and  C_42 
ROOT
ATOM      1  C   LIG d   1       5.792  -0.603  -5.480  0.00  0.00     0.094 C 
ATOM      2  H   LIG d   1       6.616   0.072  -5.713  0.00  0.00     0.062 H 
ATOM      3  C   LIG d   1       4.813  -0.648  -6.637  0.00  0.00     0.046 A 
ATOM      4  C   LIG d   1       4.401  -1.791  -7.224  0.00  0.00    -0.015 A 
ATOM      5  C   LIG d   1       3.467  -1.413  -8.267  0.00  0.00     0.003 A 
ATOM      6  C   LIG d   1       2.729  -2.159  -9.192  0.00  0.00    -0.052 A 
ATOM      7  C   LIG d   1       1.926  -1.455 -10.055  0.00  0.00    -0.061 A 
ATOM      8  C   LIG d   1       1.843  -0.073 -10.024  0.00  0.00    -0.060 A 
ATOM      9  C   LIG d   1       2.562   0.689  -9.120  0.00  0.00    -0.038 A 
ATOM     10  C   LIG d   1       3.386   0.002  -8.229  0.00  0.00     0.047 A 
ATOM     11  N   LIG d   1       4.213   0.429  -7.231  0.00  0.00    -0.356 N 
ATOM     12  H   LIG d   1       4.354   1.356  -6.981  0.00  0.00     0.166 HD
ATOM     13  C   LIG d   1       4.845  -3.185  -6.853  0.00  0.00     0.002 C 
ATOM     14  C   LIG d   1       5.437  -3.171  -5.439  0.00  0.00     0.110 A 
ATOM     15  H   LIG d   1       4.656  -3.191  -4.678  0.00  0.00     0.060 H 
ATOM     16  N   LIG d   1       6.295  -1.973  -5.314  0.00  0.00    -0.261 N 
ATOM     17  C   LIG d   1       7.535  -2.397  -5.060  0.00  0.00     0.317 A 
ATOM     18  O   LIG d   1       8.476  -1.656  -4.853  0.00  0.00    -0.252 OA
ATOM     19  N   LIG d   1       7.621  -3.734  -5.059  0.00  0.00    -0.192 N 
ATOM     20  C   LIG d   1       6.424  -4.311  -5.290  0.00  0.00     0.248 A 
ATOM     21  O   LIG d   1       6.186  -5.498  -5.363  0.00  0.00    -0.273 OA
ATOM     22  H   LIG d   1       2.787  -3.237  -9.224  0.00  0.00     0.062 H 
ATOM     23  H   LIG d   1       1.341  -1.997 -10.784  0.00  0.00     0.062 H 
ATOM     24  H   LIG d   1       1.195   0.427 -10.727  0.00  0.00     0.062 H 
ATOM     25  H   LIG d   1       2.489   1.767  -9.104  0.00  0.00     0.064 H 
ATOM     26  H   LIG d   1       5.601  -3.525  -7.560  0.00  0.00     0.034 H 
ATOM     27  H   LIG d   1       3.990  -3.859  -6.884  0.00  0.00     0.034 H 
ENDROOT
BRANCH  19  28
ATOM     28  C   LIG d   1       8.804  -4.444  -4.845  0.00  0.00     0.058 A 
ATOM     29  C   LIG d   1       9.655  -4.735  -5.920  0.00  0.00     0.059 A 
ATOM     30  C   LIG d   1      10.838  -5.442  -5.692  0.00  0.00    -0.048 A 
ATOM     31  C   LIG d   1      11.156  -5.859  -4.418  0.00  0.00    -0.061 A 
ATOM     32  H   LIG d   1      11.501  -5.667  -6.515  0.00  0.00     0.063 H 
ATOM     33  C   LIG d   1      10.310  -5.574  -3.358  0.00  0.00    -0.060 A 
ATOM     34  H   LIG d   1      12.069  -6.409  -4.244  0.00  0.00     0.062 H 
ATOM     35  C   LIG d   1       9.140  -4.871  -3.567  0.00  0.00    -0.039 A 
ATOM     36  H   LIG d   1      10.567  -5.903  -2.363  0.00  0.00     0.062 H 
ATOM     37  H   LIG d   1       8.486  -4.654  -2.736  0.00  0.00     0.064 H 
BRANCH  29  38
ATOM     38  C   LIG d   1       9.306  -4.292  -7.284  0.00  0.00     0.246 C 
ATOM     39  O   LIG d   1       8.792  -5.072  -8.063  0.00  0.00    -0.270 OA
ATOM     40  N   LIG d   1       9.558  -3.025  -7.666  0.00  0.00    -0.311 N 
ATOM     41  H   LIG d   1       9.969  -2.403  -7.044  0.00  0.00     0.149 HD
BRANCH  40  42
ATOM     42  C   LIG d   1       9.213  -2.586  -9.020  0.00  0.00     0.012 C 
ATOM     43  H   LIG d   1      10.014  -1.962  -9.416  0.00  0.00     0.046 H 
ATOM     44  H   LIG d   1       9.081  -3.458  -9.661  0.00  0.00     0.046 H 
BRANCH  42  45
ATOM     45  C   LIG d   1       7.913  -1.781  -8.979  0.00  0.00    -0.035 C 
ATOM     46  H   LIG d   1       7.292  -2.135  -8.156  0.00  0.00     0.028 H 
ATOM     47  H   LIG d   1       8.144  -0.726  -8.833  0.00  0.00     0.028 H 
BRANCH  45  48
ATOM     48  C   LIG d   1       7.159  -1.961 -10.299  0.00  0.00    -0.045 C 
ATOM     49  H   LIG d   1       7.875  -2.035 -11.118  0.00  0.00     0.030 H 
BRANCH  48  50
ATOM     50  C   LIG d   1       6.321  -3.239 -10.237  0.00  0.00    -0.063 C 
ATOM     51  H   LIG d   1       6.809  -4.022 -10.816  0.00  0.00     0.023 H 
ATOM     52  H   LIG d   1       6.223  -3.560  -9.200  0.00  0.00     0.023 H 
ATOM     53  H   LIG d   1       5.331  -3.044 -10.651  0.00  0.00     0.023 H 
ENDBRANCH  48  50
BRANCH  48  54
ATOM     54  C   LIG d   1       6.242  -0.759 -10.530  0.00  0.00    -0.063 C 
ATOM     55  H   LIG d   1       6.845   0.141 -10.652  0.00  0.00     0.023 H 
ATOM     56  H   LIG d   1       5.649  -0.923 -11.431  0.00  0.00     0.023 H 
ATOM     57  H   LIG d   1       5.577  -0.639  -9.675  0.00  0.00     0.023 H 
ENDBRANCH  48  54
ENDBRANCH  45  48
ENDBRANCH  42  45
ENDBRANCH  40  42
ENDBRANCH  29  38
ENDBRANCH  19  28
BRANCH   1  58
ATOM     58  C   LIG d   1       5.090  -0.154  -4.224  0.00  0.00    -0.018 A 
ATOM     59  C   LIG d   1       5.722   0.714  -3.353  0.00  0.00    -0.045 A 
ATOM     60  C   LIG d   1       5.076   1.131  -2.204  0.00  0.00    -0.059 A 
ATOM     61  C   LIG d   1       3.805   0.670  -1.920  0.00  0.00    -0.061 A 
ATOM     62  H   LIG d   1       5.568   1.812  -1.526  0.00  0.00     0.062 H 
ATOM     63  C   LIG d   1       3.175  -0.203  -2.788  0.00  0.00    -0.061 A 
ATOM     64  H   LIG d   1       3.302   0.991  -1.019  0.00  0.00     0.062 H 
ATOM     65  C   LIG d   1       3.818  -0.615  -3.941  0.00  0.00    -0.056 A 
ATOM     66  H   LIG d   1       2.182  -0.563  -2.566  0.00  0.00     0.062 H 
ATOM     67  H   LIG d   1       3.327  -1.297  -4.619  0.00  0.00     0.062 H 
BRANCH  59  68
ATOM     68  C   LIG d   1       7.111   1.211  -3.660  0.00  0.00    -0.039 C 
ATOM     69  H   LIG d   1       7.128   2.300  -3.607  0.00  0.00     0.028 H 
ATOM     70  H   LIG d   1       7.812   0.802  -2.933  0.00  0.00     0.028 H 
ATOM     71  H   LIG d   1       7.399   0.893  -4.662  0.00  0.00     0.028 H 
ENDBRANCH  59  68
ENDBRANCH   1  58
TORSDOF 9
ENDMDL
MODEL 3
REMARK VINA RESULT:      -7.0      2.617      7.256
REMARK  9 active torsions:
REMARK  status: ('A' for Active; 'I' for Inactive)
REMARK    1  A    between atoms: C_1  and  C_2 
REMARK    2  A    between atoms: C_7  and  C_8 
REMARK    3  A    between atoms: N_26  and  C_29 
REMARK    4  A    between atoms: C_34  and  C_35 
REMARK       I    between atoms: C_35  and  N_37 
REMARK    5  A    between atoms: N_37  and  C_38 
REMARK    6  A    between atoms: C_38  and  C_39 
REMARK    7  A    between atoms: C_39  and  C_40 
REMARK    8  A    between atoms: C_40  and  C_41 
REMARK    9  A    between atoms: C_40  and  C_42 
ROOT
ATOM      1  C   LIG d   1       5.950  -1.682  -4.845  0.00  0.00     0.094 C 
ATOM      2  H   LIG d   1       5.229  -2.489  -4.982  0.00  0.00     0.062 H 
ATOM      3  C   LIG d   1       7.316  -2.253  -4.523  0.00  0.00     0.046 A 
ATOM      4  C   LIG d   1       8.439  -1.933  -5.201  0.00  0.00    -0.015 A 
ATOM      5  C   LIG d   1       9.525  -2.670  -4.583  0.00  0.00     0.003 A 
ATOM      6  C   LIG d   1      10.896  -2.737  -4.852  0.00  0.00    -0.052 A 
ATOM      7  C   LIG d   1      11.645  -3.560  -4.048  0.00  0.00    -0.061 A 
ATOM      8  C   LIG d   1      11.083  -4.295  -3.018  0.00  0.00    -0.060 A 
ATOM      9  C   LIG d   1       9.730  -4.248  -2.730  0.00  0.00    -0.038 A 
ATOM     10  C   LIG d   1       8.943  -3.419  -3.529  0.00  0.00     0.047 A 
ATOM     11  N   LIG d   1       7.607  -3.142  -3.523  0.00  0.00    -0.356 N 
ATOM     12  H   LIG d   1       6.961  -3.518  -2.905  0.00  0.00     0.166 HD
ATOM     13  C   LIG d   1       8.524  -0.990  -6.375  0.00  0.00     0.002 C 
ATOM     14  C   LIG d   1       7.284  -0.088  -6.395  0.00  0.00     0.110 A 
ATOM     15  H   LIG d   1       7.381   0.741  -5.691  0.00  0.00     0.060 H 
ATOM     16  N   LIG d   1       6.104  -0.926  -6.095  0.00  0.00    -0.261 N 
ATOM     17  C   LIG d   1       5.291  -0.860  -7.152  0.00  0.00     0.317 A 
ATOM     18  O   LIG d   1       4.204  -1.401  -7.208  0.00  0.00    -0.252 OA
ATOM     19  N   LIG d   1       5.812  -0.126  -8.145  0.00  0.00    -0.192 N 
ATOM     20  C   LIG d   1       7.018   0.380  -7.811  0.00  0.00     0.248 A 
ATOM     21  O   LIG d   1       7.738   1.068  -8.501  0.00  0.00    -0.273 OA
ATOM     22  H   LIG d   1      11.343  -2.168  -5.653  0.00  0.00     0.062 H 
ATOM     23  H   LIG d   1      12.708  -3.638  -4.226  0.00  0.00     0.062 H 
ATOM     24  H   LIG d   1      11.721  -4.927  -2.419  0.00  0.00     0.062 H 
ATOM     25  H   LIG d   1       9.303  -4.825  -1.924  0.00  0.00     0.064 H 
ATOM     26  H   LIG d   1       8.570  -1.564  -7.300  0.00  0.00     0.034 H 
ATOM     27  H   LIG d   1       9.419  -0.376  -6.284  0.00  0.00     0.034 H 
ENDROOT
BRANCH  19  28
ATOM     28  C   LIG d   1       5.187   0.089  -9.374  0.00  0.00     0.058 A 
ATOM     29  C   LIG d   1       5.332  -0.844 -10.411  0.00  0.00     0.059 A 
ATOM     30  C   LIG d   1       4.697  -0.620 -11.634  0.00  0.00    -0.048 A 
ATOM     31  C   LIG d   1       3.943   0.519 -11.821  0.00  0.00    -0.061 A 
ATOM     32  H   LIG d   1       4.800  -1.336 -12.437  0.00  0.00     0.063 H 
ATOM     33  C   LIG d   1       3.807   1.442 -10.796  0.00  0.00    -0.060 A 
ATOM     34  H   LIG d   1       3.457   0.693 -12.769  0.00  0.00     0.062 H 
ATOM     35  C   LIG d   1       4.424   1.230  -9.579  0.00  0.00    -0.039 A 
ATOM     36  H   LIG d   1       3.214   2.331 -10.949  0.00  0.00     0.062 H 
ATOM     37  H   LIG d   1       4.314   1.955  -8.785  0.00  0.00     0.064 H 
BRANCH  29  38
ATOM     38  C   LIG d   1       6.145  -2.058 -10.208  0.00  0.00     0.246 C 
ATOM     39  O   LIG d   1       7.310  -2.074 -10.556  0.00  0.00    -0.270 OA
ATOM     40  N   LIG d   1       5.597  -3.150  -9.639  0.00  0.00    -0.311 N 
ATOM     41  H   LIG d   1       4.667  -3.137  -9.362  0.00  0.00     0.149 HD
BRANCH  40  42
ATOM     42  C   LIG d   1       6.403  -4.355  -9.440  0.00  0.00     0.012 C 
ATOM     43  H   LIG d   1       5.956  -5.188  -9.982  0.00  0.00     0.046 H 
ATOM     44  H   LIG d   1       7.414  -4.181  -9.811  0.00  0.00     0.046 H 
BRANCH  42  45
ATOM     45  C   LIG d   1       6.459  -4.691  -7.948  0.00  0.00    -0.035 C 
ATOM     46  H   LIG d   1       6.343  -3.777  -7.365  0.00  0.00     0.028 H 
ATOM     47  H   LIG d   1       5.655  -5.384  -7.702  0.00  0.00     0.028 H 
BRANCH  45  48
ATOM     48  C   LIG d   1       7.807  -5.336  -7.619  0.00  0.00    -0.045 C 
ATOM     49  H   LIG d   1       7.921  -6.252  -8.199  0.00  0.00     0.030 H 
BRANCH  48  50
ATOM     50  C   LIG d   1       8.936  -4.366  -7.971  0.00  0.00    -0.063 C 
ATOM     51  H   LIG d   1       9.870  -4.918  -8.079  0.00  0.00     0.023 H 
ATOM     52  H   LIG d   1       8.703  -3.860  -8.908  0.00  0.00     0.023 H 
ATOM     53  H   LIG d   1       9.041  -3.626  -7.177  0.00  0.00     0.023 H 
ENDBRANCH  48  50
BRANCH  48  54
ATOM     54  C   LIG d   1       7.864  -5.666  -6.127  0.00  0.00    -0.063 C 
ATOM     55  H   LIG d   1       6.974  -5.275  -5.634  0.00  0.00     0.023 H 
ATOM     56  H   LIG d   1       7.907  -6.748  -5.996  0.00  0.00     0.023 H 
ATOM     57  H   LIG d   1       8.753  -5.212  -5.688  0.00  0.00     0.023 H 
ENDBRANCH  48  54
ENDBRANCH  45  48
ENDBRANCH  42  45
ENDBRANCH  40  42
ENDBRANCH  29  38
ENDBRANCH  19  28
BRANCH   1  58
ATOM     58  C   LIG d   1       5.498  -0.763  -3.739  0.00  0.00    -0.018 A 
ATOM     59  C   LIG d   1       4.592  -1.212  -2.795  0.00  0.00    -0.045 A 
ATOM     60  C   LIG d   1       4.182  -0.371  -1.777  0.00  0.00    -0.059 A 
ATOM     61  C   LIG d   1       4.668   0.920  -1.710  0.00  0.00    -0.061 A 
ATOM     62  H   LIG d   1       3.478  -0.723  -1.038  0.00  0.00     0.062 H 
ATOM     63  C   LIG d   1       5.570   1.371  -2.656  0.00  0.00    -0.061 A 
ATOM     64  H   LIG d   1       4.344   1.579  -0.917  0.00  0.00     0.062 H 
ATOM     65  C   LIG d   1       5.985   0.529  -3.671  0.00  0.00    -0.056 A 
ATOM     66  H   LIG d   1       5.949   2.381  -2.603  0.00  0.00     0.062 H 
ATOM     67  H   LIG d   1       6.688   0.881  -4.411  0.00  0.00     0.062 H 
BRANCH  59  68
ATOM     68  C   LIG d   1       4.058  -2.618  -2.873  0.00  0.00    -0.039 C 
ATOM     69  H   LIG d   1       3.196  -2.643  -3.540  0.00  0.00     0.028 H 
ATOM     70  H   LIG d   1       4.833  -3.281  -3.257  0.00  0.00     0.028 H 
ATOM     71  H   LIG d   1       3.757  -2.949  -1.879  0.00  0.00     0.028 H 
ENDBRANCH  59  68
ENDBRANCH   1  58
TORSDOF 9
ENDMDL
MODEL 4
REMARK VINA RESULT:      -7.0      3.459      7.131
REMARK  9 active torsions:
REMARK  status: ('A' for Active; 'I' for Inactive)
REMARK    1  A    between atoms: C_1  and  C_2 
REMARK    2  A    between atoms: C_7  and  C_8 
REMARK    3  A    between atoms: N_26  and  C_29 
REMARK    4  A    between atoms: C_34  and  C_35 
REMARK       I    between atoms: C_35  and  N_37 
REMARK    5  A    between atoms: N_37  and  C_38 
REMARK    6  A    between atoms: C_38  and  C_39 
REMARK    7  A    between atoms: C_39  and  C_40 
REMARK    8  A    between atoms: C_40  and  C_41 
REMARK    9  A    between atoms: C_40  and  C_42 
ROOT
ATOM      1  C   LIG d   1       8.926  -0.835  -5.221  0.00  0.00     0.094 C 
ATOM      2  H   LIG d   1       8.554  -0.227  -4.396  0.00  0.00     0.062 H 
ATOM      3  C   LIG d   1       8.960  -2.296  -4.816  0.00  0.00     0.046 A 
ATOM      4  C   LIG d   1       8.381  -3.284  -5.532  0.00  0.00    -0.015 A 
ATOM      5  C   LIG d   1       8.649  -4.523  -4.827  0.00  0.00     0.003 A 
ATOM      6  C   LIG d   1       8.305  -5.853  -5.088  0.00  0.00    -0.052 A 
ATOM      7  C   LIG d   1       8.734  -6.793  -4.184  0.00  0.00    -0.061 A 
ATOM      8  C   LIG d   1       9.472  -6.453  -3.063  0.00  0.00    -0.060 A 
ATOM      9  C   LIG d   1       9.825  -5.146  -2.779  0.00  0.00    -0.038 A 
ATOM     10  C   LIG d   1       9.405  -4.169  -3.680  0.00  0.00     0.047 A 
ATOM     11  N   LIG d   1       9.573  -2.815  -3.708  0.00  0.00    -0.356 N 
ATOM     12  H   LIG d   1      10.054  -2.298  -3.042  0.00  0.00     0.166 HD
ATOM     13  C   LIG d   1       7.605  -3.108  -6.813  0.00  0.00     0.002 C 
ATOM     14  C   LIG d   1       7.962  -1.757  -7.444  0.00  0.00     0.110 A 
ATOM     15  H   LIG d   1       8.903  -1.808  -7.993  0.00  0.00     0.060 H 
ATOM     16  N   LIG d   1       8.010  -0.747  -6.365  0.00  0.00    -0.261 N 
ATOM     17  C   LIG d   1       7.084   0.174  -6.642  0.00  0.00     0.317 A 
ATOM     18  O   LIG d   1       6.898   1.172  -5.973  0.00  0.00    -0.252 OA
ATOM     19  N   LIG d   1       6.383  -0.129  -7.743  0.00  0.00    -0.192 N 
ATOM     20  C   LIG d   1       6.811  -1.278  -8.306  0.00  0.00     0.248 A 
ATOM     21  O   LIG d   1       6.368  -1.816  -9.297  0.00  0.00    -0.273 OA
ATOM     22  H   LIG d   1       7.730  -6.127  -5.961  0.00  0.00     0.062 H 
ATOM     23  H   LIG d   1       8.488  -7.831  -4.353  0.00  0.00     0.062 H 
ATOM     24  H   LIG d   1       9.782  -7.235  -2.386  0.00  0.00     0.062 H 
ATOM     25  H   LIG d   1      10.402  -4.893  -1.901  0.00  0.00     0.064 H 
ATOM     26  H   LIG d   1       6.537  -3.137  -6.598  0.00  0.00     0.034 H 
ATOM     27  H   LIG d   1       7.858  -3.911  -7.504  0.00  0.00     0.034 H 
ENDROOT
BRANCH  19  28
ATOM     28  C   LIG d   1       5.338   0.647  -8.247  0.00  0.00     0.058 A 
ATOM     29  C   LIG d   1       4.045   0.514  -7.722  0.00  0.00     0.059 A 
ATOM     30  C   LIG d   1       3.009   1.300  -8.231  0.00  0.00    -0.048 A 
ATOM     31  C   LIG d   1       3.259   2.190  -9.252  0.00  0.00    -0.061 A 
ATOM     32  H   LIG d   1       2.010   1.206  -7.829  0.00  0.00     0.063 H 
ATOM     33  C   LIG d   1       4.536   2.316  -9.773  0.00  0.00    -0.060 A 
ATOM     34  H   LIG d   1       2.455   2.794  -9.648  0.00  0.00     0.062 H 
ATOM     35  C   LIG d   1       5.572   1.550  -9.276  0.00  0.00    -0.039 A 
ATOM     36  H   LIG d   1       4.724   3.016 -10.573  0.00  0.00     0.062 H 
ATOM     37  H   LIG d   1       6.565   1.652  -9.688  0.00  0.00     0.064 H 
BRANCH  29  38
ATOM     38  C   LIG d   1       3.781  -0.447  -6.632  0.00  0.00     0.246 C 
ATOM     39  O   LIG d   1       3.578  -1.617  -6.891  0.00  0.00    -0.270 OA
ATOM     40  N   LIG d   1       3.765  -0.026  -5.352  0.00  0.00    -0.311 N 
ATOM     41  H   LIG d   1       3.927   0.909  -5.147  0.00  0.00     0.149 HD
BRANCH  40  42
ATOM     42  C   LIG d   1       3.503  -0.979  -4.272  0.00  0.00     0.012 C 
ATOM     43  H   LIG d   1       2.813  -1.746  -4.622  0.00  0.00     0.046 H 
ATOM     44  H   LIG d   1       4.439  -1.445  -3.963  0.00  0.00     0.046 H 
BRANCH  42  45
ATOM     45  C   LIG d   1       2.884  -0.243  -3.082  0.00  0.00    -0.035 C 
ATOM     46  H   LIG d   1       2.680   0.791  -3.360  0.00  0.00     0.028 H 
ATOM     47  H   LIG d   1       1.953  -0.733  -2.796  0.00  0.00     0.028 H 
BRANCH  45  48
ATOM     48  C   LIG d   1       3.858  -0.269  -1.902  0.00  0.00    -0.045 C 
ATOM     49  H   LIG d   1       3.295  -0.293  -0.969  0.00  0.00     0.030 H 
BRANCH  48  50
ATOM     50  C   LIG d   1       4.741  -1.515  -1.997  0.00  0.00    -0.063 C 
ATOM     51  H   LIG d   1       5.450  -1.522  -1.169  0.00  0.00     0.023 H 
ATOM     52  H   LIG d   1       4.117  -2.408  -1.948  0.00  0.00     0.023 H 
ATOM     53  H   LIG d   1       5.284  -1.504  -2.942  0.00  0.00     0.023 H 
ENDBRANCH  48  50
BRANCH  48  54
ATOM     54  C   LIG d   1       4.736   0.982  -1.937  0.00  0.00    -0.063 C 
ATOM     55  H   LIG d   1       4.115   1.857  -2.131  0.00  0.00     0.023 H 
ATOM     56  H   LIG d   1       5.238   1.101  -0.975  0.00  0.00     0.023 H 
ATOM     57  H   LIG d   1       5.481   0.882  -2.725  0.00  0.00     0.023 H 
ENDBRANCH  48  54
ENDBRANCH  45  48
ENDBRANCH  42  45
ENDBRANCH  40  42
ENDBRANCH  29  38
ENDBRANCH  19  28
BRANCH   1  58
ATOM     58  C   LIG d   1      10.304  -0.376  -5.624  0.00  0.00    -0.018 A 
ATOM     59  C   LIG d   1      10.789   0.834  -5.168  0.00  0.00    -0.045 A 
ATOM     60  C   LIG d   1      12.055   1.253  -5.534  0.00  0.00    -0.059 A 
ATOM     61  C   LIG d   1      12.829   0.467  -6.365  0.00  0.00    -0.061 A 
ATOM     62  H   LIG d   1      12.437   2.197  -5.174  0.00  0.00     0.062 H 
ATOM     63  C   LIG d   1      12.341  -0.742  -6.827  0.00  0.00    -0.061 A 
ATOM     64  H   LIG d   1      13.817   0.796  -6.656  0.00  0.00     0.062 H 
ATOM     65  C   LIG d   1      11.078  -1.163  -6.456  0.00  0.00    -0.056 A 
ATOM     66  H   LIG d   1      12.947  -1.356  -7.477  0.00  0.00     0.062 H 
ATOM     67  H   LIG d   1      10.696  -2.107  -6.817  0.00  0.00     0.062 H 
BRANCH  59  68
ATOM     68  C   LIG d   1       9.942   1.695  -4.266  0.00  0.00    -0.039 C 
ATOM     69  H   LIG d   1       9.538   1.086  -3.458  0.00  0.00     0.028 H 
ATOM     70  H   LIG d   1      10.554   2.494  -3.848  0.00  0.00     0.028 H 
ATOM     71  H   LIG d   1       9.122   2.127  -4.841  0.00  0.00     0.028 H 
ENDBRANCH  59  68
ENDBRANCH   1  58
TORSDOF 9
ENDMDL
MODEL 5
REMARK VINA RESULT:      -6.9      3.187      8.173
REMARK  9 active torsions:
REMARK  status: ('A' for Active; 'I' for Inactive)
REMARK    1  A    between atoms: C_1  and  C_2 
REMARK    2  A    between atoms: C_7  and  C_8 
REMARK    3  A    between atoms: N_26  and  C_29 
REMARK    4  A    between atoms: C_34  and  C_35 
REMARK       I    between atoms: C_35  and  N_37 
REMARK    5  A    between atoms: N_37  and  C_38 
REMARK    6  A    between atoms: C_38  and  C_39 
REMARK    7  A    between atoms: C_39  and  C_40 
REMARK    8  A    between atoms: C_40  and  C_41 
REMARK    9  A    between atoms: C_40  and  C_42 
ROOT
ATOM      1  C   LIG d   1       3.434  -0.293  -7.541  0.00  0.00     0.094 C 
ATOM      2  H   LIG d   1       2.421   0.073  -7.713  0.00  0.00     0.062 H 
ATOM      3  C   LIG d   1       3.679  -0.467  -6.055  0.00  0.00     0.046 A 
ATOM      4  C   LIG d   1       4.135  -1.611  -5.501  0.00  0.00    -0.015 A 
ATOM      5  C   LIG d   1       4.249  -1.369  -4.075  0.00  0.00     0.003 A 
ATOM      6  C   LIG d   1       4.661  -2.174  -3.010  0.00  0.00    -0.052 A 
ATOM      7  C   LIG d   1       4.640  -1.606  -1.760  0.00  0.00    -0.061 A 
ATOM      8  C   LIG d   1       4.230  -0.300  -1.551  0.00  0.00    -0.060 A 
ATOM      9  C   LIG d   1       3.816   0.518  -2.587  0.00  0.00    -0.038 A 
ATOM     10  C   LIG d   1       3.828  -0.030  -3.868  0.00  0.00     0.047 A 
ATOM     11  N   LIG d   1       3.492   0.483  -5.087  0.00  0.00    -0.356 N 
ATOM     12  H   LIG d   1       3.168   1.384  -5.244  0.00  0.00     0.166 HD
ATOM     13  C   LIG d   1       4.453  -2.886  -6.242  0.00  0.00     0.002 C 
ATOM     14  C   LIG d   1       4.652  -2.574  -7.730  0.00  0.00     0.110 A 
ATOM     15  H   LIG d   1       5.651  -2.182  -7.927  0.00  0.00     0.060 H 
ATOM     16  N   LIG d   1       3.599  -1.623  -8.143  0.00  0.00    -0.261 N 
ATOM     17  C   LIG d   1       2.877  -2.218  -9.095  0.00  0.00     0.317 A 
ATOM     18  O   LIG d   1       1.959  -1.683  -9.685  0.00  0.00    -0.252 OA
ATOM     19  N   LIG d   1       3.285  -3.474  -9.328  0.00  0.00    -0.192 N 
ATOM     20  C   LIG d   1       4.339  -3.806  -8.554  0.00  0.00     0.248 A 
ATOM     21  O   LIG d   1       4.917  -4.871  -8.526  0.00  0.00    -0.273 OA
ATOM     22  H   LIG d   1       4.983  -3.194  -3.163  0.00  0.00     0.062 H 
ATOM     23  H   LIG d   1       4.953  -2.198  -0.911  0.00  0.00     0.062 H 
ATOM     24  H   LIG d   1       4.233   0.093  -0.545  0.00  0.00     0.062 H 
ATOM     25  H   LIG d   1       3.498   1.536  -2.412  0.00  0.00     0.064 H 
ATOM     26  H   LIG d   1       3.629  -3.589  -6.126  0.00  0.00     0.034 H 
ATOM     27  H   LIG d   1       5.364  -3.324  -5.837  0.00  0.00     0.034 H 
ENDROOT
BRANCH  19  28
ATOM     28  C   LIG d   1       2.692  -4.332 -10.255  0.00  0.00     0.058 A 
ATOM     29  C   LIG d   1       3.103  -4.314 -11.595  0.00  0.00     0.059 A 
ATOM     30  C   LIG d   1       2.505  -5.182 -12.511  0.00  0.00    -0.048 A 
ATOM     31  C   LIG d   1       1.509  -6.040 -12.098  0.00  0.00    -0.061 A 
ATOM     32  H   LIG d   1       2.819  -5.177 -13.545  0.00  0.00     0.063 H 
ATOM     33  C   LIG d   1       1.101  -6.051 -10.774  0.00  0.00    -0.060 A 
ATOM     34  H   LIG d   1       1.044  -6.707 -12.809  0.00  0.00     0.062 H 
ATOM     35  C   LIG d   1       1.687  -5.203  -9.856  0.00  0.00    -0.039 A 
ATOM     36  H   LIG d   1       0.320  -6.727 -10.458  0.00  0.00     0.062 H 
ATOM     37  H   LIG d   1       1.363  -5.217  -8.825  0.00  0.00     0.064 H 
BRANCH  29  38
ATOM     38  C   LIG d   1       4.165  -3.389 -12.033  0.00  0.00     0.246 C 
ATOM     39  O   LIG d   1       5.313  -3.781 -12.124  0.00  0.00    -0.270 OA
ATOM     40  N   LIG d   1       3.864  -2.110 -12.332  0.00  0.00    -0.311 N 
ATOM     41  H   LIG d   1       2.948  -1.797 -12.259  0.00  0.00     0.149 HD
BRANCH  40  42
ATOM     42  C   LIG d   1       4.919  -1.191 -12.765  0.00  0.00     0.012 C 
ATOM     43  H   LIG d   1       5.727  -1.757 -13.229  0.00  0.00     0.046 H 
ATOM     44  H   LIG d   1       4.510  -0.484 -13.488  0.00  0.00     0.046 H 
BRANCH  42  45
ATOM     45  C   LIG d   1       5.460  -0.428 -11.555  0.00  0.00    -0.035 C 
ATOM     46  H   LIG d   1       5.261   0.637 -11.678  0.00  0.00     0.028 H 
ATOM     47  H   LIG d   1       4.970  -0.787 -10.651  0.00  0.00     0.028 H 
BRANCH  45  48
ATOM     48  C   LIG d   1       6.969  -0.653 -11.442  0.00  0.00    -0.045 C 
ATOM     49  H   LIG d   1       7.452   0.277 -11.140  0.00  0.00     0.030 H 
BRANCH  48  50
ATOM     50  C   LIG d   1       7.247  -1.735 -10.397  0.00  0.00    -0.063 C 
ATOM     51  H   LIG d   1       8.286  -1.671 -10.075  0.00  0.00     0.023 H 
ATOM     52  H   LIG d   1       6.590  -1.588  -9.539  0.00  0.00     0.023 H 
ATOM     53  H   LIG d   1       7.061  -2.717 -10.833  0.00  0.00     0.023 H 
ENDBRANCH  48  50
BRANCH  48  54
ATOM     54  C   LIG d   1       7.522  -1.098 -12.797  0.00  0.00    -0.063 C 
ATOM     55  H   LIG d   1       6.695  -1.314 -13.474  0.00  0.00     0.023 H 
ATOM     56  H   LIG d   1       8.137  -0.302 -13.218  0.00  0.00     0.023 H 
ATOM     57  H   LIG d   1       8.129  -1.994 -12.666  0.00  0.00     0.023 H 
ENDBRANCH  48  54
ENDBRANCH  45  48
ENDBRANCH  42  45
ENDBRANCH  40  42
ENDBRANCH  29  38
ENDBRANCH  19  28
BRANCH   1  58
ATOM     58  C   LIG d   1       4.439   0.667  -8.124  0.00  0.00    -0.018 A 
ATOM     59  C   LIG d   1       4.010   1.743  -8.878  0.00  0.00    -0.045 A 
ATOM     60  C   LIG d   1       4.933   2.626  -9.408  0.00  0.00    -0.059 A 
ATOM     61  C   LIG d   1       6.283   2.426  -9.194  0.00  0.00    -0.061 A 
ATOM     62  H   LIG d   1       4.597   3.469  -9.993  0.00  0.00     0.062 H 
ATOM     63  C   LIG d   1       6.713   1.347  -8.444  0.00  0.00    -0.061 A 
ATOM     64  H   LIG d   1       7.004   3.114  -9.612  0.00  0.00     0.062 H 
ATOM     65  C   LIG d   1       5.790   0.467  -7.909  0.00  0.00    -0.056 A 
ATOM     66  H   LIG d   1       7.768   1.191  -8.277  0.00  0.00     0.062 H 
ATOM     67  H   LIG d   1       6.126  -0.377  -7.324  0.00  0.00     0.062 H 
BRANCH  59  68
ATOM     68  C   LIG d   1       2.538   1.956  -9.116  0.00  0.00    -0.039 C 
ATOM     69  H   LIG d   1       2.053   0.994  -9.279  0.00  0.00     0.028 H 
ATOM     70  H   LIG d   1       2.096   2.443  -8.247  0.00  0.00     0.028 H 
ATOM     71  H   LIG d   1       2.400   2.586  -9.996  0.00  0.00     0.028 H 
ENDBRANCH  59  68
ENDBRANCH   1  58
TORSDOF 9
ENDMDL
MODEL 6
REMARK VINA RESULT:      -6.9      2.480      5.297
REMARK  9 active torsions:
REMARK  status: ('A' for Active; 'I' for Inactive)
REMARK    1  A    between atoms: C_1  and  C_2 
REMARK    2  A    between atoms: C_7  and  C_8 
REMARK    3  A    between atoms: N_26  and  C_29 
REMARK    4  A    between atoms: C_34  and  C_35 
REMARK       I    between atoms: C_35  and  N_37 
REMARK    5  A    between atoms: N_37  and  C_38 
REMARK    6  A    between atoms: C_38  and  C_39 
REMARK    7  A    between atoms: C_39  and  C_40 
REMARK    8  A    between atoms: C_40  and  C_41 
REMARK    9  A    between atoms: C_40  and  C_42 
ROOT
ATOM      1  C   LIG d   1       4.672  -1.348  -8.998  0.00  0.00     0.094 C 
ATOM      2  H   LIG d   1       4.922  -0.315  -9.240  0.00  0.00     0.062 H 
ATOM      3  C   LIG d   1       5.760  -2.278  -9.498  0.00  0.00     0.046 A 
ATOM      4  C   LIG d   1       6.381  -3.189  -8.719  0.00  0.00    -0.015 A 
ATOM      5  C   LIG d   1       7.335  -3.881  -9.565  0.00  0.00     0.003 A 
ATOM      6  C   LIG d   1       8.248  -4.910  -9.315  0.00  0.00    -0.052 A 
ATOM      7  C   LIG d   1       9.013  -5.331 -10.375  0.00  0.00    -0.061 A 
ATOM      8  C   LIG d   1       8.897  -4.769 -11.635  0.00  0.00    -0.060 A 
ATOM      9  C   LIG d   1       8.003  -3.750 -11.910  0.00  0.00    -0.038 A 
ATOM     10  C   LIG d   1       7.211  -3.303 -10.854  0.00  0.00     0.047 A 
ATOM     11  N   LIG d   1       6.250  -2.337 -10.775  0.00  0.00    -0.356 N 
ATOM     12  H   LIG d   1       5.958  -1.778 -11.511  0.00  0.00     0.166 HD
ATOM     13  C   LIG d   1       6.121  -3.421  -7.251  0.00  0.00     0.002 C 
ATOM     14  C   LIG d   1       4.752  -2.840  -6.878  0.00  0.00     0.110 A 
ATOM     15  H   LIG d   1       3.942  -3.516  -7.154  0.00  0.00     0.060 H 
ATOM     16  N   LIG d   1       4.618  -1.524  -7.540  0.00  0.00    -0.261 N 
ATOM     17  C   LIG d   1       4.474  -0.609  -6.580  0.00  0.00     0.317 A 
ATOM     18  O   LIG d   1       4.290   0.573  -6.791  0.00  0.00    -0.252 OA
ATOM     19  N   LIG d   1       4.554  -1.146  -5.354  0.00  0.00    -0.192 N 
ATOM     20  C   LIG d   1       4.736  -2.482  -5.407  0.00  0.00     0.248 A 
ATOM     21  O   LIG d   1       4.859  -3.240  -4.468  0.00  0.00    -0.273 OA
ATOM     22  H   LIG d   1       8.345  -5.355  -8.335  0.00  0.00     0.062 H 
ATOM     23  H   LIG d   1       9.729  -6.125 -10.220  0.00  0.00     0.062 H 
ATOM     24  H   LIG d   1       9.526  -5.140 -12.431  0.00  0.00     0.062 H 
ATOM     25  H   LIG d   1       7.922  -3.320 -12.898  0.00  0.00     0.064 H 
ATOM     26  H   LIG d   1       6.896  -2.931  -6.663  0.00  0.00     0.034 H 
ATOM     27  H   LIG d   1       6.131  -4.491  -7.045  0.00  0.00     0.034 H 
ENDROOT
BRANCH  19  28
ATOM     28  C   LIG d   1       4.462  -0.414  -4.169  0.00  0.00     0.058 A 
ATOM     29  C   LIG d   1       5.589   0.247  -3.660  0.00  0.00     0.059 A 
ATOM     30  C   LIG d   1       5.483   0.980  -2.476  0.00  0.00    -0.048 A 
ATOM     31  C   LIG d   1       4.278   1.040  -1.809  0.00  0.00    -0.061 A 
ATOM     32  H   LIG d   1       6.345   1.496  -2.080  0.00  0.00     0.063 H 
ATOM     33  C   LIG d   1       3.168   0.380  -2.312  0.00  0.00    -0.060 A 
ATOM     34  H   LIG d   1       4.199   1.603  -0.892  0.00  0.00     0.062 H 
ATOM     35  C   LIG d   1       3.257  -0.343  -3.485  0.00  0.00    -0.039 A 
ATOM     36  H   LIG d   1       2.228   0.432  -1.784  0.00  0.00     0.062 H 
ATOM     37  H   LIG d   1       2.387  -0.855  -3.869  0.00  0.00     0.064 H 
BRANCH  29  38
ATOM     38  C   LIG d   1       6.878   0.175  -4.375  0.00  0.00     0.246 C 
ATOM     39  O   LIG d   1       7.624  -0.767  -4.187  0.00  0.00    -0.270 OA
ATOM     40  N   LIG d   1       7.228   1.152  -5.235  0.00  0.00    -0.311 N 
ATOM     41  H   LIG d   1       6.632   1.903  -5.384  0.00  0.00     0.149 HD
BRANCH  40  42
ATOM     42  C   LIG d   1       8.508   1.080  -5.943  0.00  0.00     0.012 C 
ATOM     43  H   LIG d   1       9.278   1.577  -5.354  0.00  0.00     0.046 H 
ATOM     44  H   LIG d   1       8.782   0.036  -6.092  0.00  0.00     0.046 H 
BRANCH  42  45
ATOM     45  C   LIG d   1       8.378   1.772  -7.301  0.00  0.00    -0.035 C 
ATOM     46  H   LIG d   1       7.890   2.738  -7.172  0.00  0.00     0.028 H 
ATOM     47  H   LIG d   1       9.369   1.920  -7.729  0.00  0.00     0.028 H 
BRANCH  45  48
ATOM     48  C   LIG d   1       7.542   0.901  -8.241  0.00  0.00    -0.045 C 
ATOM     49  H   LIG d   1       6.953   0.197  -7.654  0.00  0.00     0.030 H 
BRANCH  48  50
ATOM     50  C   LIG d   1       6.606   1.790  -9.062  0.00  0.00    -0.063 C 
ATOM     51  H   LIG d   1       6.069   2.465  -8.396  0.00  0.00     0.023 H 
ATOM     52  H   LIG d   1       7.189   2.371  -9.776  0.00  0.00     0.023 H 
ATOM     53  H   LIG d   1       5.892   1.166  -9.600  0.00  0.00     0.023 H 
ENDBRANCH  48  50
BRANCH  48  54
ATOM     54  C   LIG d   1       8.469   0.130  -9.183  0.00  0.00    -0.063 C 
ATOM     55  H   LIG d   1       8.781  -0.799  -8.705  0.00  0.00     0.023 H 
ATOM     56  H   LIG d   1       7.939  -0.097 -10.108  0.00  0.00     0.023 H 
ATOM     57  H   LIG d   1       9.346   0.737  -9.407  0.00  0.00     0.023 H 
ENDBRANCH  48  54
ENDBRANCH  45  48
ENDBRANCH  42  45
ENDBRANCH  40  42
ENDBRANCH  29  38
ENDBRANCH  19  28
BRANCH   1  58
ATOM     58  C   LIG d   1       3.348  -1.721  -9.613  0.00  0.00    -0.018 A 
ATOM     59  C   LIG d   1       2.506  -0.734 -10.090  0.00  0.00    -0.045 A 
ATOM     60  C   LIG d   1       1.293  -1.076 -10.659  0.00  0.00    -0.059 A 
ATOM     61  C   LIG d   1       0.918  -2.404 -10.740  0.00  0.00    -0.061 A 
ATOM     62  H   LIG d   1       0.637  -0.306 -11.036  0.00  0.00     0.062 H 
ATOM     63  C   LIG d   1       1.758  -3.391 -10.257  0.00  0.00    -0.061 A 
ATOM     64  H   LIG d   1      -0.032  -2.671 -11.180  0.00  0.00     0.062 H 
ATOM     65  C   LIG d   1       2.973  -3.049  -9.694  0.00  0.00    -0.056 A 
ATOM     66  H   LIG d   1       1.464  -4.428 -10.321  0.00  0.00     0.062 H 
ATOM     67  H   LIG d   1       3.629  -3.820  -9.316  0.00  0.00     0.062 H 
BRANCH  59  68
ATOM     68  C   LIG d   1       2.912   0.714  -9.996  0.00  0.00    -0.039 C 
ATOM     69  H   LIG d   1       2.214   1.246  -9.349  0.00  0.00     0.028 H 
ATOM     70  H   LIG d   1       3.917   0.782  -9.580  0.00  0.00     0.028 H 
ATOM     71  H   LIG d   1       2.899   1.161 -10.990  0.00  0.00     0.028 H 
ENDBRANCH  59  68
ENDBRANCH   1  58
TORSDOF 9
ENDMDL
MODEL 7
REMARK VINA RESULT:      -6.9      1.768      5.237
REMARK  9 active torsions:
REMARK  status: ('A' for Active; 'I' for Inactive)
REMARK    1  A    between atoms: C_1  and  C_2 
REMARK    2  A    between atoms: C_7  and  C_8 
REMARK    3  A    between atoms: N_26  and  C_29 
REMARK    4  A    between atoms: C_34  and  C_35 
REMARK       I    between atoms: C_35  and  N_37 
REMARK    5  A    between atoms: N_37  and  C_38 
REMARK    6  A    between atoms: C_38  and  C_39 
REMARK    7  A    between atoms: C_39  and  C_40 
REMARK    8  A    between atoms: C_40  and  C_41 
REMARK    9  A    between atoms: C_40  and  C_42 
ROOT
ATOM      1  C   LIG d   1       5.037  -2.403  -9.080  0.00  0.00     0.094 C 
ATOM      2  H   LIG d   1       5.943  -2.372  -9.683  0.00  0.00     0.062 H 
ATOM      3  C   LIG d   1       3.989  -3.265  -9.758  0.00  0.00     0.046 A 
ATOM      4  C   LIG d   1       3.355  -4.289  -9.148  0.00  0.00    -0.015 A 
ATOM      5  C   LIG d   1       2.429  -4.843 -10.118  0.00  0.00     0.003 A 
ATOM      6  C   LIG d   1       1.518  -5.902 -10.057  0.00  0.00    -0.052 A 
ATOM      7  C   LIG d   1       0.788  -6.157 -11.191  0.00  0.00    -0.061 A 
ATOM      8  C   LIG d   1       0.937  -5.409 -12.347  0.00  0.00    -0.060 A 
ATOM      9  C   LIG d   1       1.832  -4.357 -12.435  0.00  0.00    -0.038 A 
ATOM     10  C   LIG d   1       2.587  -4.074 -11.298  0.00  0.00     0.047 A 
ATOM     11  N   LIG d   1       3.538  -3.129 -11.042  0.00  0.00    -0.356 N 
ATOM     12  H   LIG d   1       3.848  -2.462 -11.676  0.00  0.00     0.166 HD
ATOM     13  C   LIG d   1       3.585  -4.753  -7.732  0.00  0.00     0.002 C 
ATOM     14  C   LIG d   1       4.264  -3.635  -6.932  0.00  0.00     0.110 A 
ATOM     15  H   LIG d   1       3.543  -2.889  -6.596  0.00  0.00     0.060 H 
ATOM     16  N   LIG d   1       5.315  -3.037  -7.784  0.00  0.00    -0.261 N 
ATOM     17  C   LIG d   1       6.481  -3.218  -7.161  0.00  0.00     0.317 A 
ATOM     18  O   LIG d   1       7.544  -2.798  -7.575  0.00  0.00    -0.252 OA
ATOM     19  N   LIG d   1       6.344  -3.915  -6.024  0.00  0.00    -0.192 N 
ATOM     20  C   LIG d   1       5.055  -4.235  -5.789  0.00  0.00     0.248 A 
ATOM     21  O   LIG d   1       4.620  -4.871  -4.853  0.00  0.00    -0.273 OA
ATOM     22  H   LIG d   1       1.394  -6.491  -9.160  0.00  0.00     0.062 H 
ATOM     23  H   LIG d   1       0.073  -6.967 -11.182  0.00  0.00     0.062 H 
ATOM     24  H   LIG d   1       0.336  -5.655 -13.210  0.00  0.00     0.062 H 
ATOM     25  H   LIG d   1       1.939  -3.780 -13.342  0.00  0.00     0.064 H 
ATOM     26  H   LIG d   1       4.225  -5.635  -7.738  0.00  0.00     0.034 H 
ATOM     27  H   LIG d   1       2.630  -5.002  -7.271  0.00  0.00     0.034 H 
ENDROOT
BRANCH  19  28
ATOM     28  C   LIG d   1       7.404  -4.268  -5.188  0.00  0.00     0.058 A 
ATOM     29  C   LIG d   1       7.828  -3.391  -4.180  0.00  0.00     0.059 A 
ATOM     30  C   LIG d   1       8.887  -3.758  -3.346  0.00  0.00    -0.048 A 
ATOM     31  C   LIG d   1       9.516  -4.971  -3.526  0.00  0.00    -0.061 A 
ATOM     32  H   LIG d   1       9.217  -3.090  -2.564  0.00  0.00     0.063 H 
ATOM     33  C   LIG d   1       9.099  -5.833  -4.527  0.00  0.00    -0.060 A 
ATOM     34  H   LIG d   1      10.338  -5.251  -2.884  0.00  0.00     0.062 H 
ATOM     35  C   LIG d   1       8.049  -5.486  -5.355  0.00  0.00    -0.039 A 
ATOM     36  H   LIG d   1       9.596  -6.782  -4.661  0.00  0.00     0.062 H 
ATOM     37  H   LIG d   1       7.730  -6.163  -6.134  0.00  0.00     0.064 H 
BRANCH  29  38
ATOM     38  C   LIG d   1       7.155  -2.091  -3.996  0.00  0.00     0.246 C 
ATOM     39  O   LIG d   1       7.533  -1.118  -4.620  0.00  0.00    -0.270 OA
ATOM     40  N   LIG d   1       6.123  -1.982  -3.136  0.00  0.00    -0.311 N 
ATOM     41  H   LIG d   1       5.822  -2.759  -2.638  0.00  0.00     0.149 HD
BRANCH  40  42
ATOM     42  C   LIG d   1       5.456  -0.691  -2.953  0.00  0.00     0.012 C 
ATOM     43  H   LIG d   1       6.112  -0.017  -2.403  0.00  0.00     0.046 H 
ATOM     44  H   LIG d   1       5.227  -0.259  -3.927  0.00  0.00     0.046 H 
BRANCH  42  45
ATOM     45  C   LIG d   1       4.160  -0.893  -2.167  0.00  0.00    -0.035 C 
ATOM     46  H   LIG d   1       3.801  -1.913  -2.314  0.00  0.00     0.028 H 
ATOM     47  H   LIG d   1       4.347  -0.723  -1.107  0.00  0.00     0.028 H 
BRANCH  45  48
ATOM     48  C   LIG d   1       3.101   0.094  -2.664  0.00  0.00    -0.045 C 
ATOM     49  H   LIG d   1       2.198  -0.012  -2.064  0.00  0.00     0.030 H 
BRANCH  48  50
ATOM     50  C   LIG d   1       3.636   1.522  -2.534  0.00  0.00    -0.063 C 
ATOM     51  H   LIG d   1       3.223   1.984  -1.637  0.00  0.00     0.023 H 
ATOM     52  H   LIG d   1       4.723   1.498  -2.464  0.00  0.00     0.023 H 
ATOM     53  H   LIG d   1       3.341   2.101  -3.410  0.00  0.00     0.023 H 
ENDBRANCH  48  50
BRANCH  48  54
ATOM     54  C   LIG d   1       2.778  -0.199  -4.130  0.00  0.00    -0.063 C 
ATOM     55  H   LIG d   1       3.686  -0.509  -4.647  0.00  0.00     0.023 H 
ATOM     56  H   LIG d   1       2.037  -0.997  -4.186  0.00  0.00     0.023 H 
ATOM     57  H   LIG d   1       2.379   0.700  -4.601  0.00  0.00     0.023 H 
ENDBRANCH  48  54
ENDBRANCH  45  48
ENDBRANCH  42  45
ENDBRANCH  40  42
ENDBRANCH  29  38
ENDBRANCH  19  28
BRANCH   1  58
ATOM     58  C   LIG d   1       4.504  -1.009  -8.869  0.00  0.00    -0.018 A 
ATOM     59  C   LIG d   1       5.281   0.084  -9.203  0.00  0.00    -0.045 A 
ATOM     60  C   LIG d   1       4.790   1.364  -9.015  0.00  0.00    -0.059 A 
ATOM     61  C   LIG d   1       3.530   1.548  -8.482  0.00  0.00    -0.061 A 
ATOM     62  H   LIG d   1       5.395   2.218  -9.280  0.00  0.00     0.062 H 
ATOM     63  C   LIG d   1       2.754   0.455  -8.142  0.00  0.00    -0.061 A 
ATOM     64  H   LIG d   1       3.148   2.548  -8.330  0.00  0.00     0.062 H 
ATOM     65  C   LIG d   1       3.242  -0.825  -8.336  0.00  0.00    -0.056 A 
ATOM     66  H   LIG d   1       1.769   0.600  -7.726  0.00  0.00     0.062 H 
ATOM     67  H   LIG d   1       2.637  -1.679  -8.070  0.00  0.00     0.062 H 
BRANCH  59  68
ATOM     68  C   LIG d   1       6.659  -0.118  -9.778  0.00  0.00    -0.039 C 
ATOM     69  H   LIG d   1       7.210   0.823  -9.741  0.00  0.00     0.028 H 
ATOM     70  H   LIG d   1       7.188  -0.871  -9.196  0.00  0.00     0.028 H 
ATOM     71  H   LIG d   1       6.576  -0.449 -10.814  0.00  0.00     0.028 H 
ENDBRANCH  59  68
ENDBRANCH   1  58
TORSDOF 9
ENDMDL
MODEL 8
REMARK VINA RESULT:      -6.8      3.320      6.535
REMARK  9 active torsions:
REMARK  status: ('A' for Active; 'I' for Inactive)
REMARK    1  A    between atoms: C_1  and  C_2 
REMARK    2  A    between atoms: C_7  and  C_8 
REMARK    3  A    between atoms: N_26  and  C_29 
REMARK    4  A    between atoms: C_34  and  C_35 
REMARK       I    between atoms: C_35  and  N_37 
REMARK    5  A    between atoms: N_37  and  C_38 
REMARK    6  A    between atoms: C_38  and  C_39 
REMARK    7  A    between atoms: C_39  and  C_40 
REMARK    8  A    between atoms: C_40  and  C_41 
REMARK    9  A    between atoms: C_40  and  C_42 
ROOT
ATOM      1  C   LIG d   1       5.927  -0.317  -5.401  0.00  0.00     0.094 C 
ATOM      2  H   LIG d   1       6.138   0.749  -5.308  0.00  0.00     0.062 H 
ATOM      3  C   LIG d   1       5.040  -0.569  -6.604  0.00  0.00     0.046 A 
ATOM      4  C   LIG d   1       5.334  -1.458  -7.577  0.00  0.00    -0.015 A 
ATOM      5  C   LIG d   1       4.240  -1.413  -8.529  0.00  0.00     0.003 A 
ATOM      6  C   LIG d   1       3.995  -2.102  -9.721  0.00  0.00    -0.052 A 
ATOM      7  C   LIG d   1       2.830  -1.800 -10.382  0.00  0.00    -0.061 A 
ATOM      8  C   LIG d   1       1.933  -0.860  -9.903  0.00  0.00    -0.060 A 
ATOM      9  C   LIG d   1       2.151  -0.164  -8.727  0.00  0.00    -0.038 A 
ATOM     10  C   LIG d   1       3.325  -0.450  -8.033  0.00  0.00     0.047 A 
ATOM     11  N   LIG d   1       3.842   0.039  -6.868  0.00  0.00    -0.356 N 
ATOM     12  H   LIG d   1       3.424   0.715  -6.311  0.00  0.00     0.166 HD
ATOM     13  C   LIG d   1       6.572  -2.317  -7.644  0.00  0.00     0.002 C 
ATOM     14  C   LIG d   1       7.206  -2.406  -6.251  0.00  0.00     0.110 A 
ATOM     15  H   LIG d   1       6.699  -3.143  -5.627  0.00  0.00     0.060 H 
ATOM     16  N   LIG d   1       7.172  -1.058  -5.646  0.00  0.00    -0.261 N 
ATOM     17  C   LIG d   1       8.435  -0.693  -5.417  0.00  0.00     0.317 A 
ATOM     18  O   LIG d   1       8.754   0.349  -4.878  0.00  0.00    -0.252 OA
ATOM     19  N   LIG d   1       9.312  -1.609  -5.849  0.00  0.00    -0.192 N 
ATOM     20  C   LIG d   1       8.690  -2.680  -6.385  0.00  0.00     0.248 A 
ATOM     21  O   LIG d   1       9.212  -3.661  -6.871  0.00  0.00    -0.273 OA
ATOM     22  H   LIG d   1       4.689  -2.837 -10.102  0.00  0.00     0.062 H 
ATOM     23  H   LIG d   1       2.607  -2.313 -11.307  0.00  0.00     0.062 H 
ATOM     24  H   LIG d   1       1.033  -0.664 -10.466  0.00  0.00     0.062 H 
ATOM     25  H   LIG d   1       1.444   0.567  -8.363  0.00  0.00     0.064 H 
ATOM     26  H   LIG d   1       7.284  -1.875  -8.340  0.00  0.00     0.034 H 
ATOM     27  H   LIG d   1       6.303  -3.316  -7.986  0.00  0.00     0.034 H 
ENDROOT
BRANCH  19  28
ATOM     28  C   LIG d   1      10.699  -1.473  -5.759  0.00  0.00     0.058 A 
ATOM     29  C   LIG d   1      11.404  -0.775  -6.749  0.00  0.00     0.059 A 
ATOM     30  C   LIG d   1      12.790  -0.642  -6.644  0.00  0.00    -0.048 A 
ATOM     31  C   LIG d   1      13.457  -1.206  -5.578  0.00  0.00    -0.061 A 
ATOM     32  H   LIG d   1      13.341  -0.102  -7.401  0.00  0.00     0.063 H 
ATOM     33  C   LIG d   1      12.758  -1.901  -4.605  0.00  0.00    -0.060 A 
ATOM     34  H   LIG d   1      14.530  -1.106  -5.501  0.00  0.00     0.062 H 
ATOM     35  C   LIG d   1      11.387  -2.035  -4.692  0.00  0.00    -0.039 A 
ATOM     36  H   LIG d   1      13.288  -2.339  -3.773  0.00  0.00     0.062 H 
ATOM     37  H   LIG d   1      10.848  -2.579  -3.929  0.00  0.00     0.064 H 
BRANCH  29  38
ATOM     38  C   LIG d   1      10.685  -0.178  -7.891  0.00  0.00     0.246 C 
ATOM     39  O   LIG d   1      10.493  -0.834  -8.897  0.00  0.00    -0.270 OA
ATOM     40  N   LIG d   1      10.243   1.093  -7.820  0.00  0.00    -0.311 N 
ATOM     41  H   LIG d   1      10.397   1.615  -7.017  0.00  0.00     0.149 HD
BRANCH  40  42
ATOM     42  C   LIG d   1       9.531   1.685  -8.954  0.00  0.00     0.012 C 
ATOM     43  H   LIG d   1      10.146   2.465  -9.403  0.00  0.00     0.046 H 
ATOM     44  H   LIG d   1       9.325   0.913  -9.696  0.00  0.00     0.046 H 
BRANCH  42  45
ATOM     45  C   LIG d   1       8.213   2.291  -8.469  0.00  0.00    -0.035 C 
ATOM     46  H   LIG d   1       8.260   2.450  -7.392  0.00  0.00     0.028 H 
ATOM     47  H   LIG d   1       8.045   3.243  -8.970  0.00  0.00     0.028 H 
BRANCH  45  48
ATOM     48  C   LIG d   1       7.062   1.335  -8.792  0.00  0.00    -0.045 C 
ATOM     49  H   LIG d   1       6.889   0.677  -7.940  0.00  0.00     0.030 H 
BRANCH  48  50
ATOM     50  C   LIG d   1       5.794   2.141  -9.079  0.00  0.00    -0.063 C 
ATOM     51  H   LIG d   1       5.991   2.853  -9.882  0.00  0.00     0.023 H 
ATOM     52  H   LIG d   1       4.994   1.466  -9.380  0.00  0.00     0.023 H 
ATOM     53  H   LIG d   1       5.495   2.681  -8.180  0.00  0.00     0.023 H 
ENDBRANCH  48  50
BRANCH  48  54
ATOM     54  C   LIG d   1       7.423   0.497 -10.019  0.00  0.00    -0.063 C 
ATOM     55  H   LIG d   1       6.512   0.118 -10.482  0.00  0.00     0.023 H 
ATOM     56  H   LIG d   1       7.964   1.117 -10.736  0.00  0.00     0.023 H 
ATOM     57  H   LIG d   1       8.053  -0.340  -9.716  0.00  0.00     0.023 H 
ENDBRANCH  48  54
ENDBRANCH  45  48
ENDBRANCH  42  45
ENDBRANCH  40  42
ENDBRANCH  29  38
ENDBRANCH  19  28
BRANCH   1  58
ATOM     58  C   LIG d   1       5.260  -0.826  -4.149  0.00  0.00    -0.018 A 
ATOM     59  C   LIG d   1       5.234  -0.040  -3.012  0.00  0.00    -0.045 A 
ATOM     60  C   LIG d   1       4.618  -0.505  -1.865  0.00  0.00    -0.059 A 
ATOM     61  C   LIG d   1       4.039  -1.759  -1.852  0.00  0.00    -0.061 A 
ATOM     62  H   LIG d   1       4.594   0.111  -0.978  0.00  0.00     0.062 H 
ATOM     63  C   LIG d   1       4.070  -2.548  -2.987  0.00  0.00    -0.061 A 
ATOM     64  H   LIG d   1       3.561  -2.125  -0.954  0.00  0.00     0.062 H 
ATOM     65  C   LIG d   1       4.681  -2.081  -4.136  0.00  0.00    -0.056 A 
ATOM     66  H   LIG d   1       3.617  -3.528  -2.976  0.00  0.00     0.062 H 
ATOM     67  H   LIG d   1       4.706  -2.697  -5.023  0.00  0.00     0.062 H 
BRANCH  59  68
ATOM     68  C   LIG d   1       5.872   1.325  -3.025  0.00  0.00    -0.039 C 
ATOM     69  H   LIG d   1       6.737   1.329  -2.362  0.00  0.00     0.028 H 
ATOM     70  H   LIG d   1       6.191   1.567  -4.038  0.00  0.00     0.028 H 
ATOM     71  H   LIG d   1       5.149   2.067  -2.683  0.00  0.00     0.028 H 
ENDBRANCH  59  68
ENDBRANCH   1  58
TORSDOF 9
ENDMDL
MODEL 9
REMARK VINA RESULT:      -6.7      2.077      7.133
REMARK  9 active torsions:
REMARK  status: ('A' for Active; 'I' for Inactive)
REMARK    1  A    between atoms: C_1  and  C_2 
REMARK    2  A    between atoms: C_7  and  C_8 
REMARK    3  A    between atoms: N_26  and  C_29 
REMARK    4  A    between atoms: C_34  and  C_35 
REMARK       I    between atoms: C_35  and  N_37 
REMARK    5  A    between atoms: N_37  and  C_38 
REMARK    6  A    between atoms: C_38  and  C_39 
REMARK    7  A    between atoms: C_39  and  C_40 
REMARK    8  A    between atoms: C_40  and  C_41 
REMARK    9  A    between atoms: C_40  and  C_42 
ROOT
ATOM      1  C   LIG d   1       6.980  -1.238  -4.656  0.00  0.00     0.094 C 
ATOM      2  H   LIG d   1       6.132  -1.196  -3.972  0.00  0.00     0.062 H 
ATOM      3  C   LIG d   1       7.827  -2.460  -4.361  0.00  0.00     0.046 A 
ATOM      4  C   LIG d   1       8.179  -3.369  -5.296  0.00  0.00    -0.015 A 
ATOM      5  C   LIG d   1       8.992  -4.365  -4.625  0.00  0.00     0.003 A 
ATOM      6  C   LIG d   1       9.628  -5.526  -5.076  0.00  0.00    -0.052 A 
ATOM      7  C   LIG d   1      10.328  -6.250  -4.143  0.00  0.00    -0.061 A 
ATOM      8  C   LIG d   1      10.406  -5.863  -2.816  0.00  0.00    -0.060 A 
ATOM      9  C   LIG d   1       9.786  -4.720  -2.343  0.00  0.00    -0.038 A 
ATOM     10  C   LIG d   1       9.068  -3.962  -3.268  0.00  0.00     0.047 A 
ATOM     11  N   LIG d   1       8.353  -2.807  -3.146  0.00  0.00    -0.356 N 
ATOM     12  H   LIG d   1       8.234  -2.307  -2.323  0.00  0.00     0.166 HD
ATOM     13  C   LIG d   1       7.787  -3.336  -6.752  0.00  0.00     0.002 C 
ATOM     14  C   LIG d   1       7.353  -1.915  -7.131  0.00  0.00     0.110 A 
ATOM     15  H   LIG d   1       8.212  -1.271  -7.323  0.00  0.00     0.060 H 
ATOM     16  N   LIG d   1       6.507  -1.389  -6.038  0.00  0.00    -0.261 N 
ATOM     17  C   LIG d   1       5.304  -1.129  -6.556  0.00  0.00     0.317 A 
ATOM     18  O   LIG d   1       4.387  -0.636  -5.929  0.00  0.00    -0.252 OA
ATOM     19  N   LIG d   1       5.226  -1.472  -7.850  0.00  0.00    -0.192 N 
ATOM     20  C   LIG d   1       6.395  -1.972  -8.303  0.00  0.00     0.248 A 
ATOM     21  O   LIG d   1       6.630  -2.380  -9.420  0.00  0.00    -0.273 OA
ATOM     22  H   LIG d   1       9.574  -5.836  -6.109  0.00  0.00     0.062 H 
ATOM     23  H   LIG d   1      10.834  -7.153  -4.454  0.00  0.00     0.062 H 
ATOM     24  H   LIG d   1      10.970  -6.472  -2.126  0.00  0.00     0.062 H 
ATOM     25  H   LIG d   1       9.854  -4.427  -1.305  0.00  0.00     0.064 H 
ATOM     26  H   LIG d   1       6.960  -4.025  -6.921  0.00  0.00     0.034 H 
ATOM     27  H   LIG d   1       8.638  -3.632  -7.365  0.00  0.00     0.034 H 
ENDROOT
BRANCH  19  28
ATOM     28  C   LIG d   1       4.078  -1.333  -8.631  0.00  0.00     0.058 A 
ATOM     29  C   LIG d   1       3.296  -2.454  -8.940  0.00  0.00     0.059 A 
ATOM     30  C   LIG d   1       2.147  -2.300  -9.719  0.00  0.00    -0.048 A 
ATOM     31  C   LIG d   1       1.795  -1.053 -10.188  0.00  0.00    -0.061 A 
ATOM     32  H   LIG d   1       1.536  -3.159  -9.958  0.00  0.00     0.063 H 
ATOM     33  C   LIG d   1       2.574   0.053  -9.885  0.00  0.00    -0.060 A 
ATOM     34  H   LIG d   1       0.909  -0.936 -10.794  0.00  0.00     0.062 H 
ATOM     35  C   LIG d   1       3.709  -0.083  -9.112  0.00  0.00    -0.039 A 
ATOM     36  H   LIG d   1       2.292   1.026 -10.256  0.00  0.00     0.062 H 
ATOM     37  H   LIG d   1       4.312   0.783  -8.881  0.00  0.00     0.064 H 
BRANCH  29  38
ATOM     38  C   LIG d   1       3.680  -3.788  -8.441  0.00  0.00     0.246 C 
ATOM     39  O   LIG d   1       4.162  -4.606  -9.201  0.00  0.00    -0.270 OA
ATOM     40  N   LIG d   1       3.497  -4.100  -7.143  0.00  0.00    -0.311 N 
ATOM     41  H   LIG d   1       3.112  -3.448  -6.536  0.00  0.00     0.149 HD
BRANCH  40  42
ATOM     42  C   LIG d   1       3.877  -5.425  -6.647  0.00  0.00     0.012 C 
ATOM     43  H   LIG d   1       3.011  -5.908  -6.197  0.00  0.00     0.046 H 
ATOM     44  H   LIG d   1       4.241  -6.032  -7.477  0.00  0.00     0.046 H 
BRANCH  42  45
ATOM     45  C   LIG d   1       4.982  -5.280  -5.599  0.00  0.00    -0.035 C 
ATOM     46  H   LIG d   1       5.572  -4.389  -5.814  0.00  0.00     0.028 H 
ATOM     47  H   LIG d   1       4.534  -5.189  -4.610  0.00  0.00     0.028 H 
BRANCH  45  48
ATOM     48  C   LIG d   1       5.888  -6.512  -5.637  0.00  0.00    -0.045 C 
ATOM     49  H   LIG d   1       6.698  -6.388  -4.918  0.00  0.00     0.030 H 
BRANCH  48  50
ATOM     50  C   LIG d   1       5.074  -7.756  -5.279  0.00  0.00    -0.063 C 
ATOM     51  H   LIG d   1       4.607  -8.157  -6.179  0.00  0.00     0.023 H 
ATOM     52  H   LIG d   1       5.731  -8.509  -4.844  0.00  0.00     0.023 H 
ATOM     53  H   LIG d   1       4.301  -7.489  -4.557  0.00  0.00     0.023 H 
ENDBRANCH  48  50
BRANCH  48  54
ATOM     54  C   LIG d   1       6.473  -6.672  -7.042  0.00  0.00    -0.063 C 
ATOM     55  H   LIG d   1       5.954  -7.476  -7.562  0.00  0.00     0.023 H 
ATOM     56  H   LIG d   1       6.346  -5.740  -7.596  0.00  0.00     0.023 H 
ATOM     57  H   LIG d   1       7.534  -6.909  -6.969  0.00  0.00     0.023 H 
ENDBRANCH  48  54
ENDBRANCH  45  48
ENDBRANCH  42  45
ENDBRANCH  40  42
ENDBRANCH  29  38
ENDBRANCH  19  28
BRANCH   1  58
ATOM     58  C   LIG d   1       7.812   0.013  -4.528  0.00  0.00    -0.018 A 
ATOM     59  C   LIG d   1       7.325   1.097  -3.823  0.00  0.00    -0.045 A 
ATOM     60  C   LIG d   1       8.091   2.242  -3.701  0.00  0.00    -0.059 A 
ATOM     61  C   LIG d   1       9.336   2.307  -4.294  0.00  0.00    -0.061 A 
ATOM     62  H   LIG d   1       7.712   3.088  -3.147  0.00  0.00     0.062 H 
ATOM     63  C   LIG d   1       9.822   1.224  -5.005  0.00  0.00    -0.061 A 
ATOM     64  H   LIG d   1       9.933   3.203  -4.204  0.00  0.00     0.062 H 
ATOM     65  C   LIG d   1       9.059   0.077  -5.122  0.00  0.00    -0.056 A 
ATOM     66  H   LIG d   1      10.796   1.275  -5.468  0.00  0.00     0.062 H 
ATOM     67  H   LIG d   1       9.437  -0.769  -5.677  0.00  0.00     0.062 H 
BRANCH  59  68
ATOM     68  C   LIG d   1       5.963   1.029  -3.182  0.00  0.00    -0.039 C 
ATOM     69  H   LIG d   1       5.463   1.992  -3.288  0.00  0.00     0.028 H 
ATOM     70  H   LIG d   1       5.371   0.256  -3.670  0.00  0.00     0.028 H 
ATOM     71  H   LIG d   1       6.071   0.791  -2.123  0.00  0.00     0.028 H 
ENDBRANCH  59  68
ENDBRANCH   1  58
TORSDOF 9
ENDMDL
MODEL 10
REMARK VINA RESULT:      -6.6      4.874      9.374
REMARK  9 active torsions:
REMARK  status: ('A' for Active; 'I' for Inactive)
REMARK    1  A    between atoms: C_1  and  C_2 
REMARK    2  A    between atoms: C_7  and  C_8 
REMARK    3  A    between atoms: N_26  and  C_29 
REMARK    4  A    between atoms: C_34  and  C_35 
REMARK       I    between atoms: C_35  and  N_37 
REMARK    5  A    between atoms: N_37  and  C_38 
REMARK    6  A    between atoms: C_38  and  C_39 
REMARK    7  A    between atoms: C_39  and  C_40 
REMARK    8  A    between atoms: C_40  and  C_41 
REMARK    9  A    between atoms: C_40  and  C_42 
ROOT
ATOM      1  C   LIG d   1       8.557   2.251  -5.359  0.00  0.00     0.094 C 
ATOM      2  H   LIG d   1       8.028   2.979  -5.974  0.00  0.00     0.062 H 
ATOM      3  C   LIG d   1       7.569   1.461  -4.523  0.00  0.00     0.046 A 
ATOM      4  C   LIG d   1       7.522   0.112  -4.496  0.00  0.00    -0.015 A 
ATOM      5  C   LIG d   1       6.463  -0.252  -3.574  0.00  0.00     0.003 A 
ATOM      6  C   LIG d   1       5.961  -1.486  -3.149  0.00  0.00    -0.052 A 
ATOM      7  C   LIG d   1       4.926  -1.457  -2.248  0.00  0.00    -0.061 A 
ATOM      8  C   LIG d   1       4.393  -0.269  -1.776  0.00  0.00    -0.060 A 
ATOM      9  C   LIG d   1       4.869   0.966  -2.181  0.00  0.00    -0.038 A 
ATOM     10  C   LIG d   1       5.922   0.968  -3.095  0.00  0.00     0.047 A 
ATOM     11  N   LIG d   1       6.616   1.982  -3.690  0.00  0.00    -0.356 N 
ATOM     12  H   LIG d   1       6.457   2.928  -3.545  0.00  0.00     0.166 HD
ATOM     13  C   LIG d   1       8.409  -0.819  -5.286  0.00  0.00     0.002 C 
ATOM     14  C   LIG d   1       9.663  -0.064  -5.741  0.00  0.00     0.110 A 
ATOM     15  H   LIG d   1      10.403   0.003  -4.942  0.00  0.00     0.060 H 
ATOM     16  N   LIG d   1       9.245   1.274  -6.214  0.00  0.00    -0.261 N 
ATOM     17  C   LIG d   1       9.589   1.367  -7.500  0.00  0.00     0.317 A 
ATOM     18  O   LIG d   1       9.429   2.364  -8.175  0.00  0.00    -0.252 OA
ATOM     19  N   LIG d   1      10.134   0.232  -7.960  0.00  0.00    -0.192 N 
ATOM     20  C   LIG d   1      10.217  -0.708  -6.995  0.00  0.00     0.248 A 
ATOM     21  O   LIG d   1      10.649  -1.835  -7.108  0.00  0.00    -0.273 OA
ATOM     22  H   LIG d   1       6.371  -2.418  -3.511  0.00  0.00     0.062 H 
ATOM     23  H   LIG d   1       4.513  -2.391  -1.896  0.00  0.00     0.062 H 
ATOM     24  H   LIG d   1       3.579  -0.307  -1.069  0.00  0.00     0.062 H 
ATOM     25  H   LIG d   1       4.446   1.886  -1.805  0.00  0.00     0.064 H 
ATOM     26  H   LIG d   1       7.867  -1.183  -6.158  0.00  0.00     0.034 H 
ATOM     27  H   LIG d   1       8.699  -1.662  -4.660  0.00  0.00     0.034 H 
ENDROOT
BRANCH  19  28
ATOM     28  C   LIG d   1      10.561   0.043  -9.275  0.00  0.00     0.058 A 
ATOM     29  C   LIG d   1       9.634  -0.264 -10.281  0.00  0.00     0.059 A 
ATOM     30  C   LIG d   1      10.074  -0.445 -11.593  0.00  0.00    -0.048 A 
ATOM     31  C   LIG d   1      11.415  -0.334 -11.892  0.00  0.00    -0.061 A 
ATOM     32  H   LIG d   1       9.365  -0.678 -12.375  0.00  0.00     0.063 H 
ATOM     33  C   LIG d   1      12.330  -0.036 -10.895  0.00  0.00    -0.060 A 
ATOM     34  H   LIG d   1      11.754  -0.479 -12.906  0.00  0.00     0.062 H 
ATOM     35  C   LIG d   1      11.909   0.152  -9.593  0.00  0.00    -0.039 A 
ATOM     36  H   LIG d   1      13.378   0.050 -11.136  0.00  0.00     0.062 H 
ATOM     37  H   LIG d   1      12.628   0.383  -8.822  0.00  0.00     0.064 H 
BRANCH  29  38
ATOM     38  C   LIG d   1       8.200  -0.388  -9.954  0.00  0.00     0.246 C 
ATOM     39  O   LIG d   1       7.739  -1.471  -9.647  0.00  0.00    -0.270 OA
ATOM     40  N   LIG d   1       7.402   0.697  -9.998  0.00  0.00    -0.311 N 
ATOM     41  H   LIG d   1       7.771   1.560 -10.244  0.00  0.00     0.149 HD
BRANCH  40  42
ATOM     42  C   LIG d   1       5.979   0.573  -9.676  0.00  0.00     0.012 C 
ATOM     43  H   LIG d   1       5.418   0.349 -10.583  0.00  0.00     0.046 H 
ATOM     44  H   LIG d   1       5.839  -0.232  -8.954  0.00  0.00     0.046 H 
BRANCH  42  45
ATOM     45  C   LIG d   1       5.475   1.887  -9.077  0.00  0.00    -0.035 C 
ATOM     46  H   LIG d   1       5.375   1.780  -7.997  0.00  0.00     0.028 H 
ATOM     47  H   LIG d   1       6.185   2.683  -9.299  0.00  0.00     0.028 H 
BRANCH  45  48
ATOM     48  C   LIG d   1       4.113   2.235  -9.681  0.00  0.00    -0.045 C 
ATOM     49  H   LIG d   1       4.127   3.265 -10.037  0.00  0.00     0.030 H 
BRANCH  48  50
ATOM     50  C   LIG d   1       3.819   1.295 -10.852  0.00  0.00    -0.063 C 
ATOM     51  H   LIG d   1       4.699   1.225 -11.491  0.00  0.00     0.023 H 
ATOM     52  H   LIG d   1       3.567   0.306 -10.470  0.00  0.00     0.023 H 
ATOM     53  H   LIG d   1       2.980   1.686 -11.429  0.00  0.00     0.023 H 
ENDBRANCH  48  50
BRANCH  48  54
ATOM     54  C   LIG d   1       3.027   2.078  -8.616  0.00  0.00    -0.063 C 
ATOM     55  H   LIG d   1       2.553   3.043  -8.435  0.00  0.00     0.023 H 
ATOM     56  H   LIG d   1       2.278   1.365  -8.963  0.00  0.00     0.023 H 
ATOM     57  H   LIG d   1       3.474   1.713  -7.691  0.00  0.00     0.023 H 
ENDBRANCH  48  54
ENDBRANCH  45  48
ENDBRANCH  42  45
ENDBRANCH  40  42
ENDBRANCH  29  38
ENDBRANCH  19  28
BRANCH   1  58
ATOM     58  C   LIG d   1       9.551   2.947  -4.466  0.00  0.00    -0.018 A 
ATOM     59  C   LIG d   1      10.023   4.202  -4.805  0.00  0.00    -0.045 A 
ATOM     60  C   LIG d   1      10.931   4.843  -3.983  0.00  0.00    -0.059 A 
ATOM     61  C   LIG d   1      11.376   4.225  -2.830  0.00  0.00    -0.061 A 
ATOM     62  H   LIG d   1      11.297   5.825  -4.245  0.00  0.00     0.062 H 
ATOM     63  C   LIG d   1      10.909   2.968  -2.493  0.00  0.00    -0.061 A 
ATOM     64  H   LIG d   1      12.090   4.724  -2.190  0.00  0.00     0.062 H 
ATOM     65  C   LIG d   1       9.996   2.329  -3.312  0.00  0.00    -0.056 A 
ATOM     66  H   LIG d   1      11.256   2.486  -1.592  0.00  0.00     0.062 H 
ATOM     67  H   LIG d   1       9.631   1.347  -3.050  0.00  0.00     0.062 H 
BRANCH  59  68
ATOM     68  C   LIG d   1       9.543   4.872  -6.066  0.00  0.00    -0.039 C 
ATOM     69  H   LIG d   1      10.165   5.743  -6.274  0.00  0.00     0.028 H 
ATOM     70  H   LIG d   1       9.610   4.171  -6.897  0.00  0.00     0.028 H 
ATOM     71  H   LIG d   1       8.507   5.188  -5.938  0.00  0.00     0.028 H 
ENDBRANCH  59  68
ENDBRANCH   1  58
TORSDOF 9
ENDMDL
