MODEL 1
REMARK VINA RESULT:      -6.7      0.000      0.000
REMARK  8 active torsions:
REMARK  status: ('A' for Active; 'I' for Inactive)
REMARK    1  A    between atoms: C_1  and  C_2 
REMARK    2  A    between atoms: C_2  and  C_4 
REMARK    3  A    between atoms: C_2  and  O_6 
REMARK    4  A    between atoms: O_6  and  C_7 
REMARK    5  A    between atoms: C_20  and  O_22 
REMARK    6  A    between atoms: O_22  and  C_23 
REMARK    7  A    between atoms: C_23  and  C_25 
REMARK    8  A    between atoms: C_23  and  C_26 
ROOT
ATOM      1  C   LIG d   1       5.105  -1.256  -4.750  0.00  0.00     0.128 A 
ATOM      2  C   LIG d   1       4.607  -0.106  -5.339  0.00  0.00     0.023 A 
ATOM      3  C   LIG d   1       3.986  -0.168  -6.580  0.00  0.00     0.147 A 
ATOM      4  C   LIG d   1       3.871  -1.407  -7.227  0.00  0.00     0.067 A 
ATOM      5  C   LIG d   1       3.211  -1.470  -8.544  0.00  0.00     0.003 A 
ATOM      6  C   LIG d   1       3.064  -2.666  -9.238  0.00  0.00    -0.053 A 
ATOM      7  C   LIG d   1       2.437  -2.666 -10.467  0.00  0.00    -0.061 A 
ATOM      8  C   LIG d   1       1.959  -1.485 -11.017  0.00  0.00    -0.061 A 
ATOM      9  C   LIG d   1       2.091  -0.290 -10.342  0.00  0.00    -0.047 A 
ATOM     10  C   LIG d   1       2.720  -0.269  -9.099  0.00  0.00     0.067 A 
ATOM     11  C   LIG d   1       2.892   0.977  -8.338  0.00  0.00     0.345 A 
ATOM     12  O   LIG d   1       2.478   2.025  -8.794  0.00  0.00    -0.244 OA
ATOM     13  O   LIG d   1       3.503   0.961  -7.143  0.00  0.00    -0.421 OA
ATOM     14  C   LIG d   1       4.377  -2.565  -6.626  0.00  0.00     0.136 A 
ATOM     15  C   LIG d   1       4.992  -2.484  -5.389  0.00  0.00     0.023 A 
ATOM     16  H   LIG d   1       4.702   0.843  -4.833  0.00  0.00     0.069 H 
ATOM     17  H   LIG d   1       3.438  -3.588  -8.818  0.00  0.00     0.062 H 
ATOM     18  H   LIG d   1       2.323  -3.594 -11.009  0.00  0.00     0.062 H 
ATOM     19  H   LIG d   1       1.475  -1.503 -11.983  0.00  0.00     0.062 H 
ATOM     20  H   LIG d   1       1.712   0.623 -10.775  0.00  0.00     0.063 H 
ATOM     21  H   LIG d   1       5.385  -3.374  -4.922  0.00  0.00     0.069 H 
ENDROOT
BRANCH   1  22
ATOM     22  O   LIG d   1       5.711  -1.183  -3.535  0.00  0.00    -0.483 OA
BRANCH  22  23
ATOM     23  C   LIG d   1       4.865  -0.997  -2.399  0.00  0.00     0.136 C 
ATOM     24  H   LIG d   1       5.363  -1.381  -1.509  0.00  0.00     0.079 H 
BRANCH  23  25
ATOM     25  C   LIG d   1       3.551  -1.750  -2.614  0.00  0.00    -0.022 C 
ATOM     26  H   LIG d   1       3.332  -2.358  -1.735  0.00  0.00     0.027 H 
ATOM     27  H   LIG d   1       2.743  -1.035  -2.771  0.00  0.00     0.027 H 
ATOM     28  H   LIG d   1       3.640  -2.396  -3.487  0.00  0.00     0.027 H 
ENDBRANCH  23  25
BRANCH  23  29
ATOM     29  C   LIG d   1       4.578   0.472  -2.220  0.00  0.00     0.082 C 
ATOM     30  O   LIG d   1       3.449   0.845  -2.004  0.00  0.00    -0.546 OA
ATOM     31  O   LIG d   1       5.576   1.366  -2.302  0.00  0.00    -0.546 OA
ENDBRANCH  23  29
ENDBRANCH  22  23
ENDBRANCH   1  22
BRANCH  14  32
ATOM     32  O   LIG d   1       4.265  -3.763  -7.255  0.00  0.00    -0.482 OA
BRANCH  32  33
ATOM     33  C   LIG d   1       5.145  -4.805  -6.826  0.00  0.00     0.136 C 
ATOM     34  H   LIG d   1       5.841  -4.410  -6.085  0.00  0.00     0.079 H 
BRANCH  33  35
ATOM     35  C   LIG d   1       5.928  -5.339  -8.027  0.00  0.00    -0.022 C 
ATOM     36  H   LIG d   1       5.696  -4.738  -8.908  0.00  0.00     0.027 H 
ATOM     37  H   LIG d   1       6.996  -5.282  -7.819  0.00  0.00     0.027 H 
ATOM     38  H   LIG d   1       5.647  -6.376  -8.212  0.00  0.00     0.027 H 
ENDBRANCH  33  35
BRANCH  33  39
ATOM     39  C   LIG d   1       4.340  -5.922  -6.214  0.00  0.00     0.082 C 
ATOM     40  O   LIG d   1       4.011  -6.869  -6.887  0.00  0.00    -0.546 OA
ATOM     41  O   LIG d   1       3.990  -5.865  -4.919  0.00  0.00    -0.546 OA
ENDBRANCH  33  39
ENDBRANCH  32  33
ENDBRANCH  14  32
TORSDOF 8
ENDMDL
MODEL 2
REMARK VINA RESULT:      -6.7      1.597      2.084
REMARK  8 active torsions:
REMARK  status: ('A' for Active; 'I' for Inactive)
REMARK    1  A    between atoms: C_1  and  C_2 
REMARK    2  A    between atoms: C_2  and  C_4 
REMARK    3  A    between atoms: C_2  and  O_6 
REMARK    4  A    between atoms: O_6  and  C_7 
REMARK    5  A    between atoms: C_20  and  O_22 
REMARK    6  A    between atoms: O_22  and  C_23 
REMARK    7  A    between atoms: C_23  and  C_25 
REMARK    8  A    between atoms: C_23  and  C_26 
ROOT
ATOM      1  C   LIG d   1       3.923  -0.203  -5.800  0.00  0.00     0.128 A 
ATOM      2  C   LIG d   1       3.072   0.124  -6.844  0.00  0.00     0.023 A 
ATOM      3  C   LIG d   1       2.946  -0.726  -7.934  0.00  0.00     0.147 A 
ATOM      4  C   LIG d   1       3.690  -1.915  -7.967  0.00  0.00     0.067 A 
ATOM      5  C   LIG d   1       3.552  -2.815  -9.127  0.00  0.00     0.003 A 
ATOM      6  C   LIG d   1       4.260  -4.008  -9.221  0.00  0.00    -0.053 A 
ATOM      7  C   LIG d   1       4.093  -4.812 -10.330  0.00  0.00    -0.061 A 
ATOM      8  C   LIG d   1       3.231  -4.439 -11.351  0.00  0.00    -0.061 A 
ATOM      9  C   LIG d   1       2.518  -3.262 -11.274  0.00  0.00    -0.047 A 
ATOM     10  C   LIG d   1       2.671  -2.436 -10.162  0.00  0.00     0.067 A 
ATOM     11  C   LIG d   1       1.939  -1.169 -10.030  0.00  0.00     0.345 A 
ATOM     12  O   LIG d   1       1.173  -0.819 -10.907  0.00  0.00    -0.244 OA
ATOM     13  O   LIG d   1       2.111  -0.397  -8.946  0.00  0.00    -0.421 OA
ATOM     14  C   LIG d   1       4.547  -2.238  -6.910  0.00  0.00     0.136 A 
ATOM     15  C   LIG d   1       4.660  -1.379  -5.831  0.00  0.00     0.023 A 
ATOM     16  H   LIG d   1       2.505   1.042  -6.809  0.00  0.00     0.069 H 
ATOM     17  H   LIG d   1       4.937  -4.303  -8.432  0.00  0.00     0.062 H 
ATOM     18  H   LIG d   1       4.643  -5.739 -10.405  0.00  0.00     0.062 H 
ATOM     19  H   LIG d   1       3.116  -5.079 -12.214  0.00  0.00     0.062 H 
ATOM     20  H   LIG d   1       1.846  -2.981 -12.071  0.00  0.00     0.063 H 
ATOM     21  H   LIG d   1       5.321  -1.624  -5.013  0.00  0.00     0.069 H 
ENDROOT
BRANCH   1  22
ATOM     22  O   LIG d   1       4.038   0.637  -4.738  0.00  0.00    -0.483 OA
BRANCH  22  23
ATOM     23  C   LIG d   1       4.306   0.041  -3.467  0.00  0.00     0.136 C 
ATOM     24  H   LIG d   1       4.855  -0.889  -3.610  0.00  0.00     0.079 H 
BRANCH  23  25
ATOM     25  C   LIG d   1       2.985  -0.250  -2.753  0.00  0.00    -0.022 C 
ATOM     26  H   LIG d   1       3.033   0.127  -1.730  0.00  0.00     0.027 H 
ATOM     27  H   LIG d   1       2.168   0.239  -3.282  0.00  0.00     0.027 H 
ATOM     28  H   LIG d   1       2.812  -1.326  -2.733  0.00  0.00     0.027 H 
ENDBRANCH  23  25
BRANCH  23  29
ATOM     29  C   LIG d   1       5.130   0.988  -2.631  0.00  0.00     0.082 C 
ATOM     30  O   LIG d   1       4.856   1.159  -1.467  0.00  0.00    -0.546 OA
ATOM     31  O   LIG d   1       6.166   1.640  -3.181  0.00  0.00    -0.546 OA
ENDBRANCH  23  29
ENDBRANCH  22  23
ENDBRANCH   1  22
BRANCH  14  32
ATOM     32  O   LIG d   1       5.267  -3.389  -6.944  0.00  0.00    -0.482 OA
BRANCH  32  33
ATOM     33  C   LIG d   1       5.422  -4.092  -5.710  0.00  0.00     0.136 C 
ATOM     34  H   LIG d   1       5.055  -3.474  -4.890  0.00  0.00     0.079 H 
BRANCH  33  35
ATOM     35  C   LIG d   1       6.903  -4.409  -5.486  0.00  0.00    -0.022 C 
ATOM     36  H   LIG d   1       7.506  -3.853  -6.204  0.00  0.00     0.027 H 
ATOM     37  H   LIG d   1       7.186  -4.122  -4.473  0.00  0.00     0.027 H 
ATOM     38  H   LIG d   1       7.070  -5.477  -5.622  0.00  0.00     0.027 H 
ENDBRANCH  33  35
BRANCH  33  39
ATOM     39  C   LIG d   1       4.636  -5.377  -5.761  0.00  0.00     0.082 C 
ATOM     40  O   LIG d   1       5.173  -6.425  -5.495  0.00  0.00    -0.546 OA
ATOM     41  O   LIG d   1       3.337  -5.355  -6.102  0.00  0.00    -0.546 OA
ENDBRANCH  33  39
ENDBRANCH  32  33
ENDBRANCH  14  32
TORSDOF 8
ENDMDL
MODEL 3
REMARK VINA RESULT:      -6.7      2.003      5.819
REMARK  8 active torsions:
REMARK  status: ('A' for Active; 'I' for Inactive)
REMARK    1  A    between atoms: C_1  and  C_2 
REMARK    2  A    between atoms: C_2  and  C_4 
REMARK    3  A    between atoms: C_2  and  O_6 
REMARK    4  A    between atoms: O_6  and  C_7 
REMARK    5  A    between atoms: C_20  and  O_22 
REMARK    6  A    between atoms: O_22  and  C_23 
REMARK    7  A    between atoms: C_23  and  C_25 
REMARK    8  A    between atoms: C_23  and  C_26 
ROOT
ATOM      1  C   LIG d   1       3.608  -1.333  -8.636  0.00  0.00     0.128 A 
ATOM      2  C   LIG d   1       3.138  -0.186  -8.016  0.00  0.00     0.023 A 
ATOM      3  C   LIG d   1       3.282  -0.024  -6.645  0.00  0.00     0.147 A 
ATOM      4  C   LIG d   1       3.906  -1.032  -5.897  0.00  0.00     0.067 A 
ATOM      5  C   LIG d   1       4.057  -0.856  -4.441  0.00  0.00     0.003 A 
ATOM      6  C   LIG d   1       4.667  -1.817  -3.641  0.00  0.00    -0.053 A 
ATOM      7  C   LIG d   1       4.782  -1.599  -2.284  0.00  0.00    -0.061 A 
ATOM      8  C   LIG d   1       4.291  -0.435  -1.710  0.00  0.00    -0.061 A 
ATOM      9  C   LIG d   1       3.687   0.531  -2.486  0.00  0.00    -0.047 A 
ATOM     10  C   LIG d   1       3.563   0.331  -3.860  0.00  0.00     0.067 A 
ATOM     11  C   LIG d   1       2.924   1.326  -4.733  0.00  0.00     0.345 A 
ATOM     12  O   LIG d   1       2.489   2.357  -4.258  0.00  0.00    -0.244 OA
ATOM     13  O   LIG d   1       2.820   1.101  -6.052  0.00  0.00    -0.421 OA
ATOM     14  C   LIG d   1       4.378  -2.187  -6.529  0.00  0.00     0.136 A 
ATOM     15  C   LIG d   1       4.226  -2.332  -7.896  0.00  0.00     0.023 A 
ATOM     16  H   LIG d   1       2.657   0.584  -8.601  0.00  0.00     0.069 H 
ATOM     17  H   LIG d   1       5.048  -2.728  -4.080  0.00  0.00     0.062 H 
ATOM     18  H   LIG d   1       5.254  -2.345  -1.661  0.00  0.00     0.062 H 
ATOM     19  H   LIG d   1       4.386  -0.283  -0.645  0.00  0.00     0.062 H 
ATOM     20  H   LIG d   1       3.312   1.436  -2.033  0.00  0.00     0.063 H 
ATOM     21  H   LIG d   1       4.588  -3.222  -8.389  0.00  0.00     0.069 H 
ENDROOT
BRANCH   1  22
ATOM     22  O   LIG d   1       3.461  -1.481  -9.979  0.00  0.00    -0.483 OA
BRANCH  22  23
ATOM     23  C   LIG d   1       2.835  -0.409 -10.685  0.00  0.00     0.136 C 
ATOM     24  H   LIG d   1       2.332   0.248  -9.977  0.00  0.00     0.079 H 
BRANCH  23  25
ATOM     25  C   LIG d   1       1.810  -0.977 -11.669  0.00  0.00    -0.022 C 
ATOM     26  H   LIG d   1       1.986  -2.046 -11.800  0.00  0.00     0.027 H 
ATOM     27  H   LIG d   1       0.805  -0.820 -11.280  0.00  0.00     0.027 H 
ATOM     28  H   LIG d   1       1.911  -0.473 -12.630  0.00  0.00     0.027 H 
ENDBRANCH  23  25
BRANCH  23  29
ATOM     29  C   LIG d   1       3.878   0.372 -11.443  0.00  0.00     0.082 C 
ATOM     30  O   LIG d   1       4.311   1.403 -10.984  0.00  0.00    -0.546 OA
ATOM     31  O   LIG d   1       4.325  -0.077 -12.626  0.00  0.00    -0.546 OA
ENDBRANCH  23  29
ENDBRANCH  22  23
ENDBRANCH   1  22
BRANCH  14  32
ATOM     32  O   LIG d   1       4.981  -3.163  -5.803  0.00  0.00    -0.482 OA
BRANCH  32  33
ATOM     33  C   LIG d   1       5.249  -4.398  -6.471  0.00  0.00     0.136 C 
ATOM     34  H   LIG d   1       4.896  -4.336  -7.501  0.00  0.00     0.079 H 
BRANCH  33  35
ATOM     35  C   LIG d   1       4.524  -5.537  -5.751  0.00  0.00    -0.022 C 
ATOM     36  H   LIG d   1       5.075  -6.466  -5.896  0.00  0.00     0.027 H 
ATOM     37  H   LIG d   1       4.463  -5.312  -4.686  0.00  0.00     0.027 H 
ATOM     38  H   LIG d   1       3.519  -5.643  -6.159  0.00  0.00     0.027 H 
ENDBRANCH  33  35
BRANCH  33  39
ATOM     39  C   LIG d   1       6.733  -4.662  -6.463  0.00  0.00     0.082 C 
ATOM     40  O   LIG d   1       7.374  -4.534  -7.478  0.00  0.00    -0.546 OA
ATOM     41  O   LIG d   1       7.341  -5.038  -5.327  0.00  0.00    -0.546 OA
ENDBRANCH  33  39
ENDBRANCH  32  33
ENDBRANCH  14  32
TORSDOF 8
ENDMDL
MODEL 4
REMARK VINA RESULT:      -6.6      8.236     10.432
REMARK  8 active torsions:
REMARK  status: ('A' for Active; 'I' for Inactive)
REMARK    1  A    between atoms: C_1  and  C_2 
REMARK    2  A    between atoms: C_2  and  C_4 
REMARK    3  A    between atoms: C_2  and  O_6 
REMARK    4  A    between atoms: O_6  and  C_7 
REMARK    5  A    between atoms: C_20  and  O_22 
REMARK    6  A    between atoms: O_22  and  C_23 
REMARK    7  A    between atoms: C_23  and  C_25 
REMARK    8  A    between atoms: C_23  and  C_26 
ROOT
ATOM      1  C   LIG d   1      10.008   6.614  -1.505  0.00  0.00     0.128 A 
ATOM      2  C   LIG d   1       9.925   7.821  -2.179  0.00  0.00     0.023 A 
ATOM      3  C   LIG d   1       9.834   7.843  -3.565  0.00  0.00     0.147 A 
ATOM      4  C   LIG d   1       9.829   6.631  -4.270  0.00  0.00     0.067 A 
ATOM      5  C   LIG d   1       9.731   6.659  -5.741  0.00  0.00     0.003 A 
ATOM      6  C   LIG d   1       9.721   5.493  -6.501  0.00  0.00    -0.053 A 
ATOM      7  C   LIG d   1       9.628   5.578  -7.875  0.00  0.00    -0.061 A 
ATOM      8  C   LIG d   1       9.550   6.812  -8.504  0.00  0.00    -0.061 A 
ATOM      9  C   LIG d   1       9.555   7.978  -7.768  0.00  0.00    -0.047 A 
ATOM     10  C   LIG d   1       9.647   7.914  -6.379  0.00  0.00     0.067 A 
ATOM     11  C   LIG d   1       9.661   9.126  -5.547  0.00  0.00     0.345 A 
ATOM     12  O   LIG d   1       9.589  10.220  -6.070  0.00  0.00    -0.244 OA
ATOM     13  O   LIG d   1       9.751   9.028  -4.211  0.00  0.00    -0.421 OA
ATOM     14  C   LIG d   1       9.914   5.416  -3.583  0.00  0.00     0.136 A 
ATOM     15  C   LIG d   1      10.003   5.413  -2.202  0.00  0.00     0.023 A 
ATOM     16  H   LIG d   1       9.931   8.749  -1.626  0.00  0.00     0.069 H 
ATOM     17  H   LIG d   1       9.785   4.529  -6.018  0.00  0.00     0.062 H 
ATOM     18  H   LIG d   1       9.620   4.674  -8.467  0.00  0.00     0.062 H 
ATOM     19  H   LIG d   1       9.482   6.860  -9.581  0.00  0.00     0.062 H 
ATOM     20  H   LIG d   1       9.490   8.934  -8.265  0.00  0.00     0.063 H 
ATOM     21  H   LIG d   1      10.070   4.478  -1.667  0.00  0.00     0.069 H 
ENDROOT
BRANCH   1  22
ATOM     22  O   LIG d   1      10.097   6.605  -0.149  0.00  0.00    -0.483 OA
BRANCH  22  23
ATOM     23  C   LIG d   1      11.177   5.868   0.426  0.00  0.00     0.136 C 
ATOM     24  H   LIG d   1      11.276   4.911  -0.084  0.00  0.00     0.079 H 
BRANCH  23  25
ATOM     25  C   LIG d   1      10.898   5.629   1.911  0.00  0.00    -0.022 C 
ATOM     26  H   LIG d   1      11.435   6.370   2.506  0.00  0.00     0.027 H 
ATOM     27  H   LIG d   1       9.829   5.717   2.099  0.00  0.00     0.027 H 
ATOM     28  H   LIG d   1      11.235   4.630   2.188  0.00  0.00     0.027 H 
ENDBRANCH  23  25
BRANCH  23  29
ATOM     29  C   LIG d   1      12.456   6.652   0.276  0.00  0.00     0.082 C 
ATOM     30  O   LIG d   1      13.443   6.117  -0.173  0.00  0.00    -0.546 OA
ATOM     31  O   LIG d   1      12.500   7.943   0.640  0.00  0.00    -0.546 OA
ENDBRANCH  23  29
ENDBRANCH  22  23
ENDBRANCH   1  22
BRANCH  14  32
ATOM     32  O   LIG d   1       9.909   4.244  -4.268  0.00  0.00    -0.482 OA
BRANCH  32  33
ATOM     33  C   LIG d   1       9.581   3.064  -3.532  0.00  0.00     0.136 C 
ATOM     34  H   LIG d   1       9.382   3.328  -2.493  0.00  0.00     0.079 H 
BRANCH  33  35
ATOM     35  C   LIG d   1      10.752   2.081  -3.593  0.00  0.00    -0.022 C 
ATOM     36  H   LIG d   1      11.179   1.963  -2.596  0.00  0.00     0.027 H 
ATOM     37  H   LIG d   1      10.398   1.115  -3.953  0.00  0.00     0.027 H 
ATOM     38  H   LIG d   1      11.514   2.465  -4.271  0.00  0.00     0.027 H 
ENDBRANCH  33  35
BRANCH  33  39
ATOM     39  C   LIG d   1       8.356   2.423  -4.131  0.00  0.00     0.082 C 
ATOM     40  O   LIG d   1       8.143   2.516  -5.316  0.00  0.00    -0.546 OA
ATOM     41  O   LIG d   1       7.501   1.747  -3.347  0.00  0.00    -0.546 OA
ENDBRANCH  33  39
ENDBRANCH  32  33
ENDBRANCH  14  32
TORSDOF 8
ENDMDL
MODEL 5
REMARK VINA RESULT:      -6.4      1.770      4.926
REMARK  8 active torsions:
REMARK  status: ('A' for Active; 'I' for Inactive)
REMARK    1  A    between atoms: C_1  and  C_2 
REMARK    2  A    between atoms: C_2  and  C_4 
REMARK    3  A    between atoms: C_2  and  O_6 
REMARK    4  A    between atoms: O_6  and  C_7 
REMARK    5  A    between atoms: C_20  and  O_22 
REMARK    6  A    between atoms: O_22  and  C_23 
REMARK    7  A    between atoms: C_23  and  C_25 
REMARK    8  A    between atoms: C_23  and  C_26 
ROOT
ATOM      1  C   LIG d   1       4.373  -0.594  -5.252  0.00  0.00     0.128 A 
ATOM      2  C   LIG d   1       4.401  -1.912  -4.826  0.00  0.00     0.023 A 
ATOM      3  C   LIG d   1       4.336  -2.947  -5.749  0.00  0.00     0.147 A 
ATOM      4  C   LIG d   1       4.241  -2.642  -7.115  0.00  0.00     0.067 A 
ATOM      5  C   LIG d   1       4.173  -3.744  -8.092  0.00  0.00     0.003 A 
ATOM      6  C   LIG d   1       4.078  -3.511  -9.460  0.00  0.00    -0.053 A 
ATOM      7  C   LIG d   1       4.018  -4.580 -10.330  0.00  0.00    -0.061 A 
ATOM      8  C   LIG d   1       4.045  -5.882  -9.852  0.00  0.00    -0.061 A 
ATOM      9  C   LIG d   1       4.143  -6.134  -8.500  0.00  0.00    -0.047 A 
ATOM     10  C   LIG d   1       4.206  -5.068  -7.605  0.00  0.00     0.067 A 
ATOM     11  C   LIG d   1       4.307  -5.279  -6.154  0.00  0.00     0.345 A 
ATOM     12  O   LIG d   1       4.338  -6.409  -5.708  0.00  0.00    -0.244 OA
ATOM     13  O   LIG d   1       4.366  -4.229  -5.320  0.00  0.00    -0.421 OA
ATOM     14  C   LIG d   1       4.213  -1.309  -7.538  0.00  0.00     0.136 A 
ATOM     15  C   LIG d   1       4.279  -0.291  -6.605  0.00  0.00     0.023 A 
ATOM     16  H   LIG d   1       4.474  -2.135  -3.772  0.00  0.00     0.069 H 
ATOM     17  H   LIG d   1       4.052  -2.499  -9.839  0.00  0.00     0.062 H 
ATOM     18  H   LIG d   1       3.943  -4.401 -11.393  0.00  0.00     0.062 H 
ATOM     19  H   LIG d   1       3.992  -6.708 -10.547  0.00  0.00     0.062 H 
ATOM     20  H   LIG d   1       4.168  -7.150  -8.137  0.00  0.00     0.063 H 
ATOM     21  H   LIG d   1       4.257   0.739  -6.927  0.00  0.00     0.069 H 
ENDROOT
BRANCH   1  22
ATOM     22  O   LIG d   1       4.438   0.411  -4.340  0.00  0.00    -0.483 OA
BRANCH  22  23
ATOM     23  C   LIG d   1       5.282   0.205  -3.206  0.00  0.00     0.136 C 
ATOM     24  H   LIG d   1       5.333  -0.860  -2.980  0.00  0.00     0.079 H 
BRANCH  23  25
ATOM     25  C   LIG d   1       4.712   0.956  -2.002  0.00  0.00    -0.022 C 
ATOM     26  H   LIG d   1       4.418   0.241  -1.233  0.00  0.00     0.027 H 
ATOM     27  H   LIG d   1       5.468   1.630  -1.602  0.00  0.00     0.027 H 
ATOM     28  H   LIG d   1       3.840   1.532  -2.313  0.00  0.00     0.027 H 
ENDBRANCH  23  25
BRANCH  23  29
ATOM     29  C   LIG d   1       6.666   0.720  -3.510  0.00  0.00     0.082 C 
ATOM     30  O   LIG d   1       6.902   1.903  -3.427  0.00  0.00    -0.546 OA
ATOM     31  O   LIG d   1       7.636  -0.134  -3.871  0.00  0.00    -0.546 OA
ENDBRANCH  23  29
ENDBRANCH  22  23
ENDBRANCH   1  22
BRANCH  14  32
ATOM     32  O   LIG d   1       4.121  -1.017  -8.861  0.00  0.00    -0.482 OA
BRANCH  32  33
ATOM     33  C   LIG d   1       3.422   0.180  -9.213  0.00  0.00     0.136 C 
ATOM     34  H   LIG d   1       3.320   0.813  -8.331  0.00  0.00     0.079 H 
BRANCH  33  35
ATOM     35  C   LIG d   1       2.034  -0.177  -9.749  0.00  0.00    -0.022 C 
ATOM     36  H   LIG d   1       2.079  -0.278 -10.834  0.00  0.00     0.027 H 
ATOM     37  H   LIG d   1       1.706  -1.119  -9.309  0.00  0.00     0.027 H 
ATOM     38  H   LIG d   1       1.330   0.611  -9.486  0.00  0.00     0.027 H 
ENDBRANCH  33  35
BRANCH  33  39
ATOM     39  C   LIG d   1       4.196   0.919 -10.275  0.00  0.00     0.082 C 
ATOM     40  O   LIG d   1       3.967   0.713 -11.442  0.00  0.00    -0.546 OA
ATOM     41  O   LIG d   1       5.138   1.808  -9.922  0.00  0.00    -0.546 OA
ENDBRANCH  33  39
ENDBRANCH  32  33
ENDBRANCH  14  32
TORSDOF 8
ENDMDL
MODEL 6
REMARK VINA RESULT:      -6.4      9.942     12.568
REMARK  8 active torsions:
REMARK  status: ('A' for Active; 'I' for Inactive)
REMARK    1  A    between atoms: C_1  and  C_2 
REMARK    2  A    between atoms: C_2  and  C_4 
REMARK    3  A    between atoms: C_2  and  O_6 
REMARK    4  A    between atoms: O_6  and  C_7 
REMARK    5  A    between atoms: C_20  and  O_22 
REMARK    6  A    between atoms: O_22  and  C_23 
REMARK    7  A    between atoms: C_23  and  C_25 
REMARK    8  A    between atoms: C_23  and  C_26 
ROOT
ATOM      1  C   LIG d   1       9.626  10.120  -5.751  0.00  0.00     0.128 A 
ATOM      2  C   LIG d   1       9.608   9.539  -7.009  0.00  0.00     0.023 A 
ATOM      3  C   LIG d   1       9.644   8.157  -7.141  0.00  0.00     0.147 A 
ATOM      4  C   LIG d   1       9.701   7.360  -5.989  0.00  0.00     0.067 A 
ATOM      5  C   LIG d   1       9.739   5.893  -6.133  0.00  0.00     0.003 A 
ATOM      6  C   LIG d   1       9.795   5.045  -5.032  0.00  0.00    -0.053 A 
ATOM      7  C   LIG d   1       9.829   3.679  -5.226  0.00  0.00    -0.061 A 
ATOM      8  C   LIG d   1       9.813   3.146  -6.507  0.00  0.00    -0.061 A 
ATOM      9  C   LIG d   1       9.753   3.970  -7.611  0.00  0.00    -0.047 A 
ATOM     10  C   LIG d   1       9.717   5.352  -7.436  0.00  0.00     0.067 A 
ATOM     11  C   LIG d   1       9.658   6.276  -8.578  0.00  0.00     0.345 A 
ATOM     12  O   LIG d   1       9.638   5.837  -9.711  0.00  0.00    -0.244 OA
ATOM     13  O   LIG d   1       9.625   7.602  -8.374  0.00  0.00    -0.421 OA
ATOM     14  C   LIG d   1       9.719   7.953  -4.722  0.00  0.00     0.136 A 
ATOM     15  C   LIG d   1       9.682   9.331  -4.609  0.00  0.00     0.023 A 
ATOM     16  H   LIG d   1       9.565  10.162  -7.889  0.00  0.00     0.069 H 
ATOM     17  H   LIG d   1       9.812   5.453  -4.032  0.00  0.00     0.062 H 
ATOM     18  H   LIG d   1       9.873   3.019  -4.372  0.00  0.00     0.062 H 
ATOM     19  H   LIG d   1       9.844   2.075  -6.640  0.00  0.00     0.062 H 
ATOM     20  H   LIG d   1       9.737   3.547  -8.604  0.00  0.00     0.063 H 
ATOM     21  H   LIG d   1       9.697   9.794  -3.634  0.00  0.00     0.069 H 
ENDROOT
BRANCH   1  22
ATOM     22  O   LIG d   1       9.590  11.473  -5.634  0.00  0.00    -0.483 OA
BRANCH  22  23
ATOM     23  C   LIG d   1      10.372  12.226  -6.562  0.00  0.00     0.136 C 
ATOM     24  H   LIG d   1      10.741  11.565  -7.346  0.00  0.00     0.079 H 
BRANCH  23  25
ATOM     25  C   LIG d   1      11.555  12.864  -5.832  0.00  0.00    -0.022 C 
ATOM     26  H   LIG d   1      11.953  12.160  -5.099  0.00  0.00     0.027 H 
ATOM     27  H   LIG d   1      12.333  13.118  -6.552  0.00  0.00     0.027 H 
ATOM     28  H   LIG d   1      11.223  13.768  -5.322  0.00  0.00     0.027 H 
ENDBRANCH  23  25
BRANCH  23  29
ATOM     29  C   LIG d   1       9.520  13.307  -7.177  0.00  0.00     0.082 C 
ATOM     30  O   LIG d   1       9.016  13.135  -8.262  0.00  0.00    -0.546 OA
ATOM     31  O   LIG d   1       9.321  14.460  -6.520  0.00  0.00    -0.546 OA
ENDBRANCH  23  29
ENDBRANCH  22  23
ENDBRANCH   1  22
BRANCH  14  32
ATOM     32  O   LIG d   1       9.775   7.179  -3.608  0.00  0.00    -0.482 OA
BRANCH  32  33
ATOM     33  C   LIG d   1      10.389   7.751  -2.451  0.00  0.00     0.136 C 
ATOM     34  H   LIG d   1      10.379   8.838  -2.535  0.00  0.00     0.079 H 
BRANCH  33  35
ATOM     35  C   LIG d   1      11.835   7.261  -2.346  0.00  0.00    -0.022 C 
ATOM     36  H   LIG d   1      12.379   7.540  -3.249  0.00  0.00     0.027 H 
ATOM     37  H   LIG d   1      12.311   7.718  -1.478  0.00  0.00     0.027 H 
ATOM     38  H   LIG d   1      11.844   6.177  -2.237  0.00  0.00     0.027 H 
ENDBRANCH  33  35
BRANCH  33  39
ATOM     39  C   LIG d   1       9.626   7.334  -1.220  0.00  0.00     0.082 C 
ATOM     40  O   LIG d   1      10.067   6.471  -0.500  0.00  0.00    -0.546 OA
ATOM     41  O   LIG d   1       8.458   7.924  -0.923  0.00  0.00    -0.546 OA
ENDBRANCH  33  39
ENDBRANCH  32  33
ENDBRANCH  14  32
TORSDOF 8
ENDMDL
MODEL 7
REMARK VINA RESULT:      -6.4      4.591      6.406
REMARK  8 active torsions:
REMARK  status: ('A' for Active; 'I' for Inactive)
REMARK    1  A    between atoms: C_1  and  C_2 
REMARK    2  A    between atoms: C_2  and  C_4 
REMARK    3  A    between atoms: C_2  and  O_6 
REMARK    4  A    between atoms: O_6  and  C_7 
REMARK    5  A    between atoms: C_20  and  O_22 
REMARK    6  A    between atoms: O_22  and  C_23 
REMARK    7  A    between atoms: C_23  and  C_25 
REMARK    8  A    between atoms: C_23  and  C_26 
ROOT
ATOM      1  C   LIG d   1       9.036   1.645  -4.689  0.00  0.00     0.128 A 
ATOM      2  C   LIG d   1       8.028   2.078  -3.843  0.00  0.00     0.023 A 
ATOM      3  C   LIG d   1       6.996   1.219  -3.489  0.00  0.00     0.147 A 
ATOM      4  C   LIG d   1       6.987  -0.088  -3.999  0.00  0.00     0.067 A 
ATOM      5  C   LIG d   1       5.889  -0.997  -3.620  0.00  0.00     0.003 A 
ATOM      6  C   LIG d   1       5.821  -2.305  -4.089  0.00  0.00    -0.053 A 
ATOM      7  C   LIG d   1       4.771  -3.112  -3.702  0.00  0.00    -0.061 A 
ATOM      8  C   LIG d   1       3.783  -2.630  -2.856  0.00  0.00    -0.061 A 
ATOM      9  C   LIG d   1       3.836  -1.339  -2.377  0.00  0.00    -0.047 A 
ATOM     10  C   LIG d   1       4.888  -0.507  -2.755  0.00  0.00     0.067 A 
ATOM     11  C   LIG d   1       4.991   0.879  -2.278  0.00  0.00     0.345 A 
ATOM     12  O   LIG d   1       4.142   1.326  -1.531  0.00  0.00    -0.244 OA
ATOM     13  O   LIG d   1       6.019   1.653  -2.662  0.00  0.00    -0.421 OA
ATOM     14  C   LIG d   1       8.008  -0.518  -4.852  0.00  0.00     0.136 A 
ATOM     15  C   LIG d   1       9.029   0.351  -5.194  0.00  0.00     0.023 A 
ATOM     16  H   LIG d   1       8.044   3.086  -3.458  0.00  0.00     0.069 H 
ATOM     17  H   LIG d   1       6.584  -2.686  -4.752  0.00  0.00     0.062 H 
ATOM     18  H   LIG d   1       4.716  -4.128  -4.066  0.00  0.00     0.062 H 
ATOM     19  H   LIG d   1       2.966  -3.275  -2.567  0.00  0.00     0.062 H 
ATOM     20  H   LIG d   1       3.065  -0.973  -1.716  0.00  0.00     0.063 H 
ATOM     21  H   LIG d   1       9.819   0.024  -5.853  0.00  0.00     0.069 H 
ENDROOT
BRANCH   1  22
ATOM     22  O   LIG d   1      10.042   2.494  -5.028  0.00  0.00    -0.483 OA
BRANCH  22  23
ATOM     23  C   LIG d   1       9.854   3.877  -4.721  0.00  0.00     0.136 C 
ATOM     24  H   LIG d   1       8.850   4.028  -4.326  0.00  0.00     0.079 H 
BRANCH  23  25
ATOM     25  C   LIG d   1      10.034   4.710  -5.991  0.00  0.00    -0.022 C 
ATOM     26  H   LIG d   1      10.396   4.070  -6.798  0.00  0.00     0.027 H 
ATOM     27  H   LIG d   1       9.079   5.150  -6.276  0.00  0.00     0.027 H 
ATOM     28  H   LIG d   1      10.759   5.503  -5.806  0.00  0.00     0.027 H 
ENDBRANCH  23  25
BRANCH  23  29
ATOM     29  C   LIG d   1      10.869   4.305  -3.692  0.00  0.00     0.082 C 
ATOM     30  O   LIG d   1      11.951   4.712  -4.044  0.00  0.00    -0.546 OA
ATOM     31  O   LIG d   1      10.571   4.235  -2.385  0.00  0.00    -0.546 OA
ENDBRANCH  23  29
ENDBRANCH  22  23
ENDBRANCH   1  22
BRANCH  14  32
ATOM     32  O   LIG d   1       7.997  -1.783  -5.344  0.00  0.00    -0.482 OA
BRANCH  32  33
ATOM     33  C   LIG d   1       9.264  -2.412  -5.546  0.00  0.00     0.136 C 
ATOM     34  H   LIG d   1      10.049  -1.654  -5.549  0.00  0.00     0.079 H 
BRANCH  33  35
ATOM     35  C   LIG d   1       9.262  -3.149  -6.887  0.00  0.00    -0.022 C 
ATOM     36  H   LIG d   1       8.912  -4.172  -6.738  0.00  0.00     0.027 H 
ATOM     37  H   LIG d   1       8.598  -2.636  -7.582  0.00  0.00     0.027 H 
ATOM     38  H   LIG d   1      10.273  -3.167  -7.293  0.00  0.00     0.027 H 
ENDBRANCH  33  35
BRANCH  33  39
ATOM     39  C   LIG d   1       9.520  -3.395  -4.432  0.00  0.00     0.082 C 
ATOM     40  O   LIG d   1       8.686  -4.222  -4.153  0.00  0.00    -0.546 OA
ATOM     41  O   LIG d   1      10.677  -3.351  -3.751  0.00  0.00    -0.546 OA
ENDBRANCH  33  39
ENDBRANCH  32  33
ENDBRANCH  14  32
TORSDOF 8
ENDMDL
MODEL 8
REMARK VINA RESULT:      -6.4      1.643      4.802
REMARK  8 active torsions:
REMARK  status: ('A' for Active; 'I' for Inactive)
REMARK    1  A    between atoms: C_1  and  C_2 
REMARK    2  A    between atoms: C_2  and  C_4 
REMARK    3  A    between atoms: C_2  and  O_6 
REMARK    4  A    between atoms: O_6  and  C_7 
REMARK    5  A    between atoms: C_20  and  O_22 
REMARK    6  A    between atoms: O_22  and  C_23 
REMARK    7  A    between atoms: C_23  and  C_25 
REMARK    8  A    between atoms: C_23  and  C_26 
ROOT
ATOM      1  C   LIG d   1       5.022  -1.301  -5.464  0.00  0.00     0.128 A 
ATOM      2  C   LIG d   1       4.869  -2.674  -5.563  0.00  0.00     0.023 A 
ATOM      3  C   LIG d   1       4.342  -3.238  -6.717  0.00  0.00     0.147 A 
ATOM      4  C   LIG d   1       3.967  -2.401  -7.779  0.00  0.00     0.067 A 
ATOM      5  C   LIG d   1       3.408  -3.003  -9.003  0.00  0.00     0.003 A 
ATOM      6  C   LIG d   1       3.017  -2.231 -10.092  0.00  0.00    -0.053 A 
ATOM      7  C   LIG d   1       2.500  -2.848 -11.213  0.00  0.00    -0.061 A 
ATOM      8  C   LIG d   1       2.363  -4.227 -11.261  0.00  0.00    -0.061 A 
ATOM      9  C   LIG d   1       2.748  -5.010 -10.193  0.00  0.00    -0.047 A 
ATOM     10  C   LIG d   1       3.274  -4.407  -9.052  0.00  0.00     0.067 A 
ATOM     11  C   LIG d   1       3.696  -5.193  -7.885  0.00  0.00     0.345 A 
ATOM     12  O   LIG d   1       3.592  -6.404  -7.901  0.00  0.00    -0.244 OA
ATOM     13  O   LIG d   1       4.198  -4.579  -6.801  0.00  0.00    -0.421 OA
ATOM     14  C   LIG d   1       4.124  -1.016  -7.672  0.00  0.00     0.136 A 
ATOM     15  C   LIG d   1       4.652  -0.471  -6.515  0.00  0.00     0.023 A 
ATOM     16  H   LIG d   1       5.159  -3.309  -4.739  0.00  0.00     0.069 H 
ATOM     17  H   LIG d   1       3.117  -1.156 -10.060  0.00  0.00     0.062 H 
ATOM     18  H   LIG d   1       2.195  -2.249 -12.059  0.00  0.00     0.062 H 
ATOM     19  H   LIG d   1       1.952  -4.693 -12.145  0.00  0.00     0.062 H 
ATOM     20  H   LIG d   1       2.642  -6.083 -10.241  0.00  0.00     0.063 H 
ATOM     21  H   LIG d   1       4.775   0.598  -6.427  0.00  0.00     0.069 H 
ENDROOT
BRANCH   1  22
ATOM     22  O   LIG d   1       5.540  -0.761  -4.330  0.00  0.00    -0.483 OA
BRANCH  22  23
ATOM     23  C   LIG d   1       4.703   0.137  -3.599  0.00  0.00     0.136 C 
ATOM     24  H   LIG d   1       4.075   0.695  -4.292  0.00  0.00     0.079 H 
BRANCH  23  25
ATOM     25  C   LIG d   1       5.573   1.109  -2.801  0.00  0.00    -0.022 C 
ATOM     26  H   LIG d   1       6.606   0.759  -2.803  0.00  0.00     0.027 H 
ATOM     27  H   LIG d   1       5.524   2.099  -3.255  0.00  0.00     0.027 H 
ATOM     28  H   LIG d   1       5.211   1.163  -1.774  0.00  0.00     0.027 H 
ENDBRANCH  23  25
BRANCH  23  29
ATOM     29  C   LIG d   1       3.830  -0.647  -2.652  0.00  0.00     0.082 C 
ATOM     30  O   LIG d   1       4.307  -1.131  -1.652  0.00  0.00    -0.546 OA
ATOM     31  O   LIG d   1       2.525  -0.809  -2.920  0.00  0.00    -0.546 OA
ENDBRANCH  23  29
ENDBRANCH  22  23
ENDBRANCH   1  22
BRANCH  14  32
ATOM     32  O   LIG d   1       3.761  -0.207  -8.701  0.00  0.00    -0.482 OA
BRANCH  32  33
ATOM     33  C   LIG d   1       4.007   1.192  -8.545  0.00  0.00     0.136 C 
ATOM     34  H   LIG d   1       4.427   1.378  -7.556  0.00  0.00     0.079 H 
BRANCH  33  35
ATOM     35  C   LIG d   1       2.693   1.961  -8.694  0.00  0.00    -0.022 C 
ATOM     36  H   LIG d   1       1.867   1.342  -8.342  0.00  0.00     0.027 H 
ATOM     37  H   LIG d   1       2.738   2.876  -8.103  0.00  0.00     0.027 H 
ATOM     38  H   LIG d   1       2.536   2.213  -9.742  0.00  0.00     0.027 H 
ENDBRANCH  33  35
BRANCH  33  39
ATOM     39  C   LIG d   1       4.980   1.651  -9.599  0.00  0.00     0.082 C 
ATOM     40  O   LIG d   1       4.934   1.180 -10.710  0.00  0.00    -0.546 OA
ATOM     41  O   LIG d   1       5.899   2.585  -9.303  0.00  0.00    -0.546 OA
ENDBRANCH  33  39
ENDBRANCH  32  33
ENDBRANCH  14  32
TORSDOF 8
ENDMDL
MODEL 9
REMARK VINA RESULT:      -6.3      4.386      6.852
REMARK  8 active torsions:
REMARK  status: ('A' for Active; 'I' for Inactive)
REMARK    1  A    between atoms: C_1  and  C_2 
REMARK    2  A    between atoms: C_2  and  C_4 
REMARK    3  A    between atoms: C_2  and  O_6 
REMARK    4  A    between atoms: O_6  and  C_7 
REMARK    5  A    between atoms: C_20  and  O_22 
REMARK    6  A    between atoms: O_22  and  C_23 
REMARK    7  A    between atoms: C_23  and  C_25 
REMARK    8  A    between atoms: C_23  and  C_26 
ROOT
ATOM      1  C   LIG d   1       6.466  -0.048  -4.405  0.00  0.00     0.128 A 
ATOM      2  C   LIG d   1       7.145   0.810  -3.555  0.00  0.00     0.023 A 
ATOM      3  C   LIG d   1       8.011   1.764  -4.072  0.00  0.00     0.147 A 
ATOM      4  C   LIG d   1       8.190   1.848  -5.460  0.00  0.00     0.067 A 
ATOM      5  C   LIG d   1       9.110   2.864  -6.005  0.00  0.00     0.003 A 
ATOM      6  C   LIG d   1       9.331   3.001  -7.371  0.00  0.00    -0.053 A 
ATOM      7  C   LIG d   1      10.203   3.968  -7.825  0.00  0.00    -0.061 A 
ATOM      8  C   LIG d   1      10.863   4.801  -6.933  0.00  0.00    -0.061 A 
ATOM      9  C   LIG d   1      10.654   4.684  -5.575  0.00  0.00    -0.047 A 
ATOM     10  C   LIG d   1       9.776   3.713  -5.096  0.00  0.00     0.067 A 
ATOM     11  C   LIG d   1       9.519   3.542  -3.659  0.00  0.00     0.345 A 
ATOM     12  O   LIG d   1      10.080   4.260  -2.855  0.00  0.00    -0.244 OA
ATOM     13  O   LIG d   1       8.667   2.596  -3.232  0.00  0.00    -0.421 OA
ATOM     14  C   LIG d   1       7.501   0.979  -6.312  0.00  0.00     0.136 A 
ATOM     15  C   LIG d   1       6.641   0.034  -5.780  0.00  0.00     0.023 A 
ATOM     16  H   LIG d   1       7.001   0.736  -2.488  0.00  0.00     0.069 H 
ATOM     17  H   LIG d   1       8.824   2.353  -8.072  0.00  0.00     0.062 H 
ATOM     18  H   LIG d   1      10.377   4.075  -8.886  0.00  0.00     0.062 H 
ATOM     19  H   LIG d   1      11.546   5.550  -7.306  0.00  0.00     0.062 H 
ATOM     20  H   LIG d   1      11.168   5.338  -4.888  0.00  0.00     0.063 H 
ATOM     21  H   LIG d   1       6.108  -0.639  -6.434  0.00  0.00     0.069 H 
ENDROOT
BRANCH   1  22
ATOM     22  O   LIG d   1       5.620  -0.978  -3.888  0.00  0.00    -0.483 OA
BRANCH  22  23
ATOM     23  C   LIG d   1       4.659  -0.523  -2.935  0.00  0.00     0.136 C 
ATOM     24  H   LIG d   1       5.159   0.072  -2.171  0.00  0.00     0.079 H 
BRANCH  23  25
ATOM     25  C   LIG d   1       3.980  -1.727  -2.281  0.00  0.00    -0.022 C 
ATOM     26  H   LIG d   1       4.151  -1.702  -1.204  0.00  0.00     0.027 H 
ATOM     27  H   LIG d   1       2.909  -1.694  -2.480  0.00  0.00     0.027 H 
ATOM     28  H   LIG d   1       4.397  -2.647  -2.692  0.00  0.00     0.027 H 
ENDBRANCH  23  25
BRANCH  23  29
ATOM     29  C   LIG d   1       3.622   0.322  -3.630  0.00  0.00     0.082 C 
ATOM     30  O   LIG d   1       2.822  -0.195  -4.374  0.00  0.00    -0.546 OA
ATOM     31  O   LIG d   1       3.587   1.647  -3.423  0.00  0.00    -0.546 OA
ENDBRANCH  23  29
ENDBRANCH  22  23
ENDBRANCH   1  22
BRANCH  14  32
ATOM     32  O   LIG d   1       7.675   1.062  -7.656  0.00  0.00    -0.482 OA
BRANCH  32  33
ATOM     33  C   LIG d   1       6.646   0.509  -8.479  0.00  0.00     0.136 C 
ATOM     34  H   LIG d   1       5.870   0.075  -7.847  0.00  0.00     0.079 H 
BRANCH  33  35
ATOM     35  C   LIG d   1       7.239  -0.579  -9.377  0.00  0.00    -0.022 C 
ATOM     36  H   LIG d   1       7.130  -1.550  -8.891  0.00  0.00     0.027 H 
ATOM     37  H   LIG d   1       6.713  -0.589 -10.331  0.00  0.00     0.027 H 
ATOM     38  H   LIG d   1       8.296  -0.375  -9.546  0.00  0.00     0.027 H 
ENDBRANCH  33  35
BRANCH  33  39
ATOM     39  C   LIG d   1       6.048   1.596  -9.335  0.00  0.00     0.082 C 
ATOM     40  O   LIG d   1       6.403   2.741  -9.191  0.00  0.00    -0.546 OA
ATOM     41  O   LIG d   1       5.123   1.290 -10.258  0.00  0.00    -0.546 OA
ENDBRANCH  33  39
ENDBRANCH  32  33
ENDBRANCH  14  32
TORSDOF 8
ENDMDL
