MODEL 1
REMARK VINA RESULT:      -5.8      0.000      0.000
REMARK  14 active torsions:
REMARK  status: ('A' for Active; 'I' for Inactive)
REMARK    1  A    between atoms: C_1  and  C_2 
REMARK    2  A    between atoms: C_2  and  C_3 
REMARK    3  A    between atoms: C_7  and  O_29 
REMARK    4  A    between atoms: C_8  and  O_26 
REMARK    5  A    between atoms: C_11  and  C_16 
REMARK    6  A    between atoms: C_14  and  C_15 
REMARK    7  A    between atoms: C_19  and  O_24 
REMARK    8  A    between atoms: C_20  and  O_22 
REMARK    9  A    between atoms: O_22  and  C_23 
REMARK   10  A    between atoms: O_24  and  C_25 
REMARK   11  A    between atoms: O_26  and  C_27 
REMARK   12  A    between atoms: C_27  and  C_28 
REMARK   13  A    between atoms: O_29  and  C_30 
REMARK   14  A    between atoms: C_30  and  C_31 
ROOT
ATOM      1  C   LIG d   1       5.266  -0.516  -3.039  0.00  0.00     0.025 A 
ATOM      2  H   LIG d   1       6.165  -0.030  -2.662  0.00  0.00     0.041 H 
ATOM      3  C   LIG d   1       5.715  -1.429  -4.159  0.00  0.00    -0.026 A 
ATOM      4  C   LIG d   1       6.674  -2.332  -3.774  0.00  0.00    -0.012 A 
ATOM      5  C   LIG d   1       7.178  -3.233  -4.705  0.00  0.00     0.162 A 
ATOM      6  C   LIG d   1       6.713  -3.220  -6.020  0.00  0.00     0.163 A 
ATOM      7  C   LIG d   1       5.746  -2.310  -6.410  0.00  0.00    -0.007 A 
ATOM      8  C   LIG d   1       5.242  -1.407  -5.476  0.00  0.00     0.010 A 
ATOM      9  C   LIG d   1       4.219  -0.502  -6.039  0.00  0.00     0.101 A 
ATOM     10  N   LIG d   1       3.551   0.454  -5.437  0.00  0.00    -0.149 NA
ATOM     11  N   LIG d   1       3.557   0.900  -4.239  0.00  0.00    -0.158 NA
ATOM     12  C   LIG d   1       4.219   0.573  -3.180  0.00  0.00     0.045 A 
ATOM     13  H   LIG d   1       7.035  -2.341  -2.756  0.00  0.00     0.066 H 
ATOM     14  H   LIG d   1       5.387  -2.299  -7.429  0.00  0.00     0.066 H 
ENDROOT
BRANCH   9  15
ATOM     15  C   LIG d   1       3.908  -0.699  -7.468  0.00  0.00     0.006 A 
ATOM     16  C   LIG d   1       3.970   0.379  -8.354  0.00  0.00    -0.007 A 
ATOM     17  C   LIG d   1       3.682   0.188  -9.692  0.00  0.00     0.162 A 
ATOM     18  H   LIG d   1       4.245   1.360  -7.994  0.00  0.00     0.066 H 
ATOM     19  C   LIG d   1       3.319  -1.076 -10.153  0.00  0.00     0.162 A 
ATOM     20  C   LIG d   1       3.252  -2.147  -9.272  0.00  0.00    -0.016 A 
ATOM     21  C   LIG d   1       3.543  -1.964  -7.937  0.00  0.00    -0.049 A 
ATOM     22  H   LIG d   1       2.971  -3.125  -9.633  0.00  0.00     0.066 H 
ATOM     23  H   LIG d   1       3.490  -2.799  -7.254  0.00  0.00     0.062 H 
BRANCH  17  24
ATOM     24  O   LIG d   1       3.748   1.235 -10.558  0.00  0.00    -0.491 OA
BRANCH  24  25
ATOM     25  C   LIG d   1       3.543   2.540 -10.014  0.00  0.00     0.079 C 
ATOM     26  H   LIG d   1       4.505   3.041  -9.900  0.00  0.00     0.066 H 
ATOM     27  H   LIG d   1       2.910   3.119 -10.686  0.00  0.00     0.066 H 
ATOM     28  H   LIG d   1       3.060   2.456  -9.041  0.00  0.00     0.066 H 
ENDBRANCH  24  25
ENDBRANCH  17  24
BRANCH  19  29
ATOM     29  O   LIG d   1       3.032  -1.261 -11.468  0.00  0.00    -0.491 OA
BRANCH  29  30
ATOM     30  C   LIG d   1       1.649  -1.330 -11.827  0.00  0.00     0.079 C 
ATOM     31  H   LIG d   1       1.381  -0.450 -12.410  0.00  0.00     0.066 H 
ATOM     32  H   LIG d   1       1.473  -2.228 -12.419  0.00  0.00     0.066 H 
ATOM     33  H   LIG d   1       1.041  -1.367 -10.923  0.00  0.00     0.066 H 
ENDBRANCH  29  30
ENDBRANCH  19  29
ENDBRANCH   9  15
BRANCH   1  34
ATOM     34  C   LIG d   1       4.788  -1.428  -1.907  0.00  0.00    -0.044 C 
ATOM     35  H   LIG d   1       4.545  -0.824  -1.032  0.00  0.00     0.027 H 
ATOM     36  H   LIG d   1       5.577  -2.136  -1.653  0.00  0.00     0.027 H 
BRANCH  34  37
ATOM     37  C   LIG d   1       3.543  -2.193  -2.360  0.00  0.00    -0.064 C 
ATOM     38  H   LIG d   1       3.482  -3.139  -1.822  0.00  0.00     0.023 H 
ATOM     39  H   LIG d   1       2.654  -1.598  -2.149  0.00  0.00     0.023 H 
ATOM     40  H   LIG d   1       3.605  -2.387  -3.431  0.00  0.00     0.023 H 
ENDBRANCH  34  37
ENDBRANCH   1  34
BRANCH   6  41
ATOM     41  O   LIG d   1       7.212  -4.105  -6.923  0.00  0.00    -0.489 OA
BRANCH  41  42
ATOM     42  C   LIG d   1       6.337  -5.148  -7.361  0.00  0.00     0.087 C 
ATOM     43  H   LIG d   1       6.802  -6.115  -7.172  0.00  0.00     0.069 H 
ATOM     44  H   LIG d   1       5.396  -5.084  -6.816  0.00  0.00     0.069 H 
BRANCH  42  45
ATOM     45  C   LIG d   1       6.071  -4.993  -8.860  0.00  0.00    -0.031 C 
ATOM     46  H   LIG d   1       5.449  -4.115  -9.029  0.00  0.00     0.026 H 
ATOM     47  H   LIG d   1       7.018  -4.874  -9.386  0.00  0.00     0.026 H 
ATOM     48  H   LIG d   1       5.558  -5.880  -9.231  0.00  0.00     0.026 H 
ENDBRANCH  42  45
ENDBRANCH  41  42
ENDBRANCH   6  41
BRANCH  12  49
ATOM     49  C   LIG d   1       3.918   1.369  -1.937  0.00  0.00    -0.024 C 
ATOM     50  H   LIG d   1       3.351   0.753  -1.239  0.00  0.00     0.029 H 
ATOM     51  H   LIG d   1       4.852   1.682  -1.469  0.00  0.00     0.029 H 
ATOM     52  H   LIG d   1       3.332   2.250  -2.203  0.00  0.00     0.029 H 
ENDBRANCH  12  49
BRANCH   5  53
ATOM     53  O   LIG d   1       8.127  -4.130  -4.333  0.00  0.00    -0.489 OA
BRANCH  53  54
ATOM     54  C   LIG d   1       9.333  -3.605  -3.775  0.00  0.00     0.087 C 
ATOM     55  H   LIG d   1      10.173  -3.857  -4.423  0.00  0.00     0.069 H 
ATOM     56  H   LIG d   1       9.253  -2.521  -3.690  0.00  0.00     0.069 H 
BRANCH  54  57
ATOM     57  C   LIG d   1       9.560  -4.210  -2.388  0.00  0.00    -0.031 C 
ATOM     58  H   LIG d   1      10.423  -3.736  -1.922  0.00  0.00     0.026 H 
ATOM     59  H   LIG d   1       8.676  -4.044  -1.771  0.00  0.00     0.026 H 
ATOM     60  H   LIG d   1       9.740  -5.280  -2.484  0.00  0.00     0.026 H 
ENDBRANCH  54  57
ENDBRANCH  53  54
ENDBRANCH   5  53
TORSDOF 14
ENDMDL
MODEL 2
REMARK VINA RESULT:      -5.5      2.951      5.690
REMARK  14 active torsions:
REMARK  status: ('A' for Active; 'I' for Inactive)
REMARK    1  A    between atoms: C_1  and  C_2 
REMARK    2  A    between atoms: C_2  and  C_3 
REMARK    3  A    between atoms: C_7  and  O_29 
REMARK    4  A    between atoms: C_8  and  O_26 
REMARK    5  A    between atoms: C_11  and  C_16 
REMARK    6  A    between atoms: C_14  and  C_15 
REMARK    7  A    between atoms: C_19  and  O_24 
REMARK    8  A    between atoms: C_20  and  O_22 
REMARK    9  A    between atoms: O_22  and  C_23 
REMARK   10  A    between atoms: O_24  and  C_25 
REMARK   11  A    between atoms: O_26  and  C_27 
REMARK   12  A    between atoms: C_27  and  C_28 
REMARK   13  A    between atoms: O_29  and  C_30 
REMARK   14  A    between atoms: C_30  and  C_31 
ROOT
ATOM      1  C   LIG d   1       6.781  -6.801  -5.698  0.00  0.00     0.025 A 
ATOM      2  H   LIG d   1       7.283  -7.458  -4.988  0.00  0.00     0.041 H 
ATOM      3  C   LIG d   1       7.374  -5.424  -5.495  0.00  0.00    -0.026 A 
ATOM      4  C   LIG d   1       8.739  -5.392  -5.630  0.00  0.00    -0.012 A 
ATOM      5  C   LIG d   1       9.415  -4.188  -5.469  0.00  0.00     0.162 A 
ATOM      6  C   LIG d   1       8.712  -3.022  -5.170  0.00  0.00     0.163 A 
ATOM      7  C   LIG d   1       7.335  -3.051  -5.033  0.00  0.00    -0.007 A 
ATOM      8  C   LIG d   1       6.659  -4.259  -5.196  0.00  0.00     0.010 A 
ATOM      9  C   LIG d   1       5.198  -4.132  -5.020  0.00  0.00     0.101 A 
ATOM     10  N   LIG d   1       4.278  -5.065  -5.105  0.00  0.00    -0.149 NA
ATOM     11  N   LIG d   1       4.329  -6.318  -5.351  0.00  0.00    -0.158 NA
ATOM     12  C   LIG d   1       5.303  -7.126  -5.609  0.00  0.00     0.045 A 
ATOM     13  H   LIG d   1       9.283  -6.296  -5.860  0.00  0.00     0.066 H 
ATOM     14  H   LIG d   1       6.791  -2.147  -4.802  0.00  0.00     0.066 H 
ENDROOT
BRANCH   9  15
ATOM     15  C   LIG d   1       4.706  -2.775  -4.708  0.00  0.00     0.006 A 
ATOM     16  C   LIG d   1       4.588  -1.822  -5.723  0.00  0.00    -0.007 A 
ATOM     17  C   LIG d   1       4.122  -0.555  -5.426  0.00  0.00     0.162 A 
ATOM     18  H   LIG d   1       4.855  -2.077  -6.738  0.00  0.00     0.066 H 
ATOM     19  C   LIG d   1       3.785  -0.226  -4.115  0.00  0.00     0.162 A 
ATOM     20  C   LIG d   1       3.909  -1.171  -3.105  0.00  0.00    -0.016 A 
ATOM     21  C   LIG d   1       4.367  -2.438  -3.395  0.00  0.00    -0.049 A 
ATOM     22  H   LIG d   1       3.646  -0.912  -2.090  0.00  0.00     0.066 H 
ATOM     23  H   LIG d   1       4.461  -3.171  -2.607  0.00  0.00     0.062 H 
BRANCH  17  24
ATOM     24  O   LIG d   1       3.999   0.373  -6.413  0.00  0.00    -0.491 OA
BRANCH  24  25
ATOM     25  C   LIG d   1       2.964   0.163  -7.375  0.00  0.00     0.079 C 
ATOM     26  H   LIG d   1       3.179  -0.739  -7.950  0.00  0.00     0.066 H 
ATOM     27  H   LIG d   1       2.009   0.048  -6.863  0.00  0.00     0.066 H 
ATOM     28  H   LIG d   1       2.914   1.019  -8.049  0.00  0.00     0.066 H 
ENDBRANCH  24  25
ENDBRANCH  17  24
BRANCH  19  29
ATOM     29  O   LIG d   1       3.333   1.022  -3.824  0.00  0.00    -0.491 OA
BRANCH  29  30
ATOM     30  C   LIG d   1       3.659   1.546  -2.534  0.00  0.00     0.079 C 
ATOM     31  H   LIG d   1       3.316   2.577  -2.465  0.00  0.00     0.066 H 
ATOM     32  H   LIG d   1       3.171   0.947  -1.765  0.00  0.00     0.066 H 
ATOM     33  H   LIG d   1       4.739   1.511  -2.390  0.00  0.00     0.066 H 
ENDBRANCH  29  30
ENDBRANCH  19  29
ENDBRANCH   9  15
BRANCH   1  34
ATOM     34  C   LIG d   1       7.241  -7.266  -7.082  0.00  0.00    -0.044 C 
ATOM     35  H   LIG d   1       6.983  -8.317  -7.217  0.00  0.00     0.027 H 
ATOM     36  H   LIG d   1       8.321  -7.143  -7.167  0.00  0.00     0.027 H 
BRANCH  34  37
ATOM     37  C   LIG d   1       6.547  -6.429  -8.158  0.00  0.00    -0.064 C 
ATOM     38  H   LIG d   1       7.292  -5.855  -8.710  0.00  0.00     0.023 H 
ATOM     39  H   LIG d   1       6.015  -7.088  -8.844  0.00  0.00     0.023 H 
ATOM     40  H   LIG d   1       5.839  -5.747  -7.687  0.00  0.00     0.023 H 
ENDBRANCH  34  37
ENDBRANCH   1  34
BRANCH   6  41
ATOM     41  O   LIG d   1       9.383  -1.849  -5.014  0.00  0.00    -0.489 OA
BRANCH  41  42
ATOM     42  C   LIG d   1       8.828  -0.694  -5.649  0.00  0.00     0.087 C 
ATOM     43  H   LIG d   1       9.622  -0.132  -6.139  0.00  0.00     0.069 H 
ATOM     44  H   LIG d   1       8.093  -1.007  -6.391  0.00  0.00     0.069 H 
BRANCH  42  45
ATOM     45  C   LIG d   1       8.150   0.188  -4.600  0.00  0.00    -0.031 C 
ATOM     46  H   LIG d   1       8.147  -0.327  -3.639  0.00  0.00     0.026 H 
ATOM     47  H   LIG d   1       8.697   1.127  -4.507  0.00  0.00     0.026 H 
ATOM     48  H   LIG d   1       7.125   0.394  -4.905  0.00  0.00     0.026 H 
ENDBRANCH  42  45
ENDBRANCH  41  42
ENDBRANCH   6  41
BRANCH  12  49
ATOM     49  C   LIG d   1       4.924  -8.565  -5.848  0.00  0.00    -0.024 C 
ATOM     50  H   LIG d   1       5.715  -9.216  -5.475  0.00  0.00     0.029 H 
ATOM     51  H   LIG d   1       3.993  -8.788  -5.325  0.00  0.00     0.029 H 
ATOM     52  H   LIG d   1       4.789  -8.733  -6.916  0.00  0.00     0.029 H 
ENDBRANCH  12  49
BRANCH   5  53
ATOM     53  O   LIG d   1      10.766  -4.148  -5.601  0.00  0.00    -0.489 OA
BRANCH  53  54
ATOM     54  C   LIG d   1      11.531  -4.925  -4.678  0.00  0.00     0.087 C 
ATOM     55  H   LIG d   1      10.969  -5.817  -4.400  0.00  0.00     0.069 H 
ATOM     56  H   LIG d   1      12.472  -5.219  -5.142  0.00  0.00     0.069 H 
BRANCH  54  57
ATOM     57  C   LIG d   1      11.818  -4.093  -3.425  0.00  0.00    -0.031 C 
ATOM     58  H   LIG d   1      11.647  -4.703  -2.538  0.00  0.00     0.026 H 
ATOM     59  H   LIG d   1      12.855  -3.758  -3.442  0.00  0.00     0.026 H 
ATOM     60  H   LIG d   1      11.157  -3.228  -3.405  0.00  0.00     0.026 H 
ENDBRANCH  54  57
ENDBRANCH  53  54
ENDBRANCH   5  53
TORSDOF 14
ENDMDL
MODEL 3
REMARK VINA RESULT:      -5.4      2.256      2.969
REMARK  14 active torsions:
REMARK  status: ('A' for Active; 'I' for Inactive)
REMARK    1  A    between atoms: C_1  and  C_2 
REMARK    2  A    between atoms: C_2  and  C_3 
REMARK    3  A    between atoms: C_7  and  O_29 
REMARK    4  A    between atoms: C_8  and  O_26 
REMARK    5  A    between atoms: C_11  and  C_16 
REMARK    6  A    between atoms: C_14  and  C_15 
REMARK    7  A    between atoms: C_19  and  O_24 
REMARK    8  A    between atoms: C_20  and  O_22 
REMARK    9  A    between atoms: O_22  and  C_23 
REMARK   10  A    between atoms: O_24  and  C_25 
REMARK   11  A    between atoms: O_26  and  C_27 
REMARK   12  A    between atoms: C_27  and  C_28 
REMARK   13  A    between atoms: O_29  and  C_30 
REMARK   14  A    between atoms: C_30  and  C_31 
ROOT
ATOM      1  C   LIG d   1       5.188  -1.890  -3.835  0.00  0.00     0.025 A 
ATOM      2  H   LIG d   1       6.075  -2.337  -3.387  0.00  0.00     0.041 H 
ATOM      3  C   LIG d   1       4.868  -2.718  -5.060  0.00  0.00    -0.026 A 
ATOM      4  C   LIG d   1       4.699  -4.052  -4.786  0.00  0.00    -0.012 A 
ATOM      5  C   LIG d   1       4.401  -4.931  -5.821  0.00  0.00     0.162 A 
ATOM      6  C   LIG d   1       4.276  -4.461  -7.128  0.00  0.00     0.163 A 
ATOM      7  C   LIG d   1       4.446  -3.116  -7.406  0.00  0.00    -0.007 A 
ATOM      8  C   LIG d   1       4.745  -2.237  -6.368  0.00  0.00     0.010 A 
ATOM      9  C   LIG d   1       4.897  -0.838  -6.819  0.00  0.00     0.101 A 
ATOM     10  N   LIG d   1       5.175   0.227  -6.104  0.00  0.00    -0.149 NA
ATOM     11  N   LIG d   1       5.396   0.407  -4.858  0.00  0.00    -0.158 NA
ATOM     12  C   LIG d   1       5.423  -0.391  -3.844  0.00  0.00     0.045 A 
ATOM     13  H   LIG d   1       4.798  -4.416  -3.774  0.00  0.00     0.066 H 
ATOM     14  H   LIG d   1       4.350  -2.752  -8.419  0.00  0.00     0.066 H 
ENDROOT
BRANCH   9  15
ATOM     15  C   LIG d   1       4.712  -0.609  -8.266  0.00  0.00     0.006 A 
ATOM     16  C   LIG d   1       3.426  -0.576  -8.810  0.00  0.00    -0.007 A 
ATOM     17  C   LIG d   1       3.257  -0.356 -10.164  0.00  0.00     0.162 A 
ATOM     18  H   LIG d   1       2.565  -0.718  -8.173  0.00  0.00     0.066 H 
ATOM     19  C   LIG d   1       4.369  -0.181 -10.985  0.00  0.00     0.162 A 
ATOM     20  C   LIG d   1       5.648  -0.219 -10.445  0.00  0.00    -0.016 A 
ATOM     21  C   LIG d   1       5.823  -0.433  -9.095  0.00  0.00    -0.049 A 
ATOM     22  H   LIG d   1       6.507  -0.083 -11.085  0.00  0.00     0.066 H 
ATOM     23  H   LIG d   1       6.818  -0.462  -8.678  0.00  0.00     0.062 H 
BRANCH  17  24
ATOM     24  O   LIG d   1       2.006  -0.317 -10.696  0.00  0.00    -0.491 OA
BRANCH  24  25
ATOM     25  C   LIG d   1       1.346  -1.568 -10.895  0.00  0.00     0.079 C 
ATOM     26  H   LIG d   1       1.899  -2.158 -11.627  0.00  0.00     0.066 H 
ATOM     27  H   LIG d   1       1.303  -2.111  -9.951  0.00  0.00     0.066 H 
ATOM     28  H   LIG d   1       0.334  -1.392 -11.260  0.00  0.00     0.066 H 
ENDBRANCH  24  25
ENDBRANCH  17  24
BRANCH  19  29
ATOM     29  O   LIG d   1       4.202   0.030 -12.316  0.00  0.00    -0.491 OA
BRANCH  29  30
ATOM     30  C   LIG d   1       4.484  -1.068 -13.188  0.00  0.00     0.079 C 
ATOM     31  H   LIG d   1       4.493  -0.719 -14.220  0.00  0.00     0.066 H 
ATOM     32  H   LIG d   1       5.458  -1.488 -12.937  0.00  0.00     0.066 H 
ATOM     33  H   LIG d   1       3.717  -1.833 -13.069  0.00  0.00     0.066 H 
ENDBRANCH  29  30
ENDBRANCH  19  29
ENDBRANCH   9  15
BRANCH   1  34
ATOM     34  C   LIG d   1       4.055  -2.141  -2.839  0.00  0.00    -0.044 C 
ATOM     35  H   LIG d   1       4.411  -1.947  -1.826  0.00  0.00     0.027 H 
ATOM     36  H   LIG d   1       3.726  -3.178  -2.916  0.00  0.00     0.027 H 
BRANCH  34  37
ATOM     37  C   LIG d   1       2.883  -1.210  -3.154  0.00  0.00    -0.064 C 
ATOM     38  H   LIG d   1       2.838  -1.032  -4.228  0.00  0.00     0.023 H 
ATOM     39  H   LIG d   1       1.953  -1.672  -2.824  0.00  0.00     0.023 H 
ATOM     40  H   LIG d   1       3.022  -0.262  -2.634  0.00  0.00     0.023 H 
ENDBRANCH  34  37
ENDBRANCH   1  34
BRANCH   6  41
ATOM     41  O   LIG d   1       3.984  -5.329  -8.134  0.00  0.00    -0.489 OA
BRANCH  41  42
ATOM     42  C   LIG d   1       3.793  -4.771  -9.437  0.00  0.00     0.087 C 
ATOM     43  H   LIG d   1       3.972  -3.697  -9.401  0.00  0.00     0.069 H 
ATOM     44  H   LIG d   1       4.490  -5.233 -10.135  0.00  0.00     0.069 H 
BRANCH  42  45
ATOM     45  C   LIG d   1       2.358  -5.035  -9.899  0.00  0.00    -0.031 C 
ATOM     46  H   LIG d   1       1.662  -4.707  -9.127  0.00  0.00     0.026 H 
ATOM     47  H   LIG d   1       2.166  -4.482 -10.819  0.00  0.00     0.026 H 
ATOM     48  H   LIG d   1       2.226  -6.100 -10.081  0.00  0.00     0.026 H 
ENDBRANCH  42  45
ENDBRANCH  41  42
ENDBRANCH   6  41
BRANCH  12  49
ATOM     49  C   LIG d   1       5.728   0.241  -2.511  0.00  0.00    -0.024 C 
ATOM     50  H   LIG d   1       6.746   0.629  -2.516  0.00  0.00     0.029 H 
ATOM     51  H   LIG d   1       5.029   1.058  -2.327  0.00  0.00     0.029 H 
ATOM     52  H   LIG d   1       5.628  -0.506  -1.723  0.00  0.00     0.029 H 
ENDBRANCH  12  49
BRANCH   5  53
ATOM     53  O   LIG d   1       4.232  -6.253  -5.560  0.00  0.00    -0.489 OA
BRANCH  53  54
ATOM     54  C   LIG d   1       5.404  -7.070  -5.564  0.00  0.00     0.087 C 
ATOM     55  H   LIG d   1       5.848  -7.062  -6.560  0.00  0.00     0.069 H 
ATOM     56  H   LIG d   1       6.122  -6.680  -4.843  0.00  0.00     0.069 H 
BRANCH  54  57
ATOM     57  C   LIG d   1       5.028  -8.504  -5.186  0.00  0.00    -0.031 C 
ATOM     58  H   LIG d   1       5.265  -8.677  -4.136  0.00  0.00     0.026 H 
ATOM     59  H   LIG d   1       3.959  -8.654  -5.346  0.00  0.00     0.026 H 
ATOM     60  H   LIG d   1       5.589  -9.202  -5.805  0.00  0.00     0.026 H 
ENDBRANCH  54  57
ENDBRANCH  53  54
ENDBRANCH   5  53
TORSDOF 14
ENDMDL
MODEL 4
REMARK VINA RESULT:      -5.4      4.600      6.301
REMARK  14 active torsions:
REMARK  status: ('A' for Active; 'I' for Inactive)
REMARK    1  A    between atoms: C_1  and  C_2 
REMARK    2  A    between atoms: C_2  and  C_3 
REMARK    3  A    between atoms: C_7  and  O_29 
REMARK    4  A    between atoms: C_8  and  O_26 
REMARK    5  A    between atoms: C_11  and  C_16 
REMARK    6  A    between atoms: C_14  and  C_15 
REMARK    7  A    between atoms: C_19  and  O_24 
REMARK    8  A    between atoms: C_20  and  O_22 
REMARK    9  A    between atoms: O_22  and  C_23 
REMARK   10  A    between atoms: O_24  and  C_25 
REMARK   11  A    between atoms: O_26  and  C_27 
REMARK   12  A    between atoms: C_27  and  C_28 
REMARK   13  A    between atoms: O_29  and  C_30 
REMARK   14  A    between atoms: C_30  and  C_31 
ROOT
ATOM      1  C   LIG d   1       5.806  -1.099  -3.107  0.00  0.00     0.025 A 
ATOM      2  H   LIG d   1       5.922  -1.669  -2.186  0.00  0.00     0.041 H 
ATOM      3  C   LIG d   1       7.126  -1.201  -3.838  0.00  0.00    -0.026 A 
ATOM      4  C   LIG d   1       7.522  -2.495  -4.070  0.00  0.00    -0.012 A 
ATOM      5  C   LIG d   1       8.720  -2.735  -4.734  0.00  0.00     0.162 A 
ATOM      6  C   LIG d   1       9.514  -1.671  -5.160  0.00  0.00     0.163 A 
ATOM      7  C   LIG d   1       9.116  -0.366  -4.927  0.00  0.00    -0.007 A 
ATOM      8  C   LIG d   1       7.916  -0.126  -4.261  0.00  0.00     0.010 A 
ATOM      9  C   LIG d   1       7.628   1.312  -4.086  0.00  0.00     0.101 A 
ATOM     10  N   LIG d   1       6.593   1.876  -3.509  0.00  0.00    -0.149 NA
ATOM     11  N   LIG d   1       5.551   1.406  -2.938  0.00  0.00    -0.158 NA
ATOM     12  C   LIG d   1       5.131   0.203  -2.722  0.00  0.00     0.045 A 
ATOM     13  H   LIG d   1       6.908  -3.319  -3.739  0.00  0.00     0.066 H 
ATOM     14  H   LIG d   1       9.732   0.458  -5.256  0.00  0.00     0.066 H 
ENDROOT
BRANCH   9  15
ATOM     15  C   LIG d   1       8.640   2.238  -4.634  0.00  0.00     0.006 A 
ATOM     16  C   LIG d   1       9.537   2.880  -3.778  0.00  0.00    -0.007 A 
ATOM     17  C   LIG d   1      10.486   3.742  -4.297  0.00  0.00     0.162 A 
ATOM     18  H   LIG d   1       9.493   2.701  -2.714  0.00  0.00     0.066 H 
ATOM     19  C   LIG d   1      10.536   3.978  -5.669  0.00  0.00     0.162 A 
ATOM     20  C   LIG d   1       9.640   3.344  -6.519  0.00  0.00    -0.016 A 
ATOM     21  C   LIG d   1       8.696   2.479  -6.009  0.00  0.00    -0.049 A 
ATOM     22  H   LIG d   1       9.683   3.530  -7.582  0.00  0.00     0.066 H 
ATOM     23  H   LIG d   1       8.000   1.988  -6.673  0.00  0.00     0.062 H 
BRANCH  17  24
ATOM     24  O   LIG d   1      11.366   4.364  -3.467  0.00  0.00    -0.491 OA
BRANCH  24  25
ATOM     25  C   LIG d   1      10.978   4.504  -2.099  0.00  0.00     0.079 C 
ATOM     26  H   LIG d   1      10.439   3.611  -1.780  0.00  0.00     0.066 H 
ATOM     27  H   LIG d   1      11.865   4.632  -1.480  0.00  0.00     0.066 H 
ATOM     28  H   LIG d   1      10.331   5.376  -1.992  0.00  0.00     0.066 H 
ENDBRANCH  24  25
ENDBRANCH  17  24
BRANCH  19  29
ATOM     29  O   LIG d   1      11.465   4.829  -6.176  0.00  0.00    -0.491 OA
BRANCH  29  30
ATOM     30  C   LIG d   1      11.079   5.612  -7.308  0.00  0.00     0.079 C 
ATOM     31  H   LIG d   1       9.994   5.599  -7.405  0.00  0.00     0.066 H 
ATOM     32  H   LIG d   1      11.419   6.639  -7.173  0.00  0.00     0.066 H 
ATOM     33  H   LIG d   1      11.530   5.196  -8.209  0.00  0.00     0.066 H 
ENDBRANCH  29  30
ENDBRANCH  19  29
ENDBRANCH   9  15
BRANCH   1  34
ATOM     34  C   LIG d   1       4.790  -1.877  -3.946  0.00  0.00    -0.044 C 
ATOM     35  H   LIG d   1       3.861  -1.984  -3.384  0.00  0.00     0.027 H 
ATOM     36  H   LIG d   1       5.190  -2.865  -4.177  0.00  0.00     0.027 H 
BRANCH  34  37
ATOM     37  C   LIG d   1       4.516  -1.122  -5.246  0.00  0.00    -0.064 C 
ATOM     38  H   LIG d   1       4.194  -0.106  -5.016  0.00  0.00     0.023 H 
ATOM     39  H   LIG d   1       5.425  -1.087  -5.846  0.00  0.00     0.023 H 
ATOM     40  H   LIG d   1       3.731  -1.633  -5.805  0.00  0.00     0.023 H 
ENDBRANCH  34  37
ENDBRANCH   1  34
BRANCH   6  41
ATOM     41  O   LIG d   1      10.684  -1.917  -5.809  0.00  0.00    -0.489 OA
BRANCH  41  42
ATOM     42  C   LIG d   1      11.844  -1.228  -5.337  0.00  0.00     0.087 C 
ATOM     43  H   LIG d   1      12.593  -1.196  -6.127  0.00  0.00     0.069 H 
ATOM     44  H   LIG d   1      11.572  -0.212  -5.052  0.00  0.00     0.069 H 
BRANCH  42  45
ATOM     45  C   LIG d   1      12.414  -1.963  -4.122  0.00  0.00    -0.031 C 
ATOM     46  H   LIG d   1      12.265  -1.357  -3.229  0.00  0.00     0.026 H 
ATOM     47  H   LIG d   1      11.902  -2.918  -4.002  0.00  0.00     0.026 H 
ATOM     48  H   LIG d   1      13.479  -2.138  -4.271  0.00  0.00     0.026 H 
ENDBRANCH  42  45
ENDBRANCH  41  42
ENDBRANCH   6  41
BRANCH  12  49
ATOM     49  C   LIG d   1       3.816   0.081  -1.997  0.00  0.00    -0.024 C 
ATOM     50  H   LIG d   1       3.583  -0.973  -1.842  0.00  0.00     0.029 H 
ATOM     51  H   LIG d   1       3.883   0.584  -1.032  0.00  0.00     0.029 H 
ATOM     52  H   LIG d   1       3.028   0.543  -2.594  0.00  0.00     0.029 H 
ENDBRANCH  12  49
BRANCH   5  53
ATOM     53  O   LIG d   1       9.119  -4.012  -4.969  0.00  0.00    -0.489 OA
BRANCH  53  54
ATOM     54  C   LIG d   1       9.037  -4.928  -3.875  0.00  0.00     0.087 C 
ATOM     55  H   LIG d   1       8.068  -4.824  -3.386  0.00  0.00     0.069 H 
ATOM     56  H   LIG d   1       9.149  -5.947  -4.245  0.00  0.00     0.069 H 
BRANCH  54  57
ATOM     57  C   LIG d   1      10.150  -4.624  -2.870  0.00  0.00    -0.031 C 
ATOM     58  H   LIG d   1      10.717  -5.534  -2.671  0.00  0.00     0.026 H 
ATOM     59  H   LIG d   1      10.814  -3.864  -3.283  0.00  0.00     0.026 H 
ATOM     60  H   LIG d   1       9.711  -4.258  -1.943  0.00  0.00     0.026 H 
ENDBRANCH  54  57
ENDBRANCH  53  54
ENDBRANCH   5  53
TORSDOF 14
ENDMDL
MODEL 5
REMARK VINA RESULT:      -5.3      3.748      7.000
REMARK  14 active torsions:
REMARK  status: ('A' for Active; 'I' for Inactive)
REMARK    1  A    between atoms: C_1  and  C_2 
REMARK    2  A    between atoms: C_2  and  C_3 
REMARK    3  A    between atoms: C_7  and  O_29 
REMARK    4  A    between atoms: C_8  and  O_26 
REMARK    5  A    between atoms: C_11  and  C_16 
REMARK    6  A    between atoms: C_14  and  C_15 
REMARK    7  A    between atoms: C_19  and  O_24 
REMARK    8  A    between atoms: C_20  and  O_22 
REMARK    9  A    between atoms: O_22  and  C_23 
REMARK   10  A    between atoms: O_24  and  C_25 
REMARK   11  A    between atoms: O_26  and  C_27 
REMARK   12  A    between atoms: C_27  and  C_28 
REMARK   13  A    between atoms: O_29  and  C_30 
REMARK   14  A    between atoms: C_30  and  C_31 
ROOT
ATOM      1  C   LIG d   1       4.125  -1.243  -4.605  0.00  0.00     0.025 A 
ATOM      2  H   LIG d   1       3.722  -2.178  -4.994  0.00  0.00     0.041 H 
ATOM      3  C   LIG d   1       4.915  -0.619  -5.734  0.00  0.00    -0.026 A 
ATOM      4  C   LIG d   1       4.180  -0.435  -6.877  0.00  0.00    -0.012 A 
ATOM      5  C   LIG d   1       4.783   0.130  -7.996  0.00  0.00     0.162 A 
ATOM      6  C   LIG d   1       6.126   0.506  -7.956  0.00  0.00     0.163 A 
ATOM      7  C   LIG d   1       6.869   0.321  -6.803  0.00  0.00    -0.007 A 
ATOM      8  C   LIG d   1       6.263  -0.245  -5.683  0.00  0.00     0.010 A 
ATOM      9  C   LIG d   1       7.181  -0.378  -4.534  0.00  0.00     0.101 A 
ATOM     10  N   LIG d   1       6.933  -0.865  -3.340  0.00  0.00    -0.149 NA
ATOM     11  N   LIG d   1       5.885  -1.359  -2.801  0.00  0.00    -0.158 NA
ATOM     12  C   LIG d   1       4.683  -1.557  -3.231  0.00  0.00     0.045 A 
ATOM     13  H   LIG d   1       3.141  -0.727  -6.909  0.00  0.00     0.066 H 
ATOM     14  H   LIG d   1       7.909   0.612  -6.773  0.00  0.00     0.066 H 
ENDROOT
BRANCH   9  15
ATOM     15  C   LIG d   1       8.560   0.101  -4.757  0.00  0.00     0.006 A 
ATOM     16  C   LIG d   1       8.933   1.379  -4.337  0.00  0.00    -0.007 A 
ATOM     17  C   LIG d   1      10.227   1.821  -4.543  0.00  0.00     0.162 A 
ATOM     18  H   LIG d   1       8.214   2.020  -3.848  0.00  0.00     0.066 H 
ATOM     19  C   LIG d   1      11.151   0.996  -5.181  0.00  0.00     0.162 A 
ATOM     20  C   LIG d   1      10.778  -0.273  -5.604  0.00  0.00    -0.016 A 
ATOM     21  C   LIG d   1       9.491  -0.722  -5.396  0.00  0.00    -0.049 A 
ATOM     22  H   LIG d   1      11.497  -0.909  -6.097  0.00  0.00     0.066 H 
ATOM     23  H   LIG d   1       9.205  -1.709  -5.726  0.00  0.00     0.062 H 
BRANCH  17  24
ATOM     24  O   LIG d   1      10.595   3.063  -4.130  0.00  0.00    -0.491 OA
BRANCH  24  25
ATOM     25  C   LIG d   1      10.721   3.267  -2.721  0.00  0.00     0.079 C 
ATOM     26  H   LIG d   1      10.128   2.520  -2.192  0.00  0.00     0.066 H 
ATOM     27  H   LIG d   1      11.767   3.172  -2.431  0.00  0.00     0.066 H 
ATOM     28  H   LIG d   1      10.361   4.264  -2.465  0.00  0.00     0.066 H 
ENDBRANCH  24  25
ENDBRANCH  17  24
BRANCH  19  29
ATOM     29  O   LIG d   1      12.420   1.434  -5.388  0.00  0.00    -0.491 OA
BRANCH  29  30
ATOM     30  C   LIG d   1      13.423   0.969  -4.481  0.00  0.00     0.079 C 
ATOM     31  H   LIG d   1      13.689  -0.058  -4.730  0.00  0.00     0.066 H 
ATOM     32  H   LIG d   1      14.305   1.603  -4.560  0.00  0.00     0.066 H 
ATOM     33  H   LIG d   1      13.037   1.008  -3.463  0.00  0.00     0.066 H 
ENDBRANCH  29  30
ENDBRANCH  19  29
ENDBRANCH   9  15
BRANCH   1  34
ATOM     34  C   LIG d   1       2.912  -0.337  -4.379  0.00  0.00    -0.044 C 
ATOM     35  H   LIG d   1       2.170  -0.867  -3.781  0.00  0.00     0.027 H 
ATOM     36  H   LIG d   1       2.477  -0.066  -5.341  0.00  0.00     0.027 H 
BRANCH  34  37
ATOM     37  C   LIG d   1       3.351   0.929  -3.643  0.00  0.00    -0.064 C 
ATOM     38  H   LIG d   1       2.786   1.025  -2.715  0.00  0.00     0.023 H 
ATOM     39  H   LIG d   1       4.415   0.867  -3.415  0.00  0.00     0.023 H 
ATOM     40  H   LIG d   1       3.164   1.799  -4.273  0.00  0.00     0.023 H 
ENDBRANCH  34  37
ENDBRANCH   1  34
BRANCH   6  41
ATOM     41  O   LIG d   1       6.707   1.058  -9.055  0.00  0.00    -0.489 OA
BRANCH  41  42
ATOM     42  C   LIG d   1       7.519   2.216  -8.846  0.00  0.00     0.087 C 
ATOM     43  H   LIG d   1       7.052   3.077  -9.324  0.00  0.00     0.069 H 
ATOM     44  H   LIG d   1       7.618   2.403  -7.777  0.00  0.00     0.069 H 
BRANCH  42  45
ATOM     45  C   LIG d   1       8.903   1.984  -9.454  0.00  0.00    -0.031 C 
ATOM     46  H   LIG d   1       9.542   2.840  -9.239  0.00  0.00     0.026 H 
ATOM     47  H   LIG d   1       9.343   1.085  -9.022  0.00  0.00     0.026 H 
ATOM     48  H   LIG d   1       8.811   1.861 -10.532  0.00  0.00     0.026 H 
ENDBRANCH  42  45
ENDBRANCH  41  42
ENDBRANCH   6  41
BRANCH  12  49
ATOM     49  C   LIG d   1       3.723  -2.178  -2.249  0.00  0.00    -0.024 C 
ATOM     50  H   LIG d   1       2.870  -2.593  -2.788  0.00  0.00     0.029 H 
ATOM     51  H   LIG d   1       4.227  -2.973  -1.700  0.00  0.00     0.029 H 
ATOM     52  H   LIG d   1       3.375  -1.417  -1.550  0.00  0.00     0.029 H 
ENDBRANCH  12  49
BRANCH   5  53
ATOM     53  O   LIG d   1       4.063   0.316  -9.132  0.00  0.00    -0.489 OA
BRANCH  53  54
ATOM     54  C   LIG d   1       3.001   1.271  -9.077  0.00  0.00     0.087 C 
ATOM     55  H   LIG d   1       2.316   1.100  -9.908  0.00  0.00     0.069 H 
ATOM     56  H   LIG d   1       2.463   1.163  -8.136  0.00  0.00     0.069 H 
BRANCH  54  57
ATOM     57  C   LIG d   1       3.579   2.684  -9.177  0.00  0.00    -0.031 C 
ATOM     58  H   LIG d   1       4.436   2.679  -9.851  0.00  0.00     0.026 H 
ATOM     59  H   LIG d   1       2.817   3.362  -9.562  0.00  0.00     0.026 H 
ATOM     60  H   LIG d   1       3.896   3.017  -8.189  0.00  0.00     0.026 H 
ENDBRANCH  54  57
ENDBRANCH  53  54
ENDBRANCH   5  53
TORSDOF 14
ENDMDL
MODEL 6
REMARK VINA RESULT:      -5.2      4.350      5.672
REMARK  14 active torsions:
REMARK  status: ('A' for Active; 'I' for Inactive)
REMARK    1  A    between atoms: C_1  and  C_2 
REMARK    2  A    between atoms: C_2  and  C_3 
REMARK    3  A    between atoms: C_7  and  O_29 
REMARK    4  A    between atoms: C_8  and  O_26 
REMARK    5  A    between atoms: C_11  and  C_16 
REMARK    6  A    between atoms: C_14  and  C_15 
REMARK    7  A    between atoms: C_19  and  O_24 
REMARK    8  A    between atoms: C_20  and  O_22 
REMARK    9  A    between atoms: O_22  and  C_23 
REMARK   10  A    between atoms: O_24  and  C_25 
REMARK   11  A    between atoms: O_26  and  C_27 
REMARK   12  A    between atoms: C_27  and  C_28 
REMARK   13  A    between atoms: O_29  and  C_30 
REMARK   14  A    between atoms: C_30  and  C_31 
ROOT
ATOM      1  C   LIG d   1       5.789  -0.726  -2.942  0.00  0.00     0.025 A 
ATOM      2  H   LIG d   1       5.908  -1.181  -1.959  0.00  0.00     0.041 H 
ATOM      3  C   LIG d   1       7.018  -1.107  -3.738  0.00  0.00    -0.026 A 
ATOM      4  C   LIG d   1       7.221  -2.462  -3.811  0.00  0.00    -0.012 A 
ATOM      5  C   LIG d   1       8.317  -2.953  -4.513  0.00  0.00     0.162 A 
ATOM      6  C   LIG d   1       9.203  -2.076  -5.136  0.00  0.00     0.163 A 
ATOM      7  C   LIG d   1       9.000  -0.708  -5.064  0.00  0.00    -0.007 A 
ATOM      8  C   LIG d   1       7.902  -0.218  -4.360  0.00  0.00     0.010 A 
ATOM      9  C   LIG d   1       7.818   1.257  -4.371  0.00  0.00     0.101 A 
ATOM     10  N   LIG d   1       6.918   2.030  -3.812  0.00  0.00    -0.149 NA
ATOM     11  N   LIG d   1       5.876   1.790  -3.112  0.00  0.00    -0.158 NA
ATOM     12  C   LIG d   1       5.324   0.697  -2.701  0.00  0.00     0.045 A 
ATOM     13  H   LIG d   1       6.536  -3.142  -3.327  0.00  0.00     0.066 H 
ATOM     14  H   LIG d   1       9.687  -0.029  -5.547  0.00  0.00     0.066 H 
ENDROOT
BRANCH   9  15
ATOM     15  C   LIG d   1       8.891   1.952  -5.111  0.00  0.00     0.006 A 
ATOM     16  C   LIG d   1       8.786   2.130  -6.492  0.00  0.00    -0.007 A 
ATOM     17  C   LIG d   1       9.791   2.787  -7.179  0.00  0.00     0.162 A 
ATOM     18  H   LIG d   1       7.921   1.760  -7.023  0.00  0.00     0.066 H 
ATOM     19  C   LIG d   1      10.910   3.257  -6.495  0.00  0.00     0.162 A 
ATOM     20  C   LIG d   1      11.016   3.075  -5.123  0.00  0.00    -0.016 A 
ATOM     21  C   LIG d   1      10.016   2.426  -4.431  0.00  0.00    -0.049 A 
ATOM     22  H   LIG d   1      11.885   3.442  -4.597  0.00  0.00     0.066 H 
ATOM     23  H   LIG d   1      10.101   2.286  -3.364  0.00  0.00     0.062 H 
BRANCH  17  24
ATOM     24  O   LIG d   1       9.689   2.968  -8.523  0.00  0.00    -0.491 OA
BRANCH  24  25
ATOM     25  C   LIG d   1       8.805   3.996  -8.975  0.00  0.00     0.079 C 
ATOM     26  H   LIG d   1       8.800   4.017 -10.065  0.00  0.00     0.066 H 
ATOM     27  H   LIG d   1       7.798   3.795  -8.611  0.00  0.00     0.066 H 
ATOM     28  H   LIG d   1       9.144   4.959  -8.594  0.00  0.00     0.066 H 
ENDBRANCH  24  25
ENDBRANCH  17  24
BRANCH  19  29
ATOM     29  O   LIG d   1      11.898   3.897  -7.173  0.00  0.00    -0.491 OA
BRANCH  29  30
ATOM     30  C   LIG d   1      11.947   5.322  -7.056  0.00  0.00     0.079 C 
ATOM     31  H   LIG d   1      10.995   5.687  -6.673  0.00  0.00     0.066 H 
ATOM     32  H   LIG d   1      12.747   5.602  -6.370  0.00  0.00     0.066 H 
ATOM     33  H   LIG d   1      12.138   5.760  -8.035  0.00  0.00     0.066 H 
ENDBRANCH  29  30
ENDBRANCH  19  29
ENDBRANCH   9  15
BRANCH   1  34
ATOM     34  C   LIG d   1       4.613  -1.458  -3.593  0.00  0.00    -0.044 C 
ATOM     35  H   LIG d   1       4.980  -2.083  -4.408  0.00  0.00     0.027 H 
ATOM     36  H   LIG d   1       3.904  -0.728  -3.986  0.00  0.00     0.027 H 
BRANCH  34  37
ATOM     37  C   LIG d   1       3.918  -2.335  -2.551  0.00  0.00    -0.064 C 
ATOM     38  H   LIG d   1       4.639  -3.032  -2.123  0.00  0.00     0.023 H 
ATOM     39  H   LIG d   1       3.507  -1.706  -1.762  0.00  0.00     0.023 H 
ATOM     40  H   LIG d   1       3.112  -2.895  -3.027  0.00  0.00     0.023 H 
ENDBRANCH  34  37
ENDBRANCH   1  34
BRANCH   6  41
ATOM     41  O   LIG d   1      10.272  -2.566  -5.820  0.00  0.00    -0.489 OA
BRANCH  41  42
ATOM     42  C   LIG d   1      11.557  -2.040  -5.479  0.00  0.00     0.087 C 
ATOM     43  H   LIG d   1      12.260  -2.250  -6.284  0.00  0.00     0.069 H 
ATOM     44  H   LIG d   1      11.481  -0.962  -5.335  0.00  0.00     0.069 H 
BRANCH  42  45
ATOM     45  C   LIG d   1      12.049  -2.695  -4.187  0.00  0.00    -0.031 C 
ATOM     46  H   LIG d   1      12.201  -1.928  -3.427  0.00  0.00     0.026 H 
ATOM     47  H   LIG d   1      11.304  -3.410  -3.836  0.00  0.00     0.026 H 
ATOM     48  H   LIG d   1      12.988  -3.212  -4.377  0.00  0.00     0.026 H 
ENDBRANCH  42  45
ENDBRANCH  41  42
ENDBRANCH   6  41
BRANCH  12  49
ATOM     49  C   LIG d   1       4.070   0.856  -1.880  0.00  0.00    -0.024 C 
ATOM     50  H   LIG d   1       4.204   1.668  -1.165  0.00  0.00     0.029 H 
ATOM     51  H   LIG d   1       3.232   1.086  -2.538  0.00  0.00     0.029 H 
ATOM     52  H   LIG d   1       3.867  -0.071  -1.344  0.00  0.00     0.029 H 
ENDBRANCH  12  49
BRANCH   5  53
ATOM     53  O   LIG d   1       8.526  -4.293  -4.591  0.00  0.00    -0.489 OA
BRANCH  53  54
ATOM     54  C   LIG d   1       9.168  -4.915  -3.476  0.00  0.00     0.087 C 
ATOM     55  H   LIG d   1      10.196  -4.558  -3.403  0.00  0.00     0.069 H 
ATOM     56  H   LIG d   1       8.632  -4.664  -2.561  0.00  0.00     0.069 H 
BRANCH  54  57
ATOM     57  C   LIG d   1       9.168  -6.433  -3.668  0.00  0.00    -0.031 C 
ATOM     58  H   LIG d   1       9.974  -6.713  -4.348  0.00  0.00     0.026 H 
ATOM     59  H   LIG d   1       9.319  -6.921  -2.705  0.00  0.00     0.026 H 
ATOM     60  H   LIG d   1       8.213  -6.746  -4.088  0.00  0.00     0.026 H 
ENDBRANCH  54  57
ENDBRANCH  53  54
ENDBRANCH   5  53
TORSDOF 14
ENDMDL
MODEL 7
REMARK VINA RESULT:      -5.0      5.237      7.596
REMARK  14 active torsions:
REMARK  status: ('A' for Active; 'I' for Inactive)
REMARK    1  A    between atoms: C_1  and  C_2 
REMARK    2  A    between atoms: C_2  and  C_3 
REMARK    3  A    between atoms: C_7  and  O_29 
REMARK    4  A    between atoms: C_8  and  O_26 
REMARK    5  A    between atoms: C_11  and  C_16 
REMARK    6  A    between atoms: C_14  and  C_15 
REMARK    7  A    between atoms: C_19  and  O_24 
REMARK    8  A    between atoms: C_20  and  O_22 
REMARK    9  A    between atoms: O_22  and  C_23 
REMARK   10  A    between atoms: O_24  and  C_25 
REMARK   11  A    between atoms: O_26  and  C_27 
REMARK   12  A    between atoms: C_27  and  C_28 
REMARK   13  A    between atoms: O_29  and  C_30 
REMARK   14  A    between atoms: C_30  and  C_31 
ROOT
ATOM      1  C   LIG d   1      10.308   4.572  -5.392  0.00  0.00     0.025 A 
ATOM      2  H   LIG d   1       9.949   5.565  -5.661  0.00  0.00     0.041 H 
ATOM      3  C   LIG d   1       9.481   3.590  -6.193  0.00  0.00    -0.026 A 
ATOM      4  C   LIG d   1       9.529   3.814  -7.546  0.00  0.00    -0.012 A 
ATOM      5  C   LIG d   1       8.814   2.984  -8.403  0.00  0.00     0.162 A 
ATOM      6  C   LIG d   1       8.053   1.934  -7.891  0.00  0.00     0.163 A 
ATOM      7  C   LIG d   1       8.003   1.707  -6.527  0.00  0.00    -0.007 A 
ATOM      8  C   LIG d   1       8.720   2.539  -5.670  0.00  0.00     0.010 A 
ATOM      9  C   LIG d   1       8.569   2.173  -4.247  0.00  0.00     0.101 A 
ATOM     10  N   LIG d   1       9.104   2.743  -3.193  0.00  0.00    -0.149 NA
ATOM     11  N   LIG d   1       9.885   3.744  -3.046  0.00  0.00    -0.158 NA
ATOM     12  C   LIG d   1      10.438   4.560  -3.881  0.00  0.00     0.045 A 
ATOM     13  H   LIG d   1      10.118   4.628  -7.942  0.00  0.00     0.066 H 
ATOM     14  H   LIG d   1       7.412   0.893  -6.131  0.00  0.00     0.066 H 
ENDROOT
BRANCH   9  15
ATOM     15  C   LIG d   1       7.700   1.010  -3.974  0.00  0.00     0.006 A 
ATOM     16  C   LIG d   1       6.474   1.189  -3.329  0.00  0.00    -0.007 A 
ATOM     17  C   LIG d   1       5.662   0.097  -3.081  0.00  0.00     0.162 A 
ATOM     18  H   LIG d   1       6.160   2.177  -3.027  0.00  0.00     0.066 H 
ATOM     19  C   LIG d   1       6.073  -1.178  -3.463  0.00  0.00     0.162 A 
ATOM     20  C   LIG d   1       7.294  -1.356  -4.099  0.00  0.00    -0.016 A 
ATOM     21  C   LIG d   1       8.106  -0.271  -4.355  0.00  0.00    -0.049 A 
ATOM     22  H   LIG d   1       7.609  -2.346  -4.394  0.00  0.00     0.066 H 
ATOM     23  H   LIG d   1       9.055  -0.413  -4.850  0.00  0.00     0.062 H 
BRANCH  17  24
ATOM     24  O   LIG d   1       4.465   0.269  -2.458  0.00  0.00    -0.491 OA
BRANCH  24  25
ATOM     25  C   LIG d   1       3.803   1.519  -2.658  0.00  0.00     0.079 C 
ATOM     26  H   LIG d   1       4.048   2.195  -1.838  0.00  0.00     0.066 H 
ATOM     27  H   LIG d   1       4.130   1.958  -3.600  0.00  0.00     0.066 H 
ATOM     28  H   LIG d   1       2.725   1.359  -2.686  0.00  0.00     0.066 H 
ENDBRANCH  24  25
ENDBRANCH  17  24
BRANCH  19  29
ATOM     29  O   LIG d   1       5.276  -2.249  -3.214  0.00  0.00    -0.491 OA
BRANCH  29  30
ATOM     30  C   LIG d   1       4.721  -2.922  -4.346  0.00  0.00     0.079 C 
ATOM     31  H   LIG d   1       5.278  -3.840  -4.532  0.00  0.00     0.066 H 
ATOM     32  H   LIG d   1       3.677  -3.164  -4.149  0.00  0.00     0.066 H 
ATOM     33  H   LIG d   1       4.785  -2.275  -5.221  0.00  0.00     0.066 H 
ENDBRANCH  29  30
ENDBRANCH  19  29
ENDBRANCH   9  15
BRANCH   1  34
ATOM     34  C   LIG d   1      11.731   4.487  -5.947  0.00  0.00    -0.044 C 
ATOM     35  H   LIG d   1      12.336   5.288  -5.521  0.00  0.00     0.027 H 
ATOM     36  H   LIG d   1      11.705   4.589  -7.032  0.00  0.00     0.027 H 
BRANCH  34  37
ATOM     37  C   LIG d   1      12.343   3.135  -5.577  0.00  0.00    -0.064 C 
ATOM     38  H   LIG d   1      11.615   2.344  -5.758  0.00  0.00     0.023 H 
ATOM     39  H   LIG d   1      13.230   2.958  -6.185  0.00  0.00     0.023 H 
ATOM     40  H   LIG d   1      12.621   3.138  -4.522  0.00  0.00     0.023 H 
ENDBRANCH  34  37
ENDBRANCH   1  34
BRANCH   6  41
ATOM     41  O   LIG d   1       7.356   1.128  -8.737  0.00  0.00    -0.489 OA
BRANCH  41  42
ATOM     42  C   LIG d   1       5.955   0.988  -8.493  0.00  0.00     0.087 C 
ATOM     43  H   LIG d   1       5.613   0.030  -8.882  0.00  0.00     0.069 H 
ATOM     44  H   LIG d   1       5.767   1.033  -7.421  0.00  0.00     0.069 H 
BRANCH  42  45
ATOM     45  C   LIG d   1       5.200   2.121  -9.191  0.00  0.00    -0.031 C 
ATOM     46  H   LIG d   1       5.312   2.021 -10.271  0.00  0.00     0.026 H 
ATOM     47  H   LIG d   1       4.143   2.068  -8.930  0.00  0.00     0.026 H 
ATOM     48  H   LIG d   1       5.606   3.079  -8.870  0.00  0.00     0.026 H 
ENDBRANCH  42  45
ENDBRANCH  41  42
ENDBRANCH   6  41
BRANCH  12  49
ATOM     49  C   LIG d   1      11.315   5.629  -3.282  0.00  0.00    -0.024 C 
ATOM     50  H   LIG d   1      10.955   5.876  -2.283  0.00  0.00     0.029 H 
ATOM     51  H   LIG d   1      12.341   5.265  -3.218  0.00  0.00     0.029 H 
ATOM     52  H   LIG d   1      11.283   6.519  -3.910  0.00  0.00     0.029 H 
ENDBRANCH  12  49
BRANCH   5  53
ATOM     53  O   LIG d   1       8.856   3.198  -9.743  0.00  0.00    -0.489 OA
BRANCH  53  54
ATOM     54  C   LIG d   1      10.039   3.804 -10.266  0.00  0.00     0.087 C 
ATOM     55  H   LIG d   1      10.734   4.007  -9.451  0.00  0.00     0.069 H 
ATOM     56  H   LIG d   1      10.507   3.130 -10.983  0.00  0.00     0.069 H 
BRANCH  54  57
ATOM     57  C   LIG d   1       9.675   5.117 -10.963  0.00  0.00    -0.031 C 
ATOM     58  H   LIG d   1       8.706   5.463 -10.602  0.00  0.00     0.026 H 
ATOM     59  H   LIG d   1      10.435   5.868 -10.743  0.00  0.00     0.026 H 
ATOM     60  H   LIG d   1       9.625   4.955 -12.039  0.00  0.00     0.026 H 
ENDBRANCH  54  57
ENDBRANCH  53  54
ENDBRANCH   5  53
TORSDOF 14
ENDMDL
MODEL 8
REMARK VINA RESULT:      -5.0      2.912      5.062
REMARK  14 active torsions:
REMARK  status: ('A' for Active; 'I' for Inactive)
REMARK    1  A    between atoms: C_1  and  C_2 
REMARK    2  A    between atoms: C_2  and  C_3 
REMARK    3  A    between atoms: C_7  and  O_29 
REMARK    4  A    between atoms: C_8  and  O_26 
REMARK    5  A    between atoms: C_11  and  C_16 
REMARK    6  A    between atoms: C_14  and  C_15 
REMARK    7  A    between atoms: C_19  and  O_24 
REMARK    8  A    between atoms: C_20  and  O_22 
REMARK    9  A    between atoms: O_22  and  C_23 
REMARK   10  A    between atoms: O_24  and  C_25 
REMARK   11  A    between atoms: O_26  and  C_27 
REMARK   12  A    between atoms: C_27  and  C_28 
REMARK   13  A    between atoms: O_29  and  C_30 
REMARK   14  A    between atoms: C_30  and  C_31 
ROOT
ATOM      1  C   LIG d   1       5.023  -4.174  -5.464  0.00  0.00     0.025 A 
ATOM      2  H   LIG d   1       4.395  -4.358  -4.592  0.00  0.00     0.041 H 
ATOM      3  C   LIG d   1       4.594  -2.835  -6.021  0.00  0.00    -0.026 A 
ATOM      4  C   LIG d   1       4.662  -1.816  -5.104  0.00  0.00    -0.012 A 
ATOM      5  C   LIG d   1       4.295  -0.529  -5.482  0.00  0.00     0.162 A 
ATOM      6  C   LIG d   1       3.861  -0.275  -6.782  0.00  0.00     0.163 A 
ATOM      7  C   LIG d   1       3.792  -1.301  -7.708  0.00  0.00    -0.007 A 
ATOM      8  C   LIG d   1       4.159  -2.590  -7.328  0.00  0.00     0.010 A 
ATOM      9  C   LIG d   1       4.032  -3.575  -8.422  0.00  0.00     0.101 A 
ATOM     10  N   LIG d   1       4.294  -4.860  -8.401  0.00  0.00    -0.149 NA
ATOM     11  N   LIG d   1       4.719  -5.649  -7.489  0.00  0.00    -0.158 NA
ATOM     12  C   LIG d   1       5.049  -5.469  -6.253  0.00  0.00     0.045 A 
ATOM     13  H   LIG d   1       4.997  -2.013  -4.096  0.00  0.00     0.066 H 
ATOM     14  H   LIG d   1       3.454  -1.104  -8.716  0.00  0.00     0.066 H 
ENDROOT
BRANCH   9  15
ATOM     15  C   LIG d   1       3.547  -3.040  -9.710  0.00  0.00     0.006 A 
ATOM     16  C   LIG d   1       4.449  -2.774 -10.743  0.00  0.00    -0.007 A 
ATOM     17  C   LIG d   1       3.989  -2.280 -11.949  0.00  0.00     0.162 A 
ATOM     18  H   LIG d   1       5.504  -2.959 -10.601  0.00  0.00     0.066 H 
ATOM     19  C   LIG d   1       2.629  -2.035 -12.127  0.00  0.00     0.162 A 
ATOM     20  C   LIG d   1       1.732  -2.294 -11.099  0.00  0.00    -0.016 A 
ATOM     21  C   LIG d   1       2.184  -2.793  -9.896  0.00  0.00    -0.049 A 
ATOM     22  H   LIG d   1       0.679  -2.103 -11.242  0.00  0.00     0.066 H 
ATOM     23  H   LIG d   1       1.485  -2.994  -9.099  0.00  0.00     0.062 H 
BRANCH  17  24
ATOM     24  O   LIG d   1       4.864  -2.025 -12.958  0.00  0.00    -0.491 OA
BRANCH  24  25
ATOM     25  C   LIG d   1       5.690  -0.868 -12.824  0.00  0.00     0.079 C 
ATOM     26  H   LIG d   1       6.451  -1.050 -12.063  0.00  0.00     0.066 H 
ATOM     27  H   LIG d   1       6.174  -0.653 -13.776  0.00  0.00     0.066 H 
ATOM     28  H   LIG d   1       5.078  -0.016 -12.527  0.00  0.00     0.066 H 
ENDBRANCH  24  25
ENDBRANCH  17  24
BRANCH  19  29
ATOM     29  O   LIG d   1       2.179  -1.543 -13.311  0.00  0.00    -0.491 OA
BRANCH  29  30
ATOM     30  C   LIG d   1       1.529  -2.464 -14.191  0.00  0.00     0.079 C 
ATOM     31  H   LIG d   1       0.862  -1.919 -14.858  0.00  0.00     0.066 H 
ATOM     32  H   LIG d   1       2.278  -2.995 -14.778  0.00  0.00     0.066 H 
ATOM     33  H   LIG d   1       0.952  -3.180 -13.605  0.00  0.00     0.066 H 
ENDBRANCH  29  30
ENDBRANCH  19  29
ENDBRANCH   9  15
BRANCH   1  34
ATOM     34  C   LIG d   1       6.438  -3.977  -4.915  0.00  0.00    -0.044 C 
ATOM     35  H   LIG d   1       6.736  -4.862  -4.351  0.00  0.00     0.027 H 
ATOM     36  H   LIG d   1       6.456  -3.105  -4.260  0.00  0.00     0.027 H 
BRANCH  34  37
ATOM     37  C   LIG d   1       7.410  -3.762  -6.076  0.00  0.00    -0.064 C 
ATOM     38  H   LIG d   1       7.169  -4.452  -6.885  0.00  0.00     0.023 H 
ATOM     39  H   LIG d   1       7.326  -2.737  -6.436  0.00  0.00     0.023 H 
ATOM     40  H   LIG d   1       8.430  -3.945  -5.735  0.00  0.00     0.023 H 
ENDBRANCH  34  37
ENDBRANCH   1  34
BRANCH   6  41
ATOM     41  O   LIG d   1       3.504   0.987  -7.142  0.00  0.00    -0.489 OA
BRANCH  41  42
ATOM     42  C   LIG d   1       2.999   1.165  -8.467  0.00  0.00     0.087 C 
ATOM     43  H   LIG d   1       3.214   0.277  -9.060  0.00  0.00     0.069 H 
ATOM     44  H   LIG d   1       1.921   1.323  -8.427  0.00  0.00     0.069 H 
BRANCH  42  45
ATOM     45  C   LIG d   1       3.668   2.382  -9.109  0.00  0.00    -0.031 C 
ATOM     46  H   LIG d   1       2.939   2.920  -9.715  0.00  0.00     0.026 H 
ATOM     47  H   LIG d   1       4.047   3.042  -8.328  0.00  0.00     0.026 H 
ATOM     48  H   LIG d   1       4.493   2.053  -9.739  0.00  0.00     0.026 H 
ENDBRANCH  42  45
ENDBRANCH  41  42
ENDBRANCH   6  41
BRANCH  12  49
ATOM     49  C   LIG d   1       5.513  -6.693  -5.506  0.00  0.00    -0.024 C 
ATOM     50  H   LIG d   1       6.496  -6.504  -5.074  0.00  0.00     0.029 H 
ATOM     51  H   LIG d   1       4.804  -6.924  -4.710  0.00  0.00     0.029 H 
ATOM     52  H   LIG d   1       5.574  -7.536  -6.194  0.00  0.00     0.029 H 
ENDBRANCH  12  49
BRANCH   5  53
ATOM     53  O   LIG d   1       4.359   0.485  -4.581  0.00  0.00    -0.489 OA
BRANCH  53  54
ATOM     54  C   LIG d   1       3.361   0.508  -3.558  0.00  0.00     0.087 C 
ATOM     55  H   LIG d   1       2.554   1.180  -3.854  0.00  0.00     0.069 H 
ATOM     56  H   LIG d   1       2.963  -0.496  -3.415  0.00  0.00     0.069 H 
BRANCH  54  57
ATOM     57  C   LIG d   1       3.982   1.003  -2.250  0.00  0.00    -0.031 C 
ATOM     58  H   LIG d   1       3.190   1.297  -1.561  0.00  0.00     0.026 H 
ATOM     59  H   LIG d   1       4.574   0.203  -1.804  0.00  0.00     0.026 H 
ATOM     60  H   LIG d   1       4.624   1.859  -2.453  0.00  0.00     0.026 H 
ENDBRANCH  54  57
ENDBRANCH  53  54
ENDBRANCH   5  53
TORSDOF 14
ENDMDL
MODEL 9
REMARK VINA RESULT:      -5.0      2.180      6.930
REMARK  14 active torsions:
REMARK  status: ('A' for Active; 'I' for Inactive)
REMARK    1  A    between atoms: C_1  and  C_2 
REMARK    2  A    between atoms: C_2  and  C_3 
REMARK    3  A    between atoms: C_7  and  O_29 
REMARK    4  A    between atoms: C_8  and  O_26 
REMARK    5  A    between atoms: C_11  and  C_16 
REMARK    6  A    between atoms: C_14  and  C_15 
REMARK    7  A    between atoms: C_19  and  O_24 
REMARK    8  A    between atoms: C_20  and  O_22 
REMARK    9  A    between atoms: O_22  and  C_23 
REMARK   10  A    between atoms: O_24  and  C_25 
REMARK   11  A    between atoms: O_26  and  C_27 
REMARK   12  A    between atoms: C_27  and  C_28 
REMARK   13  A    between atoms: O_29  and  C_30 
REMARK   14  A    between atoms: C_30  and  C_31 
ROOT
ATOM      1  C   LIG d   1       3.081   0.018  -9.810  0.00  0.00     0.025 A 
ATOM      2  H   LIG d   1       2.002   0.168  -9.794  0.00  0.00     0.041 H 
ATOM      3  C   LIG d   1       3.329  -1.348  -9.210  0.00  0.00    -0.026 A 
ATOM      4  C   LIG d   1       2.652  -2.356  -9.850  0.00  0.00    -0.012 A 
ATOM      5  C   LIG d   1       2.789  -3.665  -9.401  0.00  0.00     0.162 A 
ATOM      6  C   LIG d   1       3.606  -3.952  -8.308  0.00  0.00     0.163 A 
ATOM      7  C   LIG d   1       4.289  -2.937  -7.661  0.00  0.00    -0.007 A 
ATOM      8  C   LIG d   1       4.151  -1.626  -8.112  0.00  0.00     0.010 A 
ATOM      9  C   LIG d   1       4.938  -0.657  -7.322  0.00  0.00     0.101 A 
ATOM     10  N   LIG d   1       5.032   0.643  -7.479  0.00  0.00    -0.149 NA
ATOM     11  N   LIG d   1       4.509   1.460  -8.311  0.00  0.00    -0.158 NA
ATOM     12  C   LIG d   1       3.699   1.307  -9.305  0.00  0.00     0.045 A 
ATOM     13  H   LIG d   1       2.019  -2.133 -10.696  0.00  0.00     0.066 H 
ATOM     14  H   LIG d   1       4.921  -3.160  -6.814  0.00  0.00     0.066 H 
ENDROOT
BRANCH   9  15
ATOM     15  C   LIG d   1       5.724  -1.227  -6.210  0.00  0.00     0.006 A 
ATOM     16  C   LIG d   1       5.164  -1.322  -4.934  0.00  0.00    -0.007 A 
ATOM     17  C   LIG d   1       5.902  -1.861  -3.897  0.00  0.00     0.162 A 
ATOM     18  H   LIG d   1       4.155  -0.978  -4.758  0.00  0.00     0.066 H 
ATOM     19  C   LIG d   1       7.206  -2.296  -4.122  0.00  0.00     0.162 A 
ATOM     20  C   LIG d   1       7.765  -2.197  -5.389  0.00  0.00    -0.016 A 
ATOM     21  C   LIG d   1       7.033  -1.665  -6.429  0.00  0.00    -0.049 A 
ATOM     22  H   LIG d   1       8.776  -2.536  -5.560  0.00  0.00     0.066 H 
ATOM     23  H   LIG d   1       7.470  -1.589  -7.413  0.00  0.00     0.062 H 
BRANCH  17  24
ATOM     24  O   LIG d   1       5.357  -1.961  -2.654  0.00  0.00    -0.491 OA
BRANCH  24  25
ATOM     25  C   LIG d   1       3.950  -1.736  -2.543  0.00  0.00     0.079 C 
ATOM     26  H   LIG d   1       3.451  -2.104  -3.441  0.00  0.00     0.066 H 
ATOM     27  H   LIG d   1       3.564  -2.265  -1.672  0.00  0.00     0.066 H 
ATOM     28  H   LIG d   1       3.759  -0.669  -2.435  0.00  0.00     0.066 H 
ENDBRANCH  24  25
ENDBRANCH  17  24
BRANCH  19  29
ATOM     29  O   LIG d   1       7.931  -2.821  -3.101  0.00  0.00    -0.491 OA
BRANCH  29  30
ATOM     30  C   LIG d   1       8.888  -3.830  -3.435  0.00  0.00     0.079 C 
ATOM     31  H   LIG d   1       8.490  -4.457  -4.233  0.00  0.00     0.066 H 
ATOM     32  H   LIG d   1       9.811  -3.357  -3.770  0.00  0.00     0.066 H 
ATOM     33  H   LIG d   1       9.091  -4.443  -2.557  0.00  0.00     0.066 H 
ENDBRANCH  29  30
ENDBRANCH  19  29
ENDBRANCH   9  15
BRANCH   1  34
ATOM     34  C   LIG d   1       3.458  -0.089 -11.289  0.00  0.00    -0.044 C 
ATOM     35  H   LIG d   1       3.121   0.805 -11.815  0.00  0.00     0.027 H 
ATOM     36  H   LIG d   1       2.981  -0.968 -11.723  0.00  0.00     0.027 H 
BRANCH  34  37
ATOM     37  C   LIG d   1       4.977  -0.215 -11.421  0.00  0.00    -0.064 C 
ATOM     38  H   LIG d   1       5.460   0.372 -10.639  0.00  0.00     0.023 H 
ATOM     39  H   LIG d   1       5.265  -1.261 -11.320  0.00  0.00     0.023 H 
ATOM     40  H   LIG d   1       5.289   0.156 -12.398  0.00  0.00     0.023 H 
ENDBRANCH  34  37
ENDBRANCH   1  34
BRANCH   6  41
ATOM     41  O   LIG d   1       3.733  -5.236  -7.877  0.00  0.00    -0.489 OA
BRANCH  41  42
ATOM     42  C   LIG d   1       4.284  -5.430  -6.573  0.00  0.00     0.087 C 
ATOM     43  H   LIG d   1       5.169  -4.806  -6.456  0.00  0.00     0.069 H 
ATOM     44  H   LIG d   1       3.544  -5.156  -5.821  0.00  0.00     0.069 H 
BRANCH  42  45
ATOM     45  C   LIG d   1       4.669  -6.900  -6.396  0.00  0.00    -0.031 C 
ATOM     46  H   LIG d   1       3.914  -7.532  -6.864  0.00  0.00     0.026 H 
ATOM     47  H   LIG d   1       5.636  -7.081  -6.866  0.00  0.00     0.026 H 
ATOM     48  H   LIG d   1       4.731  -7.134  -5.334  0.00  0.00     0.026 H 
ENDBRANCH  42  45
ENDBRANCH  41  42
ENDBRANCH   6  41
BRANCH  12  49
ATOM     49  C   LIG d   1       3.320   2.562 -10.049  0.00  0.00    -0.024 C 
ATOM     50  H   LIG d   1       2.261   2.770  -9.896  0.00  0.00     0.029 H 
ATOM     51  H   LIG d   1       3.911   3.399  -9.677  0.00  0.00     0.029 H 
ATOM     52  H   LIG d   1       3.513   2.425 -11.113  0.00  0.00     0.029 H 
ENDBRANCH  12  49
BRANCH   5  53
ATOM     53  O   LIG d   1       2.123  -4.669 -10.029  0.00  0.00    -0.489 OA
BRANCH  53  54
ATOM     54  C   LIG d   1       1.111  -4.290 -10.964  0.00  0.00     0.087 C 
ATOM     55  H   LIG d   1       1.008  -3.204 -10.968  0.00  0.00     0.069 H 
ATOM     56  H   LIG d   1       1.389  -4.631 -11.960  0.00  0.00     0.069 H 
BRANCH  54  57
ATOM     57  C   LIG d   1      -0.221  -4.926 -10.559  0.00  0.00    -0.031 C 
ATOM     58  H   LIG d   1      -0.087  -6.000 -10.435  0.00  0.00     0.026 H 
ATOM     59  H   LIG d   1      -0.560  -4.490  -9.619  0.00  0.00     0.026 H 
ATOM     60  H   LIG d   1      -0.963  -4.738 -11.334  0.00  0.00     0.026 H 
ENDBRANCH  54  57
ENDBRANCH  53  54
ENDBRANCH   5  53
TORSDOF 14
ENDMDL
