MODEL 1
REMARK VINA RESULT:      -7.6      0.000      0.000
REMARK  5 active torsions:
REMARK  status: ('A' for Active; 'I' for Inactive)
REMARK    1  A    between atoms: C_1  and  S_2 
REMARK    2  A    between atoms: S_2  and  N_5 
REMARK    3  A    between atoms: C_16  and  N_21 
REMARK    4  A    between atoms: N_21  and  S_22 
REMARK    5  A    between atoms: S_22  and  C_25 
ROOT
ATOM      1  N   LIG d   1       3.466  -0.124 -10.502  0.00  0.00    -0.180 N 
ATOM      2  C   LIG d   1       2.223   0.303  -9.850  0.00  0.00     0.025 C 
ATOM      3  C   LIG d   1       2.527   1.265  -8.709  0.00  0.00    -0.008 C 
ATOM      4  H   LIG d   1       1.588   1.717  -8.390  0.00  0.00     0.033 H 
ATOM      5  C   LIG d   1       3.461   2.385  -9.166  0.00  0.00    -0.038 C 
ATOM      6  C   LIG d   1       4.753   1.752  -9.691  0.00  0.00     0.014 C 
ATOM      7  H   LIG d   1       5.474   2.529  -9.946  0.00  0.00     0.038 H 
ATOM      8  C   LIG d   1       4.409   0.918 -10.936  0.00  0.00     0.028 C 
ATOM      9  C   LIG d   1       5.319   0.814  -8.651  0.00  0.00     0.026 A 
ATOM     10  C   LIG d   1       6.658   0.580  -8.688  0.00  0.00    -0.040 A 
ATOM     11  C   LIG d   1       7.250  -0.325  -7.801  0.00  0.00    -0.032 A 
ATOM     12  C   LIG d   1       6.455  -0.989  -6.908  0.00  0.00     0.112 A 
ATOM     13  C   LIG d   1       5.073  -0.722  -6.894  0.00  0.00     0.274 A 
ATOM     14  O   LIG d   1       4.345  -1.343  -6.135  0.00  0.00    -0.266 OA
ATOM     15  N   LIG d   1       4.542   0.217  -7.715  0.00  0.00    -0.310 N 
ATOM     16  C   LIG d   1       3.130   0.545  -7.518  0.00  0.00     0.030 C 
ATOM     17  H   LIG d   1       1.703  -0.571  -9.456  0.00  0.00     0.045 H 
ATOM     18  H   LIG d   1       1.584   0.801 -10.580  0.00  0.00     0.045 H 
ATOM     19  H   LIG d   1       3.687   3.040  -8.325  0.00  0.00     0.028 H 
ATOM     20  H   LIG d   1       2.984   2.960  -9.961  0.00  0.00     0.028 H 
ATOM     21  H   LIG d   1       3.964   1.556 -11.700  0.00  0.00     0.045 H 
ATOM     22  H   LIG d   1       5.310   0.445 -11.326  0.00  0.00     0.045 H 
ATOM     23  H   LIG d   1       7.271   1.100  -9.410  0.00  0.00     0.064 H 
ATOM     24  H   LIG d   1       8.317  -0.497  -7.822  0.00  0.00     0.064 H 
ATOM     25  H   LIG d   1       3.035   1.180  -6.636  0.00  0.00     0.050 H 
ATOM     26  H   LIG d   1       2.575  -0.378  -7.346  0.00  0.00     0.050 H 
ENDROOT
BRANCH  12  27
ATOM     27  N   LIG d   1       7.008  -1.921  -6.020  0.00  0.00    -0.211 N 
ATOM     28  H   LIG d   1       6.999  -2.865  -6.239  0.00  0.00     0.174 HD
BRANCH  27  29
ATOM     29  S   LIG d   1       7.679  -1.408  -4.595  0.00  0.00     0.073 S 
ATOM     30  O   LIG d   1       8.291  -2.544  -4.001  0.00  0.00    -0.150 OA
ATOM     31  O   LIG d   1       8.402  -0.221  -4.891  0.00  0.00    -0.150 OA
BRANCH  29  32
ATOM     32  C   LIG d   1       6.352  -0.938  -3.534  0.00  0.00     0.111 A 
ATOM     33  C   LIG d   1       5.467  -1.892  -3.071  0.00  0.00     0.000 A 
ATOM     34  C   LIG d   1       4.428  -1.524  -2.232  0.00  0.00     0.125 A 
ATOM     35  H   LIG d   1       5.588  -2.926  -3.359  0.00  0.00     0.067 H 
ATOM     36  C   LIG d   1       4.272  -0.197  -1.869  0.00  0.00    -0.026 A 
ATOM     37  F   LIG d   1       3.565  -2.456  -1.774  0.00  0.00    -0.205 F 
ATOM     38  C   LIG d   1       5.156   0.757  -2.338  0.00  0.00    -0.057 A 
ATOM     39  H   LIG d   1       3.459   0.093  -1.219  0.00  0.00     0.065 H 
ATOM     40  C   LIG d   1       6.195   0.387  -3.170  0.00  0.00    -0.035 A 
ATOM     41  H   LIG d   1       5.033   1.792  -2.055  0.00  0.00     0.062 H 
ATOM     42  H   LIG d   1       6.885   1.133  -3.536  0.00  0.00     0.064 H 
ENDBRANCH  29  32
ENDBRANCH  27  29
ENDBRANCH  12  27
BRANCH   1  43
ATOM     43  S   LIG d   1       3.777  -1.729 -10.764  0.00  0.00     0.029 S 
ATOM     44  O   LIG d   1       3.131  -2.026 -11.994  0.00  0.00    -0.158 OA
ATOM     45  O   LIG d   1       5.187  -1.849 -10.640  0.00  0.00    -0.158 OA
BRANCH  43  46
ATOM     46  C   LIG d   1       2.953  -2.593  -9.399  0.00  0.00     0.071 C 
ATOM     47  H   LIG d   1       1.965  -2.923  -9.722  0.00  0.00     0.048 H 
ATOM     48  H   LIG d   1       3.547  -3.456  -9.104  0.00  0.00     0.048 H 
ATOM     49  H   LIG d   1       2.850  -1.916  -8.550  0.00  0.00     0.048 H 
ENDBRANCH  43  46
ENDBRANCH   1  43
TORSDOF 5
ENDMDL
MODEL 2
REMARK VINA RESULT:      -7.6      3.306      7.272
REMARK  5 active torsions:
REMARK  status: ('A' for Active; 'I' for Inactive)
REMARK    1  A    between atoms: C_1  and  S_2 
REMARK    2  A    between atoms: S_2  and  N_5 
REMARK    3  A    between atoms: C_16  and  N_21 
REMARK    4  A    between atoms: N_21  and  S_22 
REMARK    5  A    between atoms: S_22  and  C_25 
ROOT
ATOM      1  N   LIG d   1       6.180  -0.514  -3.350  0.00  0.00    -0.180 N 
ATOM      2  C   LIG d   1       5.297  -0.049  -2.273  0.00  0.00     0.025 C 
ATOM      3  C   LIG d   1       3.911  -0.659  -2.426  0.00  0.00    -0.008 C 
ATOM      4  H   LIG d   1       3.354  -0.464  -1.510  0.00  0.00     0.033 H 
ATOM      5  C   LIG d   1       3.993  -2.174  -2.617  0.00  0.00    -0.038 C 
ATOM      6  C   LIG d   1       4.842  -2.459  -3.859  0.00  0.00     0.014 C 
ATOM      7  H   LIG d   1       4.849  -3.528  -4.071  0.00  0.00     0.038 H 
ATOM      8  C   LIG d   1       6.272  -1.962  -3.588  0.00  0.00     0.028 C 
ATOM      9  C   LIG d   1       4.300  -1.681  -5.036  0.00  0.00     0.026 A 
ATOM     10  C   LIG d   1       4.554  -2.175  -6.276  0.00  0.00    -0.040 A 
ATOM     11  C   LIG d   1       4.142  -1.481  -7.420  0.00  0.00    -0.032 A 
ATOM     12  C   LIG d   1       3.499  -0.284  -7.268  0.00  0.00     0.112 A 
ATOM     13  C   LIG d   1       3.250   0.198  -5.969  0.00  0.00     0.274 A 
ATOM     14  O   LIG d   1       2.720   1.289  -5.821  0.00  0.00    -0.266 OA
ATOM     15  N   LIG d   1       3.593  -0.534  -4.882  0.00  0.00    -0.310 N 
ATOM     16  C   LIG d   1       3.150  -0.034  -3.580  0.00  0.00     0.030 C 
ATOM     17  H   LIG d   1       5.220   1.038  -2.314  0.00  0.00     0.045 H 
ATOM     18  H   LIG d   1       5.717  -0.343  -1.311  0.00  0.00     0.045 H 
ATOM     19  H   LIG d   1       2.991  -2.580  -2.755  0.00  0.00     0.028 H 
ATOM     20  H   LIG d   1       4.457  -2.630  -1.742  0.00  0.00     0.028 H 
ATOM     21  H   LIG d   1       6.686  -2.477  -2.721  0.00  0.00     0.045 H 
ATOM     22  H   LIG d   1       6.899  -2.142  -4.462  0.00  0.00     0.045 H 
ATOM     23  H   LIG d   1       5.077  -3.114  -6.381  0.00  0.00     0.064 H 
ATOM     24  H   LIG d   1       4.330  -1.884  -8.404  0.00  0.00     0.064 H 
ATOM     25  H   LIG d   1       2.088  -0.252  -3.462  0.00  0.00     0.050 H 
ATOM     26  H   LIG d   1       3.292   1.046  -3.552  0.00  0.00     0.050 H 
ENDROOT
BRANCH  12  27
ATOM     27  N   LIG d   1       3.093   0.452  -8.390  0.00  0.00    -0.211 N 
ATOM     28  H   LIG d   1       2.176   0.398  -8.698  0.00  0.00     0.174 HD
BRANCH  27  29
ATOM     29  S   LIG d   1       4.181   1.414  -9.186  0.00  0.00     0.073 S 
ATOM     30  O   LIG d   1       3.441   2.493  -9.738  0.00  0.00    -0.150 OA
ATOM     31  O   LIG d   1       5.271   1.614  -8.297  0.00  0.00    -0.150 OA
BRANCH  29  32
ATOM     32  C   LIG d   1       4.804   0.482 -10.546  0.00  0.00     0.111 A 
ATOM     33  C   LIG d   1       4.031   0.310 -11.678  0.00  0.00     0.000 A 
ATOM     34  C   LIG d   1       4.522  -0.417 -12.749  0.00  0.00     0.125 A 
ATOM     35  H   LIG d   1       3.044   0.748 -11.729  0.00  0.00     0.067 H 
ATOM     36  C   LIG d   1       5.784  -0.981 -12.678  0.00  0.00    -0.026 A 
ATOM     37  F   LIG d   1       3.770  -0.580 -13.858  0.00  0.00    -0.205 F 
ATOM     38  C   LIG d   1       6.554  -0.813 -11.542  0.00  0.00    -0.057 A 
ATOM     39  H   LIG d   1       6.168  -1.553 -13.510  0.00  0.00     0.065 H 
ATOM     40  C   LIG d   1       6.064  -0.083 -10.476  0.00  0.00    -0.035 A 
ATOM     41  H   LIG d   1       7.539  -1.254 -11.487  0.00  0.00     0.062 H 
ATOM     42  H   LIG d   1       6.666   0.049  -9.589  0.00  0.00     0.064 H 
ENDBRANCH  29  32
ENDBRANCH  27  29
ENDBRANCH  12  27
BRANCH   1  43
ATOM     43  S   LIG d   1       7.066   0.563  -4.243  0.00  0.00     0.029 S 
ATOM     44  O   LIG d   1       6.328   0.728  -5.446  0.00  0.00    -0.158 OA
ATOM     45  O   LIG d   1       7.284   1.663  -3.371  0.00  0.00    -0.158 OA
BRANCH  43  46
ATOM     46  C   LIG d   1       8.632  -0.288  -4.581  0.00  0.00     0.071 C 
ATOM     47  H   LIG d   1       9.444   0.439  -4.593  0.00  0.00     0.048 H 
ATOM     48  H   LIG d   1       8.818  -1.028  -3.804  0.00  0.00     0.048 H 
ATOM     49  H   LIG d   1       8.574  -0.784  -5.550  0.00  0.00     0.048 H 
ENDBRANCH  43  46
ENDBRANCH   1  43
TORSDOF 5
ENDMDL
MODEL 3
REMARK VINA RESULT:      -7.2      1.847      2.436
REMARK  5 active torsions:
REMARK  status: ('A' for Active; 'I' for Inactive)
REMARK    1  A    between atoms: C_1  and  S_2 
REMARK    2  A    between atoms: S_2  and  N_5 
REMARK    3  A    between atoms: C_16  and  N_21 
REMARK    4  A    between atoms: N_21  and  S_22 
REMARK    5  A    between atoms: S_22  and  C_25 
ROOT
ATOM      1  N   LIG d   1       3.360  -2.862 -10.043  0.00  0.00    -0.180 N 
ATOM      2  C   LIG d   1       1.966  -2.445  -9.851  0.00  0.00     0.025 C 
ATOM      3  C   LIG d   1       1.847  -0.931  -9.954  0.00  0.00    -0.008 C 
ATOM      4  H   LIG d   1       0.789  -0.679 -10.016  0.00  0.00     0.033 H 
ATOM      5  C   LIG d   1       2.532  -0.409 -11.217  0.00  0.00    -0.038 C 
ATOM      6  C   LIG d   1       4.004  -0.828 -11.175  0.00  0.00     0.014 C 
ATOM      7  H   LIG d   1       4.541  -0.398 -12.021  0.00  0.00     0.038 H 
ATOM      8  C   LIG d   1       4.069  -2.364 -11.231  0.00  0.00     0.028 C 
ATOM      9  C   LIG d   1       4.622  -0.389  -9.868  0.00  0.00     0.026 A 
ATOM     10  C   LIG d   1       5.967  -0.190  -9.853  0.00  0.00    -0.040 A 
ATOM     11  C   LIG d   1       6.625   0.155  -8.667  0.00  0.00    -0.032 A 
ATOM     12  C   LIG d   1       5.894   0.267  -7.517  0.00  0.00     0.112 A 
ATOM     13  C   LIG d   1       4.503   0.057  -7.568  0.00  0.00     0.274 A 
ATOM     14  O   LIG d   1       3.846   0.107  -6.539  0.00  0.00    -0.266 OA
ATOM     15  N   LIG d   1       3.885  -0.200  -8.746  0.00  0.00    -0.310 N 
ATOM     16  C   LIG d   1       2.423  -0.241  -8.732  0.00  0.00     0.030 C 
ATOM     17  H   LIG d   1       1.625  -2.768  -8.866  0.00  0.00     0.045 H 
ATOM     18  H   LIG d   1       1.341  -2.909 -10.615  0.00  0.00     0.045 H 
ATOM     19  H   LIG d   1       2.460   0.678 -11.250  0.00  0.00     0.028 H 
ATOM     20  H   LIG d   1       2.053  -0.836 -12.098  0.00  0.00     0.028 H 
ATOM     21  H   LIG d   1       3.600  -2.722 -12.148  0.00  0.00     0.045 H 
ATOM     22  H   LIG d   1       5.108  -2.692 -11.192  0.00  0.00     0.045 H 
ATOM     23  H   LIG d   1       6.534  -0.299 -10.766  0.00  0.00     0.064 H 
ATOM     24  H   LIG d   1       7.691   0.328  -8.660  0.00  0.00     0.064 H 
ATOM     25  H   LIG d   1       2.042   0.780  -8.691  0.00  0.00     0.050 H 
ATOM     26  H   LIG d   1       2.094  -0.773  -7.839  0.00  0.00     0.050 H 
ENDROOT
BRANCH  12  27
ATOM     27  N   LIG d   1       6.520   0.588  -6.305  0.00  0.00    -0.211 N 
ATOM     28  H   LIG d   1       6.618   1.515  -6.041  0.00  0.00     0.174 HD
BRANCH  27  29
ATOM     29  S   LIG d   1       7.091  -0.619  -5.325  0.00  0.00     0.073 S 
ATOM     30  O   LIG d   1       7.018  -1.822  -6.076  0.00  0.00    -0.150 OA
ATOM     31  O   LIG d   1       8.307  -0.144  -4.763  0.00  0.00    -0.150 OA
BRANCH  29  32
ATOM     32  C   LIG d   1       5.953  -0.789  -3.990  0.00  0.00     0.111 A 
ATOM     33  C   LIG d   1       5.761   0.258  -3.108  0.00  0.00     0.000 A 
ATOM     34  C   LIG d   1       4.862   0.127  -2.063  0.00  0.00     0.125 A 
ATOM     35  H   LIG d   1       6.308   1.181  -3.238  0.00  0.00     0.067 H 
ATOM     36  C   LIG d   1       4.167  -1.058  -1.895  0.00  0.00    -0.026 A 
ATOM     37  F   LIG d   1       4.669   1.151  -1.204  0.00  0.00    -0.205 F 
ATOM     38  C   LIG d   1       4.365  -2.106  -2.775  0.00  0.00    -0.057 A 
ATOM     39  H   LIG d   1       3.469  -1.164  -1.077  0.00  0.00     0.065 H 
ATOM     40  C   LIG d   1       5.258  -1.971  -3.821  0.00  0.00    -0.035 A 
ATOM     41  H   LIG d   1       3.822  -3.030  -2.644  0.00  0.00     0.062 H 
ATOM     42  H   LIG d   1       5.412  -2.791  -4.508  0.00  0.00     0.064 H 
ENDBRANCH  29  32
ENDBRANCH  27  29
ENDBRANCH  12  27
BRANCH   1  43
ATOM     43  S   LIG d   1       4.094  -3.885  -8.969  0.00  0.00     0.029 S 
ATOM     44  O   LIG d   1       5.440  -3.972  -9.414  0.00  0.00    -0.158 OA
ATOM     45  O   LIG d   1       3.788  -3.347  -7.689  0.00  0.00    -0.158 OA
BRANCH  43  46
ATOM     46  C   LIG d   1       3.256  -5.478  -9.194  0.00  0.00     0.071 C 
ATOM     47  H   LIG d   1       3.627  -6.191  -8.457  0.00  0.00     0.048 H 
ATOM     48  H   LIG d   1       2.183  -5.345  -9.063  0.00  0.00     0.048 H 
ATOM     49  H   LIG d   1       3.457  -5.855 -10.197  0.00  0.00     0.048 H 
ENDBRANCH  43  46
ENDBRANCH   1  43
TORSDOF 5
ENDMDL
MODEL 4
REMARK VINA RESULT:      -7.1      2.127      3.149
REMARK  5 active torsions:
REMARK  status: ('A' for Active; 'I' for Inactive)
REMARK    1  A    between atoms: C_1  and  S_2 
REMARK    2  A    between atoms: S_2  and  N_5 
REMARK    3  A    between atoms: C_16  and  N_21 
REMARK    4  A    between atoms: N_21  and  S_22 
REMARK    5  A    between atoms: S_22  and  C_25 
ROOT
ATOM      1  N   LIG d   1       4.605   1.374  -9.758  0.00  0.00    -0.180 N 
ATOM      2  C   LIG d   1       4.565   0.733 -11.078  0.00  0.00     0.025 C 
ATOM      3  C   LIG d   1       3.613  -0.455 -11.060  0.00  0.00    -0.008 C 
ATOM      4  H   LIG d   1       3.450  -0.772 -12.090  0.00  0.00     0.033 H 
ATOM      5  C   LIG d   1       2.259  -0.068 -10.464  0.00  0.00    -0.038 C 
ATOM      6  C   LIG d   1       2.490   0.454  -9.043  0.00  0.00     0.014 C 
ATOM      7  H   LIG d   1       1.535   0.658  -8.559  0.00  0.00     0.038 H 
ATOM      8  C   LIG d   1       3.326   1.741  -9.132  0.00  0.00     0.028 C 
ATOM      9  C   LIG d   1       3.287  -0.558  -8.252  0.00  0.00     0.026 A 
ATOM     10  C   LIG d   1       3.144  -0.541  -6.900  0.00  0.00    -0.040 A 
ATOM     11  C   LIG d   1       3.894  -1.401  -6.091  0.00  0.00    -0.032 A 
ATOM     12  C   LIG d   1       4.792  -2.246  -6.683  0.00  0.00     0.112 A 
ATOM     13  C   LIG d   1       4.913  -2.240  -8.086  0.00  0.00     0.274 A 
ATOM     14  O   LIG d   1       5.745  -2.955  -8.624  0.00  0.00    -0.266 OA
ATOM     15  N   LIG d   1       4.117  -1.449  -8.846  0.00  0.00    -0.310 N 
ATOM     16  C   LIG d   1       4.197  -1.628 -10.295  0.00  0.00     0.030 C 
ATOM     17  H   LIG d   1       5.566   0.389 -11.343  0.00  0.00     0.045 H 
ATOM     18  H   LIG d   1       4.226   1.456 -11.821  0.00  0.00     0.045 H 
ATOM     19  H   LIG d   1       1.609  -0.942 -10.434  0.00  0.00     0.028 H 
ATOM     20  H   LIG d   1       1.800   0.712 -11.071  0.00  0.00     0.028 H 
ATOM     21  H   LIG d   1       2.798   2.487  -9.728  0.00  0.00     0.045 H 
ATOM     22  H   LIG d   1       3.515   2.131  -8.132  0.00  0.00     0.045 H 
ATOM     23  H   LIG d   1       2.443   0.144  -6.445  0.00  0.00     0.064 H 
ATOM     24  H   LIG d   1       3.767  -1.397  -5.019  0.00  0.00     0.064 H 
ATOM     25  H   LIG d   1       3.654  -2.533 -10.570  0.00  0.00     0.050 H 
ATOM     26  H   LIG d   1       5.243  -1.747 -10.578  0.00  0.00     0.050 H 
ENDROOT
BRANCH  12  27
ATOM     27  N   LIG d   1       5.578  -3.106  -5.905  0.00  0.00    -0.211 N 
ATOM     28  H   LIG d   1       5.455  -4.066  -5.969  0.00  0.00     0.174 HD
BRANCH  27  29
ATOM     29  S   LIG d   1       6.719  -2.482  -4.879  0.00  0.00     0.073 S 
ATOM     30  O   LIG d   1       7.283  -3.583  -4.181  0.00  0.00    -0.150 OA
ATOM     31  O   LIG d   1       7.507  -1.583  -5.648  0.00  0.00    -0.150 OA
BRANCH  29  32
ATOM     32  C   LIG d   1       5.867  -1.509  -3.682  0.00  0.00     0.111 A 
ATOM     33  C   LIG d   1       6.091  -0.147  -3.614  0.00  0.00     0.000 A 
ATOM     34  C   LIG d   1       5.417   0.619  -2.677  0.00  0.00     0.125 A 
ATOM     35  H   LIG d   1       6.788   0.321  -4.294  0.00  0.00     0.067 H 
ATOM     36  C   LIG d   1       4.529   0.017  -1.803  0.00  0.00    -0.026 A 
ATOM     37  F   LIG d   1       5.630   1.951  -2.612  0.00  0.00    -0.205 F 
ATOM     38  C   LIG d   1       4.311  -1.347  -1.870  0.00  0.00    -0.057 A 
ATOM     39  H   LIG d   1       4.006   0.611  -1.068  0.00  0.00     0.065 H 
ATOM     40  C   LIG d   1       4.980  -2.109  -2.808  0.00  0.00    -0.035 A 
ATOM     41  H   LIG d   1       3.618  -1.817  -1.187  0.00  0.00     0.062 H 
ATOM     42  H   LIG d   1       4.809  -3.174  -2.860  0.00  0.00     0.064 H 
ENDBRANCH  29  32
ENDBRANCH  27  29
ENDBRANCH  12  27
BRANCH   1  43
ATOM     43  S   LIG d   1       6.050   1.698  -9.018  0.00  0.00     0.029 S 
ATOM     44  O   LIG d   1       6.306   3.065  -9.307  0.00  0.00    -0.158 OA
ATOM     45  O   LIG d   1       5.874   1.263  -7.676  0.00  0.00    -0.158 OA
BRANCH  43  46
ATOM     46  C   LIG d   1       7.256   0.641  -9.865  0.00  0.00     0.071 C 
ATOM     47  H   LIG d   1       7.901   1.258 -10.492  0.00  0.00     0.048 H 
ATOM     48  H   LIG d   1       7.860   0.116  -9.127  0.00  0.00     0.048 H 
ATOM     49  H   LIG d   1       6.730  -0.083 -10.487  0.00  0.00     0.048 H 
ENDBRANCH  43  46
ENDBRANCH   1  43
TORSDOF 5
ENDMDL
MODEL 5
REMARK VINA RESULT:      -7.1      2.681      4.068
REMARK  5 active torsions:
REMARK  status: ('A' for Active; 'I' for Inactive)
REMARK    1  A    between atoms: C_1  and  S_2 
REMARK    2  A    between atoms: S_2  and  N_5 
REMARK    3  A    between atoms: C_16  and  N_21 
REMARK    4  A    between atoms: N_21  and  S_22 
REMARK    5  A    between atoms: S_22  and  C_25 
ROOT
ATOM      1  N   LIG d   1       4.061  -2.374 -11.734  0.00  0.00    -0.180 N 
ATOM      2  C   LIG d   1       4.184  -3.792 -11.376  0.00  0.00     0.025 C 
ATOM      3  C   LIG d   1       3.072  -4.194 -10.418  0.00  0.00    -0.008 C 
ATOM      4  H   LIG d   1       3.070  -5.281 -10.341  0.00  0.00     0.033 H 
ATOM      5  C   LIG d   1       1.705  -3.754 -10.943  0.00  0.00    -0.038 C 
ATOM      6  C   LIG d   1       1.727  -2.235 -11.129  0.00  0.00     0.014 C 
ATOM      7  H   LIG d   1       0.739  -1.879 -11.422  0.00  0.00     0.038 H 
ATOM      8  C   LIG d   1       2.757  -1.898 -12.220  0.00  0.00     0.028 C 
ATOM      9  C   LIG d   1       2.179  -1.571  -9.849  0.00  0.00     0.026 A 
ATOM     10  C   LIG d   1       1.773  -0.291  -9.637  0.00  0.00    -0.040 A 
ATOM     11  C   LIG d   1       2.201   0.416  -8.507  0.00  0.00    -0.032 A 
ATOM     12  C   LIG d   1       3.053  -0.196  -7.631  0.00  0.00     0.112 A 
ATOM     13  C   LIG d   1       3.452  -1.523  -7.879  0.00  0.00     0.274 A 
ATOM     14  O   LIG d   1       4.250  -2.065  -7.130  0.00  0.00    -0.266 OA
ATOM     15  N   LIG d   1       2.959  -2.206  -8.941  0.00  0.00    -0.310 N 
ATOM     16  C   LIG d   1       3.298  -3.626  -9.030  0.00  0.00     0.030 C 
ATOM     17  H   LIG d   1       5.150  -3.961 -10.899  0.00  0.00     0.045 H 
ATOM     18  H   LIG d   1       4.120  -4.399 -12.279  0.00  0.00     0.045 H 
ATOM     19  H   LIG d   1       0.932  -4.026 -10.225  0.00  0.00     0.028 H 
ATOM     20  H   LIG d   1       1.506  -4.239 -11.899  0.00  0.00     0.028 H 
ATOM     21  H   LIG d   1       2.483  -2.389 -13.154  0.00  0.00     0.045 H 
ATOM     22  H   LIG d   1       2.802  -0.819 -12.367  0.00  0.00     0.045 H 
ATOM     23  H   LIG d   1       1.113   0.185 -10.347  0.00  0.00     0.064 H 
ATOM     24  H   LIG d   1       1.864   1.427  -8.332  0.00  0.00     0.064 H 
ATOM     25  H   LIG d   1       2.685  -4.180  -8.318  0.00  0.00     0.050 H 
ATOM     26  H   LIG d   1       4.347  -3.755  -8.763  0.00  0.00     0.050 H 
ENDROOT
BRANCH  12  27
ATOM     27  N   LIG d   1       3.522   0.487  -6.501  0.00  0.00    -0.211 N 
ATOM     28  H   LIG d   1       4.438   0.804  -6.472  0.00  0.00     0.174 HD
BRANCH  27  29
ATOM     29  S   LIG d   1       2.511   0.753  -5.217  0.00  0.00     0.073 S 
ATOM     30  O   LIG d   1       2.438   2.161  -5.042  0.00  0.00    -0.150 OA
ATOM     31  O   LIG d   1       1.358  -0.048  -5.436  0.00  0.00    -0.150 OA
BRANCH  29  32
ATOM     32  C   LIG d   1       3.307   0.108  -3.783  0.00  0.00     0.111 A 
ATOM     33  C   LIG d   1       3.200  -1.236  -3.479  0.00  0.00     0.000 A 
ATOM     34  C   LIG d   1       3.830  -1.744  -2.355  0.00  0.00     0.125 A 
ATOM     35  H   LIG d   1       2.627  -1.891  -4.120  0.00  0.00     0.067 H 
ATOM     36  C   LIG d   1       4.558  -0.902  -1.532  0.00  0.00    -0.026 A 
ATOM     37  F   LIG d   1       3.730  -3.058  -2.060  0.00  0.00    -0.205 F 
ATOM     38  C   LIG d   1       4.660   0.443  -1.836  0.00  0.00    -0.057 A 
ATOM     39  H   LIG d   1       5.046  -1.296  -0.653  0.00  0.00     0.065 H 
ATOM     40  C   LIG d   1       4.034   0.948  -2.960  0.00  0.00    -0.035 A 
ATOM     41  H   LIG d   1       5.228   1.100  -1.193  0.00  0.00     0.062 H 
ATOM     42  H   LIG d   1       4.115   1.998  -3.196  0.00  0.00     0.064 H 
ENDBRANCH  29  32
ENDBRANCH  27  29
ENDBRANCH  12  27
BRANCH   1  43
ATOM     43  S   LIG d   1       5.361  -1.355 -11.621  0.00  0.00     0.029 S 
ATOM     44  O   LIG d   1       5.979  -1.694 -10.387  0.00  0.00    -0.158 OA
ATOM     45  O   LIG d   1       6.058  -1.520 -12.848  0.00  0.00    -0.158 OA
BRANCH  43  46
ATOM     46  C   LIG d   1       4.644   0.308 -11.526  0.00  0.00     0.071 C 
ATOM     47  H   LIG d   1       3.631   0.290 -11.931  0.00  0.00     0.048 H 
ATOM     48  H   LIG d   1       4.614   0.632 -10.487  0.00  0.00     0.048 H 
ATOM     49  H   LIG d   1       5.255   1.000 -12.105  0.00  0.00     0.048 H 
ENDBRANCH  43  46
ENDBRANCH   1  43
TORSDOF 5
ENDMDL
MODEL 6
REMARK VINA RESULT:      -6.9      2.714      4.025
REMARK  5 active torsions:
REMARK  status: ('A' for Active; 'I' for Inactive)
REMARK    1  A    between atoms: C_1  and  S_2 
REMARK    2  A    between atoms: S_2  and  N_5 
REMARK    3  A    between atoms: C_16  and  N_21 
REMARK    4  A    between atoms: N_21  and  S_22 
REMARK    5  A    between atoms: S_22  and  C_25 
ROOT
ATOM      1  N   LIG d   1       5.555  -1.384 -12.283  0.00  0.00    -0.180 N 
ATOM      2  C   LIG d   1       5.483  -2.804 -12.645  0.00  0.00     0.025 C 
ATOM      3  C   LIG d   1       4.068  -3.330 -12.445  0.00  0.00    -0.008 C 
ATOM      4  H   LIG d   1       4.004  -4.311 -12.915  0.00  0.00     0.033 H 
ATOM      5  C   LIG d   1       3.040  -2.417 -13.114  0.00  0.00    -0.038 C 
ATOM      6  C   LIG d   1       3.179  -1.014 -12.515  0.00  0.00     0.014 C 
ATOM      7  H   LIG d   1       2.403  -0.359 -12.910  0.00  0.00     0.038 H 
ATOM      8  C   LIG d   1       4.570  -0.470 -12.881  0.00  0.00     0.028 C 
ATOM      9  C   LIG d   1       3.099  -1.094 -11.008  0.00  0.00     0.026 A 
ATOM     10  C   LIG d   1       2.680   0.018 -10.349  0.00  0.00    -0.040 A 
ATOM     11  C   LIG d   1       2.639   0.048  -8.950  0.00  0.00    -0.032 A 
ATOM     12  C   LIG d   1       3.050  -1.056  -8.256  0.00  0.00     0.112 A 
ATOM     13  C   LIG d   1       3.475  -2.193  -8.970  0.00  0.00     0.274 A 
ATOM     14  O   LIG d   1       3.890  -3.168  -8.362  0.00  0.00    -0.266 OA
ATOM     15  N   LIG d   1       3.431  -2.216 -10.324  0.00  0.00    -0.310 N 
ATOM     16  C   LIG d   1       3.735  -3.491 -10.974  0.00  0.00     0.030 C 
ATOM     17  H   LIG d   1       6.171  -3.372 -12.018  0.00  0.00     0.045 H 
ATOM     18  H   LIG d   1       5.768  -2.925 -13.691  0.00  0.00     0.045 H 
ATOM     19  H   LIG d   1       2.036  -2.798 -12.929  0.00  0.00     0.028 H 
ATOM     20  H   LIG d   1       3.227  -2.378 -14.188  0.00  0.00     0.028 H 
ATOM     21  H   LIG d   1       4.680  -0.430 -13.966  0.00  0.00     0.045 H 
ATOM     22  H   LIG d   1       4.702   0.526 -12.458  0.00  0.00     0.045 H 
ATOM     23  H   LIG d   1       2.374   0.889 -10.910  0.00  0.00     0.064 H 
ATOM     24  H   LIG d   1       2.290   0.927  -8.429  0.00  0.00     0.064 H 
ATOM     25  H   LIG d   1       2.871  -4.150 -10.878  0.00  0.00     0.050 H 
ATOM     26  H   LIG d   1       4.584  -3.950 -10.469  0.00  0.00     0.050 H 
ENDROOT
BRANCH  12  27
ATOM     27  N   LIG d   1       3.046  -1.057  -6.855  0.00  0.00    -0.211 N 
ATOM     28  H   LIG d   1       2.598  -1.768  -6.372  0.00  0.00     0.174 HD
BRANCH  27  29
ATOM     29  S   LIG d   1       3.808   0.157  -6.025  0.00  0.00     0.073 S 
ATOM     30  O   LIG d   1       5.110   0.274  -6.582  0.00  0.00    -0.150 OA
ATOM     31  O   LIG d   1       2.899   1.248  -5.977  0.00  0.00    -0.150 OA
BRANCH  29  32
ATOM     32  C   LIG d   1       4.018  -0.398  -4.365  0.00  0.00     0.111 A 
ATOM     33  C   LIG d   1       4.256   0.517  -3.357  0.00  0.00     0.000 A 
ATOM     34  C   LIG d   1       4.415   0.082  -2.052  0.00  0.00     0.125 A 
ATOM     35  H   LIG d   1       4.314   1.571  -3.586  0.00  0.00     0.067 H 
ATOM     36  C   LIG d   1       4.346  -1.270  -1.762  0.00  0.00    -0.026 A 
ATOM     37  F   LIG d   1       4.642   0.975  -1.064  0.00  0.00    -0.205 F 
ATOM     38  C   LIG d   1       4.113  -2.183  -2.773  0.00  0.00    -0.057 A 
ATOM     39  H   LIG d   1       4.475  -1.612  -0.745  0.00  0.00     0.065 H 
ATOM     40  C   LIG d   1       3.950  -1.747  -4.074  0.00  0.00    -0.035 A 
ATOM     41  H   LIG d   1       4.060  -3.238  -2.546  0.00  0.00     0.062 H 
ATOM     42  H   LIG d   1       3.768  -2.461  -4.864  0.00  0.00     0.064 H 
ENDBRANCH  29  32
ENDBRANCH  27  29
ENDBRANCH  12  27
BRANCH   1  43
ATOM     43  S   LIG d   1       6.729  -0.830 -11.256  0.00  0.00     0.029 S 
ATOM     44  O   LIG d   1       7.857  -0.597 -12.088  0.00  0.00    -0.158 OA
ATOM     45  O   LIG d   1       6.117   0.240 -10.549  0.00  0.00    -0.158 OA
BRANCH  43  46
ATOM     46  C   LIG d   1       7.057  -2.215 -10.132  0.00  0.00     0.071 C 
ATOM     47  H   LIG d   1       7.865  -1.947  -9.451  0.00  0.00     0.048 H 
ATOM     48  H   LIG d   1       6.158  -2.438  -9.558  0.00  0.00     0.048 H 
ATOM     49  H   LIG d   1       7.345  -3.092 -10.711  0.00  0.00     0.048 H 
ENDBRANCH  43  46
ENDBRANCH   1  43
TORSDOF 5
ENDMDL
MODEL 7
REMARK VINA RESULT:      -6.8      2.142      3.385
REMARK  5 active torsions:
REMARK  status: ('A' for Active; 'I' for Inactive)
REMARK    1  A    between atoms: C_1  and  S_2 
REMARK    2  A    between atoms: S_2  and  N_5 
REMARK    3  A    between atoms: C_16  and  N_21 
REMARK    4  A    between atoms: N_21  and  S_22 
REMARK    5  A    between atoms: S_22  and  C_25 
ROOT
ATOM      1  N   LIG d   1       3.296  -1.357 -11.735  0.00  0.00    -0.180 N 
ATOM      2  C   LIG d   1       2.900  -2.699 -12.177  0.00  0.00     0.025 C 
ATOM      3  C   LIG d   1       2.075  -3.389 -11.100  0.00  0.00    -0.008 C 
ATOM      4  H   LIG d   1       1.629  -4.282 -11.537  0.00  0.00     0.033 H 
ATOM      5  C   LIG d   1       0.943  -2.486 -10.609  0.00  0.00    -0.038 C 
ATOM      6  C   LIG d   1       1.558  -1.193 -10.066  0.00  0.00     0.014 C 
ATOM      7  H   LIG d   1       0.784  -0.563  -9.630  0.00  0.00     0.038 H 
ATOM      8  C   LIG d   1       2.245  -0.460 -11.230  0.00  0.00     0.028 C 
ATOM      9  C   LIG d   1       2.620  -1.525  -9.042  0.00  0.00     0.026 A 
ATOM     10  C   LIG d   1       2.891  -0.583  -8.101  0.00  0.00    -0.040 A 
ATOM     11  C   LIG d   1       3.904  -0.786  -7.157  0.00  0.00    -0.032 A 
ATOM     12  C   LIG d   1       4.632  -1.942  -7.211  0.00  0.00     0.112 A 
ATOM     13  C   LIG d   1       4.323  -2.899  -8.197  0.00  0.00     0.274 A 
ATOM     14  O   LIG d   1       4.998  -3.914  -8.286  0.00  0.00    -0.266 OA
ATOM     15  N   LIG d   1       3.287  -2.705  -9.048  0.00  0.00    -0.310 N 
ATOM     16  C   LIG d   1       2.936  -3.820  -9.928  0.00  0.00     0.030 C 
ATOM     17  H   LIG d   1       3.793  -3.290 -12.382  0.00  0.00     0.045 H 
ATOM     18  H   LIG d   1       2.308  -2.619 -13.089  0.00  0.00     0.045 H 
ATOM     19  H   LIG d   1       0.389  -2.990  -9.818  0.00  0.00     0.028 H 
ATOM     20  H   LIG d   1       0.273  -2.254 -11.437  0.00  0.00     0.028 H 
ATOM     21  H   LIG d   1       1.516  -0.234 -12.009  0.00  0.00     0.045 H 
ATOM     22  H   LIG d   1       2.703   0.461 -10.870  0.00  0.00     0.045 H 
ATOM     23  H   LIG d   1       2.319   0.333  -8.081  0.00  0.00     0.064 H 
ATOM     24  H   LIG d   1       4.107  -0.043  -6.400  0.00  0.00     0.064 H 
ATOM     25  H   LIG d   1       2.394  -4.569  -9.349  0.00  0.00     0.050 H 
ATOM     26  H   LIG d   1       3.853  -4.269 -10.310  0.00  0.00     0.050 H 
ENDROOT
BRANCH  12  27
ATOM     27  N   LIG d   1       5.670  -2.172  -6.298  0.00  0.00    -0.211 N 
ATOM     28  H   LIG d   1       6.587  -1.984  -6.550  0.00  0.00     0.174 HD
BRANCH  27  29
ATOM     29  S   LIG d   1       5.328  -2.762  -4.789  0.00  0.00     0.073 S 
ATOM     30  O   LIG d   1       4.293  -3.721  -4.953  0.00  0.00    -0.150 OA
ATOM     31  O   LIG d   1       6.575  -3.083  -4.187  0.00  0.00    -0.150 OA
BRANCH  29  32
ATOM     32  C   LIG d   1       4.643  -1.436  -3.853  0.00  0.00     0.111 A 
ATOM     33  C   LIG d   1       5.419  -0.335  -3.545  0.00  0.00     0.000 A 
ATOM     34  C   LIG d   1       4.879   0.711  -2.814  0.00  0.00     0.125 A 
ATOM     35  H   LIG d   1       6.446  -0.287  -3.879  0.00  0.00     0.067 H 
ATOM     36  C   LIG d   1       3.566   0.645  -2.383  0.00  0.00    -0.026 A 
ATOM     37  F   LIG d   1       5.635   1.790  -2.517  0.00  0.00    -0.205 F 
ATOM     38  C   LIG d   1       2.793  -0.461  -2.687  0.00  0.00    -0.057 A 
ATOM     39  H   LIG d   1       3.144   1.457  -1.808  0.00  0.00     0.065 H 
ATOM     40  C   LIG d   1       3.331  -1.500  -3.421  0.00  0.00    -0.035 A 
ATOM     41  H   LIG d   1       1.768  -0.512  -2.350  0.00  0.00     0.062 H 
ATOM     42  H   LIG d   1       2.727  -2.363  -3.658  0.00  0.00     0.064 H 
ENDBRANCH  29  32
ENDBRANCH  27  29
ENDBRANCH  12  27
BRANCH   1  43
ATOM     43  S   LIG d   1       4.874  -0.864 -11.834  0.00  0.00     0.029 S 
ATOM     44  O   LIG d   1       5.625  -1.946 -11.302  0.00  0.00    -0.158 OA
ATOM     45  O   LIG d   1       5.043  -0.460 -13.186  0.00  0.00    -0.158 OA
BRANCH  43  46
ATOM     46  C   LIG d   1       4.982   0.574 -10.734  0.00  0.00     0.071 C 
ATOM     47  H   LIG d   1       5.527   1.374 -11.235  0.00  0.00     0.048 H 
ATOM     48  H   LIG d   1       3.979   0.918 -10.485  0.00  0.00     0.048 H 
ATOM     49  H   LIG d   1       5.507   0.293  -9.820  0.00  0.00     0.048 H 
ENDBRANCH  43  46
ENDBRANCH   1  43
TORSDOF 5
ENDMDL
MODEL 8
REMARK VINA RESULT:      -6.8      2.800      3.843
REMARK  5 active torsions:
REMARK  status: ('A' for Active; 'I' for Inactive)
REMARK    1  A    between atoms: C_1  and  S_2 
REMARK    2  A    between atoms: S_2  and  N_5 
REMARK    3  A    between atoms: C_16  and  N_21 
REMARK    4  A    between atoms: N_21  and  S_22 
REMARK    5  A    between atoms: S_22  and  C_25 
ROOT
ATOM      1  N   LIG d   1       2.935  -3.591 -12.354  0.00  0.00    -0.180 N 
ATOM      2  C   LIG d   1       2.218  -2.523 -13.061  0.00  0.00     0.025 C 
ATOM      3  C   LIG d   1       2.910  -1.185 -12.841  0.00  0.00    -0.008 C 
ATOM      4  H   LIG d   1       2.481  -0.466 -13.538  0.00  0.00     0.033 H 
ATOM      5  C   LIG d   1       4.408  -1.285 -13.125  0.00  0.00    -0.038 C 
ATOM      6  C   LIG d   1       5.004  -2.353 -12.203  0.00  0.00     0.014 C 
ATOM      7  H   LIG d   1       6.087  -2.389 -12.321  0.00  0.00     0.038 H 
ATOM      8  C   LIG d   1       4.384  -3.711 -12.576  0.00  0.00     0.028 C 
ATOM      9  C   LIG d   1       4.630  -2.055 -10.770  0.00  0.00     0.026 A 
ATOM     10  C   LIG d   1       5.453  -2.535  -9.801  0.00  0.00    -0.040 A 
ATOM     11  C   LIG d   1       5.143  -2.357  -8.448  0.00  0.00    -0.032 A 
ATOM     12  C   LIG d   1       3.985  -1.710  -8.116  0.00  0.00     0.112 A 
ATOM     13  C   LIG d   1       3.156  -1.222  -9.145  0.00  0.00     0.274 A 
ATOM     14  O   LIG d   1       2.096  -0.685  -8.863  0.00  0.00    -0.266 OA
ATOM     15  N   LIG d   1       3.523  -1.344 -10.444  0.00  0.00    -0.310 N 
ATOM     16  C   LIG d   1       2.685  -0.666 -11.434  0.00  0.00     0.030 C 
ATOM     17  H   LIG d   1       1.195  -2.467 -12.688  0.00  0.00     0.045 H 
ATOM     18  H   LIG d   1       2.198  -2.748 -14.128  0.00  0.00     0.045 H 
ATOM     19  H   LIG d   1       4.884  -0.324 -12.930  0.00  0.00     0.028 H 
ATOM     20  H   LIG d   1       4.567  -1.569 -14.166  0.00  0.00     0.028 H 
ATOM     21  H   LIG d   1       4.604  -3.946 -13.618  0.00  0.00     0.045 H 
ATOM     22  H   LIG d   1       4.783  -4.490 -11.927  0.00  0.00     0.045 H 
ATOM     23  H   LIG d   1       6.356  -3.059 -10.077  0.00  0.00     0.064 H 
ATOM     24  H   LIG d   1       5.807  -2.725  -7.679  0.00  0.00     0.064 H 
ATOM     25  H   LIG d   1       2.908   0.402 -11.412  0.00  0.00     0.050 H 
ATOM     26  H   LIG d   1       1.638  -0.811 -11.167  0.00  0.00     0.050 H 
ENDROOT
BRANCH  12  27
ATOM     27  N   LIG d   1       3.629  -1.533  -6.773  0.00  0.00    -0.211 N 
ATOM     28  H   LIG d   1       3.137  -2.227  -6.306  0.00  0.00     0.174 HD
BRANCH  27  29
ATOM     29  S   LIG d   1       4.049  -0.140  -5.982  0.00  0.00     0.073 S 
ATOM     30  O   LIG d   1       5.361   0.191  -6.412  0.00  0.00    -0.150 OA
ATOM     31  O   LIG d   1       2.952   0.753  -6.124  0.00  0.00    -0.150 OA
BRANCH  29  32
ATOM     32  C   LIG d   1       4.163  -0.527  -4.267  0.00  0.00     0.111 A 
ATOM     33  C   LIG d   1       4.413   0.473  -3.348  0.00  0.00     0.000 A 
ATOM     34  C   LIG d   1       4.498   0.170  -1.999  0.00  0.00     0.125 A 
ATOM     35  H   LIG d   1       4.539   1.494  -3.681  0.00  0.00     0.067 H 
ATOM     36  C   LIG d   1       4.342  -1.138  -1.575  0.00  0.00    -0.026 A 
ATOM     37  F   LIG d   1       4.737   1.148  -1.099  0.00  0.00    -0.205 F 
ATOM     38  C   LIG d   1       4.097  -2.139  -2.497  0.00  0.00    -0.057 A 
ATOM     39  H   LIG d   1       4.412  -1.378  -0.524  0.00  0.00     0.065 H 
ATOM     40  C   LIG d   1       4.008  -1.834  -3.842  0.00  0.00    -0.035 A 
ATOM     41  H   LIG d   1       3.976  -3.160  -2.166  0.00  0.00     0.062 H 
ATOM     42  H   LIG d   1       3.817  -2.616  -4.561  0.00  0.00     0.064 H 
ENDBRANCH  29  32
ENDBRANCH  27  29
ENDBRANCH  12  27
BRANCH   1  43
ATOM     43  S   LIG d   1       2.127  -4.642 -11.363  0.00  0.00     0.029 S 
ATOM     44  O   LIG d   1       3.133  -5.199 -10.528  0.00  0.00    -0.158 OA
ATOM     45  O   LIG d   1       1.069  -3.874 -10.807  0.00  0.00    -0.158 OA
BRANCH  43  46
ATOM     46  C   LIG d   1       1.461  -5.912 -12.474  0.00  0.00     0.071 C 
ATOM     47  H   LIG d   1       0.421  -6.111 -12.215  0.00  0.00     0.048 H 
ATOM     48  H   LIG d   1       1.519  -5.560 -13.503  0.00  0.00     0.048 H 
ATOM     49  H   LIG d   1       2.044  -6.827 -12.369  0.00  0.00     0.048 H 
ENDBRANCH  43  46
ENDBRANCH   1  43
TORSDOF 5
ENDMDL
MODEL 9
REMARK VINA RESULT:      -6.8      5.301      7.684
REMARK  5 active torsions:
REMARK  status: ('A' for Active; 'I' for Inactive)
REMARK    1  A    between atoms: C_1  and  S_2 
REMARK    2  A    between atoms: S_2  and  N_5 
REMARK    3  A    between atoms: C_16  and  N_21 
REMARK    4  A    between atoms: N_21  and  S_22 
REMARK    5  A    between atoms: S_22  and  C_25 
ROOT
ATOM      1  N   LIG d   1      11.313   5.863  -4.804  0.00  0.00    -0.180 N 
ATOM      2  C   LIG d   1      11.768   5.778  -3.412  0.00  0.00     0.025 C 
ATOM      3  C   LIG d   1      12.184   4.352  -3.077  0.00  0.00    -0.008 C 
ATOM      4  H   LIG d   1      12.705   4.369  -2.120  0.00  0.00     0.033 H 
ATOM      5  C   LIG d   1      13.144   3.797  -4.129  0.00  0.00    -0.038 C 
ATOM      6  C   LIG d   1      12.447   3.845  -5.492  0.00  0.00     0.014 C 
ATOM      7  H   LIG d   1      13.074   3.376  -6.250  0.00  0.00     0.038 H 
ATOM      8  C   LIG d   1      12.192   5.318  -5.850  0.00  0.00     0.028 C 
ATOM      9  C   LIG d   1      11.106   3.154  -5.402  0.00  0.00     0.026 A 
ATOM     10  C   LIG d   1      10.596   2.637  -6.551  0.00  0.00    -0.040 A 
ATOM     11  C   LIG d   1       9.331   2.039  -6.566  0.00  0.00    -0.032 A 
ATOM     12  C   LIG d   1       8.606   2.002  -5.408  0.00  0.00     0.112 A 
ATOM     13  C   LIG d   1       9.165   2.543  -4.234  0.00  0.00     0.274 A 
ATOM     14  O   LIG d   1       8.509   2.560  -3.204  0.00  0.00    -0.266 OA
ATOM     15  N   LIG d   1      10.423   3.047  -4.236  0.00  0.00    -0.310 N 
ATOM     16  C   LIG d   1      10.982   3.437  -2.942  0.00  0.00     0.030 C 
ATOM     17  H   LIG d   1      10.958   6.082  -2.748  0.00  0.00     0.045 H 
ATOM     18  H   LIG d   1      12.618   6.445  -3.268  0.00  0.00     0.045 H 
ATOM     19  H   LIG d   1      13.401   2.767  -3.883  0.00  0.00     0.028 H 
ATOM     20  H   LIG d   1      14.049   4.404  -4.158  0.00  0.00     0.028 H 
ATOM     21  H   LIG d   1      13.137   5.860  -5.890  0.00  0.00     0.045 H 
ATOM     22  H   LIG d   1      11.685   5.383  -6.813  0.00  0.00     0.045 H 
ATOM     23  H   LIG d   1      11.173   2.689  -7.463  0.00  0.00     0.064 H 
ATOM     24  H   LIG d   1       8.935   1.614  -7.477  0.00  0.00     0.064 H 
ATOM     25  H   LIG d   1      11.282   2.538  -2.402  0.00  0.00     0.050 H 
ATOM     26  H   LIG d   1      10.212   3.949  -2.366  0.00  0.00     0.050 H 
ENDROOT
BRANCH  12  27
ATOM     27  N   LIG d   1       7.326   1.432  -5.388  0.00  0.00    -0.211 N 
ATOM     28  H   LIG d   1       6.542   2.000  -5.442  0.00  0.00     0.174 HD
BRANCH  27  29
ATOM     29  S   LIG d   1       7.154  -0.211  -5.272  0.00  0.00     0.073 S 
ATOM     30  O   LIG d   1       6.525  -0.639  -6.471  0.00  0.00    -0.150 OA
ATOM     31  O   LIG d   1       8.411  -0.721  -4.847  0.00  0.00    -0.150 OA
BRANCH  29  32
ATOM     32  C   LIG d   1       6.015  -0.525  -3.965  0.00  0.00     0.111 A 
ATOM     33  C   LIG d   1       5.718   0.469  -3.053  0.00  0.00     0.000 A 
ATOM     34  C   LIG d   1       4.819   0.224  -2.029  0.00  0.00     0.125 A 
ATOM     35  H   LIG d   1       6.185   1.440  -3.141  0.00  0.00     0.067 H 
ATOM     36  C   LIG d   1       4.227  -1.021  -1.914  0.00  0.00    -0.026 A 
ATOM     37  F   LIG d   1       4.524   1.197  -1.140  0.00  0.00    -0.205 F 
ATOM     38  C   LIG d   1       4.529  -2.017  -2.825  0.00  0.00    -0.057 A 
ATOM     39  H   LIG d   1       3.529  -1.217  -1.113  0.00  0.00     0.065 H 
ATOM     40  C   LIG d   1       5.423  -1.769  -3.848  0.00  0.00    -0.035 A 
ATOM     41  H   LIG d   1       4.067  -2.989  -2.734  0.00  0.00     0.062 H 
ATOM     42  H   LIG d   1       5.659  -2.547  -4.559  0.00  0.00     0.064 H 
ENDBRANCH  29  32
ENDBRANCH  27  29
ENDBRANCH  12  27
BRANCH   1  43
ATOM     43  S   LIG d   1       9.868   6.579  -5.181  0.00  0.00     0.029 S 
ATOM     44  O   LIG d   1       9.625   6.214  -6.533  0.00  0.00    -0.158 OA
ATOM     45  O   LIG d   1       8.981   6.168  -4.150  0.00  0.00    -0.158 OA
BRANCH  43  46
ATOM     46  C   LIG d   1      10.185   8.360  -5.060  0.00  0.00     0.071 C 
ATOM     47  H   LIG d   1       9.236   8.896  -5.023  0.00  0.00     0.048 H 
ATOM     48  H   LIG d   1      10.755   8.567  -4.156  0.00  0.00     0.048 H 
ATOM     49  H   LIG d   1      10.753   8.688  -5.932  0.00  0.00     0.048 H 
ENDBRANCH  43  46
ENDBRANCH   1  43
TORSDOF 5
ENDMDL
