MODEL 1
REMARK VINA RESULT:      -6.6      0.000      0.000
REMARK  7 active torsions:
REMARK  status: ('A' for Active; 'I' for Inactive)
REMARK    1  A    between atoms: C_1  and  C_2 
REMARK    2  A    between atoms: C_2  and  C_4 
REMARK    3  A    between atoms: C_2  and  C_8 
REMARK    4  A    between atoms: C_4  and  C_5 
REMARK    5  A    between atoms: C_5  and  C_6 
REMARK    6  A    between atoms: C_14  and  C_31 
REMARK    7  A    between atoms: C_25  and  C_30 
ROOT
ATOM      1  C   LIG d   1       7.272  -5.960  -5.736  0.00  0.00    -0.033 C 
ATOM      2  H   LIG d   1       6.904  -6.633  -4.970  0.00  0.00     0.031 H 
ATOM      3  C   LIG d   1       8.763  -5.613  -5.499  0.00  0.00    -0.049 C 
ATOM      4  C   LIG d   1       8.787  -4.202  -4.848  0.00  0.00    -0.049 C 
ATOM      5  C   LIG d   1       7.325  -3.984  -4.432  0.00  0.00    -0.032 C 
ATOM      6  H   LIG d   1       7.139  -4.614  -3.534  0.00  0.00     0.031 H 
ATOM      7  C   LIG d   1       6.557  -4.594  -5.622  0.00  0.00    -0.026 C 
ATOM      8  C   LIG d   1       5.082  -4.689  -5.335  0.00  0.00    -0.047 C 
ATOM      9  C   LIG d   1       4.604  -3.498  -4.492  0.00  0.00    -0.049 C 
ATOM     10  C   LIG d   1       5.511  -2.290  -4.678  0.00  0.00    -0.032 C 
ATOM     11  H   LIG d   1       5.588  -2.053  -5.740  0.00  0.00     0.031 H 
ATOM     12  C   LIG d   1       6.904  -2.581  -4.118  0.00  0.00    -0.034 C 
ATOM     13  H   LIG d   1       6.826  -2.507  -3.014  0.00  0.00     0.031 H 
ATOM     14  C   LIG d   1       7.893  -1.512  -4.563  0.00  0.00    -0.049 C 
ATOM     15  C   LIG d   1       7.257  -0.125  -4.368  0.00  0.00    -0.049 C 
ATOM     16  C   LIG d   1       6.105  -0.258  -3.383  0.00  0.00    -0.035 C 
ATOM     17  H   LIG d   1       6.469  -0.834  -2.518  0.00  0.00     0.031 H 
ATOM     18  C   LIG d   1       4.948  -1.039  -4.011  0.00  0.00    -0.026 C 
ATOM     19  C   LIG d   1       3.924  -1.353  -2.928  0.00  0.00    -0.047 C 
ATOM     20  C   LIG d   1       3.402  -0.045  -2.323  0.00  0.00    -0.052 C 
ATOM     21  C   LIG d   1       4.539   0.813  -1.781  0.00  0.00    -0.053 C 
ATOM     22  C   LIG d   1       5.607   1.077  -2.849  0.00  0.00    -0.050 C 
ATOM     23  H   LIG d   1       9.299  -5.595  -6.448  0.00  0.00     0.027 H 
ATOM     24  H   LIG d   1       9.215  -6.341  -4.827  0.00  0.00     0.027 H 
ATOM     25  H   LIG d   1       9.120  -3.450  -5.557  0.00  0.00     0.027 H 
ATOM     26  H   LIG d   1       9.436  -4.203  -3.968  0.00  0.00     0.027 H 
ATOM     27  H   LIG d   1       4.522  -4.713  -6.278  0.00  0.00     0.027 H 
ATOM     28  H   LIG d   1       4.869  -5.621  -4.796  0.00  0.00     0.027 H 
ATOM     29  H   LIG d   1       4.588  -3.786  -3.437  0.00  0.00     0.027 H 
ATOM     30  H   LIG d   1       3.584  -3.237  -4.792  0.00  0.00     0.027 H 
ATOM     31  H   LIG d   1       8.798  -1.576  -3.960  0.00  0.00     0.027 H 
ATOM     32  H   LIG d   1       8.142  -1.644  -5.614  0.00  0.00     0.027 H 
ATOM     33  H   LIG d   1       8.009   0.554  -3.956  0.00  0.00     0.027 H 
ATOM     34  H   LIG d   1       6.913   0.258  -5.323  0.00  0.00     0.027 H 
ATOM     35  H   LIG d   1       3.089  -1.909  -3.362  0.00  0.00     0.027 H 
ATOM     36  H   LIG d   1       4.387  -1.960  -2.146  0.00  0.00     0.027 H 
ATOM     37  H   LIG d   1       2.828   0.517  -3.055  0.00  0.00     0.026 H 
ATOM     38  H   LIG d   1       2.728  -0.291  -1.492  0.00  0.00     0.026 H 
ATOM     39  H   LIG d   1       5.001   0.306  -0.932  0.00  0.00     0.026 H 
ATOM     40  H   LIG d   1       4.136   1.769  -1.439  0.00  0.00     0.026 H 
ATOM     41  H   LIG d   1       6.448   1.607  -2.382  0.00  0.00     0.027 H 
ATOM     42  H   LIG d   1       5.208   1.702  -3.638  0.00  0.00     0.027 H 
ENDROOT
BRANCH   1  43
ATOM     43  C   LIG d   1       7.070  -6.537  -7.133  0.00  0.00    -0.040 C 
ATOM     44  H   LIG d   1       6.693  -5.758  -7.796  0.00  0.00     0.030 H 
BRANCH  43  45
ATOM     45  C   LIG d   1       8.404  -7.060  -7.668  0.00  0.00    -0.062 C 
ATOM     46  H   LIG d   1       9.215  -6.436  -7.293  0.00  0.00     0.023 H 
ATOM     47  H   LIG d   1       8.551  -8.087  -7.333  0.00  0.00     0.023 H 
ATOM     48  H   LIG d   1       8.395  -7.031  -8.757  0.00  0.00     0.023 H 
ENDBRANCH  43  45
BRANCH  43  49
ATOM     49  C   LIG d   1       6.060  -7.685  -7.069  0.00  0.00    -0.045 C 
ATOM     50  H   LIG d   1       5.080  -7.324  -7.382  0.00  0.00     0.027 H 
ATOM     51  H   LIG d   1       6.379  -8.488  -7.733  0.00  0.00     0.027 H 
BRANCH  49  52
ATOM     52  C   LIG d   1       5.977  -8.210  -5.635  0.00  0.00    -0.013 C 
ATOM     53  H   LIG d   1       6.839  -8.845  -5.430  0.00  0.00     0.033 H 
ATOM     54  H   LIG d   1       5.970  -7.371  -4.939  0.00  0.00     0.033 H 
BRANCH  52  55
ATOM     55  C   LIG d   1       4.712  -9.012  -5.467  0.00  0.00     0.042 C 
ATOM     56  O   LIG d   1       4.268  -9.642  -6.397  0.00  0.00    -0.550 OA
ATOM     57  O   LIG d   1       4.078  -9.026  -4.284  0.00  0.00    -0.550 OA
ENDBRANCH  52  55
ENDBRANCH  49  52
ENDBRANCH  43  49
ENDBRANCH   1  43
BRANCH   7  58
ATOM     58  C   LIG d   1       6.818  -3.849  -6.932  0.00  0.00    -0.059 C 
ATOM     59  H   LIG d   1       5.887  -3.757  -7.490  0.00  0.00     0.024 H 
ATOM     60  H   LIG d   1       7.211  -2.856  -6.713  0.00  0.00     0.024 H 
ATOM     61  H   LIG d   1       7.545  -4.404  -7.526  0.00  0.00     0.024 H 
ENDBRANCH   7  58
BRANCH  18  62
ATOM     62  C   LIG d   1       4.281  -0.203  -5.107  0.00  0.00    -0.059 C 
ATOM     63  H   LIG d   1       3.437   0.342  -4.684  0.00  0.00     0.024 H 
ATOM     64  H   LIG d   1       5.003   0.503  -5.515  0.00  0.00     0.024 H 
ATOM     65  H   LIG d   1       3.928  -0.861  -5.901  0.00  0.00     0.024 H 
ENDBRANCH  18  62
TORSDOF 7
ENDMDL
MODEL 2
REMARK VINA RESULT:      -6.1      2.866      3.679
REMARK  7 active torsions:
REMARK  status: ('A' for Active; 'I' for Inactive)
REMARK    1  A    between atoms: C_1  and  C_2 
REMARK    2  A    between atoms: C_2  and  C_4 
REMARK    3  A    between atoms: C_2  and  C_8 
REMARK    4  A    between atoms: C_4  and  C_5 
REMARK    5  A    between atoms: C_5  and  C_6 
REMARK    6  A    between atoms: C_14  and  C_31 
REMARK    7  A    between atoms: C_25  and  C_30 
ROOT
ATOM      1  C   LIG d   1       8.877  -3.889  -6.003  0.00  0.00    -0.033 C 
ATOM      2  H   LIG d   1       9.752  -3.335  -5.683  0.00  0.00     0.031 H 
ATOM      3  C   LIG d   1       8.514  -3.552  -7.471  0.00  0.00    -0.049 C 
ATOM      4  C   LIG d   1       7.329  -2.548  -7.409  0.00  0.00    -0.049 C 
ATOM      5  C   LIG d   1       7.321  -2.105  -5.939  0.00  0.00    -0.032 C 
ATOM      6  H   LIG d   1       8.179  -1.410  -5.799  0.00  0.00     0.031 H 
ATOM      7  C   LIG d   1       7.638  -3.423  -5.204  0.00  0.00    -0.026 C 
ATOM      8  C   LIG d   1       7.899  -3.188  -3.739  0.00  0.00    -0.047 C 
ATOM      9  C   LIG d   1       7.009  -2.064  -3.193  0.00  0.00    -0.049 C 
ATOM     10  C   LIG d   1       5.741  -1.911  -4.020  0.00  0.00    -0.032 C 
ATOM     11  H   LIG d   1       5.224  -2.870  -4.076  0.00  0.00     0.031 H 
ATOM     12  C   LIG d   1       6.082  -1.433  -5.432  0.00  0.00    -0.034 C 
ATOM     13  H   LIG d   1       6.311  -0.351  -5.356  0.00  0.00     0.031 H 
ATOM     14  C   LIG d   1       4.874  -1.566  -6.349  0.00  0.00    -0.049 C 
ATOM     15  C   LIG d   1       3.632  -1.015  -5.628  0.00  0.00    -0.049 C 
ATOM     16  C   LIG d   1       4.094  -0.114  -4.492  0.00  0.00    -0.035 C 
ATOM     17  H   LIG d   1       4.856   0.570  -4.897  0.00  0.00     0.031 H 
ATOM     18  C   LIG d   1       4.750  -0.940  -3.383  0.00  0.00    -0.026 C 
ATOM     19  C   LIG d   1       5.405   0.008  -2.387  0.00  0.00    -0.047 C 
ATOM     20  C   LIG d   1       4.341   0.934  -1.787  0.00  0.00    -0.052 C 
ATOM     21  C   LIG d   1       3.589   1.698  -2.871  0.00  0.00    -0.053 C 
ATOM     22  C   LIG d   1       2.985   0.751  -3.914  0.00  0.00    -0.050 C 
ATOM     23  H   LIG d   1       8.209  -4.456  -7.999  0.00  0.00     0.027 H 
ATOM     24  H   LIG d   1       9.365  -3.093  -7.972  0.00  0.00     0.027 H 
ATOM     25  H   LIG d   1       6.396  -3.027  -7.690  0.00  0.00     0.027 H 
ATOM     26  H   LIG d   1       7.524  -1.693  -8.062  0.00  0.00     0.027 H 
ATOM     27  H   LIG d   1       7.705  -4.110  -3.177  0.00  0.00     0.027 H 
ATOM     28  H   LIG d   1       8.952  -2.920  -3.589  0.00  0.00     0.027 H 
ATOM     29  H   LIG d   1       7.567  -1.124  -3.201  0.00  0.00     0.027 H 
ATOM     30  H   LIG d   1       6.741  -2.294  -2.156  0.00  0.00     0.027 H 
ATOM     31  H   LIG d   1       5.039  -0.991  -7.260  0.00  0.00     0.027 H 
ATOM     32  H   LIG d   1       4.705  -2.611  -6.599  0.00  0.00     0.027 H 
ATOM     33  H   LIG d   1       3.042  -0.429  -6.337  0.00  0.00     0.027 H 
ATOM     34  H   LIG d   1       3.030  -1.838  -5.254  0.00  0.00     0.027 H 
ATOM     35  H   LIG d   1       5.876  -0.568  -1.586  0.00  0.00     0.027 H 
ATOM     36  H   LIG d   1       6.168   0.605  -2.893  0.00  0.00     0.027 H 
ATOM     37  H   LIG d   1       3.641   0.372  -1.175  0.00  0.00     0.026 H 
ATOM     38  H   LIG d   1       4.842   1.662  -1.135  0.00  0.00     0.026 H 
ATOM     39  H   LIG d   1       4.275   2.386  -3.369  0.00  0.00     0.026 H 
ATOM     40  H   LIG d   1       2.787   2.278  -2.410  0.00  0.00     0.026 H 
ATOM     41  H   LIG d   1       2.547   1.351  -4.723  0.00  0.00     0.027 H 
ATOM     42  H   LIG d   1       2.197   0.152  -3.472  0.00  0.00     0.027 H 
ENDROOT
BRANCH   1  43
ATOM     43  C   LIG d   1       9.072  -5.392  -5.829  0.00  0.00    -0.040 C 
ATOM     44  H   LIG d   1       8.123  -5.851  -5.552  0.00  0.00     0.030 H 
BRANCH  43  45
ATOM     45  C   LIG d   1       9.567  -5.999  -7.144  0.00  0.00    -0.062 C 
ATOM     46  H   LIG d   1       9.082  -5.495  -7.981  0.00  0.00     0.023 H 
ATOM     47  H   LIG d   1      10.647  -5.870  -7.218  0.00  0.00     0.023 H 
ATOM     48  H   LIG d   1       9.325  -7.061  -7.167  0.00  0.00     0.023 H 
ENDBRANCH  43  45
BRANCH  43  49
ATOM     49  C   LIG d   1      10.103  -5.648  -4.728  0.00  0.00    -0.045 C 
ATOM     50  H   LIG d   1      10.982  -6.128  -5.159  0.00  0.00     0.027 H 
ATOM     51  H   LIG d   1      10.393  -4.701  -4.273  0.00  0.00     0.027 H 
BRANCH  49  52
ATOM     52  C   LIG d   1       9.494  -6.561  -3.662  0.00  0.00    -0.013 C 
ATOM     53  H   LIG d   1       8.425  -6.365  -3.583  0.00  0.00     0.033 H 
ATOM     54  H   LIG d   1       9.652  -7.603  -3.941  0.00  0.00     0.033 H 
BRANCH  52  55
ATOM     55  C   LIG d   1      10.153  -6.291  -2.334  0.00  0.00     0.042 C 
ATOM     56  O   LIG d   1      11.115  -6.938  -1.994  0.00  0.00    -0.550 OA
ATOM     57  O   LIG d   1       9.671  -5.333  -1.527  0.00  0.00    -0.550 OA
ENDBRANCH  52  55
ENDBRANCH  49  52
ENDBRANCH  43  49
ENDBRANCH   1  43
BRANCH   7  58
ATOM     58  C   LIG d   1       6.557  -4.484  -5.410  0.00  0.00    -0.059 C 
ATOM     59  H   LIG d   1       6.854  -5.157  -6.213  0.00  0.00     0.024 H 
ATOM     60  H   LIG d   1       6.427  -5.053  -4.489  0.00  0.00     0.024 H 
ATOM     61  H   LIG d   1       5.616  -3.998  -5.672  0.00  0.00     0.024 H 
ENDBRANCH   7  58
BRANCH  18  62
ATOM     62  C   LIG d   1       3.696  -1.782  -2.658  0.00  0.00    -0.059 C 
ATOM     63  H   LIG d   1       2.898  -1.132  -2.298  0.00  0.00     0.024 H 
ATOM     64  H   LIG d   1       3.283  -2.518  -3.346  0.00  0.00     0.024 H 
ATOM     65  H   LIG d   1       4.157  -2.293  -1.813  0.00  0.00     0.024 H 
ENDBRANCH  18  62
TORSDOF 7
ENDMDL
MODEL 3
REMARK VINA RESULT:      -6.0      4.207      6.763
REMARK  7 active torsions:
REMARK  status: ('A' for Active; 'I' for Inactive)
REMARK    1  A    between atoms: C_1  and  C_2 
REMARK    2  A    between atoms: C_2  and  C_4 
REMARK    3  A    between atoms: C_2  and  C_8 
REMARK    4  A    between atoms: C_4  and  C_5 
REMARK    5  A    between atoms: C_5  and  C_6 
REMARK    6  A    between atoms: C_14  and  C_31 
REMARK    7  A    between atoms: C_25  and  C_30 
ROOT
ATOM      1  C   LIG d   1       6.455  -1.755  -3.508  0.00  0.00    -0.033 C 
ATOM      2  H   LIG d   1       6.708  -1.697  -2.456  0.00  0.00     0.031 H 
ATOM      3  C   LIG d   1       7.172  -2.948  -4.187  0.00  0.00    -0.049 C 
ATOM      4  C   LIG d   1       8.389  -2.352  -4.949  0.00  0.00    -0.049 C 
ATOM      5  C   LIG d   1       8.498  -0.931  -4.378  0.00  0.00    -0.032 C 
ATOM      6  H   LIG d   1       8.926  -1.018  -3.355  0.00  0.00     0.031 H 
ATOM      7  C   LIG d   1       7.017  -0.521  -4.251  0.00  0.00    -0.026 C 
ATOM      8  C   LIG d   1       6.867   0.776  -3.500  0.00  0.00    -0.047 C 
ATOM      9  C   LIG d   1       8.026   1.733  -3.812  0.00  0.00    -0.049 C 
ATOM     10  C   LIG d   1       8.644   1.430  -5.169  0.00  0.00    -0.032 C 
ATOM     11  H   LIG d   1       7.867   1.443  -5.934  0.00  0.00     0.031 H 
ATOM     12  C   LIG d   1       9.318   0.057  -5.150  0.00  0.00    -0.034 C 
ATOM     13  H   LIG d   1      10.275   0.178  -4.604  0.00  0.00     0.031 H 
ATOM     14  C   LIG d   1       9.670  -0.386  -6.564  0.00  0.00    -0.049 C 
ATOM     15  C   LIG d   1      10.330   0.787  -7.309  0.00  0.00    -0.049 C 
ATOM     16  C   LIG d   1      10.834   1.788  -6.280  0.00  0.00    -0.035 C 
ATOM     17  H   LIG d   1      11.391   1.227  -5.513  0.00  0.00     0.031 H 
ATOM     18  C   LIG d   1       9.661   2.486  -5.589  0.00  0.00    -0.026 C 
ATOM     19  C   LIG d   1      10.196   3.296  -4.415  0.00  0.00    -0.047 C 
ATOM     20  C   LIG d   1      11.195   4.339  -4.926  0.00  0.00    -0.052 C 
ATOM     21  C   LIG d   1      12.326   3.690  -5.714  0.00  0.00    -0.053 C 
ATOM     22  C   LIG d   1      11.792   2.819  -6.857  0.00  0.00    -0.050 C 
ATOM     23  H   LIG d   1       6.498  -3.441  -4.888  0.00  0.00     0.027 H 
ATOM     24  H   LIG d   1       7.515  -3.657  -3.434  0.00  0.00     0.027 H 
ATOM     25  H   LIG d   1       8.213  -2.343  -6.020  0.00  0.00     0.027 H 
ATOM     26  H   LIG d   1       9.293  -2.924  -4.722  0.00  0.00     0.027 H 
ATOM     27  H   LIG d   1       5.919   1.255  -3.774  0.00  0.00     0.027 H 
ATOM     28  H   LIG d   1       6.843   0.578  -2.421  0.00  0.00     0.027 H 
ATOM     29  H   LIG d   1       8.788   1.643  -3.033  0.00  0.00     0.027 H 
ATOM     30  H   LIG d   1       7.650   2.762  -3.806  0.00  0.00     0.027 H 
ATOM     31  H   LIG d   1      10.370  -1.220  -6.524  0.00  0.00     0.027 H 
ATOM     32  H   LIG d   1       8.771  -0.686  -7.099  0.00  0.00     0.027 H 
ATOM     33  H   LIG d   1      11.175   0.406  -7.889  0.00  0.00     0.027 H 
ATOM     34  H   LIG d   1       9.611   1.245  -7.981  0.00  0.00     0.027 H 
ATOM     35  H   LIG d   1       9.369   3.804  -3.911  0.00  0.00     0.027 H 
ATOM     36  H   LIG d   1      10.690   2.631  -3.703  0.00  0.00     0.027 H 
ATOM     37  H   LIG d   1      10.696   5.085  -5.537  0.00  0.00     0.026 H 
ATOM     38  H   LIG d   1      11.630   4.857  -4.060  0.00  0.00     0.026 H 
ATOM     39  H   LIG d   1      12.925   3.070  -5.044  0.00  0.00     0.026 H 
ATOM     40  H   LIG d   1      12.967   4.470  -6.132  0.00  0.00     0.026 H 
ATOM     41  H   LIG d   1      12.636   2.296  -7.325  0.00  0.00     0.027 H 
ATOM     42  H   LIG d   1      11.314   3.434  -7.611  0.00  0.00     0.027 H 
ENDROOT
BRANCH   1  43
ATOM     43  C   LIG d   1       4.947  -1.844  -3.718  0.00  0.00    -0.040 C 
ATOM     44  H   LIG d   1       4.641  -1.118  -4.472  0.00  0.00     0.030 H 
BRANCH  43  45
ATOM     45  C   LIG d   1       4.579  -3.253  -4.187  0.00  0.00    -0.062 C 
ATOM     46  H   LIG d   1       4.739  -3.331  -5.263  0.00  0.00     0.023 H 
ATOM     47  H   LIG d   1       5.205  -3.981  -3.672  0.00  0.00     0.023 H 
ATOM     48  H   LIG d   1       3.531  -3.449  -3.960  0.00  0.00     0.023 H 
ENDBRANCH  43  45
BRANCH  43  49
ATOM     49  C   LIG d   1       4.230  -1.541  -2.400  0.00  0.00    -0.045 C 
ATOM     50  H   LIG d   1       3.993  -2.477  -1.893  0.00  0.00     0.027 H 
ATOM     51  H   LIG d   1       4.877  -0.938  -1.764  0.00  0.00     0.027 H 
BRANCH  49  52
ATOM     52  C   LIG d   1       2.938  -0.775  -2.687  0.00  0.00    -0.013 C 
ATOM     53  H   LIG d   1       2.473  -1.171  -3.590  0.00  0.00     0.033 H 
ATOM     54  H   LIG d   1       2.253  -0.887  -1.846  0.00  0.00     0.033 H 
BRANCH  52  55
ATOM     55  C   LIG d   1       3.254   0.685  -2.885  0.00  0.00     0.042 C 
ATOM     56  O   LIG d   1       3.543   1.375  -1.937  0.00  0.00    -0.550 OA
ATOM     57  O   LIG d   1       3.212   1.221  -4.116  0.00  0.00    -0.550 OA
ENDBRANCH  52  55
ENDBRANCH  49  52
ENDBRANCH  43  49
ENDBRANCH   1  43
BRANCH   7  58
ATOM     58  C   LIG d   1       6.308  -0.460  -5.605  0.00  0.00    -0.059 C 
ATOM     59  H   LIG d   1       6.112  -1.472  -5.959  0.00  0.00     0.024 H 
ATOM     60  H   LIG d   1       5.365   0.076  -5.497  0.00  0.00     0.024 H 
ATOM     61  H   LIG d   1       6.940   0.061  -6.324  0.00  0.00     0.024 H 
ENDBRANCH   7  58
BRANCH  18  62
ATOM     62  C   LIG d   1       8.956   3.428  -6.569  0.00  0.00    -0.059 C 
ATOM     63  H   LIG d   1       7.925   3.579  -6.249  0.00  0.00     0.024 H 
ATOM     64  H   LIG d   1       9.474   4.386  -6.589  0.00  0.00     0.024 H 
ATOM     65  H   LIG d   1       8.966   2.989  -7.567  0.00  0.00     0.024 H 
ENDBRANCH  18  62
TORSDOF 7
ENDMDL
MODEL 4
REMARK VINA RESULT:      -5.9      4.301      7.078
REMARK  7 active torsions:
REMARK  status: ('A' for Active; 'I' for Inactive)
REMARK    1  A    between atoms: C_1  and  C_2 
REMARK    2  A    between atoms: C_2  and  C_4 
REMARK    3  A    between atoms: C_2  and  C_8 
REMARK    4  A    between atoms: C_4  and  C_5 
REMARK    5  A    between atoms: C_5  and  C_6 
REMARK    6  A    between atoms: C_14  and  C_31 
REMARK    7  A    between atoms: C_25  and  C_30 
ROOT
ATOM      1  C   LIG d   1       5.989  -0.014  -5.358  0.00  0.00    -0.033 C 
ATOM      2  H   LIG d   1       5.748   1.043  -5.369  0.00  0.00     0.031 H 
ATOM      3  C   LIG d   1       7.424  -0.261  -5.883  0.00  0.00    -0.049 C 
ATOM      4  C   LIG d   1       7.276  -0.746  -7.353  0.00  0.00    -0.049 C 
ATOM      5  C   LIG d   1       5.815  -0.410  -7.686  0.00  0.00    -0.032 C 
ATOM      6  H   LIG d   1       5.754   0.691  -7.832  0.00  0.00     0.031 H 
ATOM      7  C   LIG d   1       5.095  -0.767  -6.370  0.00  0.00    -0.026 C 
ATOM      8  C   LIG d   1       3.659  -0.311  -6.388  0.00  0.00    -0.047 C 
ATOM      9  C   LIG d   1       3.053  -0.446  -7.791  0.00  0.00    -0.049 C 
ATOM     10  C   LIG d   1       3.774  -1.510  -8.605  0.00  0.00    -0.032 C 
ATOM     11  H   LIG d   1       3.777  -2.451  -8.053  0.00  0.00     0.031 H 
ATOM     12  C   LIG d   1       5.215  -1.079  -8.884  0.00  0.00    -0.034 C 
ATOM     13  H   LIG d   1       5.171  -0.318  -9.689  0.00  0.00     0.031 H 
ATOM     14  C   LIG d   1       6.027  -2.248  -9.427  0.00  0.00    -0.049 C 
ATOM     15  C   LIG d   1       5.212  -2.966 -10.515  0.00  0.00    -0.049 C 
ATOM     16  C   LIG d   1       4.128  -2.018 -11.009  0.00  0.00    -0.035 C 
ATOM     17  H   LIG d   1       4.603  -1.046 -11.214  0.00  0.00     0.031 H 
ATOM     18  C   LIG d   1       3.069  -1.802  -9.926  0.00  0.00    -0.026 C 
ATOM     19  C   LIG d   1       2.141  -0.677 -10.366  0.00  0.00    -0.047 C 
ATOM     20  C   LIG d   1       1.465  -1.058 -11.687  0.00  0.00    -0.052 C 
ATOM     21  C   LIG d   1       2.492  -1.386 -12.765  0.00  0.00    -0.053 C 
ATOM     22  C   LIG d   1       3.471  -2.471 -12.303  0.00  0.00    -0.050 C 
ATOM     23  H   LIG d   1       7.915  -1.029  -5.285  0.00  0.00     0.027 H 
ATOM     24  H   LIG d   1       7.999   0.663  -5.852  0.00  0.00     0.027 H 
ATOM     25  H   LIG d   1       7.473  -1.811  -7.434  0.00  0.00     0.027 H 
ATOM     26  H   LIG d   1       7.953  -0.187  -8.004  0.00  0.00     0.027 H 
ATOM     27  H   LIG d   1       3.072  -0.911  -5.681  0.00  0.00     0.027 H 
ATOM     28  H   LIG d   1       3.600   0.737  -6.068  0.00  0.00     0.027 H 
ATOM     29  H   LIG d   1       3.118   0.517  -8.306  0.00  0.00     0.027 H 
ATOM     30  H   LIG d   1       1.996  -0.714  -7.698  0.00  0.00     0.027 H 
ATOM     31  H   LIG d   1       6.955  -1.879  -9.862  0.00  0.00     0.027 H 
ATOM     32  H   LIG d   1       6.252  -2.952  -8.628  0.00  0.00     0.027 H 
ATOM     33  H   LIG d   1       5.877  -3.219 -11.346  0.00  0.00     0.027 H 
ATOM     34  H   LIG d   1       4.781  -3.876 -10.111  0.00  0.00     0.027 H 
ATOM     35  H   LIG d   1       1.376  -0.513  -9.603  0.00  0.00     0.027 H 
ATOM     36  H   LIG d   1       2.714   0.243 -10.498  0.00  0.00     0.027 H 
ATOM     37  H   LIG d   1       0.791  -1.899 -11.548  0.00  0.00     0.026 H 
ATOM     38  H   LIG d   1       0.865  -0.204 -12.029  0.00  0.00     0.026 H 
ATOM     39  H   LIG d   1       3.053  -0.483 -13.017  0.00  0.00     0.026 H 
ATOM     40  H   LIG d   1       1.973  -1.734 -13.661  0.00  0.00     0.026 H 
ATOM     41  H   LIG d   1       4.247  -2.595 -13.070  0.00  0.00     0.027 H 
ATOM     42  H   LIG d   1       2.958  -3.419 -12.184  0.00  0.00     0.027 H 
ENDROOT
BRANCH   1  43
ATOM     43  C   LIG d   1       5.814  -0.613  -3.966  0.00  0.00    -0.040 C 
ATOM     44  H   LIG d   1       5.194  -1.506  -4.030  0.00  0.00     0.030 H 
BRANCH  43  45
ATOM     45  C   LIG d   1       7.184  -0.984  -3.395  0.00  0.00    -0.062 C 
ATOM     46  H   LIG d   1       7.295  -0.544  -2.403  0.00  0.00     0.023 H 
ATOM     47  H   LIG d   1       7.266  -2.068  -3.322  0.00  0.00     0.023 H 
ATOM     48  H   LIG d   1       7.967  -0.604  -4.052  0.00  0.00     0.023 H 
ENDBRANCH  43  45
BRANCH  43  49
ATOM     49  C   LIG d   1       5.140   0.411  -3.051  0.00  0.00    -0.045 C 
ATOM     50  H   LIG d   1       5.899   1.056  -2.606  0.00  0.00     0.027 H 
ATOM     51  H   LIG d   1       4.445   1.017  -3.632  0.00  0.00     0.027 H 
BRANCH  49  52
ATOM     52  C   LIG d   1       4.378  -0.319  -1.943  0.00  0.00    -0.013 C 
ATOM     53  H   LIG d   1       5.083  -0.871  -1.320  0.00  0.00     0.033 H 
ATOM     54  H   LIG d   1       3.844   0.406  -1.330  0.00  0.00     0.033 H 
BRANCH  52  55
ATOM     55  C   LIG d   1       3.394  -1.279  -2.559  0.00  0.00     0.042 C 
ATOM     56  O   LIG d   1       2.423  -0.858  -3.142  0.00  0.00    -0.550 OA
ATOM     57  O   LIG d   1       3.594  -2.603  -2.460  0.00  0.00    -0.550 OA
ENDBRANCH  52  55
ENDBRANCH  49  52
ENDBRANCH  43  49
ENDBRANCH   1  43
BRANCH   7  58
ATOM     58  C   LIG d   1       5.198  -2.254  -6.029  0.00  0.00    -0.059 C 
ATOM     59  H   LIG d   1       4.200  -2.664  -5.882  0.00  0.00     0.024 H 
ATOM     60  H   LIG d   1       5.691  -2.781  -6.846  0.00  0.00     0.024 H 
ATOM     61  H   LIG d   1       5.780  -2.377  -5.115  0.00  0.00     0.024 H 
ENDBRANCH   7  58
BRANCH  18  62
ATOM     62  C   LIG d   1       2.250  -3.081  -9.728  0.00  0.00    -0.059 C 
ATOM     63  H   LIG d   1       2.001  -3.507 -10.700  0.00  0.00     0.024 H 
ATOM     64  H   LIG d   1       2.833  -3.800  -9.153  0.00  0.00     0.024 H 
ATOM     65  H   LIG d   1       1.332  -2.845  -9.189  0.00  0.00     0.024 H 
ENDBRANCH  18  62
TORSDOF 7
ENDMDL
MODEL 5
REMARK VINA RESULT:      -5.8      5.139      8.442
REMARK  7 active torsions:
REMARK  status: ('A' for Active; 'I' for Inactive)
REMARK    1  A    between atoms: C_1  and  C_2 
REMARK    2  A    between atoms: C_2  and  C_4 
REMARK    3  A    between atoms: C_2  and  C_8 
REMARK    4  A    between atoms: C_4  and  C_5 
REMARK    5  A    between atoms: C_5  and  C_6 
REMARK    6  A    between atoms: C_14  and  C_31 
REMARK    7  A    between atoms: C_25  and  C_30 
ROOT
ATOM      1  C   LIG d   1       5.746  -9.448  -3.848  0.00  0.00    -0.033 C 
ATOM      2  H   LIG d   1       5.430  -8.423  -3.692  0.00  0.00     0.031 H 
ATOM      3  C   LIG d   1       4.899 -10.426  -2.997  0.00  0.00    -0.049 C 
ATOM      4  C   LIG d   1       5.766 -10.796  -1.761  0.00  0.00    -0.049 C 
ATOM      5  C   LIG d   1       6.891  -9.750  -1.797  0.00  0.00    -0.032 C 
ATOM      6  H   LIG d   1       6.456  -8.785  -1.454  0.00  0.00     0.031 H 
ATOM      7  C   LIG d   1       7.181  -9.643  -3.307  0.00  0.00    -0.026 C 
ATOM      8  C   LIG d   1       8.117  -8.501  -3.608  0.00  0.00    -0.047 C 
ATOM      9  C   LIG d   1       9.158  -8.331  -2.493  0.00  0.00    -0.049 C 
ATOM     10  C   LIG d   1       9.381  -9.634  -1.741  0.00  0.00    -0.032 C 
ATOM     11  H   LIG d   1       9.643 -10.422  -2.448  0.00  0.00     0.031 H 
ATOM     12  C   LIG d   1       8.115 -10.033  -0.981  0.00  0.00    -0.034 C 
ATOM     13  H   LIG d   1       8.062  -9.381  -0.085  0.00  0.00     0.031 H 
ATOM     14  C   LIG d   1       8.220 -11.466  -0.479  0.00  0.00    -0.049 C 
ATOM     15  C   LIG d   1       9.602 -11.674   0.163  0.00  0.00    -0.049 C 
ATOM     16  C   LIG d   1      10.183 -10.311   0.509  0.00  0.00    -0.035 C 
ATOM     17  H   LIG d   1       9.402  -9.738   1.034  0.00  0.00     0.031 H 
ATOM     18  C   LIG d   1      10.550  -9.544  -0.764  0.00  0.00    -0.026 C 
ATOM     19  C   LIG d   1      10.900  -8.110  -0.388  0.00  0.00    -0.047 C 
ATOM     20  C   LIG d   1      12.088  -8.111   0.580  0.00  0.00    -0.052 C 
ATOM     21  C   LIG d   1      11.801  -8.955   1.816  0.00  0.00    -0.053 C 
ATOM     22  C   LIG d   1      11.382 -10.381   1.442  0.00  0.00    -0.050 C 
ATOM     23  H   LIG d   1       4.670 -11.322  -3.572  0.00  0.00     0.027 H 
ATOM     24  H   LIG d   1       3.978  -9.941  -2.674  0.00  0.00     0.027 H 
ATOM     25  H   LIG d   1       6.154 -11.806  -1.844  0.00  0.00     0.027 H 
ATOM     26  H   LIG d   1       5.180 -10.692  -0.844  0.00  0.00     0.027 H 
ATOM     27  H   LIG d   1       8.632  -8.685  -4.559  0.00  0.00     0.027 H 
ATOM     28  H   LIG d   1       7.544  -7.571  -3.712  0.00  0.00     0.027 H 
ATOM     29  H   LIG d   1       8.818  -7.559  -1.797  0.00  0.00     0.027 H 
ATOM     30  H   LIG d   1      10.103  -8.000  -2.936  0.00  0.00     0.027 H 
ATOM     31  H   LIG d   1       7.450 -11.651   0.269  0.00  0.00     0.027 H 
ATOM     32  H   LIG d   1       8.104 -12.164  -1.305  0.00  0.00     0.027 H 
ATOM     33  H   LIG d   1       9.482 -12.259   1.079  0.00  0.00     0.027 H 
ATOM     34  H   LIG d   1      10.249 -12.212  -0.523  0.00  0.00     0.027 H 
ATOM     35  H   LIG d   1      11.167  -7.549  -1.288  0.00  0.00     0.027 H 
ATOM     36  H   LIG d   1      10.040  -7.632   0.086  0.00  0.00     0.027 H 
ATOM     37  H   LIG d   1      12.988  -8.467   0.087  0.00  0.00     0.026 H 
ATOM     38  H   LIG d   1      12.274  -7.077   0.902  0.00  0.00     0.026 H 
ATOM     39  H   LIG d   1      11.001  -8.488   2.394  0.00  0.00     0.026 H 
ATOM     40  H   LIG d   1      12.699  -9.000   2.436  0.00  0.00     0.026 H 
ATOM     41  H   LIG d   1      11.088 -10.913   2.357  0.00  0.00     0.027 H 
ATOM     42  H   LIG d   1      12.211 -10.915   0.992  0.00  0.00     0.027 H 
ENDROOT
BRANCH   1  43
ATOM     43  C   LIG d   1       5.691  -9.833  -5.323  0.00  0.00    -0.040 C 
ATOM     44  H   LIG d   1       6.603 -10.364  -5.594  0.00  0.00     0.030 H 
BRANCH  43  45
ATOM     45  C   LIG d   1       4.481 -10.736  -5.570  0.00  0.00    -0.062 C 
ATOM     46  H   LIG d   1       3.776 -10.226  -6.227  0.00  0.00     0.023 H 
ATOM     47  H   LIG d   1       4.810 -11.663  -6.040  0.00  0.00     0.023 H 
ATOM     48  H   LIG d   1       3.996 -10.961  -4.620  0.00  0.00     0.023 H 
ENDBRANCH  43  45
BRANCH  43  49
ATOM     49  C   LIG d   1       5.566  -8.568  -6.175  0.00  0.00    -0.045 C 
ATOM     50  H   LIG d   1       6.554  -8.263  -6.520  0.00  0.00     0.027 H 
ATOM     51  H   LIG d   1       4.928  -8.769  -7.035  0.00  0.00     0.027 H 
BRANCH  49  52
ATOM     52  C   LIG d   1       4.951  -7.447  -5.335  0.00  0.00    -0.013 C 
ATOM     53  H   LIG d   1       4.025  -7.799  -4.881  0.00  0.00     0.033 H 
ATOM     54  H   LIG d   1       5.650  -7.153  -4.552  0.00  0.00     0.033 H 
BRANCH  52  55
ATOM     55  C   LIG d   1       4.658  -6.261  -6.218  0.00  0.00     0.042 C 
ATOM     56  O   LIG d   1       5.426  -5.961  -7.102  0.00  0.00    -0.550 OA
ATOM     57  O   LIG d   1       3.546  -5.536  -6.022  0.00  0.00    -0.550 OA
ENDBRANCH  52  55
ENDBRANCH  49  52
ENDBRANCH  43  49
ENDBRANCH   1  43
BRANCH   7  58
ATOM     58  C   LIG d   1       7.701 -10.953  -3.899  0.00  0.00    -0.059 C 
ATOM     59  H   LIG d   1       7.048 -11.271  -4.710  0.00  0.00     0.024 H 
ATOM     60  H   LIG d   1       8.710 -10.803  -4.283  0.00  0.00     0.024 H 
ATOM     61  H   LIG d   1       7.719 -11.720  -3.124  0.00  0.00     0.024 H 
ENDBRANCH   7  58
BRANCH  18  62
ATOM     62  C   LIG d   1      11.758 -10.196  -1.443  0.00  0.00    -0.059 C 
ATOM     63  H   LIG d   1      12.475  -9.425  -1.724  0.00  0.00     0.024 H 
ATOM     64  H   LIG d   1      12.228 -10.896  -0.753  0.00  0.00     0.024 H 
ATOM     65  H   LIG d   1      11.429 -10.729  -2.335  0.00  0.00     0.024 H 
ENDBRANCH  18  62
TORSDOF 7
ENDMDL
MODEL 6
REMARK VINA RESULT:      -5.7      4.684      6.584
REMARK  7 active torsions:
REMARK  status: ('A' for Active; 'I' for Inactive)
REMARK    1  A    between atoms: C_1  and  C_2 
REMARK    2  A    between atoms: C_2  and  C_4 
REMARK    3  A    between atoms: C_2  and  C_8 
REMARK    4  A    between atoms: C_4  and  C_5 
REMARK    5  A    between atoms: C_5  and  C_6 
REMARK    6  A    between atoms: C_14  and  C_31 
REMARK    7  A    between atoms: C_25  and  C_30 
ROOT
ATOM      1  C   LIG d   1       4.365  -0.384 -10.265  0.00  0.00    -0.033 C 
ATOM      2  H   LIG d   1       5.276   0.171 -10.458  0.00  0.00     0.031 H 
ATOM      3  C   LIG d   1       3.118   0.517 -10.447  0.00  0.00    -0.049 C 
ATOM      4  C   LIG d   1       2.663   0.929  -9.018  0.00  0.00    -0.049 C 
ATOM      5  C   LIG d   1       3.864   0.539  -8.143  0.00  0.00    -0.032 C 
ATOM      6  H   LIG d   1       4.662   1.293  -8.323  0.00  0.00     0.031 H 
ATOM      7  C   LIG d   1       4.304  -0.795  -8.777  0.00  0.00    -0.026 C 
ATOM      8  C   LIG d   1       5.618  -1.267  -8.210  0.00  0.00    -0.047 C 
ATOM      9  C   LIG d   1       5.737  -0.913  -6.722  0.00  0.00    -0.049 C 
ATOM     10  C   LIG d   1       4.367  -0.763  -6.077  0.00  0.00    -0.032 C 
ATOM     11  H   LIG d   1       3.782  -1.667  -6.252  0.00  0.00     0.031 H 
ATOM     12  C   LIG d   1       3.632   0.441  -6.667  0.00  0.00    -0.034 C 
ATOM     13  H   LIG d   1       4.082   1.345  -6.209  0.00  0.00     0.031 H 
ATOM     14  C   LIG d   1       2.165   0.425  -6.259  0.00  0.00    -0.049 C 
ATOM     15  C   LIG d   1       2.063   0.120  -4.755  0.00  0.00    -0.049 C 
ATOM     16  C   LIG d   1       3.411   0.413  -4.112  0.00  0.00    -0.035 C 
ATOM     17  H   LIG d   1       3.739   1.405  -4.462  0.00  0.00     0.031 H 
ATOM     18  C   LIG d   1       4.456  -0.609  -4.561  0.00  0.00    -0.026 C 
ATOM     19  C   LIG d   1       5.829  -0.147  -4.091  0.00  0.00    -0.047 C 
ATOM     20  C   LIG d   1       5.834  -0.034  -2.563  0.00  0.00    -0.052 C 
ATOM     21  C   LIG d   1       4.734   0.897  -2.068  0.00  0.00    -0.053 C 
ATOM     22  C   LIG d   1       3.357   0.475  -2.593  0.00  0.00    -0.050 C 
ATOM     23  H   LIG d   1       2.323  -0.038 -10.945  0.00  0.00     0.027 H 
ATOM     24  H   LIG d   1       3.377   1.403 -11.025  0.00  0.00     0.027 H 
ATOM     25  H   LIG d   1       1.763   0.396  -8.726  0.00  0.00     0.027 H 
ATOM     26  H   LIG d   1       2.493   2.008  -8.972  0.00  0.00     0.027 H 
ATOM     27  H   LIG d   1       5.705  -2.354  -8.332  0.00  0.00     0.027 H 
ATOM     28  H   LIG d   1       6.446  -0.801  -8.760  0.00  0.00     0.027 H 
ATOM     29  H   LIG d   1       6.296   0.021  -6.616  0.00  0.00     0.027 H 
ATOM     30  H   LIG d   1       6.295  -1.705  -6.211  0.00  0.00     0.027 H 
ATOM     31  H   LIG d   1       1.718   1.399  -6.455  0.00  0.00     0.027 H 
ATOM     32  H   LIG d   1       1.629  -0.343  -6.814  0.00  0.00     0.027 H 
ATOM     33  H   LIG d   1       1.302   0.769  -4.313  0.00  0.00     0.027 H 
ATOM     34  H   LIG d   1       1.778  -0.918  -4.609  0.00  0.00     0.027 H 
ATOM     35  H   LIG d   1       6.587  -0.870  -4.403  0.00  0.00     0.027 H 
ATOM     36  H   LIG d   1       6.062   0.825  -4.533  0.00  0.00     0.027 H 
ATOM     37  H   LIG d   1       5.729  -1.012  -2.103  0.00  0.00     0.026 H 
ATOM     38  H   LIG d   1       6.803   0.378  -2.249  0.00  0.00     0.026 H 
ATOM     39  H   LIG d   1       4.946   1.916  -2.400  0.00  0.00     0.026 H 
ATOM     40  H   LIG d   1       4.717   0.883  -0.975  0.00  0.00     0.026 H 
ATOM     41  H   LIG d   1       2.619   1.233  -2.295  0.00  0.00     0.027 H 
ATOM     42  H   LIG d   1       3.061  -0.474  -2.162  0.00  0.00     0.027 H 
ENDROOT
BRANCH   1  43
ATOM     43  C   LIG d   1       4.266  -1.622 -11.151  0.00  0.00    -0.040 C 
ATOM     44  H   LIG d   1       3.941  -2.472 -10.551  0.00  0.00     0.030 H 
BRANCH  43  45
ATOM     45  C   LIG d   1       3.254  -1.371 -12.270  0.00  0.00    -0.062 C 
ATOM     46  H   LIG d   1       2.967  -2.322 -12.720  0.00  0.00     0.023 H 
ATOM     47  H   LIG d   1       2.371  -0.883 -11.857  0.00  0.00     0.023 H 
ATOM     48  H   LIG d   1       3.703  -0.729 -13.028  0.00  0.00     0.023 H 
ENDBRANCH  43  45
BRANCH  43  49
ATOM     49  C   LIG d   1       5.637  -1.923 -11.761  0.00  0.00    -0.045 C 
ATOM     50  H   LIG d   1       6.147  -2.673 -11.155  0.00  0.00     0.027 H 
ATOM     51  H   LIG d   1       5.509  -2.302 -12.775  0.00  0.00     0.027 H 
BRANCH  49  52
ATOM     52  C   LIG d   1       6.471  -0.641 -11.796  0.00  0.00    -0.013 C 
ATOM     53  H   LIG d   1       6.450  -0.222 -12.802  0.00  0.00     0.033 H 
ATOM     54  H   LIG d   1       6.058   0.082 -11.093  0.00  0.00     0.033 H 
BRANCH  52  55
ATOM     55  C   LIG d   1       7.894  -0.957 -11.414  0.00  0.00     0.042 C 
ATOM     56  O   LIG d   1       8.799  -0.284 -11.846  0.00  0.00    -0.550 OA
ATOM     57  O   LIG d   1       8.157  -1.988 -10.594  0.00  0.00    -0.550 OA
ENDBRANCH  52  55
ENDBRANCH  49  52
ENDBRANCH  43  49
ENDBRANCH   1  43
BRANCH   7  58
ATOM     58  C   LIG d   1       3.233  -1.881  -8.662  0.00  0.00    -0.059 C 
ATOM     59  H   LIG d   1       3.703  -2.833  -8.421  0.00  0.00     0.024 H 
ATOM     60  H   LIG d   1       2.528  -1.614  -7.875  0.00  0.00     0.024 H 
ATOM     61  H   LIG d   1       2.701  -1.968  -9.611  0.00  0.00     0.024 H 
ENDBRANCH   7  58
BRANCH  18  62
ATOM     62  C   LIG d   1       4.150  -1.980  -3.950  0.00  0.00    -0.059 C 
ATOM     63  H   LIG d   1       4.854  -2.716  -4.339  0.00  0.00     0.024 H 
ATOM     64  H   LIG d   1       4.246  -1.923  -2.866  0.00  0.00     0.024 H 
ATOM     65  H   LIG d   1       3.134  -2.275  -4.210  0.00  0.00     0.024 H 
ENDBRANCH  18  62
TORSDOF 7
ENDMDL
MODEL 7
REMARK VINA RESULT:      -5.5     10.556     14.772
REMARK  7 active torsions:
REMARK  status: ('A' for Active; 'I' for Inactive)
REMARK    1  A    between atoms: C_1  and  C_2 
REMARK    2  A    between atoms: C_2  and  C_4 
REMARK    3  A    between atoms: C_2  and  C_8 
REMARK    4  A    between atoms: C_4  and  C_5 
REMARK    5  A    between atoms: C_5  and  C_6 
REMARK    6  A    between atoms: C_14  and  C_31 
REMARK    7  A    between atoms: C_25  and  C_30 
ROOT
ATOM      1  C   LIG d   1      10.569   9.176   0.615  0.00  0.00    -0.033 C 
ATOM      2  H   LIG d   1       9.867   8.758   1.328  0.00  0.00     0.031 H 
ATOM      3  C   LIG d   1       9.907  10.298  -0.222  0.00  0.00    -0.049 C 
ATOM      4  C   LIG d   1       9.546   9.666  -1.596  0.00  0.00    -0.049 C 
ATOM      5  C   LIG d   1       9.695   8.159  -1.337  0.00  0.00    -0.032 C 
ATOM      6  H   LIG d   1       8.817   7.839  -0.733  0.00  0.00     0.031 H 
ATOM      7  C   LIG d   1      10.947   8.109  -0.438  0.00  0.00    -0.026 C 
ATOM      8  C   LIG d   1      11.164   6.730   0.127  0.00  0.00    -0.047 C 
ATOM      9  C   LIG d   1      10.757   5.648  -0.882  0.00  0.00    -0.049 C 
ATOM     10  C   LIG d   1      10.835   6.166  -2.310  0.00  0.00    -0.032 C 
ATOM     11  H   LIG d   1      11.832   6.567  -2.498  0.00  0.00     0.031 H 
ATOM     12  C   LIG d   1       9.795   7.265  -2.534  0.00  0.00    -0.034 C 
ATOM     13  H   LIG d   1       8.814   6.759  -2.641  0.00  0.00     0.031 H 
ATOM     14  C   LIG d   1      10.059   7.994  -3.845  0.00  0.00    -0.049 C 
ATOM     15  C   LIG d   1      10.339   6.960  -4.948  0.00  0.00    -0.049 C 
ATOM     16  C   LIG d   1       9.796   5.613  -4.496  0.00  0.00    -0.035 C 
ATOM     17  H   LIG d   1       8.771   5.774  -4.125  0.00  0.00     0.031 H 
ATOM     18  C   LIG d   1      10.629   5.058  -3.339  0.00  0.00    -0.026 C 
ATOM     19  C   LIG d   1       9.920   3.839  -2.764  0.00  0.00    -0.047 C 
ATOM     20  C   LIG d   1       9.768   2.774  -3.855  0.00  0.00    -0.052 C 
ATOM     21  C   LIG d   1       9.034   3.322  -5.073  0.00  0.00    -0.053 C 
ATOM     22  C   LIG d   1       9.705   4.588  -5.616  0.00  0.00    -0.050 C 
ATOM     23  H   LIG d   1      10.606  11.122  -0.364  0.00  0.00     0.027 H 
ATOM     24  H   LIG d   1       9.004  10.653   0.273  0.00  0.00     0.027 H 
ATOM     25  H   LIG d   1      10.221  10.009  -2.373  0.00  0.00     0.027 H 
ATOM     26  H   LIG d   1       8.513   9.905  -1.862  0.00  0.00     0.027 H 
ATOM     27  H   LIG d   1      12.221   6.601   0.390  0.00  0.00     0.027 H 
ATOM     28  H   LIG d   1      10.573   6.609   1.044  0.00  0.00     0.027 H 
ATOM     29  H   LIG d   1       9.737   5.319  -0.667  0.00  0.00     0.027 H 
ATOM     30  H   LIG d   1      11.425   4.788  -0.770  0.00  0.00     0.027 H 
ATOM     31  H   LIG d   1       9.184   8.581  -4.121  0.00  0.00     0.027 H 
ATOM     32  H   LIG d   1      10.923   8.648  -3.743  0.00  0.00     0.027 H 
ATOM     33  H   LIG d   1       9.824   7.270  -5.862  0.00  0.00     0.027 H 
ATOM     34  H   LIG d   1      11.406   6.907  -5.140  0.00  0.00     0.027 H 
ATOM     35  H   LIG d   1      10.505   3.429  -1.937  0.00  0.00     0.027 H 
ATOM     36  H   LIG d   1       8.934   4.127  -2.392  0.00  0.00     0.027 H 
ATOM     37  H   LIG d   1      10.738   2.382  -4.150  0.00  0.00     0.026 H 
ATOM     38  H   LIG d   1       9.184   1.938  -3.446  0.00  0.00     0.026 H 
ATOM     39  H   LIG d   1       8.003   3.554  -4.799  0.00  0.00     0.026 H 
ATOM     40  H   LIG d   1       9.023   2.561  -5.857  0.00  0.00     0.026 H 
ATOM     41  H   LIG d   1       9.083   4.999  -6.422  0.00  0.00     0.027 H 
ATOM     42  H   LIG d   1      10.681   4.354  -6.026  0.00  0.00     0.027 H 
ENDROOT
BRANCH   1  43
ATOM     43  C   LIG d   1      11.828   9.692   1.306  0.00  0.00    -0.040 C 
ATOM     44  H   LIG d   1      12.696   9.482   0.682  0.00  0.00     0.030 H 
BRANCH  43  45
ATOM     45  C   LIG d   1      11.708  11.201   1.524  0.00  0.00    -0.062 C 
ATOM     46  H   LIG d   1      11.894  11.432   2.573  0.00  0.00     0.023 H 
ATOM     47  H   LIG d   1      12.441  11.717   0.903  0.00  0.00     0.023 H 
ATOM     48  H   LIG d   1      10.705  11.529   1.251  0.00  0.00     0.023 H 
ENDBRANCH  43  45
BRANCH  43  49
ATOM     49  C   LIG d   1      11.990   8.992   2.657  0.00  0.00    -0.045 C 
ATOM     50  H   LIG d   1      11.036   8.560   2.960  0.00  0.00     0.027 H 
ATOM     51  H   LIG d   1      12.735   8.201   2.570  0.00  0.00     0.027 H 
BRANCH  49  52
ATOM     52  C   LIG d   1      12.445  10.009   3.705  0.00  0.00    -0.013 C 
ATOM     53  H   LIG d   1      13.424  10.403   3.429  0.00  0.00     0.033 H 
ATOM     54  H   LIG d   1      11.726  10.827   3.756  0.00  0.00     0.033 H 
BRANCH  52  55
ATOM     55  C   LIG d   1      12.536   9.337   5.051  0.00  0.00     0.042 C 
ATOM     56  O   LIG d   1      11.769   9.643   5.932  0.00  0.00    -0.550 OA
ATOM     57  O   LIG d   1      13.471   8.398   5.271  0.00  0.00    -0.550 OA
ENDBRANCH  52  55
ENDBRANCH  49  52
ENDBRANCH  43  49
ENDBRANCH   1  43
BRANCH   7  58
ATOM     58  C   LIG d   1      12.201   8.618  -1.151  0.00  0.00    -0.059 C 
ATOM     59  H   LIG d   1      12.806   7.771  -1.471  0.00  0.00     0.024 H 
ATOM     60  H   LIG d   1      11.910   9.207  -2.021  0.00  0.00     0.024 H 
ATOM     61  H   LIG d   1      12.779   9.241  -0.468  0.00  0.00     0.024 H 
ENDBRANCH   7  58
BRANCH  18  62
ATOM     62  C   LIG d   1      12.016   4.643  -3.839  0.00  0.00    -0.059 C 
ATOM     63  H   LIG d   1      12.447   5.454  -4.428  0.00  0.00     0.024 H 
ATOM     64  H   LIG d   1      12.661   4.430  -2.987  0.00  0.00     0.024 H 
ATOM     65  H   LIG d   1      11.927   3.751  -4.460  0.00  0.00     0.024 H 
ENDBRANCH  18  62
TORSDOF 7
ENDMDL
MODEL 8
REMARK VINA RESULT:      -5.5      7.090      9.431
REMARK  7 active torsions:
REMARK  status: ('A' for Active; 'I' for Inactive)
REMARK    1  A    between atoms: C_1  and  C_2 
REMARK    2  A    between atoms: C_2  and  C_4 
REMARK    3  A    between atoms: C_2  and  C_8 
REMARK    4  A    between atoms: C_4  and  C_5 
REMARK    5  A    between atoms: C_5  and  C_6 
REMARK    6  A    between atoms: C_14  and  C_31 
REMARK    7  A    between atoms: C_25  and  C_30 
ROOT
ATOM      1  C   LIG d   1      10.997  -8.983  -0.005  0.00  0.00    -0.033 C 
ATOM      2  H   LIG d   1      10.496  -8.768   0.932  0.00  0.00     0.031 H 
ATOM      3  C   LIG d   1      11.369  -7.677  -0.749  0.00  0.00    -0.049 C 
ATOM      4  C   LIG d   1      10.297  -7.482  -1.858  0.00  0.00    -0.049 C 
ATOM      5  C   LIG d   1       9.197  -8.476  -1.459  0.00  0.00    -0.032 C 
ATOM      6  H   LIG d   1       8.661  -8.043  -0.585  0.00  0.00     0.031 H 
ATOM      7  C   LIG d   1      10.018  -9.687  -0.973  0.00  0.00    -0.026 C 
ATOM      8  C   LIG d   1       9.140 -10.723  -0.321  0.00  0.00    -0.047 C 
ATOM      9  C   LIG d   1       7.772 -10.802  -1.013  0.00  0.00    -0.049 C 
ATOM     10  C   LIG d   1       7.853 -10.325  -2.456  0.00  0.00    -0.032 C 
ATOM     11  H   LIG d   1       8.626 -10.886  -2.982  0.00  0.00     0.031 H 
ATOM     12  C   LIG d   1       8.185  -8.833  -2.503  0.00  0.00    -0.034 C 
ATOM     13  H   LIG d   1       7.252  -8.290  -2.247  0.00  0.00     0.031 H 
ATOM     14  C   LIG d   1       8.564  -8.414  -3.917  0.00  0.00    -0.049 C 
ATOM     15  C   LIG d   1       7.550  -9.011  -4.908  0.00  0.00    -0.049 C 
ATOM     16  C   LIG d   1       6.291  -9.387  -4.141  0.00  0.00    -0.035 C 
ATOM     17  H   LIG d   1       6.017  -8.529  -3.508  0.00  0.00     0.031 H 
ATOM     18  C   LIG d   1       6.558 -10.580  -3.221  0.00  0.00    -0.026 C 
ATOM     19  C   LIG d   1       5.355 -10.773  -2.307  0.00  0.00    -0.047 C 
ATOM     20  C   LIG d   1       4.106 -11.037  -3.154  0.00  0.00    -0.052 C 
ATOM     21  C   LIG d   1       3.866  -9.918  -4.160  0.00  0.00    -0.053 C 
ATOM     22  C   LIG d   1       5.097  -9.674  -5.039  0.00  0.00    -0.050 C 
ATOM     23  H   LIG d   1      12.358  -7.770  -1.199  0.00  0.00     0.027 H 
ATOM     24  H   LIG d   1      11.349  -6.834  -0.059  0.00  0.00     0.027 H 
ATOM     25  H   LIG d   1      10.705  -7.706  -2.839  0.00  0.00     0.027 H 
ATOM     26  H   LIG d   1       9.912  -6.459  -1.834  0.00  0.00     0.027 H 
ATOM     27  H   LIG d   1       9.627 -11.705  -0.369  0.00  0.00     0.027 H 
ATOM     28  H   LIG d   1       8.995 -10.472   0.737  0.00  0.00     0.027 H 
ATOM     29  H   LIG d   1       7.053 -10.188  -0.464  0.00  0.00     0.027 H 
ATOM     30  H   LIG d   1       7.422 -11.840  -0.992  0.00  0.00     0.027 H 
ATOM     31  H   LIG d   1       8.541  -7.327  -3.997  0.00  0.00     0.027 H 
ATOM     32  H   LIG d   1       9.559  -8.779  -4.164  0.00  0.00     0.027 H 
ATOM     33  H   LIG d   1       7.304  -8.256  -5.660  0.00  0.00     0.027 H 
ATOM     34  H   LIG d   1       7.984  -9.877  -5.399  0.00  0.00     0.027 H 
ATOM     35  H   LIG d   1       5.530 -11.624  -1.644  0.00  0.00     0.027 H 
ATOM     36  H   LIG d   1       5.205  -9.876  -1.701  0.00  0.00     0.027 H 
ATOM     37  H   LIG d   1       4.183 -11.990  -3.669  0.00  0.00     0.026 H 
ATOM     38  H   LIG d   1       3.237 -11.092  -2.483  0.00  0.00     0.026 H 
ATOM     39  H   LIG d   1       3.621  -8.997  -3.626  0.00  0.00     0.026 H 
ATOM     40  H   LIG d   1       3.021 -10.185  -4.799  0.00  0.00     0.026 H 
ATOM     41  H   LIG d   1       4.911  -8.796  -5.672  0.00  0.00     0.027 H 
ATOM     42  H   LIG d   1       5.277 -10.525  -5.686  0.00  0.00     0.027 H 
ENDROOT
BRANCH   1  43
ATOM     43  C   LIG d   1      12.232  -9.853   0.207  0.00  0.00    -0.040 C 
ATOM     44  H   LIG d   1      12.232 -10.667  -0.517  0.00  0.00     0.030 H 
BRANCH  43  45
ATOM     45  C   LIG d   1      13.492  -9.004   0.020  0.00  0.00    -0.062 C 
ATOM     46  H   LIG d   1      13.873  -8.701   0.995  0.00  0.00     0.023 H 
ATOM     47  H   LIG d   1      14.249  -9.589  -0.501  0.00  0.00     0.023 H 
ATOM     48  H   LIG d   1      13.249  -8.119  -0.568  0.00  0.00     0.023 H 
ENDBRANCH  43  45
BRANCH  43  49
ATOM     49  C   LIG d   1      12.212 -10.430   1.624  0.00  0.00    -0.045 C 
ATOM     50  H   LIG d   1      11.915 -11.478   1.584  0.00  0.00     0.027 H 
ATOM     51  H   LIG d   1      13.206 -10.351   2.064  0.00  0.00     0.027 H 
BRANCH  49  52
ATOM     52  C   LIG d   1      11.212  -9.649   2.478  0.00  0.00    -0.013 C 
ATOM     53  H   LIG d   1      10.821  -8.809   1.903  0.00  0.00     0.033 H 
ATOM     54  H   LIG d   1      10.390 -10.303   2.768  0.00  0.00     0.033 H 
BRANCH  52  55
ATOM     55  C   LIG d   1      11.903  -9.133   3.714  0.00  0.00     0.042 C 
ATOM     56  O   LIG d   1      11.720  -7.995   4.078  0.00  0.00    -0.550 OA
ATOM     57  O   LIG d   1      12.724  -9.936   4.410  0.00  0.00    -0.550 OA
ENDBRANCH  52  55
ENDBRANCH  49  52
ENDBRANCH  43  49
ENDBRANCH   1  43
BRANCH   7  58
ATOM     58  C   LIG d   1      10.867 -10.305  -2.086  0.00  0.00    -0.059 C 
ATOM     59  H   LIG d   1      11.914 -10.050  -1.929  0.00  0.00     0.024 H 
ATOM     60  H   LIG d   1      10.750 -11.388  -2.073  0.00  0.00     0.024 H 
ATOM     61  H   LIG d   1      10.539  -9.916  -3.051  0.00  0.00     0.024 H 
ENDBRANCH   7  58
BRANCH  18  62
ATOM     62  C   LIG d   1       6.767 -11.850  -4.051  0.00  0.00    -0.059 C 
ATOM     63  H   LIG d   1       5.939 -11.966  -4.751  0.00  0.00     0.024 H 
ATOM     64  H   LIG d   1       7.702 -11.773  -4.604  0.00  0.00     0.024 H 
ATOM     65  H   LIG d   1       6.807 -12.715  -3.389  0.00  0.00     0.024 H 
ENDBRANCH  18  62
TORSDOF 7
ENDMDL
MODEL 9
REMARK VINA RESULT:      -5.4      5.942      8.699
REMARK  7 active torsions:
REMARK  status: ('A' for Active; 'I' for Inactive)
REMARK    1  A    between atoms: C_1  and  C_2 
REMARK    2  A    between atoms: C_2  and  C_4 
REMARK    3  A    between atoms: C_2  and  C_8 
REMARK    4  A    between atoms: C_4  and  C_5 
REMARK    5  A    between atoms: C_5  and  C_6 
REMARK    6  A    between atoms: C_14  and  C_31 
REMARK    7  A    between atoms: C_25  and  C_30 
ROOT
ATOM      1  C   LIG d   1       9.135   2.831  -6.802  0.00  0.00    -0.033 C 
ATOM      2  H   LIG d   1       8.582   3.732  -6.563  0.00  0.00     0.031 H 
ATOM      3  C   LIG d   1       8.754   2.303  -8.208  0.00  0.00    -0.049 C 
ATOM      4  C   LIG d   1       7.765   1.125  -7.980  0.00  0.00    -0.049 C 
ATOM      5  C   LIG d   1       7.371   1.279  -6.504  0.00  0.00    -0.032 C 
ATOM      6  H   LIG d   1       6.672   2.142  -6.437  0.00  0.00     0.031 H 
ATOM      7  C   LIG d   1       8.709   1.686  -5.854  0.00  0.00    -0.026 C 
ATOM      8  C   LIG d   1       8.519   2.107  -4.421  0.00  0.00    -0.047 C 
ATOM      9  C   LIG d   1       7.423   1.276  -3.740  0.00  0.00    -0.049 C 
ATOM     10  C   LIG d   1       7.257  -0.078  -4.415  0.00  0.00    -0.032 C 
ATOM     11  H   LIG d   1       8.220  -0.590  -4.445  0.00  0.00     0.031 H 
ATOM     12  C   LIG d   1       6.730   0.100  -5.839  0.00  0.00    -0.034 C 
ATOM     13  H   LIG d   1       5.648   0.328  -5.753  0.00  0.00     0.031 H 
ATOM     14  C   LIG d   1       6.845  -1.203  -6.619  0.00  0.00    -0.049 C 
ATOM     15  C   LIG d   1       6.332  -2.360  -5.746  0.00  0.00    -0.049 C 
ATOM     16  C   LIG d   1       5.464  -1.779  -4.639  0.00  0.00    -0.035 C 
ATOM     17  H   LIG d   1       4.758  -1.072  -5.104  0.00  0.00     0.031 H 
ATOM     18  C   LIG d   1       6.318  -0.997  -3.639  0.00  0.00    -0.026 C 
ATOM     19  C   LIG d   1       5.396  -0.242  -2.691  0.00  0.00    -0.047 C 
ATOM     20  C   LIG d   1       4.502  -1.238  -1.945  0.00  0.00    -0.052 C 
ATOM     21  C   LIG d   1       3.711  -2.112  -2.912  0.00  0.00    -0.053 C 
ATOM     22  C   LIG d   1       4.630  -2.823  -3.912  0.00  0.00    -0.050 C 
ATOM     23  H   LIG d   1       9.643   1.947  -8.728  0.00  0.00     0.027 H 
ATOM     24  H   LIG d   1       8.270   3.089  -8.785  0.00  0.00     0.027 H 
ATOM     25  H   LIG d   1       8.245   0.170  -8.171  0.00  0.00     0.027 H 
ATOM     26  H   LIG d   1       6.888   1.240  -8.622  0.00  0.00     0.027 H 
ATOM     27  H   LIG d   1       9.461   1.984  -3.871  0.00  0.00     0.027 H 
ATOM     28  H   LIG d   1       8.245   3.169  -4.380  0.00  0.00     0.027 H 
ATOM     29  H   LIG d   1       6.478   1.824  -3.779  0.00  0.00     0.027 H 
ATOM     30  H   LIG d   1       7.690   1.128  -2.689  0.00  0.00     0.027 H 
ATOM     31  H   LIG d   1       6.239  -1.144  -7.523  0.00  0.00     0.027 H 
ATOM     32  H   LIG d   1       7.883  -1.391  -6.885  0.00  0.00     0.027 H 
ATOM     33  H   LIG d   1       5.729  -3.029  -6.365  0.00  0.00     0.027 H 
ATOM     34  H   LIG d   1       7.172  -2.910  -5.335  0.00  0.00     0.027 H 
ATOM     35  H   LIG d   1       5.993   0.321  -1.968  0.00  0.00     0.027 H 
ATOM     36  H   LIG d   1       4.775   0.456  -3.258  0.00  0.00     0.027 H 
ATOM     37  H   LIG d   1       5.091  -1.861  -1.278  0.00  0.00     0.026 H 
ATOM     38  H   LIG d   1       3.791  -0.672  -1.329  0.00  0.00     0.026 H 
ATOM     39  H   LIG d   1       2.999  -1.491  -3.460  0.00  0.00     0.026 H 
ATOM     40  H   LIG d   1       3.155  -2.862  -2.345  0.00  0.00     0.026 H 
ATOM     41  H   LIG d   1       4.008  -3.353  -4.646  0.00  0.00     0.027 H 
ATOM     42  H   LIG d   1       5.251  -3.552  -3.405  0.00  0.00     0.027 H 
ENDROOT
BRANCH   1  43
ATOM     43  C   LIG d   1      10.641   3.054  -6.702  0.00  0.00    -0.040 C 
ATOM     44  H   LIG d   1      11.102   2.200  -6.207  0.00  0.00     0.030 H 
BRANCH  43  45
ATOM     45  C   LIG d   1      11.229   3.210  -8.106  0.00  0.00    -0.062 C 
ATOM     46  H   LIG d   1      10.633   3.926  -8.671  0.00  0.00     0.023 H 
ATOM     47  H   LIG d   1      12.255   3.569  -8.032  0.00  0.00     0.023 H 
ATOM     48  H   LIG d   1      11.217   2.245  -8.613  0.00  0.00     0.023 H 
ENDBRANCH  43  45
BRANCH  43  49
ATOM     49  C   LIG d   1      10.915   4.322  -5.891  0.00  0.00    -0.045 C 
ATOM     50  H   LIG d   1      11.029   4.063  -4.838  0.00  0.00     0.027 H 
ATOM     51  H   LIG d   1      11.830   4.793  -6.249  0.00  0.00     0.027 H 
BRANCH  49  52
ATOM     52  C   LIG d   1       9.744   5.294  -6.053  0.00  0.00    -0.013 C 
ATOM     53  H   LIG d   1       9.422   5.304  -7.094  0.00  0.00     0.033 H 
ATOM     54  H   LIG d   1       8.916   4.974  -5.420  0.00  0.00     0.033 H 
BRANCH  52  55
ATOM     55  C   LIG d   1      10.180   6.678  -5.648  0.00  0.00     0.042 C 
ATOM     56  O   LIG d   1      11.352   6.916  -5.473  0.00  0.00    -0.550 OA
ATOM     57  O   LIG d   1       9.268   7.648  -5.480  0.00  0.00    -0.550 OA
ENDBRANCH  52  55
ENDBRANCH  49  52
ENDBRANCH  43  49
ENDBRANCH   1  43
BRANCH   7  58
ATOM     58  C   LIG d   1       9.774   0.596  -5.973  0.00  0.00    -0.059 C 
ATOM     59  H   LIG d   1       9.720  -0.063  -5.107  0.00  0.00     0.024 H 
ATOM     60  H   LIG d   1       9.602   0.017  -6.881  0.00  0.00     0.024 H 
ATOM     61  H   LIG d   1      10.762   1.056  -6.019  0.00  0.00     0.024 H 
ENDBRANCH   7  58
BRANCH  18  62
ATOM     62  C   LIG d   1       7.194  -1.958  -2.829  0.00  0.00    -0.059 C 
ATOM     63  H   LIG d   1       8.208  -1.948  -3.229  0.00  0.00     0.024 H 
ATOM     64  H   LIG d   1       7.211  -1.642  -1.787  0.00  0.00     0.024 H 
ATOM     65  H   LIG d   1       6.786  -2.966  -2.897  0.00  0.00     0.024 H 
ENDBRANCH  18  62
TORSDOF 7
ENDMDL
