MODEL 1
REMARK VINA RESULT:      -6.1      0.000      0.000
REMARK  8 active torsions:
REMARK  status: ('A' for Active; 'I' for Inactive)
REMARK    1  A    between atoms: C_1  and  C_2 
REMARK    2  A    between atoms: C_5  and  C_8 
REMARK    3  A    between atoms: C_8  and  C_10 
REMARK    4  A    between atoms: C_8  and  N_11 
REMARK       I    between atoms: N_11  and  C_12 
REMARK    5  A    between atoms: C_12  and  C_14 
REMARK    6  A    between atoms: C_16  and  N_24 
REMARK    7  A    between atoms: C_17  and  C_23 
REMARK    8  A    between atoms: C_18  and  N_20 
ROOT
ATOM      1  N   LIG d   1       4.067   0.885  -8.068  0.00  0.00    -0.305 N 
ATOM      2  C   LIG d   1       3.549   0.135  -7.075  0.00  0.00     0.245 C 
ATOM      3  O   LIG d   1       2.350  -0.058  -7.022  0.00  0.00    -0.270 OA
ATOM      4  H   LIG d   1       5.024   1.039  -8.111  0.00  0.00     0.150 HD
ENDROOT
BRANCH   1   5
ATOM      5  C   LIG d   1       3.185   1.468  -9.083  0.00  0.00     0.046 C 
ATOM      6  H   LIG d   1       2.175   1.547  -8.682  0.00  0.00     0.054 H 
BRANCH   5   7
ATOM      7  C   LIG d   1       3.174   0.587 -10.305  0.00  0.00    -0.028 A 
ATOM      8  C   LIG d   1       4.197   0.677 -11.231  0.00  0.00    -0.057 A 
ATOM      9  C   LIG d   1       4.190  -0.136 -12.349  0.00  0.00    -0.059 A 
ATOM     10  H   LIG d   1       5.004   1.379 -11.077  0.00  0.00     0.062 H 
ATOM     11  C   LIG d   1       3.158  -1.034 -12.544  0.00  0.00    -0.050 A 
ATOM     12  H   LIG d   1       4.991  -0.069 -13.070  0.00  0.00     0.062 H 
ATOM     13  C   LIG d   1       2.132  -1.120 -11.622  0.00  0.00    -0.059 A 
ATOM     14  C   LIG d   1       2.138  -0.307 -10.503  0.00  0.00    -0.057 A 
ATOM     15  H   LIG d   1       1.325  -1.821 -11.775  0.00  0.00     0.062 H 
ATOM     16  H   LIG d   1       1.338  -0.374  -9.783  0.00  0.00     0.062 H 
BRANCH  11  17
ATOM     17  C   LIG d   1       3.150  -1.919 -13.764  0.00  0.00    -0.040 C 
ATOM     18  H   LIG d   1       2.146  -1.940 -14.190  0.00  0.00     0.028 H 
ATOM     19  H   LIG d   1       3.849  -1.529 -14.501  0.00  0.00     0.028 H 
ATOM     20  H   LIG d   1       3.444  -2.930 -13.481  0.00  0.00     0.028 H 
ENDBRANCH  11  17
ENDBRANCH   5   7
BRANCH   5  21
ATOM     21  C   LIG d   1       3.695   2.861  -9.462  0.00  0.00    -0.042 C 
ATOM     22  H   LIG d   1       4.724   2.788  -9.812  0.00  0.00     0.025 H 
ATOM     23  H   LIG d   1       3.069   3.272 -10.255  0.00  0.00     0.025 H 
ATOM     24  H   LIG d   1       3.652   3.513  -8.589  0.00  0.00     0.025 H 
ENDBRANCH   5  21
ENDBRANCH   1   5
BRANCH   2  25
ATOM     25  C   LIG d   1       4.439  -0.453  -6.052  0.00  0.00     0.050 A 
ATOM     26  C   LIG d   1       5.784  -0.686  -6.345  0.00  0.00     0.028 A 
ATOM     27  C   LIG d   1       6.610  -1.235  -5.386  0.00  0.00     0.283 A 
ATOM     28  H   LIG d   1       6.177  -0.437  -7.320  0.00  0.00     0.069 H 
ATOM     29  C   LIG d   1       6.109  -1.554  -4.136  0.00  0.00     0.103 A 
ATOM     30  C   LIG d   1       4.777  -1.326  -3.841  0.00  0.00     0.283 A 
ATOM     31  C   LIG d   1       3.941  -0.773  -4.789  0.00  0.00     0.028 A 
ATOM     32  H   LIG d   1       2.902  -0.591  -4.554  0.00  0.00     0.069 H 
BRANCH  27  33
ATOM     33  N   LIG d   1       8.037  -1.482  -5.694  0.00  0.00     0.080 N 
ATOM     34  O   LIG d   1       8.378  -2.543  -6.185  0.00  0.00     0.042 OA
ATOM     35  O   LIG d   1       8.869  -0.626  -5.456  0.00  0.00    -0.576 OA
ENDBRANCH  27  33
BRANCH  29  36
ATOM     36  C   LIG d   1       7.018  -2.153  -3.094  0.00  0.00    -0.027 C 
ATOM     37  H   LIG d   1       6.723  -1.797  -2.107  0.00  0.00     0.028 H 
ATOM     38  H   LIG d   1       6.941  -3.239  -3.126  0.00  0.00     0.028 H 
ATOM     39  H   LIG d   1       8.047  -1.855  -3.295  0.00  0.00     0.028 H 
ENDBRANCH  29  36
BRANCH  30  40
ATOM     40  N   LIG d   1       4.249  -1.669  -2.501  0.00  0.00     0.080 N 
ATOM     41  O   LIG d   1       4.398  -0.896  -1.571  0.00  0.00     0.042 OA
ATOM     42  O   LIG d   1       3.666  -2.725  -2.329  0.00  0.00    -0.576 OA
ENDBRANCH  30  40
ENDBRANCH   2  25
TORSDOF 8
ENDMDL
MODEL 2
REMARK VINA RESULT:      -6.1      0.018      3.097
REMARK  8 active torsions:
REMARK  status: ('A' for Active; 'I' for Inactive)
REMARK    1  A    between atoms: C_1  and  C_2 
REMARK    2  A    between atoms: C_5  and  C_8 
REMARK    3  A    between atoms: C_8  and  C_10 
REMARK    4  A    between atoms: C_8  and  N_11 
REMARK       I    between atoms: N_11  and  C_12 
REMARK    5  A    between atoms: C_12  and  C_14 
REMARK    6  A    between atoms: C_16  and  N_24 
REMARK    7  A    between atoms: C_17  and  C_23 
REMARK    8  A    between atoms: C_18  and  N_20 
ROOT
ATOM      1  N   LIG d   1       4.074   0.872  -8.082  0.00  0.00    -0.305 N 
ATOM      2  C   LIG d   1       3.554   0.141  -7.076  0.00  0.00     0.245 C 
ATOM      3  O   LIG d   1       2.353  -0.033  -7.010  0.00  0.00    -0.270 OA
ATOM      4  H   LIG d   1       5.034   1.011  -8.135  0.00  0.00     0.150 HD
ENDROOT
BRANCH   1   5
ATOM      5  C   LIG d   1       3.192   1.458  -9.095  0.00  0.00     0.046 C 
ATOM      6  H   LIG d   1       2.183   1.539  -8.693  0.00  0.00     0.054 H 
BRANCH   5   7
ATOM      7  C   LIG d   1       3.178   0.578 -10.318  0.00  0.00    -0.028 A 
ATOM      8  C   LIG d   1       2.145  -0.320 -10.511  0.00  0.00    -0.057 A 
ATOM      9  C   LIG d   1       2.128  -1.123 -11.636  0.00  0.00    -0.059 A 
ATOM     10  H   LIG d   1       1.349  -0.391  -9.784  0.00  0.00     0.062 H 
ATOM     11  C   LIG d   1       3.148  -1.032 -12.565  0.00  0.00    -0.050 A 
ATOM     12  H   LIG d   1       1.320  -1.822 -11.788  0.00  0.00     0.062 H 
ATOM     13  C   LIG d   1       4.184  -0.138 -12.370  0.00  0.00    -0.059 A 
ATOM     14  C   LIG d   1       4.200   0.665 -11.244  0.00  0.00    -0.057 A 
ATOM     15  H   LIG d   1       4.980  -0.067 -13.096  0.00  0.00     0.062 H 
ATOM     16  H   LIG d   1       5.009   1.364 -11.092  0.00  0.00     0.062 H 
BRANCH  11  17
ATOM     17  C   LIG d   1       3.130  -1.907 -13.791  0.00  0.00    -0.040 C 
ATOM     18  H   LIG d   1       3.911  -1.583 -14.480  0.00  0.00     0.028 H 
ATOM     19  H   LIG d   1       3.309  -2.942 -13.502  0.00  0.00     0.028 H 
ATOM     20  H   LIG d   1       2.159  -1.828 -14.281  0.00  0.00     0.028 H 
ENDBRANCH  11  17
ENDBRANCH   5   7
BRANCH   5  21
ATOM     21  C   LIG d   1       3.704   2.850  -9.473  0.00  0.00    -0.042 C 
ATOM     22  H   LIG d   1       2.979   3.339 -10.123  0.00  0.00     0.025 H 
ATOM     23  H   LIG d   1       3.840   3.444  -8.569  0.00  0.00     0.025 H 
ATOM     24  H   LIG d   1       4.656   2.757  -9.995  0.00  0.00     0.025 H 
ENDBRANCH   5  21
ENDBRANCH   1   5
BRANCH   2  25
ATOM     25  C   LIG d   1       4.444  -0.450  -6.055  0.00  0.00     0.050 A 
ATOM     26  C   LIG d   1       3.946  -0.768  -4.790  0.00  0.00     0.028 A 
ATOM     27  C   LIG d   1       4.782  -1.320  -3.842  0.00  0.00     0.283 A 
ATOM     28  H   LIG d   1       2.908  -0.584  -4.555  0.00  0.00     0.069 H 
ATOM     29  C   LIG d   1       6.112  -1.558  -4.141  0.00  0.00     0.103 A 
ATOM     30  C   LIG d   1       6.612  -1.244  -5.392  0.00  0.00     0.283 A 
ATOM     31  C   LIG d   1       5.785  -0.697  -6.352  0.00  0.00     0.028 A 
ATOM     32  H   LIG d   1       6.177  -0.457  -7.330  0.00  0.00     0.069 H 
BRANCH  27  33
ATOM     33  N   LIG d   1       4.255  -1.659  -2.501  0.00  0.00     0.080 N 
ATOM     34  O   LIG d   1       3.666  -2.711  -2.326  0.00  0.00     0.042 OA
ATOM     35  O   LIG d   1       4.409  -0.886  -1.572  0.00  0.00    -0.576 OA
ENDBRANCH  27  33
BRANCH  29  36
ATOM     36  C   LIG d   1       7.019  -2.160  -3.099  0.00  0.00    -0.027 C 
ATOM     37  H   LIG d   1       6.746  -1.779  -2.115  0.00  0.00     0.028 H 
ATOM     38  H   LIG d   1       6.915  -3.245  -3.110  0.00  0.00     0.028 H 
ATOM     39  H   LIG d   1       8.053  -1.891  -3.319  0.00  0.00     0.028 H 
ENDBRANCH  29  36
BRANCH  30  40
ATOM     40  N   LIG d   1       8.036  -1.502  -5.704  0.00  0.00     0.080 N 
ATOM     41  O   LIG d   1       8.875  -0.652  -5.465  0.00  0.00     0.042 OA
ATOM     42  O   LIG d   1       8.368  -2.565  -6.198  0.00  0.00    -0.576 OA
ENDBRANCH  30  40
ENDBRANCH   2  25
TORSDOF 8
ENDMDL
MODEL 3
REMARK VINA RESULT:      -6.0      5.612      8.716
REMARK  8 active torsions:
REMARK  status: ('A' for Active; 'I' for Inactive)
REMARK    1  A    between atoms: C_1  and  C_2 
REMARK    2  A    between atoms: C_5  and  C_8 
REMARK    3  A    between atoms: C_8  and  C_10 
REMARK    4  A    between atoms: C_8  and  N_11 
REMARK       I    between atoms: N_11  and  C_12 
REMARK    5  A    between atoms: C_12  and  C_14 
REMARK    6  A    between atoms: C_16  and  N_24 
REMARK    7  A    between atoms: C_17  and  C_23 
REMARK    8  A    between atoms: C_18  and  N_20 
ROOT
ATOM      1  N   LIG d   1       8.903   3.366  -3.990  0.00  0.00    -0.305 N 
ATOM      2  C   LIG d   1       9.088   2.044  -4.177  0.00  0.00     0.245 C 
ATOM      3  O   LIG d   1      10.184   1.622  -4.490  0.00  0.00    -0.270 OA
ATOM      4  H   LIG d   1       8.028   3.703  -3.741  0.00  0.00     0.150 HD
ENDROOT
BRANCH   1   5
ATOM      5  C   LIG d   1      10.024   4.294  -4.163  0.00  0.00     0.046 C 
ATOM      6  H   LIG d   1      10.912   3.739  -4.462  0.00  0.00     0.054 H 
BRANCH   5   7
ATOM      7  C   LIG d   1      10.291   5.007  -2.862  0.00  0.00    -0.028 A 
ATOM      8  C   LIG d   1      11.188   4.475  -1.955  0.00  0.00    -0.057 A 
ATOM      9  C   LIG d   1      11.439   5.132  -0.764  0.00  0.00    -0.059 A 
ATOM     10  H   LIG d   1      11.697   3.549  -2.179  0.00  0.00     0.062 H 
ATOM     11  C   LIG d   1      10.788   6.317  -0.479  0.00  0.00    -0.050 A 
ATOM     12  H   LIG d   1      12.142   4.719  -0.058  0.00  0.00     0.062 H 
ATOM     13  C   LIG d   1       9.886   6.846  -1.384  0.00  0.00    -0.059 A 
ATOM     14  C   LIG d   1       9.636   6.189  -2.574  0.00  0.00    -0.057 A 
ATOM     15  H   LIG d   1       9.377   7.773  -1.160  0.00  0.00     0.062 H 
ATOM     16  H   LIG d   1       8.932   6.603  -3.281  0.00  0.00     0.062 H 
BRANCH  11  17
ATOM     17  C   LIG d   1      11.060   7.033   0.819  0.00  0.00    -0.040 C 
ATOM     18  H   LIG d   1      10.130   7.453   1.203  0.00  0.00     0.028 H 
ATOM     19  H   LIG d   1      11.467   6.330   1.544  0.00  0.00     0.028 H 
ATOM     20  H   LIG d   1      11.777   7.836   0.648  0.00  0.00     0.028 H 
ENDBRANCH  11  17
ENDBRANCH   5   7
BRANCH   5  21
ATOM     21  C   LIG d   1       9.675   5.320  -5.244  0.00  0.00    -0.042 C 
ATOM     22  H   LIG d   1       9.260   4.806  -6.111  0.00  0.00     0.025 H 
ATOM     23  H   LIG d   1       8.938   6.023  -4.853  0.00  0.00     0.025 H 
ATOM     24  H   LIG d   1      10.574   5.860  -5.536  0.00  0.00     0.025 H 
ENDBRANCH   5  21
ENDBRANCH   1   5
BRANCH   2  25
ATOM     25  C   LIG d   1       7.957   1.109  -4.002  0.00  0.00     0.050 A 
ATOM     26  C   LIG d   1       8.078  -0.221  -4.411  0.00  0.00     0.028 A 
ATOM     27  C   LIG d   1       7.019  -1.089  -4.244  0.00  0.00     0.283 A 
ATOM     28  H   LIG d   1       8.999  -0.569  -4.855  0.00  0.00     0.069 H 
ATOM     29  C   LIG d   1       5.839  -0.646  -3.674  0.00  0.00     0.103 A 
ATOM     30  C   LIG d   1       5.713   0.671  -3.269  0.00  0.00     0.283 A 
ATOM     31  C   LIG d   1       6.766   1.548  -3.424  0.00  0.00     0.028 A 
ATOM     32  H   LIG d   1       6.667   2.575  -3.102  0.00  0.00     0.069 H 
BRANCH  27  33
ATOM     33  N   LIG d   1       7.146  -2.500  -4.676  0.00  0.00     0.080 N 
ATOM     34  O   LIG d   1       7.662  -3.318  -3.935  0.00  0.00     0.042 OA
ATOM     35  O   LIG d   1       6.737  -2.841  -5.770  0.00  0.00    -0.576 OA
ENDBRANCH  27  33
BRANCH  29  36
ATOM     36  C   LIG d   1       4.686  -1.601  -3.496  0.00  0.00    -0.027 C 
ATOM     37  H   LIG d   1       4.668  -2.306  -4.326  0.00  0.00     0.028 H 
ATOM     38  H   LIG d   1       4.807  -2.144  -2.560  0.00  0.00     0.028 H 
ATOM     39  H   LIG d   1       3.751  -1.041  -3.475  0.00  0.00     0.028 H 
ENDBRANCH  29  36
BRANCH  30  40
ATOM     40  N   LIG d   1       4.446   1.137  -2.659  0.00  0.00     0.080 N 
ATOM     41  O   LIG d   1       3.589   1.651  -3.355  0.00  0.00     0.042 OA
ATOM     42  O   LIG d   1       4.262   1.005  -1.462  0.00  0.00    -0.576 OA
ENDBRANCH  30  40
ENDBRANCH   2  25
TORSDOF 8
ENDMDL
MODEL 4
REMARK VINA RESULT:      -5.9      5.627      9.057
REMARK  8 active torsions:
REMARK  status: ('A' for Active; 'I' for Inactive)
REMARK    1  A    between atoms: C_1  and  C_2 
REMARK    2  A    between atoms: C_5  and  C_8 
REMARK    3  A    between atoms: C_8  and  C_10 
REMARK    4  A    between atoms: C_8  and  N_11 
REMARK       I    between atoms: N_11  and  C_12 
REMARK    5  A    between atoms: C_12  and  C_14 
REMARK    6  A    between atoms: C_16  and  N_24 
REMARK    7  A    between atoms: C_17  and  C_23 
REMARK    8  A    between atoms: C_18  and  N_20 
ROOT
ATOM      1  N   LIG d   1       8.917   3.336  -3.878  0.00  0.00    -0.305 N 
ATOM      2  C   LIG d   1       9.062   2.045  -4.236  0.00  0.00     0.245 C 
ATOM      3  O   LIG d   1      10.105   1.666  -4.732  0.00  0.00    -0.270 OA
ATOM      4  H   LIG d   1       8.084   3.640  -3.483  0.00  0.00     0.150 HD
ENDROOT
BRANCH   1   5
ATOM      5  C   LIG d   1      10.016   4.283  -4.087  0.00  0.00     0.046 C 
ATOM      6  H   LIG d   1      10.908   3.739  -4.397  0.00  0.00     0.054 H 
BRANCH   5   7
ATOM      7  C   LIG d   1      10.296   5.018  -2.802  0.00  0.00    -0.028 A 
ATOM      8  C   LIG d   1       9.641   6.204  -2.528  0.00  0.00    -0.057 A 
ATOM      9  C   LIG d   1       9.893   6.876  -1.346  0.00  0.00    -0.059 A 
ATOM     10  H   LIG d   1       8.928   6.603  -3.235  0.00  0.00     0.062 H 
ATOM     11  C   LIG d   1      10.805   6.365  -0.442  0.00  0.00    -0.050 A 
ATOM     12  H   LIG d   1       9.379   7.800  -1.130  0.00  0.00     0.062 H 
ATOM     13  C   LIG d   1      11.464   5.182  -0.719  0.00  0.00    -0.059 A 
ATOM     14  C   LIG d   1      11.212   4.510  -1.900  0.00  0.00    -0.057 A 
ATOM     15  H   LIG d   1      12.177   4.783  -0.011  0.00  0.00     0.062 H 
ATOM     16  H   LIG d   1      11.727   3.586  -2.116  0.00  0.00     0.062 H 
BRANCH  11  17
ATOM     17  C   LIG d   1      11.081   7.097   0.846  0.00  0.00    -0.040 C 
ATOM     18  H   LIG d   1      11.390   6.384   1.610  0.00  0.00     0.028 H 
ATOM     19  H   LIG d   1      11.875   7.826   0.687  0.00  0.00     0.028 H 
ATOM     20  H   LIG d   1      10.176   7.610   1.173  0.00  0.00     0.028 H 
ENDBRANCH  11  17
ENDBRANCH   5   7
BRANCH   5  21
ATOM     21  C   LIG d   1       9.626   5.286  -5.175  0.00  0.00    -0.042 C 
ATOM     22  H   LIG d   1       9.824   4.853  -6.156  0.00  0.00     0.025 H 
ATOM     23  H   LIG d   1       8.564   5.519  -5.089  0.00  0.00     0.025 H 
ATOM     24  H   LIG d   1      10.209   6.198  -5.054  0.00  0.00     0.025 H 
ENDBRANCH   5  21
ENDBRANCH   1   5
BRANCH   2  25
ATOM     25  C   LIG d   1       7.952   1.091  -4.025  0.00  0.00     0.050 A 
ATOM     26  C   LIG d   1       6.756   1.524  -3.449  0.00  0.00     0.028 A 
ATOM     27  C   LIG d   1       5.725   0.629  -3.255  0.00  0.00     0.283 A 
ATOM     28  H   LIG d   1       6.639   2.557  -3.156  0.00  0.00     0.069 H 
ATOM     29  C   LIG d   1       5.872  -0.694  -3.630  0.00  0.00     0.103 A 
ATOM     30  C   LIG d   1       7.055  -1.129  -4.200  0.00  0.00     0.283 A 
ATOM     31  C   LIG d   1       8.093  -0.244  -4.405  0.00  0.00     0.028 A 
ATOM     32  H   LIG d   1       9.014  -0.585  -4.855  0.00  0.00     0.069 H 
BRANCH  27  33
ATOM     33  N   LIG d   1       4.455   1.087  -2.645  0.00  0.00     0.080 N 
ATOM     34  O   LIG d   1       4.289   0.989  -1.442  0.00  0.00     0.042 OA
ATOM     35  O   LIG d   1       3.578   1.559  -3.345  0.00  0.00    -0.576 OA
ENDBRANCH  27  33
BRANCH  29  36
ATOM     36  C   LIG d   1       4.740  -1.666  -3.414  0.00  0.00    -0.027 C 
ATOM     37  H   LIG d   1       5.101  -2.524  -2.848  0.00  0.00     0.028 H 
ATOM     38  H   LIG d   1       3.941  -1.175  -2.860  0.00  0.00     0.028 H 
ATOM     39  H   LIG d   1       4.361  -2.002  -4.380  0.00  0.00     0.028 H 
ENDBRANCH  29  36
BRANCH  30  40
ATOM     40  N   LIG d   1       7.204  -2.547  -4.599  0.00  0.00     0.080 N 
ATOM     41  O   LIG d   1       7.745  -3.338  -3.845  0.00  0.00     0.042 OA
ATOM     42  O   LIG d   1       6.785  -2.924  -5.679  0.00  0.00    -0.576 OA
ENDBRANCH  30  40
ENDBRANCH   2  25
TORSDOF 8
ENDMDL
MODEL 5
REMARK VINA RESULT:      -5.9      6.781      9.148
REMARK  8 active torsions:
REMARK  status: ('A' for Active; 'I' for Inactive)
REMARK    1  A    between atoms: C_1  and  C_2 
REMARK    2  A    between atoms: C_5  and  C_8 
REMARK    3  A    between atoms: C_8  and  C_10 
REMARK    4  A    between atoms: C_8  and  N_11 
REMARK       I    between atoms: N_11  and  C_12 
REMARK    5  A    between atoms: C_12  and  C_14 
REMARK    6  A    between atoms: C_16  and  N_24 
REMARK    7  A    between atoms: C_17  and  C_23 
REMARK    8  A    between atoms: C_18  and  N_20 
ROOT
ATOM      1  N   LIG d   1       8.882   2.368  -4.251  0.00  0.00    -0.305 N 
ATOM      2  C   LIG d   1       9.243   3.451  -4.968  0.00  0.00     0.245 C 
ATOM      3  O   LIG d   1       9.204   3.416  -6.182  0.00  0.00    -0.270 OA
ATOM      4  H   LIG d   1       8.914   2.396  -3.281  0.00  0.00     0.150 HD
ENDROOT
BRANCH   1   5
ATOM      5  C   LIG d   1       8.443   1.149  -4.935  0.00  0.00     0.046 C 
ATOM      6  H   LIG d   1       8.053   1.407  -5.920  0.00  0.00     0.054 H 
BRANCH   5   7
ATOM      7  C   LIG d   1       7.362   0.481  -4.126  0.00  0.00    -0.028 A 
ATOM      8  C   LIG d   1       6.457   1.247  -3.416  0.00  0.00    -0.057 A 
ATOM      9  C   LIG d   1       5.460   0.634  -2.678  0.00  0.00    -0.059 A 
ATOM     10  H   LIG d   1       6.525   2.325  -3.441  0.00  0.00     0.062 H 
ATOM     11  C   LIG d   1       5.374  -0.745  -2.647  0.00  0.00    -0.050 A 
ATOM     12  H   LIG d   1       4.751   1.233  -2.127  0.00  0.00     0.062 H 
ATOM     13  C   LIG d   1       6.282  -1.511  -3.352  0.00  0.00    -0.059 A 
ATOM     14  C   LIG d   1       7.279  -0.898  -4.089  0.00  0.00    -0.057 A 
ATOM     15  H   LIG d   1       6.214  -2.589  -3.327  0.00  0.00     0.062 H 
ATOM     16  H   LIG d   1       7.988  -1.497  -4.641  0.00  0.00     0.062 H 
BRANCH  11  17
ATOM     17  C   LIG d   1       4.289  -1.413  -1.842  0.00  0.00    -0.040 C 
ATOM     18  H   LIG d   1       3.408  -0.771  -1.816  0.00  0.00     0.028 H 
ATOM     19  H   LIG d   1       4.029  -2.366  -2.303  0.00  0.00     0.028 H 
ATOM     20  H   LIG d   1       4.643  -1.584  -0.826  0.00  0.00     0.028 H 
ENDBRANCH  11  17
ENDBRANCH   5   7
BRANCH   5  21
ATOM     21  C   LIG d   1       9.629   0.195  -5.088  0.00  0.00    -0.042 C 
ATOM     22  H   LIG d   1       9.412  -0.740  -4.572  0.00  0.00     0.025 H 
ATOM     23  H   LIG d   1       9.799  -0.006  -6.147  0.00  0.00     0.025 H 
ATOM     24  H   LIG d   1      10.520   0.651  -4.658  0.00  0.00     0.025 H 
ENDBRANCH   5  21
ENDBRANCH   1   5
BRANCH   2  25
ATOM     25  C   LIG d   1       9.686   4.680  -4.277  0.00  0.00     0.050 A 
ATOM     26  C   LIG d   1       9.781   5.884  -4.979  0.00  0.00     0.028 A 
ATOM     27  C   LIG d   1      10.194   7.027  -4.329  0.00  0.00     0.283 A 
ATOM     28  H   LIG d   1       9.530   5.918  -6.030  0.00  0.00     0.069 H 
ATOM     29  C   LIG d   1      10.515   6.985  -2.983  0.00  0.00     0.103 A 
ATOM     30  C   LIG d   1      10.424   5.796  -2.282  0.00  0.00     0.283 A 
ATOM     31  C   LIG d   1      10.007   4.645  -2.919  0.00  0.00     0.028 A 
ATOM     32  H   LIG d   1       9.931   3.719  -2.369  0.00  0.00     0.069 H 
BRANCH  27  33
ATOM     33  N   LIG d   1      10.294   8.304  -5.071  0.00  0.00     0.080 N 
ATOM     34  O   LIG d   1       9.315   9.019  -5.188  0.00  0.00     0.042 OA
ATOM     35  O   LIG d   1      11.355   8.639  -5.567  0.00  0.00    -0.576 OA
ENDBRANCH  27  33
BRANCH  29  36
ATOM     36  C   LIG d   1      10.966   8.239  -2.279  0.00  0.00    -0.027 C 
ATOM     37  H   LIG d   1      11.761   7.994  -1.576  0.00  0.00     0.028 H 
ATOM     38  H   LIG d   1      11.338   8.953  -3.013  0.00  0.00     0.028 H 
ATOM     39  H   LIG d   1      10.125   8.675  -1.740  0.00  0.00     0.028 H 
ENDBRANCH  29  36
BRANCH  30  40
ATOM     40  N   LIG d   1      10.768   5.759  -0.843  0.00  0.00     0.080 N 
ATOM     41  O   LIG d   1      10.050   6.315  -0.031  0.00  0.00     0.042 OA
ATOM     42  O   LIG d   1      11.769   5.173  -0.471  0.00  0.00    -0.576 OA
ENDBRANCH  30  40
ENDBRANCH   2  25
TORSDOF 8
ENDMDL
MODEL 6
REMARK VINA RESULT:      -5.9      6.774      9.379
REMARK  8 active torsions:
REMARK  status: ('A' for Active; 'I' for Inactive)
REMARK    1  A    between atoms: C_1  and  C_2 
REMARK    2  A    between atoms: C_5  and  C_8 
REMARK    3  A    between atoms: C_8  and  C_10 
REMARK    4  A    between atoms: C_8  and  N_11 
REMARK       I    between atoms: N_11  and  C_12 
REMARK    5  A    between atoms: C_12  and  C_14 
REMARK    6  A    between atoms: C_16  and  N_24 
REMARK    7  A    between atoms: C_17  and  C_23 
REMARK    8  A    between atoms: C_18  and  N_20 
ROOT
ATOM      1  N   LIG d   1       8.909   2.353  -4.270  0.00  0.00    -0.305 N 
ATOM      2  C   LIG d   1       9.244   3.445  -4.987  0.00  0.00     0.245 C 
ATOM      3  O   LIG d   1       9.173   3.421  -6.200  0.00  0.00    -0.270 OA
ATOM      4  H   LIG d   1       8.967   2.372  -3.302  0.00  0.00     0.150 HD
ENDROOT
BRANCH   1   5
ATOM      5  C   LIG d   1       8.460   1.137  -4.954  0.00  0.00     0.046 C 
ATOM      6  H   LIG d   1       8.076   1.397  -5.940  0.00  0.00     0.054 H 
BRANCH   5   7
ATOM      7  C   LIG d   1       7.370   0.481  -4.147  0.00  0.00    -0.028 A 
ATOM      8  C   LIG d   1       7.259  -0.897  -4.127  0.00  0.00    -0.057 A 
ATOM      9  C   LIG d   1       6.263  -1.499  -3.382  0.00  0.00    -0.059 A 
ATOM     10  H   LIG d   1       7.954  -1.502  -4.690  0.00  0.00     0.062 H 
ATOM     11  C   LIG d   1       5.374  -0.724  -2.661  0.00  0.00    -0.050 A 
ATOM     12  H   LIG d   1       6.179  -2.575  -3.363  0.00  0.00     0.062 H 
ATOM     13  C   LIG d   1       5.481   0.654  -2.686  0.00  0.00    -0.059 A 
ATOM     14  C   LIG d   1       6.478   1.257  -3.432  0.00  0.00    -0.057 A 
ATOM     15  H   LIG d   1       4.786   1.260  -2.123  0.00  0.00     0.062 H 
ATOM     16  H   LIG d   1       6.561   2.333  -3.450  0.00  0.00     0.062 H 
BRANCH  11  17
ATOM     17  C   LIG d   1       4.288  -1.380  -1.849  0.00  0.00    -0.040 C 
ATOM     18  H   LIG d   1       3.957  -2.288  -2.353  0.00  0.00     0.028 H 
ATOM     19  H   LIG d   1       4.673  -1.632  -0.862  0.00  0.00     0.028 H 
ATOM     20  H   LIG d   1       3.446  -0.695  -1.748  0.00  0.00     0.028 H 
ENDBRANCH  11  17
ENDBRANCH   5   7
BRANCH   5  21
ATOM     21  C   LIG d   1       9.637   0.171  -5.103  0.00  0.00    -0.042 C 
ATOM     22  H   LIG d   1       9.896   0.073  -6.158  0.00  0.00     0.025 H 
ATOM     23  H   LIG d   1      10.496   0.558  -4.553  0.00  0.00     0.025 H 
ATOM     24  H   LIG d   1       9.359  -0.804  -4.704  0.00  0.00     0.025 H 
ENDBRANCH   5  21
ENDBRANCH   1   5
BRANCH   2  25
ATOM     25  C   LIG d   1       9.697   4.670  -4.296  0.00  0.00     0.050 A 
ATOM     26  C   LIG d   1      10.021   4.630  -2.938  0.00  0.00     0.028 A 
ATOM     27  C   LIG d   1      10.444   5.777  -2.299  0.00  0.00     0.283 A 
ATOM     28  H   LIG d   1       9.941   3.703  -2.390  0.00  0.00     0.069 H 
ATOM     29  C   LIG d   1      10.548   6.966  -3.000  0.00  0.00     0.103 A 
ATOM     30  C   LIG d   1      10.228   7.012  -4.345  0.00  0.00     0.283 A 
ATOM     31  C   LIG d   1       9.809   5.871  -4.998  0.00  0.00     0.028 A 
ATOM     32  H   LIG d   1       9.564   5.908  -6.049  0.00  0.00     0.069 H 
BRANCH  27  33
ATOM     33  N   LIG d   1      10.788   5.737  -0.860  0.00  0.00     0.080 N 
ATOM     34  O   LIG d   1      10.071   6.292  -0.047  0.00  0.00     0.042 OA
ATOM     35  O   LIG d   1      11.789   5.151  -0.489  0.00  0.00    -0.576 OA
ENDBRANCH  27  33
BRANCH  29  36
ATOM     36  C   LIG d   1      11.010   8.215  -2.294  0.00  0.00    -0.027 C 
ATOM     37  H   LIG d   1      10.774   9.086  -2.906  0.00  0.00     0.028 H 
ATOM     38  H   LIG d   1      10.503   8.298  -1.334  0.00  0.00     0.028 H 
ATOM     39  H   LIG d   1      12.087   8.164  -2.135  0.00  0.00     0.028 H 
ENDBRANCH  29  36
BRANCH  30  40
ATOM     40  N   LIG d   1      10.342   8.288  -5.087  0.00  0.00     0.080 N 
ATOM     41  O   LIG d   1      11.394   8.589  -5.622  0.00  0.00     0.042 OA
ATOM     42  O   LIG d   1       9.383   9.036  -5.164  0.00  0.00    -0.576 OA
ENDBRANCH  30  40
ENDBRANCH   2  25
TORSDOF 8
ENDMDL
MODEL 7
REMARK VINA RESULT:      -5.9      4.115      8.065
REMARK  8 active torsions:
REMARK  status: ('A' for Active; 'I' for Inactive)
REMARK    1  A    between atoms: C_1  and  C_2 
REMARK    2  A    between atoms: C_5  and  C_8 
REMARK    3  A    between atoms: C_8  and  C_10 
REMARK    4  A    between atoms: C_8  and  N_11 
REMARK       I    between atoms: N_11  and  C_12 
REMARK    5  A    between atoms: C_12  and  C_14 
REMARK    6  A    between atoms: C_16  and  N_24 
REMARK    7  A    between atoms: C_17  and  C_23 
REMARK    8  A    between atoms: C_18  and  N_20 
ROOT
ATOM      1  N   LIG d   1       5.514  -3.465  -5.919  0.00  0.00    -0.305 N 
ATOM      2  C   LIG d   1       4.540  -4.346  -6.220  0.00  0.00     0.245 C 
ATOM      3  O   LIG d   1       4.185  -5.165  -5.395  0.00  0.00    -0.270 OA
ATOM      4  H   LIG d   1       5.798  -2.812  -6.578  0.00  0.00     0.150 HD
ENDROOT
BRANCH   1   5
ATOM      5  C   LIG d   1       6.146  -3.495  -4.597  0.00  0.00     0.046 C 
ATOM      6  H   LIG d   1       5.847  -4.401  -4.073  0.00  0.00     0.054 H 
BRANCH   5   7
ATOM      7  C   LIG d   1       5.712  -2.288  -3.806  0.00  0.00    -0.028 A 
ATOM      8  C   LIG d   1       6.490  -1.146  -3.803  0.00  0.00    -0.057 A 
ATOM      9  C   LIG d   1       6.088  -0.037  -3.082  0.00  0.00    -0.059 A 
ATOM     10  H   LIG d   1       7.410  -1.119  -4.369  0.00  0.00     0.062 H 
ATOM     11  C   LIG d   1       4.910  -0.073  -2.359  0.00  0.00    -0.050 A 
ATOM     12  H   LIG d   1       6.694   0.856  -3.083  0.00  0.00     0.062 H 
ATOM     13  C   LIG d   1       4.135  -1.218  -2.357  0.00  0.00    -0.059 A 
ATOM     14  C   LIG d   1       4.537  -2.327  -3.078  0.00  0.00    -0.057 A 
ATOM     15  H   LIG d   1       3.215  -1.245  -1.791  0.00  0.00     0.062 H 
ATOM     16  H   LIG d   1       3.931  -3.220  -3.077  0.00  0.00     0.062 H 
BRANCH  11  17
ATOM     17  C   LIG d   1       4.472   1.135  -1.572  0.00  0.00    -0.040 C 
ATOM     18  H   LIG d   1       5.123   1.977  -1.808  0.00  0.00     0.028 H 
ATOM     19  H   LIG d   1       3.444   1.385  -1.833  0.00  0.00     0.028 H 
ATOM     20  H   LIG d   1       4.535   0.916  -0.506  0.00  0.00     0.028 H 
ENDBRANCH  11  17
ENDBRANCH   5   7
BRANCH   5  21
ATOM     21  C   LIG d   1       7.668  -3.478  -4.759  0.00  0.00    -0.042 C 
ATOM     22  H   LIG d   1       7.951  -4.111  -5.600  0.00  0.00     0.025 H 
ATOM     23  H   LIG d   1       8.002  -2.456  -4.945  0.00  0.00     0.025 H 
ATOM     24  H   LIG d   1       8.134  -3.853  -3.848  0.00  0.00     0.025 H 
ENDBRANCH   5  21
ENDBRANCH   1   5
BRANCH   2  25
ATOM     25  C   LIG d   1       3.903  -4.316  -7.554  0.00  0.00     0.050 A 
ATOM     26  C   LIG d   1       3.501  -5.505  -8.166  0.00  0.00     0.028 A 
ATOM     27  C   LIG d   1       2.907  -5.469  -9.410  0.00  0.00     0.283 A 
ATOM     28  H   LIG d   1       3.654  -6.450  -7.665  0.00  0.00     0.069 H 
ATOM     29  C   LIG d   1       2.709  -4.260 -10.052  0.00  0.00     0.103 A 
ATOM     30  C   LIG d   1       3.106  -3.079  -9.451  0.00  0.00     0.283 A 
ATOM     31  C   LIG d   1       3.696  -3.099  -8.205  0.00  0.00     0.028 A 
ATOM     32  H   LIG d   1       4.001  -2.175  -7.735  0.00  0.00     0.069 H 
BRANCH  27  33
ATOM     33  N   LIG d   1       2.479  -6.729 -10.060  0.00  0.00     0.080 N 
ATOM     34  O   LIG d   1       3.217  -7.286 -10.852  0.00  0.00     0.042 OA
ATOM     35  O   LIG d   1       1.388  -7.207  -9.804  0.00  0.00    -0.576 OA
ENDBRANCH  27  33
BRANCH  29  36
ATOM     36  C   LIG d   1       2.059  -4.230 -11.412  0.00  0.00    -0.027 C 
ATOM     37  H   LIG d   1       1.374  -5.072 -11.506  0.00  0.00     0.028 H 
ATOM     38  H   LIG d   1       1.507  -3.298 -11.530  0.00  0.00     0.028 H 
ATOM     39  H   LIG d   1       2.827  -4.298 -12.183  0.00  0.00     0.028 H 
ENDBRANCH  29  36
BRANCH  30  40
ATOM     40  N   LIG d   1       2.890  -1.789 -10.146  0.00  0.00     0.080 N 
ATOM     41  O   LIG d   1       1.895  -1.128  -9.906  0.00  0.00     0.042 OA
ATOM     42  O   LIG d   1       3.707  -1.389 -10.955  0.00  0.00    -0.576 OA
ENDBRANCH  30  40
ENDBRANCH   2  25
TORSDOF 8
ENDMDL
MODEL 8
REMARK VINA RESULT:      -5.7      9.042     13.736
REMARK  8 active torsions:
REMARK  status: ('A' for Active; 'I' for Inactive)
REMARK    1  A    between atoms: C_1  and  C_2 
REMARK    2  A    between atoms: C_5  and  C_8 
REMARK    3  A    between atoms: C_8  and  C_10 
REMARK    4  A    between atoms: C_8  and  N_11 
REMARK       I    between atoms: N_11  and  C_12 
REMARK    5  A    between atoms: C_12  and  C_14 
REMARK    6  A    between atoms: C_16  and  N_24 
REMARK    7  A    between atoms: C_17  and  C_23 
REMARK    8  A    between atoms: C_18  and  N_20 
ROOT
ATOM      1  N   LIG d   1       8.919 -11.294  -1.029  0.00  0.00    -0.305 N 
ATOM      2  C   LIG d   1       7.586 -11.437  -1.165  0.00  0.00     0.245 C 
ATOM      3  O   LIG d   1       6.972 -12.160  -0.405  0.00  0.00    -0.270 OA
ATOM      4  H   LIG d   1       9.410 -10.717  -1.635  0.00  0.00     0.150 HD
ENDROOT
BRANCH   1   5
ATOM      5  C   LIG d   1       9.628 -12.012   0.034  0.00  0.00     0.046 C 
ATOM      6  H   LIG d   1       8.922 -12.632   0.586  0.00  0.00     0.054 H 
BRANCH   5   7
ATOM      7  C   LIG d   1      10.267 -11.020   0.971  0.00  0.00    -0.028 A 
ATOM      8  C   LIG d   1      10.439  -9.707   0.575  0.00  0.00    -0.057 A 
ATOM      9  C   LIG d   1      11.018  -8.796   1.438  0.00  0.00    -0.059 A 
ATOM     10  H   LIG d   1      10.115  -9.393  -0.406  0.00  0.00     0.062 H 
ATOM     11  C   LIG d   1      11.431  -9.199   2.694  0.00  0.00    -0.050 A 
ATOM     12  H   LIG d   1      11.149  -7.769   1.130  0.00  0.00     0.062 H 
ATOM     13  C   LIG d   1      11.265 -10.513   3.088  0.00  0.00    -0.059 A 
ATOM     14  C   LIG d   1      10.685 -11.425   2.225  0.00  0.00    -0.057 A 
ATOM     15  H   LIG d   1      11.588 -10.828   4.069  0.00  0.00     0.062 H 
ATOM     16  H   LIG d   1      10.554 -12.452   2.533  0.00  0.00     0.062 H 
BRANCH  11  17
ATOM     17  C   LIG d   1      12.064  -8.206   3.634  0.00  0.00    -0.040 C 
ATOM     18  H   LIG d   1      13.026  -7.888   3.232  0.00  0.00     0.028 H 
ATOM     19  H   LIG d   1      11.412  -7.339   3.741  0.00  0.00     0.028 H 
ATOM     20  H   LIG d   1      12.214  -8.672   4.608  0.00  0.00     0.028 H 
ENDBRANCH  11  17
ENDBRANCH   5   7
BRANCH   5  21
ATOM     21  C   LIG d   1      10.711 -12.899  -0.585  0.00  0.00    -0.042 C 
ATOM     22  H   LIG d   1      11.662 -12.713  -0.087  0.00  0.00     0.025 H 
ATOM     23  H   LIG d   1      10.436 -13.947  -0.462  0.00  0.00     0.025 H 
ATOM     24  H   LIG d   1      10.805 -12.671  -1.647  0.00  0.00     0.025 H 
ENDBRANCH   5  21
ENDBRANCH   1   5
BRANCH   2  25
ATOM     25  C   LIG d   1       6.871 -10.712  -2.236  0.00  0.00     0.050 A 
ATOM     26  C   LIG d   1       7.572  -9.864  -3.096  0.00  0.00     0.028 A 
ATOM     27  C   LIG d   1       6.900  -9.190  -4.095  0.00  0.00     0.283 A 
ATOM     28  H   LIG d   1       8.639  -9.736  -2.980  0.00  0.00     0.069 H 
ATOM     29  C   LIG d   1       5.534  -9.353  -4.246  0.00  0.00     0.103 A 
ATOM     30  C   LIG d   1       4.834 -10.192  -3.397  0.00  0.00     0.283 A 
ATOM     31  C   LIG d   1       5.495 -10.875  -2.397  0.00  0.00     0.028 A 
ATOM     32  H   LIG d   1       4.947 -11.533  -1.738  0.00  0.00     0.069 H 
BRANCH  27  33
ATOM     33  N   LIG d   1       7.642  -8.291  -5.008  0.00  0.00     0.080 N 
ATOM     34  O   LIG d   1       7.772  -7.113  -4.728  0.00  0.00     0.042 OA
ATOM     35  O   LIG d   1       8.120  -8.729  -6.039  0.00  0.00    -0.576 OA
ENDBRANCH  27  33
BRANCH  29  36
ATOM     36  C   LIG d   1       4.807  -8.614  -5.340  0.00  0.00    -0.027 C 
ATOM     37  H   LIG d   1       3.836  -9.078  -5.508  0.00  0.00     0.028 H 
ATOM     38  H   LIG d   1       4.666  -7.575  -5.044  0.00  0.00     0.028 H 
ATOM     39  H   LIG d   1       5.393  -8.655  -6.258  0.00  0.00     0.028 H 
ENDBRANCH  29  36
BRANCH  30  40
ATOM     40  N   LIG d   1       3.373 -10.361  -3.566  0.00  0.00     0.080 N 
ATOM     41  O   LIG d   1       2.941 -11.265  -4.259  0.00  0.00     0.042 OA
ATOM     42  O   LIG d   1       2.603  -9.596  -3.012  0.00  0.00    -0.576 OA
ENDBRANCH  30  40
ENDBRANCH   2  25
TORSDOF 8
ENDMDL
MODEL 9
REMARK VINA RESULT:      -5.7      9.024     13.957
REMARK  8 active torsions:
REMARK  status: ('A' for Active; 'I' for Inactive)
REMARK    1  A    between atoms: C_1  and  C_2 
REMARK    2  A    between atoms: C_5  and  C_8 
REMARK    3  A    between atoms: C_8  and  C_10 
REMARK    4  A    between atoms: C_8  and  N_11 
REMARK       I    between atoms: N_11  and  C_12 
REMARK    5  A    between atoms: C_12  and  C_14 
REMARK    6  A    between atoms: C_16  and  N_24 
REMARK    7  A    between atoms: C_17  and  C_23 
REMARK    8  A    between atoms: C_18  and  N_20 
ROOT
ATOM      1  N   LIG d   1       8.954 -11.329  -1.110  0.00  0.00    -0.305 N 
ATOM      2  C   LIG d   1       7.610 -11.400  -1.185  0.00  0.00     0.245 C 
ATOM      3  O   LIG d   1       6.990 -12.055  -0.370  0.00  0.00    -0.270 OA
ATOM      4  H   LIG d   1       9.449 -10.806  -1.761  0.00  0.00     0.150 HD
ENDROOT
BRANCH   1   5
ATOM      5  C   LIG d   1       9.667 -12.041  -0.047  0.00  0.00     0.046 C 
ATOM      6  H   LIG d   1       8.970 -12.682   0.492  0.00  0.00     0.054 H 
BRANCH   5   7
ATOM      7  C   LIG d   1      10.273 -11.044   0.907  0.00  0.00    -0.028 A 
ATOM      8  C   LIG d   1      10.437  -9.728   0.518  0.00  0.00    -0.057 A 
ATOM      9  C   LIG d   1      10.987  -8.811   1.396  0.00  0.00    -0.059 A 
ATOM     10  H   LIG d   1      10.131  -9.414  -0.469  0.00  0.00     0.062 H 
ATOM     11  C   LIG d   1      11.377  -9.213   2.659  0.00  0.00    -0.050 A 
ATOM     12  H   LIG d   1      11.111  -7.782   1.093  0.00  0.00     0.062 H 
ATOM     13  C   LIG d   1      11.218 -10.530   3.046  0.00  0.00    -0.059 A 
ATOM     14  C   LIG d   1      10.669 -11.447   2.169  0.00  0.00    -0.057 A 
ATOM     15  H   LIG d   1      11.524 -10.844   4.034  0.00  0.00     0.062 H 
ATOM     16  H   LIG d   1      10.544 -12.476   2.471  0.00  0.00     0.062 H 
BRANCH  11  17
ATOM     17  C   LIG d   1      11.977  -8.214   3.615  0.00  0.00    -0.040 C 
ATOM     18  H   LIG d   1      12.944  -7.884   3.235  0.00  0.00     0.028 H 
ATOM     19  H   LIG d   1      11.312  -7.357   3.710  0.00  0.00     0.028 H 
ATOM     20  H   LIG d   1      12.112  -8.681   4.591  0.00  0.00     0.028 H 
ENDBRANCH  11  17
ENDBRANCH   5   7
BRANCH   5  21
ATOM     21  C   LIG d   1      10.777 -12.898  -0.662  0.00  0.00    -0.042 C 
ATOM     22  H   LIG d   1      11.718 -12.694  -0.151  0.00  0.00     0.025 H 
ATOM     23  H   LIG d   1      10.524 -13.952  -0.551  0.00  0.00     0.025 H 
ATOM     24  H   LIG d   1      10.877 -12.657  -1.720  0.00  0.00     0.025 H 
ENDBRANCH   5  21
ENDBRANCH   1   5
BRANCH   2  25
ATOM     25  C   LIG d   1       6.891 -10.682  -2.258  0.00  0.00     0.050 A 
ATOM     26  C   LIG d   1       5.515 -10.857  -2.419  0.00  0.00     0.028 A 
ATOM     27  C   LIG d   1       4.850 -10.183  -3.422  0.00  0.00     0.283 A 
ATOM     28  H   LIG d   1       4.973 -11.519  -1.759  0.00  0.00     0.069 H 
ATOM     29  C   LIG d   1       5.542  -9.335  -4.268  0.00  0.00     0.103 A 
ATOM     30  C   LIG d   1       6.905  -9.157  -4.113  0.00  0.00     0.283 A 
ATOM     31  C   LIG d   1       7.582  -9.821  -3.111  0.00  0.00     0.028 A 
ATOM     32  H   LIG d   1       8.646  -9.677  -2.989  0.00  0.00     0.069 H 
BRANCH  27  33
ATOM     33  N   LIG d   1       3.391 -10.368  -3.594  0.00  0.00     0.080 N 
ATOM     34  O   LIG d   1       2.971 -11.261  -4.308  0.00  0.00     0.042 OA
ATOM     35  O   LIG d   1       2.612  -9.626  -3.023  0.00  0.00    -0.576 OA
ENDBRANCH  27  33
BRANCH  29  36
ATOM     36  C   LIG d   1       4.808  -8.602  -5.361  0.00  0.00    -0.027 C 
ATOM     37  H   LIG d   1       5.420  -7.773  -5.717  0.00  0.00     0.028 H 
ATOM     38  H   LIG d   1       4.608  -9.286  -6.185  0.00  0.00     0.028 H 
ATOM     39  H   LIG d   1       3.866  -8.216  -4.971  0.00  0.00     0.028 H 
ENDBRANCH  29  36
BRANCH  30  40
ATOM     40  N   LIG d   1       7.638  -8.246  -5.022  0.00  0.00     0.080 N 
ATOM     41  O   LIG d   1       7.774  -7.072  -4.728  0.00  0.00     0.042 OA
ATOM     42  O   LIG d   1       8.106  -8.672  -6.063  0.00  0.00    -0.576 OA
ENDBRANCH  30  40
ENDBRANCH   2  25
TORSDOF 8
ENDMDL
MODEL 10
REMARK VINA RESULT:      -5.7      5.477      7.455
REMARK  8 active torsions:
REMARK  status: ('A' for Active; 'I' for Inactive)
REMARK    1  A    between atoms: C_1  and  C_2 
REMARK    2  A    between atoms: C_5  and  C_8 
REMARK    3  A    between atoms: C_8  and  C_10 
REMARK    4  A    between atoms: C_8  and  N_11 
REMARK       I    between atoms: N_11  and  C_12 
REMARK    5  A    between atoms: C_12  and  C_14 
REMARK    6  A    between atoms: C_16  and  N_24 
REMARK    7  A    between atoms: C_17  and  C_23 
REMARK    8  A    between atoms: C_18  and  N_20 
ROOT
ATOM      1  N   LIG d   1       8.980   2.506  -5.915  0.00  0.00    -0.305 N 
ATOM      2  C   LIG d   1       9.251   1.486  -5.075  0.00  0.00     0.245 C 
ATOM      3  O   LIG d   1      10.404   1.210  -4.809  0.00  0.00    -0.270 OA
ATOM      4  H   LIG d   1       8.059   2.727  -6.128  0.00  0.00     0.150 HD
ENDROOT
BRANCH   1   5
ATOM      5  C   LIG d   1      10.075   3.279  -6.506  0.00  0.00     0.046 C 
ATOM      6  H   LIG d   1      11.020   2.965  -6.065  0.00  0.00     0.054 H 
BRANCH   5   7
ATOM      7  C   LIG d   1       9.857   4.746  -6.237  0.00  0.00    -0.028 A 
ATOM      8  C   LIG d   1      10.047   5.670  -7.247  0.00  0.00    -0.057 A 
ATOM      9  C   LIG d   1       9.840   7.015  -7.001  0.00  0.00    -0.059 A 
ATOM     10  H   LIG d   1      10.351   5.340  -8.229  0.00  0.00     0.062 H 
ATOM     11  C   LIG d   1       9.450   7.435  -5.744  0.00  0.00    -0.050 A 
ATOM     12  H   LIG d   1       9.985   7.736  -7.791  0.00  0.00     0.062 H 
ATOM     13  C   LIG d   1       9.265   6.512  -4.732  0.00  0.00    -0.059 A 
ATOM     14  C   LIG d   1       9.472   5.167  -4.977  0.00  0.00    -0.057 A 
ATOM     15  H   LIG d   1       8.960   6.841  -3.749  0.00  0.00     0.062 H 
ATOM     16  H   LIG d   1       9.327   4.446  -4.187  0.00  0.00     0.062 H 
BRANCH  11  17
ATOM     17  C   LIG d   1       9.226   8.901  -5.476  0.00  0.00    -0.040 C 
ATOM     18  H   LIG d   1       8.885   9.389  -6.389  0.00  0.00     0.028 H 
ATOM     19  H   LIG d   1       8.471   9.017  -4.699  0.00  0.00     0.028 H 
ATOM     20  H   LIG d   1      10.160   9.357  -5.148  0.00  0.00     0.028 H 
ENDBRANCH  11  17
ENDBRANCH   5   7
BRANCH   5  21
ATOM     21  C   LIG d   1      10.112   3.038  -8.017  0.00  0.00    -0.042 C 
ATOM     22  H   LIG d   1       9.354   3.654  -8.502  0.00  0.00     0.025 H 
ATOM     23  H   LIG d   1      11.097   3.303  -8.403  0.00  0.00     0.025 H 
ATOM     24  H   LIG d   1       9.912   1.986  -8.222  0.00  0.00     0.025 H 
ENDBRANCH   5  21
ENDBRANCH   1   5
BRANCH   2  25
ATOM     25  C   LIG d   1       8.146   0.707  -4.479  0.00  0.00     0.050 A 
ATOM     26  C   LIG d   1       7.114   1.360  -3.801  0.00  0.00     0.028 A 
ATOM     27  C   LIG d   1       6.085   0.627  -3.248  0.00  0.00     0.283 A 
ATOM     28  H   LIG d   1       7.122   2.436  -3.711  0.00  0.00     0.069 H 
ATOM     29  C   LIG d   1       6.073  -0.752  -3.363  0.00  0.00     0.103 A 
ATOM     30  C   LIG d   1       7.092  -1.405  -4.033  0.00  0.00     0.283 A 
ATOM     31  C   LIG d   1       8.125  -0.683  -4.596  0.00  0.00     0.028 A 
ATOM     32  H   LIG d   1       8.917  -1.194  -5.123  0.00  0.00     0.069 H 
BRANCH  27  33
ATOM     33  N   LIG d   1       4.990   1.317  -2.529  0.00  0.00     0.080 N 
ATOM     34  O   LIG d   1       4.938   1.274  -1.313  0.00  0.00     0.042 OA
ATOM     35  O   LIG d   1       4.141   1.927  -3.153  0.00  0.00    -0.576 OA
ENDBRANCH  27  33
BRANCH  29  36
ATOM     36  C   LIG d   1       4.945  -1.546  -2.755  0.00  0.00    -0.027 C 
ATOM     37  H   LIG d   1       5.217  -1.847  -1.743  0.00  0.00     0.028 H 
ATOM     38  H   LIG d   1       4.045  -0.932  -2.722  0.00  0.00     0.028 H 
ATOM     39  H   LIG d   1       4.758  -2.433  -3.360  0.00  0.00     0.028 H 
ENDBRANCH  29  36
BRANCH  30  40
ATOM     40  N   LIG d   1       7.071  -2.880  -4.151  0.00  0.00     0.080 N 
ATOM     41  O   LIG d   1       6.190  -3.427  -4.790  0.00  0.00     0.042 OA
ATOM     42  O   LIG d   1       7.936  -3.547  -3.611  0.00  0.00    -0.576 OA
ENDBRANCH  30  40
ENDBRANCH   2  25
TORSDOF 8
ENDMDL
