MODEL 1
REMARK VINA RESULT:      -6.7      0.000      0.000
REMARK  8 active torsions:
REMARK  status: ('A' for Active; 'I' for Inactive)
REMARK    1  A    between atoms: C_1  and  C_2 
REMARK    2  A    between atoms: C_17  and  C_20 
REMARK    3  A    between atoms: C_20  and  C_21 
REMARK    4  A    between atoms: C_21  and  S_22 
REMARK    5  A    between atoms: S_22  and  C_23 
REMARK    6  A    between atoms: N_26  and  C_29 
REMARK    7  A    between atoms: C_29  and  C_30 
REMARK    8  A    between atoms: C_30  and  C_31 
ROOT
ATOM      1  C   LIG d   1       9.132   2.479  -4.919  0.00  0.00    -0.049 A 
ATOM      2  C   LIG d   1       8.270   1.528  -5.436  0.00  0.00    -0.048 A 
ATOM      3  C   LIG d   1       8.014   1.489  -6.789  0.00  0.00     0.036 A 
ATOM      4  C   LIG d   1       8.616   2.402  -7.649  0.00  0.00     0.061 A 
ATOM      5  C   LIG d   1       9.482   3.359  -7.121  0.00  0.00     0.063 A 
ATOM      6  C   LIG d   1       9.731   3.396  -5.764  0.00  0.00    -0.039 A 
ATOM      7 CL   LIG d   1      10.245   4.510  -8.172  0.00  0.00    -0.082 Cl
ATOM      8  N   LIG d   1       8.207   2.169  -8.965  0.00  0.00    -0.279 N 
ATOM      9  C   LIG d   1       7.348   1.135  -9.053  0.00  0.00     0.274 A 
ATOM     10  O   LIG d   1       6.831   0.707 -10.063  0.00  0.00    -0.269 OA
ATOM     11  C   LIG d   1       7.155   0.614  -7.654  0.00  0.00     0.106 A 
ATOM     12  C   LIG d   1       7.564  -0.861  -7.546  0.00  0.00     0.111 A 
ATOM     13  H   LIG d   1       8.289  -1.152  -8.306  0.00  0.00     0.047 H 
ATOM     14  C   LIG d   1       6.227  -1.646  -7.655  0.00  0.00     0.096 A 
ATOM     15  H   LIG d   1       6.233  -2.380  -8.461  0.00  0.00     0.046 H 
ATOM     16  C   LIG d   1       5.145  -0.562  -7.845  0.00  0.00    -0.008 C 
ATOM     17  H   LIG d   1       4.930  -0.424  -8.905  0.00  0.00     0.086 H 
ATOM     18  N   LIG d   1       5.739   0.671  -7.248  0.00  0.00     0.245 N 
ATOM     19  C   LIG d   1       6.084  -2.281  -6.291  0.00  0.00     0.231 A 
ATOM     20  O   LIG d   1       5.161  -2.984  -5.939  0.00  0.00    -0.275 OA
ATOM     21  N   LIG d   1       7.134  -1.948  -5.532  0.00  0.00    -0.241 N 
ATOM     22  C   LIG d   1       8.044  -1.152  -6.142  0.00  0.00     0.232 A 
ATOM     23  O   LIG d   1       9.071  -0.737  -5.652  0.00  0.00    -0.275 OA
ATOM     24  H   LIG d   1       7.797   0.814  -4.777  0.00  0.00     0.063 H 
ATOM     25  H   LIG d   1      10.401   4.140  -5.360  0.00  0.00     0.064 H 
ATOM     26  H   LIG d   1       8.506   2.690  -9.726  0.00  0.00     0.155 HD
ATOM     27  H   LIG d   1       5.659   0.662  -6.243  0.00  0.00     0.203 HD
ATOM     28  H   LIG d   1       5.295   1.492  -7.632  0.00  0.00     0.203 HD
ENDROOT
BRANCH  16  29
ATOM     29  C   LIG d   1       3.871  -0.945  -7.089  0.00  0.00     0.000 C 
ATOM     30  H   LIG d   1       3.511  -1.909  -7.447  0.00  0.00     0.033 H 
ATOM     31  H   LIG d   1       4.087  -1.009  -6.023  0.00  0.00     0.033 H 
BRANCH  29  32
ATOM     32  C   LIG d   1       2.798   0.120  -7.329  0.00  0.00    -0.002 C 
ATOM     33  H   LIG d   1       1.846  -0.227  -6.930  0.00  0.00     0.038 H 
ATOM     34  H   LIG d   1       3.085   1.045  -6.827  0.00  0.00     0.038 H 
BRANCH  32  35
ATOM     35  S   LIG d   1       2.635   0.424  -9.110  0.00  0.00    -0.164 SA
BRANCH  35  36
ATOM     36  C   LIG d   1       3.150   2.152  -9.309  0.00  0.00    -0.018 C 
ATOM     37  H   LIG d   1       4.153   2.185  -9.732  0.00  0.00     0.034 H 
ATOM     38  H   LIG d   1       2.457   2.663  -9.977  0.00  0.00     0.034 H 
ATOM     39  H   LIG d   1       3.149   2.646  -8.337  0.00  0.00     0.034 H 
ENDBRANCH  35  36
ENDBRANCH  32  35
ENDBRANCH  29  32
ENDBRANCH  16  29
BRANCH   1  40
ATOM     40  C   LIG d   1       9.411   2.520  -3.439  0.00  0.00    -0.040 C 
ATOM     41  H   LIG d   1       9.443   1.505  -3.047  0.00  0.00     0.028 H 
ATOM     42  H   LIG d   1      10.370   3.009  -3.264  0.00  0.00     0.028 H 
ATOM     43  H   LIG d   1       8.621   3.079  -2.936  0.00  0.00     0.028 H 
ENDBRANCH   1  40
BRANCH  21  44
ATOM     44  C   LIG d   1       7.294  -2.412  -4.151  0.00  0.00     0.026 C 
ATOM     45  H   LIG d   1       6.570  -3.200  -3.948  0.00  0.00     0.047 H 
ATOM     46  H   LIG d   1       8.303  -2.800  -4.014  0.00  0.00     0.047 H 
BRANCH  44  47
ATOM     47  C   LIG d   1       7.060  -1.245  -3.190  0.00  0.00    -0.011 C 
ATOM     48  H   LIG d   1       7.418  -1.516  -2.196  0.00  0.00     0.033 H 
ATOM     49  H   LIG d   1       7.601  -0.368  -3.544  0.00  0.00     0.033 H 
BRANCH  47  50
ATOM     50  C   LIG d   1       5.586  -0.935  -3.124  0.00  0.00    -0.046 A 
ATOM     51  C   LIG d   1       5.124   0.310  -3.505  0.00  0.00    -0.059 A 
ATOM     52  C   LIG d   1       3.773   0.593  -3.448  0.00  0.00    -0.061 A 
ATOM     53  H   LIG d   1       5.819   1.062  -3.850  0.00  0.00     0.062 H 
ATOM     54  C   LIG d   1       2.884  -0.367  -3.003  0.00  0.00    -0.062 A 
ATOM     55  H   LIG d   1       3.411   1.565  -3.750  0.00  0.00     0.062 H 
ATOM     56  C   LIG d   1       3.347  -1.612  -2.617  0.00  0.00    -0.061 A 
ATOM     57  H   LIG d   1       1.828  -0.146  -2.955  0.00  0.00     0.062 H 
ATOM     58  C   LIG d   1       4.698  -1.895  -2.677  0.00  0.00    -0.059 A 
ATOM     59  H   LIG d   1       2.652  -2.361  -2.268  0.00  0.00     0.062 H 
ATOM     60  H   LIG d   1       5.060  -2.867  -2.375  0.00  0.00     0.062 H 
ENDBRANCH  47  50
ENDBRANCH  44  47
ENDBRANCH  21  44
TORSDOF 8
ENDMDL
MODEL 2
REMARK VINA RESULT:      -6.6      3.724      5.416
REMARK  8 active torsions:
REMARK  status: ('A' for Active; 'I' for Inactive)
REMARK    1  A    between atoms: C_1  and  C_2 
REMARK    2  A    between atoms: C_17  and  C_20 
REMARK    3  A    between atoms: C_20  and  C_21 
REMARK    4  A    between atoms: C_21  and  S_22 
REMARK    5  A    between atoms: S_22  and  C_23 
REMARK    6  A    between atoms: N_26  and  C_29 
REMARK    7  A    between atoms: C_29  and  C_30 
REMARK    8  A    between atoms: C_30  and  C_31 
ROOT
ATOM      1  C   LIG d   1       3.184  -0.365  -6.706  0.00  0.00    -0.049 A 
ATOM      2  C   LIG d   1       4.143  -1.362  -6.727  0.00  0.00    -0.048 A 
ATOM      3  C   LIG d   1       4.365  -2.082  -7.880  0.00  0.00     0.036 A 
ATOM      4  C   LIG d   1       3.631  -1.818  -9.033  0.00  0.00     0.061 A 
ATOM      5  C   LIG d   1       2.665  -0.814  -9.003  0.00  0.00     0.063 A 
ATOM      6  C   LIG d   1       2.444  -0.097  -7.843  0.00  0.00    -0.039 A 
ATOM      7 CL   LIG d   1       1.736  -0.464 -10.426  0.00  0.00    -0.082 Cl
ATOM      8  N   LIG d   1       4.030  -2.670 -10.066  0.00  0.00    -0.279 N 
ATOM      9  C   LIG d   1       5.008  -3.512  -9.680  0.00  0.00     0.274 A 
ATOM     10  O   LIG d   1       5.546  -4.358 -10.361  0.00  0.00    -0.269 OA
ATOM     11  C   LIG d   1       5.302  -3.200  -8.237  0.00  0.00     0.106 A 
ATOM     12  C   LIG d   1       6.767  -2.791  -8.042  0.00  0.00     0.111 A 
ATOM     13  H   LIG d   1       7.215  -2.386  -8.949  0.00  0.00     0.047 H 
ATOM     14  C   LIG d   1       7.471  -4.086  -7.547  0.00  0.00     0.096 A 
ATOM     15  H   LIG d   1       8.315  -4.373  -8.175  0.00  0.00     0.046 H 
ATOM     16  C   LIG d   1       6.360  -5.156  -7.521  0.00  0.00    -0.008 C 
ATOM     17  H   LIG d   1       6.367  -5.733  -8.446  0.00  0.00     0.086 H 
ATOM     18  N   LIG d   1       5.093  -4.379  -7.377  0.00  0.00     0.245 N 
ATOM     19  C   LIG d   1       7.886  -3.741  -6.136  0.00  0.00     0.231 A 
ATOM     20  O   LIG d   1       8.467  -4.484  -5.374  0.00  0.00    -0.275 OA
ATOM     21  N   LIG d   1       7.512  -2.486  -5.856  0.00  0.00    -0.241 N 
ATOM     22  C   LIG d   1       6.878  -1.846  -6.866  0.00  0.00     0.232 A 
ATOM     23  O   LIG d   1       6.462  -0.708  -6.840  0.00  0.00    -0.275 OA
ATOM     24  H   LIG d   1       4.719  -1.576  -5.838  0.00  0.00     0.063 H 
ATOM     25  H   LIG d   1       1.692   0.678  -7.825  0.00  0.00     0.064 H 
ATOM     26  H   LIG d   1       3.648  -2.656 -10.957  0.00  0.00     0.155 HD
ATOM     27  H   LIG d   1       4.947  -4.096  -6.420  0.00  0.00     0.203 HD
ATOM     28  H   LIG d   1       4.310  -4.923  -7.709  0.00  0.00     0.203 HD
ENDROOT
BRANCH  16  29
ATOM     29  C   LIG d   1       6.541  -6.082  -6.316  0.00  0.00     0.000 C 
ATOM     30  H   LIG d   1       7.037  -6.999  -6.633  0.00  0.00     0.033 H 
ATOM     31  H   LIG d   1       7.150  -5.581  -5.562  0.00  0.00     0.033 H 
BRANCH  29  32
ATOM     32  C   LIG d   1       5.172  -6.421  -5.723  0.00  0.00    -0.002 C 
ATOM     33  H   LIG d   1       5.029  -5.865  -4.797  0.00  0.00     0.038 H 
ATOM     34  H   LIG d   1       4.391  -6.149  -6.433  0.00  0.00     0.038 H 
BRANCH  32  35
ATOM     35  S   LIG d   1       5.086  -8.200  -5.380  0.00  0.00    -0.164 SA
BRANCH  35  36
ATOM     36  C   LIG d   1       4.611  -8.930  -6.972  0.00  0.00    -0.018 C 
ATOM     37  H   LIG d   1       3.706  -8.447  -7.338  0.00  0.00     0.034 H 
ATOM     38  H   LIG d   1       5.416  -8.785  -7.692  0.00  0.00     0.034 H 
ATOM     39  H   LIG d   1       4.427  -9.997  -6.842  0.00  0.00     0.034 H 
ENDBRANCH  35  36
ENDBRANCH  32  35
ENDBRANCH  29  32
ENDBRANCH  16  29
BRANCH   1  40
ATOM     40  C   LIG d   1       2.941   0.422  -5.444  0.00  0.00    -0.040 C 
ATOM     41  H   LIG d   1       2.029   1.008  -5.551  0.00  0.00     0.028 H 
ATOM     42  H   LIG d   1       2.837  -0.262  -4.603  0.00  0.00     0.028 H 
ATOM     43  H   LIG d   1       3.784   1.091  -5.267  0.00  0.00     0.028 H 
ENDBRANCH   1  40
BRANCH  21  44
ATOM     44  C   LIG d   1       7.776  -1.850  -4.563  0.00  0.00     0.026 C 
ATOM     45  H   LIG d   1       8.767  -2.138  -4.213  0.00  0.00     0.047 H 
ATOM     46  H   LIG d   1       7.730  -0.767  -4.675  0.00  0.00     0.047 H 
BRANCH  44  47
ATOM     47  C   LIG d   1       6.725  -2.304  -3.547  0.00  0.00    -0.011 C 
ATOM     48  H   LIG d   1       6.048  -3.016  -4.019  0.00  0.00     0.033 H 
ATOM     49  H   LIG d   1       7.219  -2.779  -2.700  0.00  0.00     0.033 H 
BRANCH  47  50
ATOM     50  C   LIG d   1       5.942  -1.109  -3.067  0.00  0.00    -0.046 A 
ATOM     51  C   LIG d   1       6.380   0.168  -3.359  0.00  0.00    -0.059 A 
ATOM     52  C   LIG d   1       5.660   1.263  -2.921  0.00  0.00    -0.061 A 
ATOM     53  H   LIG d   1       7.284   0.311  -3.932  0.00  0.00     0.062 H 
ATOM     54  C   LIG d   1       4.505   1.081  -2.184  0.00  0.00    -0.062 A 
ATOM     55  H   LIG d   1       6.000   2.262  -3.154  0.00  0.00     0.062 H 
ATOM     56  C   LIG d   1       4.069  -0.198  -1.887  0.00  0.00    -0.061 A 
ATOM     57  H   LIG d   1       3.943   1.936  -1.840  0.00  0.00     0.062 H 
ATOM     58  C   LIG d   1       4.788  -1.292  -2.328  0.00  0.00    -0.059 A 
ATOM     59  H   LIG d   1       3.167  -0.340  -1.310  0.00  0.00     0.062 H 
ATOM     60  H   LIG d   1       4.448  -2.291  -2.096  0.00  0.00     0.062 H 
ENDBRANCH  47  50
ENDBRANCH  44  47
ENDBRANCH  21  44
TORSDOF 8
ENDMDL
MODEL 3
REMARK VINA RESULT:      -6.2      3.550      5.315
REMARK  8 active torsions:
REMARK  status: ('A' for Active; 'I' for Inactive)
REMARK    1  A    between atoms: C_1  and  C_2 
REMARK    2  A    between atoms: C_17  and  C_20 
REMARK    3  A    between atoms: C_20  and  C_21 
REMARK    4  A    between atoms: C_21  and  S_22 
REMARK    5  A    between atoms: S_22  and  C_23 
REMARK    6  A    between atoms: N_26  and  C_29 
REMARK    7  A    between atoms: C_29  and  C_30 
REMARK    8  A    between atoms: C_30  and  C_31 
ROOT
ATOM      1  C   LIG d   1      10.408  -4.171  -3.223  0.00  0.00    -0.049 A 
ATOM      2  C   LIG d   1       9.833  -3.121  -3.917  0.00  0.00    -0.048 A 
ATOM      3  C   LIG d   1      10.590  -2.373  -4.789  0.00  0.00     0.036 A 
ATOM      4  C   LIG d   1      11.938  -2.661  -4.984  0.00  0.00     0.061 A 
ATOM      5  C   LIG d   1      12.511  -3.718  -4.280  0.00  0.00     0.063 A 
ATOM      6  C   LIG d   1      11.747  -4.463  -3.402  0.00  0.00    -0.039 A 
ATOM      7 CL   LIG d   1      14.189  -4.099  -4.503  0.00  0.00    -0.082 Cl
ATOM      8  N   LIG d   1      12.494  -1.772  -5.908  0.00  0.00    -0.279 N 
ATOM      9  C   LIG d   1      11.591  -0.882  -6.362  0.00  0.00     0.274 A 
ATOM     10  O   LIG d   1      11.788   0.003  -7.167  0.00  0.00    -0.269 OA
ATOM     11  C   LIG d   1      10.290  -1.199  -5.676  0.00  0.00     0.106 A 
ATOM     12  C   LIG d   1       9.188  -1.527  -6.691  0.00  0.00     0.111 A 
ATOM     13  H   LIG d   1       9.585  -1.892  -7.639  0.00  0.00     0.047 H 
ATOM     14  C   LIG d   1       8.389  -0.201  -6.843  0.00  0.00     0.096 A 
ATOM     15  H   LIG d   1       8.335   0.142  -7.876  0.00  0.00     0.046 H 
ATOM     16  C   LIG d   1       9.110   0.803  -5.920  0.00  0.00    -0.008 C 
ATOM     17  H   LIG d   1       9.828   1.393  -6.489  0.00  0.00     0.086 H 
ATOM     18  N   LIG d   1       9.795  -0.047  -4.901  0.00  0.00     0.245 N 
ATOM     19  C   LIG d   1       7.033  -0.544  -6.271  0.00  0.00     0.231 A 
ATOM     20  O   LIG d   1       6.095   0.219  -6.186  0.00  0.00    -0.275 OA
ATOM     21  N   LIG d   1       7.028  -1.822  -5.872  0.00  0.00    -0.241 N 
ATOM     22  C   LIG d   1       8.193  -2.481  -6.070  0.00  0.00     0.232 A 
ATOM     23  O   LIG d   1       8.412  -3.641  -5.796  0.00  0.00    -0.275 OA
ATOM     24  H   LIG d   1       8.787  -2.889  -3.774  0.00  0.00     0.063 H 
ATOM     25  H   LIG d   1      12.197  -5.280  -2.858  0.00  0.00     0.064 H 
ATOM     26  H   LIG d   1      13.421  -1.794  -6.190  0.00  0.00     0.155 HD
ATOM     27  H   LIG d   1       9.148  -0.351  -4.189  0.00  0.00     0.203 HD
ATOM     28  H   LIG d   1      10.565   0.458  -4.487  0.00  0.00     0.203 HD
ENDROOT
BRANCH  16  29
ATOM     29  C   LIG d   1       8.093   1.719  -5.235  0.00  0.00     0.000 C 
ATOM     30  H   LIG d   1       8.059   2.677  -5.754  0.00  0.00     0.033 H 
ATOM     31  H   LIG d   1       7.108   1.254  -5.265  0.00  0.00     0.033 H 
BRANCH  29  32
ATOM     32  C   LIG d   1       8.509   1.943  -3.779  0.00  0.00    -0.002 C 
ATOM     33  H   LIG d   1       7.620   2.082  -3.165  0.00  0.00     0.038 H 
ATOM     34  H   LIG d   1       9.064   1.075  -3.423  0.00  0.00     0.038 H 
BRANCH  32  35
ATOM     35  S   LIG d   1       9.558   3.419  -3.670  0.00  0.00    -0.164 SA
BRANCH  35  36
ATOM     36  C   LIG d   1      11.070   2.823  -2.863  0.00  0.00    -0.018 C 
ATOM     37  H   LIG d   1      10.806   2.127  -2.068  0.00  0.00     0.034 H 
ATOM     38  H   LIG d   1      11.697   2.316  -3.596  0.00  0.00     0.034 H 
ATOM     39  H   LIG d   1      11.613   3.669  -2.441  0.00  0.00     0.034 H 
ENDBRANCH  35  36
ENDBRANCH  32  35
ENDBRANCH  29  32
ENDBRANCH  16  29
BRANCH   1  40
ATOM     40  C   LIG d   1       9.578  -4.990  -2.268  0.00  0.00    -0.040 C 
ATOM     41  H   LIG d   1       8.521  -4.843  -2.487  0.00  0.00     0.028 H 
ATOM     42  H   LIG d   1       9.829  -6.044  -2.380  0.00  0.00     0.028 H 
ATOM     43  H   LIG d   1       9.784  -4.674  -1.245  0.00  0.00     0.028 H 
ENDBRANCH   1  40
BRANCH  21  44
ATOM     44  C   LIG d   1       5.852  -2.461  -5.275  0.00  0.00     0.026 C 
ATOM     45  H   LIG d   1       4.952  -1.938  -5.599  0.00  0.00     0.047 H 
ATOM     46  H   LIG d   1       5.804  -3.501  -5.596  0.00  0.00     0.047 H 
BRANCH  44  47
ATOM     47  C   LIG d   1       5.957  -2.401  -3.751  0.00  0.00    -0.011 C 
ATOM     48  H   LIG d   1       5.614  -3.345  -3.326  0.00  0.00     0.033 H 
ATOM     49  H   LIG d   1       6.994  -2.230  -3.463  0.00  0.00     0.033 H 
BRANCH  47  50
ATOM     50  C   LIG d   1       5.099  -1.276  -3.232  0.00  0.00    -0.046 A 
ATOM     51  C   LIG d   1       5.688  -0.135  -2.722  0.00  0.00    -0.059 A 
ATOM     52  C   LIG d   1       4.902   0.898  -2.250  0.00  0.00    -0.061 A 
ATOM     53  H   LIG d   1       6.765  -0.049  -2.696  0.00  0.00     0.062 H 
ATOM     54  C   LIG d   1       3.524   0.787  -2.279  0.00  0.00    -0.062 A 
ATOM     55  H   LIG d   1       5.363   1.792  -1.856  0.00  0.00     0.062 H 
ATOM     56  C   LIG d   1       2.934  -0.358  -2.784  0.00  0.00    -0.061 A 
ATOM     57  H   LIG d   1       2.908   1.592  -1.907  0.00  0.00     0.062 H 
ATOM     58  C   LIG d   1       3.721  -1.389  -3.260  0.00  0.00    -0.059 A 
ATOM     59  H   LIG d   1       1.858  -0.445  -2.805  0.00  0.00     0.062 H 
ATOM     60  H   LIG d   1       3.260  -2.283  -3.653  0.00  0.00     0.062 H 
ENDBRANCH  47  50
ENDBRANCH  44  47
ENDBRANCH  21  44
TORSDOF 8
ENDMDL
MODEL 4
REMARK VINA RESULT:      -6.1      2.954      6.249
REMARK  8 active torsions:
REMARK  status: ('A' for Active; 'I' for Inactive)
REMARK    1  A    between atoms: C_1  and  C_2 
REMARK    2  A    between atoms: C_17  and  C_20 
REMARK    3  A    between atoms: C_20  and  C_21 
REMARK    4  A    between atoms: C_21  and  S_22 
REMARK    5  A    between atoms: S_22  and  C_23 
REMARK    6  A    between atoms: N_26  and  C_29 
REMARK    7  A    between atoms: C_29  and  C_30 
REMARK    8  A    between atoms: C_30  and  C_31 
ROOT
ATOM      1  C   LIG d   1       3.077   0.865  -8.641  0.00  0.00    -0.049 A 
ATOM      2  C   LIG d   1       3.795   0.162  -7.689  0.00  0.00    -0.048 A 
ATOM      3  C   LIG d   1       3.802  -1.215  -7.706  0.00  0.00     0.036 A 
ATOM      4  C   LIG d   1       3.090  -1.914  -8.677  0.00  0.00     0.061 A 
ATOM      5  C   LIG d   1       2.368  -1.200  -9.631  0.00  0.00     0.063 A 
ATOM      6  C   LIG d   1       2.361   0.181  -9.606  0.00  0.00    -0.039 A 
ATOM      7 CL   LIG d   1       1.472  -2.047 -10.852  0.00  0.00    -0.082 Cl
ATOM      8  N   LIG d   1       3.247  -3.290  -8.493  0.00  0.00    -0.279 N 
ATOM      9  C   LIG d   1       4.034  -3.575  -7.438  0.00  0.00     0.274 A 
ATOM     10  O   LIG d   1       4.344  -4.678  -7.042  0.00  0.00    -0.269 OA
ATOM     11  C   LIG d   1       4.456  -2.257  -6.846  0.00  0.00     0.106 A 
ATOM     12  C   LIG d   1       5.982  -2.109  -6.843  0.00  0.00     0.111 A 
ATOM     13  H   LIG d   1       6.465  -2.717  -7.609  0.00  0.00     0.047 H 
ATOM     14  C   LIG d   1       6.410  -2.502  -5.401  0.00  0.00     0.096 A 
ATOM     15  H   LIG d   1       7.142  -3.310  -5.384  0.00  0.00     0.046 H 
ATOM     16  C   LIG d   1       5.095  -2.875  -4.685  0.00  0.00    -0.008 C 
ATOM     17  H   LIG d   1       4.934  -3.952  -4.727  0.00  0.00     0.086 H 
ATOM     18  N   LIG d   1       4.035  -2.140  -5.438  0.00  0.00     0.245 N 
ATOM     19  C   LIG d   1       6.955  -1.211  -4.835  0.00  0.00     0.231 A 
ATOM     20  O   LIG d   1       7.395  -1.068  -3.715  0.00  0.00    -0.275 OA
ATOM     21  N   LIG d   1       6.876  -0.249  -5.762  0.00  0.00    -0.241 N 
ATOM     22  C   LIG d   1       6.350  -0.645  -6.945  0.00  0.00     0.232 A 
ATOM     23  O   LIG d   1       6.193   0.050  -7.925  0.00  0.00    -0.275 OA
ATOM     24  H   LIG d   1       4.351   0.695  -6.931  0.00  0.00     0.063 H 
ATOM     25  H   LIG d   1       1.798   0.729 -10.347  0.00  0.00     0.064 H 
ATOM     26  H   LIG d   1       2.836  -3.962  -9.058  0.00  0.00     0.155 HD
ATOM     27  H   LIG d   1       3.999  -1.171  -5.160  0.00  0.00     0.203 HD
ATOM     28  H   LIG d   1       3.139  -2.582  -5.299  0.00  0.00     0.203 HD
ENDROOT
BRANCH  16  29
ATOM     29  C   LIG d   1       5.127  -2.398  -3.232  0.00  0.00     0.000 C 
ATOM     30  H   LIG d   1       5.105  -3.260  -2.566  0.00  0.00     0.033 H 
ATOM     31  H   LIG d   1       6.038  -1.826  -3.058  0.00  0.00     0.033 H 
BRANCH  29  32
ATOM     32  C   LIG d   1       3.909  -1.512  -2.960  0.00  0.00    -0.002 C 
ATOM     33  H   LIG d   1       3.513  -1.139  -3.903  0.00  0.00     0.038 H 
ATOM     34  H   LIG d   1       3.143  -2.095  -2.449  0.00  0.00     0.038 H 
BRANCH  32  35
ATOM     35  S   LIG d   1       4.401  -0.113  -1.915  0.00  0.00    -0.164 SA
BRANCH  35  36
ATOM     36  C   LIG d   1       3.671   1.328  -2.740  0.00  0.00    -0.018 C 
ATOM     37  H   LIG d   1       2.600   1.173  -2.862  0.00  0.00     0.034 H 
ATOM     38  H   LIG d   1       3.843   2.218  -2.135  0.00  0.00     0.034 H 
ATOM     39  H   LIG d   1       4.133   1.459  -3.719  0.00  0.00     0.034 H 
ENDBRANCH  35  36
ENDBRANCH  32  35
ENDBRANCH  29  32
ENDBRANCH  16  29
BRANCH   1  40
ATOM     40  C   LIG d   1       3.071   2.372  -8.621  0.00  0.00    -0.040 C 
ATOM     41  H   LIG d   1       4.068   2.743  -8.853  0.00  0.00     0.028 H 
ATOM     42  H   LIG d   1       2.363   2.742  -9.363  0.00  0.00     0.028 H 
ATOM     43  H   LIG d   1       2.774   2.720  -7.631  0.00  0.00     0.028 H 
ENDBRANCH   1  40
BRANCH  21  44
ATOM     44  C   LIG d   1       7.331   1.123  -5.522  0.00  0.00     0.026 C 
ATOM     45  H   LIG d   1       6.693   1.817  -6.069  0.00  0.00     0.047 H 
ATOM     46  H   LIG d   1       7.277   1.341  -4.456  0.00  0.00     0.047 H 
BRANCH  44  47
ATOM     47  C   LIG d   1       8.776   1.273  -6.002  0.00  0.00    -0.011 C 
ATOM     48  H   LIG d   1       9.440   0.729  -5.330  0.00  0.00     0.033 H 
ATOM     49  H   LIG d   1       8.869   0.868  -7.010  0.00  0.00     0.033 H 
BRANCH  47  50
ATOM     50  C   LIG d   1       9.154   2.732  -6.010  0.00  0.00    -0.046 A 
ATOM     51  C   LIG d   1       9.095   3.467  -4.842  0.00  0.00    -0.059 A 
ATOM     52  C   LIG d   1       9.445   4.804  -4.848  0.00  0.00    -0.061 A 
ATOM     53  H   LIG d   1       8.778   2.997  -3.923  0.00  0.00     0.062 H 
ATOM     54  C   LIG d   1       9.847   5.408  -6.025  0.00  0.00    -0.062 A 
ATOM     55  H   LIG d   1       9.403   5.378  -3.934  0.00  0.00     0.062 H 
ATOM     56  C   LIG d   1       9.901   4.673  -7.195  0.00  0.00    -0.061 A 
ATOM     57  H   LIG d   1      10.118   6.453  -6.032  0.00  0.00     0.062 H 
ATOM     58  C   LIG d   1       9.554   3.335  -7.187  0.00  0.00    -0.059 A 
ATOM     59  H   LIG d   1      10.214   5.145  -8.115  0.00  0.00     0.062 H 
ATOM     60  H   LIG d   1       9.596   2.761  -8.102  0.00  0.00     0.062 H 
ENDBRANCH  47  50
ENDBRANCH  44  47
ENDBRANCH  21  44
TORSDOF 8
ENDMDL
MODEL 5
REMARK VINA RESULT:      -5.9      3.058      5.406
REMARK  8 active torsions:
REMARK  status: ('A' for Active; 'I' for Inactive)
REMARK    1  A    between atoms: C_1  and  C_2 
REMARK    2  A    between atoms: C_17  and  C_20 
REMARK    3  A    between atoms: C_20  and  C_21 
REMARK    4  A    between atoms: C_21  and  S_22 
REMARK    5  A    between atoms: S_22  and  C_23 
REMARK    6  A    between atoms: N_26  and  C_29 
REMARK    7  A    between atoms: C_29  and  C_30 
REMARK    8  A    between atoms: C_30  and  C_31 
ROOT
ATOM      1  C   LIG d   1       3.543  -3.360  -8.929  0.00  0.00    -0.049 A 
ATOM      2  C   LIG d   1       4.564  -2.530  -8.501  0.00  0.00    -0.048 A 
ATOM      3  C   LIG d   1       4.630  -1.229  -8.947  0.00  0.00     0.036 A 
ATOM      4  C   LIG d   1       3.676  -0.735  -9.831  0.00  0.00     0.061 A 
ATOM      5  C   LIG d   1       2.651  -1.577 -10.260  0.00  0.00     0.063 A 
ATOM      6  C   LIG d   1       2.592  -2.882  -9.812  0.00  0.00    -0.039 A 
ATOM      7 CL   LIG d   1       1.449  -0.986 -11.362  0.00  0.00    -0.082 Cl
ATOM      8  N   LIG d   1       3.949   0.600 -10.140  0.00  0.00    -0.279 N 
ATOM      9  C   LIG d   1       5.050   1.052  -9.510  0.00  0.00     0.274 A 
ATOM     10  O   LIG d   1       5.525   2.165  -9.589  0.00  0.00    -0.269 OA
ATOM     11  C   LIG d   1       5.578  -0.094  -8.689  0.00  0.00     0.106 A 
ATOM     12  C   LIG d   1       5.634   0.266  -7.199  0.00  0.00     0.111 A 
ATOM     13  H   LIG d   1       4.927   1.051  -6.930  0.00  0.00     0.047 H 
ATOM     14  C   LIG d   1       7.114   0.675  -6.951  0.00  0.00     0.096 A 
ATOM     15  H   LIG d   1       7.209   1.674  -6.527  0.00  0.00     0.046 H 
ATOM     16  C   LIG d   1       7.796   0.545  -8.329  0.00  0.00    -0.008 C 
ATOM     17  H   LIG d   1       7.814   1.510  -8.835  0.00  0.00     0.086 H 
ATOM     18  N   LIG d   1       6.958  -0.442  -9.073  0.00  0.00     0.245 N 
ATOM     19  C   LIG d   1       7.622  -0.403  -6.022  0.00  0.00     0.231 A 
ATOM     20  O   LIG d   1       8.749  -0.473  -5.581  0.00  0.00    -0.275 OA
ATOM     21  N   LIG d   1       6.636  -1.270  -5.763  0.00  0.00    -0.241 N 
ATOM     22  C   LIG d   1       5.459  -0.986  -6.368  0.00  0.00     0.232 A 
ATOM     23  O   LIG d   1       4.433  -1.623  -6.269  0.00  0.00    -0.275 OA
ATOM     24  H   LIG d   1       5.310  -2.904  -7.814  0.00  0.00     0.063 H 
ATOM     25  H   LIG d   1       1.798  -3.531 -10.149  0.00  0.00     0.064 H 
ATOM     26  H   LIG d   1       3.409   1.139 -10.739  0.00  0.00     0.155 HD
ATOM     27  H   LIG d   1       7.176  -1.386  -8.793  0.00  0.00     0.203 HD
ATOM     28  H   LIG d   1       7.087  -0.328 -10.068  0.00  0.00     0.203 HD
ENDROOT
BRANCH  16  29
ATOM     29  C   LIG d   1       9.219   0.004  -8.169  0.00  0.00     0.000 C 
ATOM     30  H   LIG d   1       9.393  -0.258  -7.125  0.00  0.00     0.033 H 
ATOM     31  H   LIG d   1       9.342  -0.882  -8.792  0.00  0.00     0.033 H 
BRANCH  29  32
ATOM     32  C   LIG d   1      10.223   1.075  -8.600  0.00  0.00    -0.002 C 
ATOM     33  H   LIG d   1      10.967   0.631  -9.260  0.00  0.00     0.038 H 
ATOM     34  H   LIG d   1       9.700   1.872  -9.128  0.00  0.00     0.038 H 
BRANCH  32  35
ATOM     35  S   LIG d   1      11.044   1.758  -7.134  0.00  0.00    -0.164 SA
BRANCH  35  36
ATOM     36  C   LIG d   1       9.951   3.108  -6.608  0.00  0.00    -0.018 C 
ATOM     37  H   LIG d   1       9.027   2.691  -6.209  0.00  0.00     0.034 H 
ATOM     38  H   LIG d   1      10.448   3.696  -5.837  0.00  0.00     0.034 H 
ATOM     39  H   LIG d   1       9.724   3.745  -7.463  0.00  0.00     0.034 H 
ENDBRANCH  35  36
ENDBRANCH  32  35
ENDBRANCH  29  32
ENDBRANCH  16  29
BRANCH   1  40
ATOM     40  C   LIG d   1       3.471  -4.784  -8.440  0.00  0.00    -0.040 C 
ATOM     41  H   LIG d   1       2.460  -5.000  -8.098  0.00  0.00     0.028 H 
ATOM     42  H   LIG d   1       3.733  -5.461  -9.252  0.00  0.00     0.028 H 
ATOM     43  H   LIG d   1       4.170  -4.919  -7.614  0.00  0.00     0.028 H 
ENDBRANCH   1  40
BRANCH  21  44
ATOM     44  C   LIG d   1       6.811  -2.431  -4.886  0.00  0.00     0.026 C 
ATOM     45  H   LIG d   1       5.944  -3.085  -4.974  0.00  0.00     0.047 H 
ATOM     46  H   LIG d   1       7.709  -2.974  -5.179  0.00  0.00     0.047 H 
BRANCH  44  47
ATOM     47  C   LIG d   1       6.948  -1.960  -3.437  0.00  0.00    -0.011 C 
ATOM     48  H   LIG d   1       7.061  -2.826  -2.783  0.00  0.00     0.033 H 
ATOM     49  H   LIG d   1       7.824  -1.318  -3.344  0.00  0.00     0.033 H 
BRANCH  47  50
ATOM     50  C   LIG d   1       5.716  -1.189  -3.040  0.00  0.00    -0.046 A 
ATOM     51  C   LIG d   1       4.508  -1.844  -2.896  0.00  0.00    -0.059 A 
ATOM     52  C   LIG d   1       3.378  -1.138  -2.528  0.00  0.00    -0.061 A 
ATOM     53  H   LIG d   1       4.446  -2.908  -3.067  0.00  0.00     0.062 H 
ATOM     54  C   LIG d   1       3.455   0.226  -2.312  0.00  0.00    -0.062 A 
ATOM     55  H   LIG d   1       2.434  -1.650  -2.410  0.00  0.00     0.062 H 
ATOM     56  C   LIG d   1       4.663   0.882  -2.462  0.00  0.00    -0.061 A 
ATOM     57  H   LIG d   1       2.573   0.779  -2.028  0.00  0.00     0.062 H 
ATOM     58  C   LIG d   1       5.793   0.174  -2.826  0.00  0.00    -0.059 A 
ATOM     59  H   LIG d   1       4.723   1.947  -2.294  0.00  0.00     0.062 H 
ATOM     60  H   LIG d   1       6.737   0.687  -2.943  0.00  0.00     0.062 H 
ENDBRANCH  47  50
ENDBRANCH  44  47
ENDBRANCH  21  44
TORSDOF 8
ENDMDL
MODEL 6
REMARK VINA RESULT:      -5.8      1.942      2.726
REMARK  8 active torsions:
REMARK  status: ('A' for Active; 'I' for Inactive)
REMARK    1  A    between atoms: C_1  and  C_2 
REMARK    2  A    between atoms: C_17  and  C_20 
REMARK    3  A    between atoms: C_20  and  C_21 
REMARK    4  A    between atoms: C_21  and  S_22 
REMARK    5  A    between atoms: S_22  and  C_23 
REMARK    6  A    between atoms: N_26  and  C_29 
REMARK    7  A    between atoms: C_29  and  C_30 
REMARK    8  A    between atoms: C_30  and  C_31 
ROOT
ATOM      1  C   LIG d   1       9.963   4.961  -5.518  0.00  0.00    -0.049 A 
ATOM      2  C   LIG d   1       9.373   3.877  -6.142  0.00  0.00    -0.048 A 
ATOM      3  C   LIG d   1       9.559   3.672  -7.492  0.00  0.00     0.036 A 
ATOM      4  C   LIG d   1      10.338   4.549  -8.240  0.00  0.00     0.061 A 
ATOM      5  C   LIG d   1      10.927   5.640  -7.604  0.00  0.00     0.063 A 
ATOM      6  C   LIG d   1      10.734   5.843  -6.252  0.00  0.00    -0.039 A 
ATOM      7 CL   LIG d   1      11.903   6.749  -8.515  0.00  0.00    -0.082 Cl
ATOM      8  N   LIG d   1      10.380   4.138  -9.575  0.00  0.00    -0.279 N 
ATOM      9  C   LIG d   1       9.664   3.017  -9.784  0.00  0.00     0.274 A 
ATOM     10  O   LIG d   1       9.521   2.435 -10.838  0.00  0.00    -0.269 OA
ATOM     11  C   LIG d   1       9.077   2.626  -8.455  0.00  0.00     0.106 A 
ATOM     12  C   LIG d   1       9.530   1.222  -8.035  0.00  0.00     0.111 A 
ATOM     13  H   LIG d   1      10.475   0.930  -8.494  0.00  0.00     0.047 H 
ATOM     14  C   LIG d   1       8.350   0.293  -8.442  0.00  0.00     0.096 A 
ATOM     15  H   LIG d   1       8.659  -0.515  -9.105  0.00  0.00     0.046 H 
ATOM     16  C   LIG d   1       7.313   1.232  -9.092  0.00  0.00    -0.008 C 
ATOM     17  H   LIG d   1       7.433   1.237 -10.176  0.00  0.00     0.086 H 
ATOM     18  N   LIG d   1       7.605   2.576  -8.510  0.00  0.00     0.245 N 
ATOM     19  C   LIG d   1       7.828  -0.209  -7.115  0.00  0.00     0.231 A 
ATOM     20  O   LIG d   1       6.891  -0.964  -6.971  0.00  0.00    -0.275 OA
ATOM     21  N   LIG d   1       8.562   0.310  -6.123  0.00  0.00    -0.241 N 
ATOM     22  C   LIG d   1       9.561   1.129  -6.526  0.00  0.00     0.232 A 
ATOM     23  O   LIG d   1      10.353   1.698  -5.806  0.00  0.00    -0.275 OA
ATOM     24  H   LIG d   1       8.766   3.189  -5.571  0.00  0.00     0.063 H 
ATOM     25  H   LIG d   1      11.191   6.691  -5.765  0.00  0.00     0.064 H 
ATOM     26  H   LIG d   1      10.868   4.606 -10.270  0.00  0.00     0.155 HD
ATOM     27  H   LIG d   1       7.213   2.663  -7.584  0.00  0.00     0.203 HD
ATOM     28  H   LIG d   1       7.249   3.302  -9.114  0.00  0.00     0.203 HD
ENDROOT
BRANCH  16  29
ATOM     29  C   LIG d   1       5.894   0.799  -8.716  0.00  0.00     0.000 C 
ATOM     30  H   LIG d   1       5.942   0.014  -7.962  0.00  0.00     0.033 H 
ATOM     31  H   LIG d   1       5.347   1.654  -8.319  0.00  0.00     0.033 H 
BRANCH  29  32
ATOM     32  C   LIG d   1       5.177   0.269  -9.960  0.00  0.00    -0.002 C 
ATOM     33  H   LIG d   1       5.897   0.142 -10.768  0.00  0.00     0.038 H 
ATOM     34  H   LIG d   1       4.715  -0.692  -9.732  0.00  0.00     0.038 H 
BRANCH  32  35
ATOM     35  S   LIG d   1       3.897   1.449 -10.469  0.00  0.00    -0.164 SA
BRANCH  35  36
ATOM     36  C   LIG d   1       3.367   2.219  -8.913  0.00  0.00    -0.018 C 
ATOM     37  H   LIG d   1       3.909   3.152  -8.767  0.00  0.00     0.034 H 
ATOM     38  H   LIG d   1       2.297   2.421  -8.955  0.00  0.00     0.034 H 
ATOM     39  H   LIG d   1       3.578   1.543  -8.084  0.00  0.00     0.034 H 
ENDBRANCH  35  36
ENDBRANCH  32  35
ENDBRANCH  29  32
ENDBRANCH  16  29
BRANCH   1  40
ATOM     40  C   LIG d   1       9.759   5.185  -4.041  0.00  0.00    -0.040 C 
ATOM     41  H   LIG d   1       8.818   4.731  -3.731  0.00  0.00     0.028 H 
ATOM     42  H   LIG d   1      10.581   4.730  -3.488  0.00  0.00     0.028 H 
ATOM     43  H   LIG d   1       9.732   6.255  -3.837  0.00  0.00     0.028 H 
ENDBRANCH   1  40
BRANCH  21  44
ATOM     44  C   LIG d   1       8.310   0.011  -4.711  0.00  0.00     0.026 C 
ATOM     45  H   LIG d   1       7.826  -0.962  -4.628  0.00  0.00     0.047 H 
ATOM     46  H   LIG d   1       9.256  -0.006  -4.170  0.00  0.00     0.047 H 
BRANCH  44  47
ATOM     47  C   LIG d   1       7.400   1.086  -4.115  0.00  0.00    -0.011 C 
ATOM     48  H   LIG d   1       7.982   1.729  -3.455  0.00  0.00     0.033 H 
ATOM     49  H   LIG d   1       6.969   1.684  -4.918  0.00  0.00     0.033 H 
BRANCH  47  50
ATOM     50  C   LIG d   1       6.294   0.429  -3.330  0.00  0.00    -0.046 A 
ATOM     51  C   LIG d   1       6.162  -0.946  -3.338  0.00  0.00    -0.059 A 
ATOM     52  C   LIG d   1       5.150  -1.548  -2.615  0.00  0.00    -0.061 A 
ATOM     53  H   LIG d   1       6.851  -1.551  -3.908  0.00  0.00     0.062 H 
ATOM     54  C   LIG d   1       4.264  -0.774  -1.889  0.00  0.00    -0.062 A 
ATOM     55  H   LIG d   1       5.050  -2.624  -2.618  0.00  0.00     0.062 H 
ATOM     56  C   LIG d   1       4.393   0.603  -1.885  0.00  0.00    -0.061 A 
ATOM     57  H   LIG d   1       3.471  -1.243  -1.326  0.00  0.00     0.062 H 
ATOM     58  C   LIG d   1       5.407   1.204  -2.605  0.00  0.00    -0.059 A 
ATOM     59  H   LIG d   1       3.700   1.208  -1.319  0.00  0.00     0.062 H 
ATOM     60  H   LIG d   1       5.507   2.280  -2.603  0.00  0.00     0.062 H 
ENDBRANCH  47  50
ENDBRANCH  44  47
ENDBRANCH  21  44
TORSDOF 8
ENDMDL
MODEL 7
REMARK VINA RESULT:      -5.7      3.237      6.113
REMARK  8 active torsions:
REMARK  status: ('A' for Active; 'I' for Inactive)
REMARK    1  A    between atoms: C_1  and  C_2 
REMARK    2  A    between atoms: C_17  and  C_20 
REMARK    3  A    between atoms: C_20  and  C_21 
REMARK    4  A    between atoms: C_21  and  S_22 
REMARK    5  A    between atoms: S_22  and  C_23 
REMARK    6  A    between atoms: N_26  and  C_29 
REMARK    7  A    between atoms: C_29  and  C_30 
REMARK    8  A    between atoms: C_30  and  C_31 
ROOT
ATOM      1  C   LIG d   1       4.969  -2.370  -9.317  0.00  0.00    -0.049 A 
ATOM      2  C   LIG d   1       5.263  -2.070  -7.999  0.00  0.00    -0.048 A 
ATOM      3  C   LIG d   1       4.399  -1.294  -7.258  0.00  0.00     0.036 A 
ATOM      4  C   LIG d   1       3.224  -0.805  -7.823  0.00  0.00     0.061 A 
ATOM      5  C   LIG d   1       2.936  -1.111  -9.152  0.00  0.00     0.063 A 
ATOM      6  C   LIG d   1       3.808  -1.885  -9.891  0.00  0.00    -0.039 A 
ATOM      7 CL   LIG d   1       1.479  -0.513  -9.881  0.00  0.00    -0.082 Cl
ATOM      8  N   LIG d   1       2.515  -0.050  -6.885  0.00  0.00    -0.279 N 
ATOM      9  C   LIG d   1       3.146   0.005  -5.697  0.00  0.00     0.274 A 
ATOM     10  O   LIG d   1       2.767   0.587  -4.702  0.00  0.00    -0.269 OA
ATOM     11  C   LIG d   1       4.412  -0.794  -5.843  0.00  0.00     0.106 A 
ATOM     12  C   LIG d   1       4.462  -1.950  -4.836  0.00  0.00     0.111 A 
ATOM     13  H   LIG d   1       3.471  -2.265  -4.509  0.00  0.00     0.047 H 
ATOM     14  C   LIG d   1       5.341  -1.415  -3.670  0.00  0.00     0.096 A 
ATOM     15  H   LIG d   1       4.834  -1.460  -2.706  0.00  0.00     0.046 H 
ATOM     16  C   LIG d   1       5.711   0.025  -4.081  0.00  0.00    -0.008 C 
ATOM     17  H   LIG d   1       5.018   0.737  -3.633  0.00  0.00     0.086 H 
ATOM     18  N   LIG d   1       5.604   0.031  -5.571  0.00  0.00     0.245 N 
ATOM     19  C   LIG d   1       6.567  -2.297  -3.725  0.00  0.00     0.231 A 
ATOM     20  O   LIG d   1       7.524  -2.213  -2.985  0.00  0.00    -0.275 OA
ATOM     21  N   LIG d   1       6.434  -3.184  -4.718  0.00  0.00    -0.241 N 
ATOM     22  C   LIG d   1       5.276  -3.088  -5.411  0.00  0.00     0.232 A 
ATOM     23  O   LIG d   1       4.939  -3.791  -6.339  0.00  0.00    -0.275 OA
ATOM     24  H   LIG d   1       6.171  -2.444  -7.550  0.00  0.00     0.063 H 
ATOM     25  H   LIG d   1       3.581  -2.116 -10.921  0.00  0.00     0.064 H 
ATOM     26  H   LIG d   1       1.667   0.383  -7.069  0.00  0.00     0.155 HD
ATOM     27  H   LIG d   1       6.422  -0.380  -5.994  0.00  0.00     0.203 HD
ATOM     28  H   LIG d   1       5.466   0.972  -5.906  0.00  0.00     0.203 HD
ENDROOT
BRANCH  16  29
ATOM     29  C   LIG d   1       7.147   0.345  -3.661  0.00  0.00     0.000 C 
ATOM     30  H   LIG d   1       7.158   0.670  -2.621  0.00  0.00     0.033 H 
ATOM     31  H   LIG d   1       7.765  -0.546  -3.772  0.00  0.00     0.033 H 
BRANCH  29  32
ATOM     32  C   LIG d   1       7.701   1.462  -4.550  0.00  0.00    -0.002 C 
ATOM     33  H   LIG d   1       8.041   1.039  -5.494  0.00  0.00     0.038 H 
ATOM     34  H   LIG d   1       6.918   2.195  -4.742  0.00  0.00     0.038 H 
BRANCH  32  35
ATOM     35  S   LIG d   1       9.092   2.268  -3.710  0.00  0.00    -0.164 SA
BRANCH  35  36
ATOM     36  C   LIG d   1       9.554   3.621  -4.828  0.00  0.00    -0.018 C 
ATOM     37  H   LIG d   1       8.678   3.941  -5.392  0.00  0.00     0.034 H 
ATOM     38  H   LIG d   1       9.937   4.458  -4.246  0.00  0.00     0.034 H 
ATOM     39  H   LIG d   1      10.324   3.275  -5.518  0.00  0.00     0.034 H 
ENDBRANCH  35  36
ENDBRANCH  32  35
ENDBRANCH  29  32
ENDBRANCH  16  29
BRANCH   1  40
ATOM     40  C   LIG d   1       5.915  -3.219 -10.127  0.00  0.00    -0.040 C 
ATOM     41  H   LIG d   1       6.462  -2.588 -10.826  0.00  0.00     0.028 H 
ATOM     42  H   LIG d   1       6.618  -3.717  -9.459  0.00  0.00     0.028 H 
ATOM     43  H   LIG d   1       5.347  -3.967 -10.680  0.00  0.00     0.028 H 
ENDBRANCH   1  40
BRANCH  21  44
ATOM     44  C   LIG d   1       7.457  -4.187  -5.027  0.00  0.00     0.026 C 
ATOM     45  H   LIG d   1       8.234  -4.159  -4.264  0.00  0.00     0.047 H 
ATOM     46  H   LIG d   1       7.000  -5.176  -5.045  0.00  0.00     0.047 H 
BRANCH  44  47
ATOM     47  C   LIG d   1       8.073  -3.883  -6.394  0.00  0.00    -0.011 C 
ATOM     48  H   LIG d   1       8.681  -4.730  -6.714  0.00  0.00     0.033 H 
ATOM     49  H   LIG d   1       7.279  -3.710  -7.121  0.00  0.00     0.033 H 
BRANCH  47  50
ATOM     50  C   LIG d   1       8.938  -2.653  -6.293  0.00  0.00    -0.046 A 
ATOM     51  C   LIG d   1       9.979  -2.613  -5.385  0.00  0.00    -0.059 A 
ATOM     52  C   LIG d   1      10.775  -1.487  -5.295  0.00  0.00    -0.061 A 
ATOM     53  H   LIG d   1      10.173  -3.463  -4.748  0.00  0.00     0.062 H 
ATOM     54  C   LIG d   1      10.525  -0.397  -6.108  0.00  0.00    -0.062 A 
ATOM     55  H   LIG d   1      11.592  -1.457  -4.589  0.00  0.00     0.062 H 
ATOM     56  C   LIG d   1       9.480  -0.435  -7.013  0.00  0.00    -0.061 A 
ATOM     57  H   LIG d   1      11.144   0.484  -6.037  0.00  0.00     0.062 H 
ATOM     58  C   LIG d   1       8.687  -1.563  -7.105  0.00  0.00    -0.059 A 
ATOM     59  H   LIG d   1       9.284   0.417  -7.647  0.00  0.00     0.062 H 
ATOM     60  H   LIG d   1       7.870  -1.593  -7.811  0.00  0.00     0.062 H 
ENDBRANCH  47  50
ENDBRANCH  44  47
ENDBRANCH  21  44
TORSDOF 8
ENDMDL
MODEL 8
REMARK VINA RESULT:      -5.6      9.083     12.386
REMARK  8 active torsions:
REMARK  status: ('A' for Active; 'I' for Inactive)
REMARK    1  A    between atoms: C_1  and  C_2 
REMARK    2  A    between atoms: C_17  and  C_20 
REMARK    3  A    between atoms: C_20  and  C_21 
REMARK    4  A    between atoms: C_21  and  S_22 
REMARK    5  A    between atoms: S_22  and  C_23 
REMARK    6  A    between atoms: N_26  and  C_29 
REMARK    7  A    between atoms: C_29  and  C_30 
REMARK    8  A    between atoms: C_30  and  C_31 
ROOT
ATOM      1  C   LIG d   1       9.636  10.657  -4.220  0.00  0.00    -0.049 A 
ATOM      2  C   LIG d   1      10.196  10.324  -2.999  0.00  0.00    -0.048 A 
ATOM      3  C   LIG d   1      10.264  11.260  -1.992  0.00  0.00     0.036 A 
ATOM      4  C   LIG d   1       9.774  12.548  -2.187  0.00  0.00     0.061 A 
ATOM      5  C   LIG d   1       9.214  12.877  -3.420  0.00  0.00     0.063 A 
ATOM      6  C   LIG d   1       9.152  11.935  -4.428  0.00  0.00    -0.039 A 
ATOM      7 CL   LIG d   1       8.596  14.476  -3.690  0.00  0.00    -0.082 Cl
ATOM      8  N   LIG d   1       9.953  13.313  -1.032  0.00  0.00    -0.279 N 
ATOM      9  C   LIG d   1      10.545  12.613  -0.046  0.00  0.00     0.274 A 
ATOM     10  O   LIG d   1      10.824  13.017   1.063  0.00  0.00    -0.269 OA
ATOM     11  C   LIG d   1      10.793  11.231  -0.587  0.00  0.00     0.106 A 
ATOM     12  C   LIG d   1      10.087  10.164   0.260  0.00  0.00     0.111 A 
ATOM     13  H   LIG d   1       9.226  10.558   0.799  0.00  0.00     0.047 H 
ATOM     14  C   LIG d   1      11.195   9.620   1.206  0.00  0.00     0.096 A 
ATOM     15  H   LIG d   1      10.925   9.699   2.259  0.00  0.00     0.046 H 
ATOM     16  C   LIG d   1      12.455  10.436   0.850  0.00  0.00    -0.008 C 
ATOM     17  H   LIG d   1      12.560  11.284   1.527  0.00  0.00     0.086 H 
ATOM     18  N   LIG d   1      12.227  10.889  -0.554  0.00  0.00     0.245 N 
ATOM     19  C   LIG d   1      11.365   8.188   0.754  0.00  0.00     0.231 A 
ATOM     20  O   LIG d   1      12.148   7.392   1.228  0.00  0.00    -0.275 OA
ATOM     21  N   LIG d   1      10.518   7.933  -0.250  0.00  0.00    -0.241 N 
ATOM     22  C   LIG d   1       9.736   8.977  -0.610  0.00  0.00     0.232 A 
ATOM     23  O   LIG d   1       8.895   8.972  -1.482  0.00  0.00    -0.275 OA
ATOM     24  H   LIG d   1      10.579   9.326  -2.836  0.00  0.00     0.063 H 
ATOM     25  H   LIG d   1       8.719  12.197  -5.382  0.00  0.00     0.064 H 
ATOM     26  H   LIG d   1       9.682  14.241  -0.950  0.00  0.00     0.155 HD
ATOM     27  H   LIG d   1      12.429  10.150  -1.211  0.00  0.00     0.203 HD
ATOM     28  H   LIG d   1      12.789  11.703  -0.753  0.00  0.00     0.203 HD
ENDROOT
BRANCH  16  29
ATOM     29  C   LIG d   1      13.699   9.547   0.915  0.00  0.00     0.000 C 
ATOM     30  H   LIG d   1      14.301   9.826   1.780  0.00  0.00     0.033 H 
ATOM     31  H   LIG d   1      13.395   8.504   1.003  0.00  0.00     0.033 H 
BRANCH  29  32
ATOM     32  C   LIG d   1      14.524   9.732  -0.361  0.00  0.00    -0.002 C 
ATOM     33  H   LIG d   1      13.943  10.295  -1.090  0.00  0.00     0.038 H 
ATOM     34  H   LIG d   1      15.439  10.277  -0.126  0.00  0.00     0.038 H 
BRANCH  32  35
ATOM     35  S   LIG d   1      14.948   8.108  -1.047  0.00  0.00    -0.164 SA
BRANCH  35  36
ATOM     36  C   LIG d   1      14.734   8.319  -2.837  0.00  0.00    -0.018 C 
ATOM     37  H   LIG d   1      13.699   8.583  -3.050  0.00  0.00     0.034 H 
ATOM     38  H   LIG d   1      15.392   9.113  -3.189  0.00  0.00     0.034 H 
ATOM     39  H   LIG d   1      14.984   7.387  -3.345  0.00  0.00     0.034 H 
ENDBRANCH  35  36
ENDBRANCH  32  35
ENDBRANCH  29  32
ENDBRANCH  16  29
BRANCH   1  40
ATOM     40  C   LIG d   1       9.562   9.632  -5.322  0.00  0.00    -0.040 C 
ATOM     41  H   LIG d   1      10.560   9.453  -5.720  0.00  0.00     0.028 H 
ATOM     42  H   LIG d   1       9.155   8.702  -4.926  0.00  0.00     0.028 H 
ATOM     43  H   LIG d   1       8.915  10.002  -6.118  0.00  0.00     0.028 H 
ENDBRANCH   1  40
BRANCH  21  44
ATOM     44  C   LIG d   1      10.436   6.625  -0.905  0.00  0.00     0.026 C 
ATOM     45  H   LIG d   1      10.528   5.838  -0.157  0.00  0.00     0.047 H 
ATOM     46  H   LIG d   1       9.476   6.533  -1.412  0.00  0.00     0.047 H 
BRANCH  44  47
ATOM     47  C   LIG d   1      11.568   6.492  -1.926  0.00  0.00    -0.011 C 
ATOM     48  H   LIG d   1      12.195   7.384  -1.890  0.00  0.00     0.033 H 
ATOM     49  H   LIG d   1      12.170   5.615  -1.690  0.00  0.00     0.033 H 
BRANCH  47  50
ATOM     50  C   LIG d   1      10.984   6.344  -3.307  0.00  0.00    -0.046 A 
ATOM     51  C   LIG d   1       9.625   6.153  -3.467  0.00  0.00    -0.059 A 
ATOM     52  C   LIG d   1       9.090   6.020  -4.734  0.00  0.00    -0.061 A 
ATOM     53  H   LIG d   1       8.980   6.110  -2.602  0.00  0.00     0.062 H 
ATOM     54  C   LIG d   1       9.915   6.071  -5.842  0.00  0.00    -0.062 A 
ATOM     55  H   LIG d   1       8.027   5.875  -4.859  0.00  0.00     0.062 H 
ATOM     56  C   LIG d   1      11.276   6.258  -5.682  0.00  0.00    -0.061 A 
ATOM     57  H   LIG d   1       9.498   5.965  -6.832  0.00  0.00     0.062 H 
ATOM     58  C   LIG d   1      11.810   6.394  -4.415  0.00  0.00    -0.059 A 
ATOM     59  H   LIG d   1      11.920   6.296  -6.547  0.00  0.00     0.062 H 
ATOM     60  H   LIG d   1      12.873   6.538  -4.290  0.00  0.00     0.062 H 
ENDBRANCH  47  50
ENDBRANCH  44  47
ENDBRANCH  21  44
TORSDOF 8
ENDMDL
MODEL 9
REMARK VINA RESULT:      -5.5      7.933     11.035
REMARK  8 active torsions:
REMARK  status: ('A' for Active; 'I' for Inactive)
REMARK    1  A    between atoms: C_1  and  C_2 
REMARK    2  A    between atoms: C_17  and  C_20 
REMARK    3  A    between atoms: C_20  and  C_21 
REMARK    4  A    between atoms: C_21  and  S_22 
REMARK    5  A    between atoms: S_22  and  C_23 
REMARK    6  A    between atoms: N_26  and  C_29 
REMARK    7  A    between atoms: C_29  and  C_30 
REMARK    8  A    between atoms: C_30  and  C_31 
ROOT
ATOM      1  C   LIG d   1      10.153  10.741  -2.760  0.00  0.00    -0.049 A 
ATOM      2  C   LIG d   1      10.560   9.482  -2.353  0.00  0.00    -0.048 A 
ATOM      3  C   LIG d   1      10.874   9.252  -1.032  0.00  0.00     0.036 A 
ATOM      4  C   LIG d   1      10.788  10.276  -0.094  0.00  0.00     0.061 A 
ATOM      5  C   LIG d   1      10.379  11.542  -0.512  0.00  0.00     0.063 A 
ATOM      6  C   LIG d   1      10.070  11.769  -1.838  0.00  0.00    -0.039 A 
ATOM      7 CL   LIG d   1      10.264  12.837   0.637  0.00  0.00    -0.082 Cl
ATOM      8  N   LIG d   1      11.153   9.806   1.170  0.00  0.00    -0.279 N 
ATOM      9  C   LIG d   1      11.489   8.502   1.149  0.00  0.00     0.274 A 
ATOM     10  O   LIG d   1      11.847   7.831   2.093  0.00  0.00    -0.269 OA
ATOM     11  C   LIG d   1      11.335   8.040  -0.275  0.00  0.00     0.106 A 
ATOM     12  C   LIG d   1      10.327   6.890  -0.383  0.00  0.00     0.111 A 
ATOM     13  H   LIG d   1       9.606   6.885   0.435  0.00  0.00     0.047 H 
ATOM     14  C   LIG d   1      11.202   5.605  -0.422  0.00  0.00     0.096 A 
ATOM     15  H   LIG d   1      10.941   4.893   0.361  0.00  0.00     0.046 H 
ATOM     16  C   LIG d   1      12.655   6.112  -0.307  0.00  0.00    -0.008 C 
ATOM     17  H   LIG d   1      12.987   6.076   0.731  0.00  0.00     0.086 H 
ATOM     18  N   LIG d   1      12.605   7.516  -0.812  0.00  0.00     0.245 N 
ATOM     19  C   LIG d   1      10.957   5.059  -1.810  0.00  0.00     0.231 A 
ATOM     20  O   LIG d   1      11.460   4.055  -2.267  0.00  0.00    -0.275 OA
ATOM     21  N   LIG d   1      10.098   5.856  -2.457  0.00  0.00    -0.241 N 
ATOM     22  C   LIG d   1       9.666   6.921  -1.743  0.00  0.00     0.232 A 
ATOM     23  O   LIG d   1       8.882   7.764  -2.121  0.00  0.00    -0.275 OA
ATOM     24  H   LIG d   1      10.630   8.679  -3.072  0.00  0.00     0.063 H 
ATOM     25  H   LIG d   1       9.756  12.751  -2.156  0.00  0.00     0.064 H 
ATOM     26  H   LIG d   1      11.164  10.355   1.970  0.00  0.00     0.155 HD
ATOM     27  H   LIG d   1      12.598   7.539  -1.820  0.00  0.00     0.203 HD
ATOM     28  H   LIG d   1      13.385   8.044  -0.450  0.00  0.00     0.203 HD
ENDROOT
BRANCH  16  29
ATOM     29  C   LIG d   1      13.582   5.274  -1.190  0.00  0.00     0.000 C 
ATOM     30  H   LIG d   1      14.147   4.579  -0.569  0.00  0.00     0.033 H 
ATOM     31  H   LIG d   1      12.987   4.715  -1.913  0.00  0.00     0.033 H 
BRANCH  29  32
ATOM     32  C   LIG d   1      14.550   6.198  -1.932  0.00  0.00    -0.002 C 
ATOM     33  H   LIG d   1      14.281   7.236  -1.741  0.00  0.00     0.038 H 
ATOM     34  H   LIG d   1      15.566   6.016  -1.582  0.00  0.00     0.038 H 
BRANCH  32  35
ATOM     35  S   LIG d   1      14.456   5.866  -3.713  0.00  0.00    -0.164 SA
BRANCH  35  36
ATOM     36  C   LIG d   1      14.648   4.066  -3.834  0.00  0.00    -0.018 C 
ATOM     37  H   LIG d   1      14.653   3.633  -2.835  0.00  0.00     0.034 H 
ATOM     38  H   LIG d   1      13.818   3.651  -4.405  0.00  0.00     0.034 H 
ATOM     39  H   LIG d   1      15.587   3.834  -4.336  0.00  0.00     0.034 H 
ENDBRANCH  35  36
ENDBRANCH  32  35
ENDBRANCH  29  32
ENDBRANCH  16  29
BRANCH   1  40
ATOM     40  C   LIG d   1       9.809  10.993  -4.205  0.00  0.00    -0.040 C 
ATOM     41  H   LIG d   1       8.841  11.487  -4.267  0.00  0.00     0.028 H 
ATOM     42  H   LIG d   1      10.572  11.628  -4.655  0.00  0.00     0.028 H 
ATOM     43  H   LIG d   1       9.767  10.043  -4.739  0.00  0.00     0.028 H 
ENDBRANCH   1  40
BRANCH  21  44
ATOM     44  C   LIG d   1       9.652   5.593  -3.828  0.00  0.00     0.026 C 
ATOM     45  H   LIG d   1       9.419   4.535  -3.937  0.00  0.00     0.047 H 
ATOM     46  H   LIG d   1       8.762   6.186  -4.040  0.00  0.00     0.047 H 
BRANCH  44  47
ATOM     47  C   LIG d   1      10.764   5.973  -4.808  0.00  0.00    -0.011 C 
ATOM     48  H   LIG d   1      11.462   6.653  -4.319  0.00  0.00     0.033 H 
ATOM     49  H   LIG d   1      11.294   5.074  -5.123  0.00  0.00     0.033 H 
BRANCH  47  50
ATOM     50  C   LIG d   1      10.163   6.651  -6.012  0.00  0.00    -0.046 A 
ATOM     51  C   LIG d   1       9.633   7.921  -5.898  0.00  0.00    -0.059 A 
ATOM     52  C   LIG d   1       9.085   8.544  -7.003  0.00  0.00    -0.061 A 
ATOM     53  H   LIG d   1       9.650   8.430  -4.945  0.00  0.00     0.062 H 
ATOM     54  C   LIG d   1       9.060   7.893  -8.222  0.00  0.00    -0.062 A 
ATOM     55  H   LIG d   1       8.675   9.540  -6.914  0.00  0.00     0.062 H 
ATOM     56  C   LIG d   1       9.586   6.619  -8.335  0.00  0.00    -0.061 A 
ATOM     57  H   LIG d   1       8.630   8.378  -9.085  0.00  0.00     0.062 H 
ATOM     58  C   LIG d   1      10.136   5.998  -7.230  0.00  0.00    -0.059 A 
ATOM     59  H   LIG d   1       9.565   6.110  -9.287  0.00  0.00     0.062 H 
ATOM     60  H   LIG d   1      10.547   5.003  -7.319  0.00  0.00     0.062 H 
ENDBRANCH  47  50
ENDBRANCH  44  47
ENDBRANCH  21  44
TORSDOF 8
ENDMDL
