MODEL 1
REMARK VINA RESULT:      -6.3      0.000      0.000
REMARK  8 active torsions:
REMARK  status: ('A' for Active; 'I' for Inactive)
REMARK    1  A    between atoms: C_1  and  C_2 
REMARK    2  A    between atoms: C_2  and  O_3 
REMARK    3  A    between atoms: O_3  and  C_4 
REMARK    4  A    between atoms: C_7  and  C_10 
REMARK    5  A    between atoms: C_16  and  C_19 
REMARK    6  A    between atoms: C_22  and  N_25 
REMARK    7  A    between atoms: N_25  and  C_26 
REMARK    8  A    between atoms: N_25  and  C_27 
ROOT
ATOM      1  C   LIG d   1       8.420   1.570  -4.644  0.00  0.00     0.179 A 
ATOM      2  N   LIG d   1       8.579   1.578  -5.944  0.00  0.00    -0.127 NA
ATOM      3  N   LIG d   1       9.624   2.260  -6.256  0.00  0.00    -0.121 NA
ATOM      4  C   LIG d   1      10.182   2.719  -5.175  0.00  0.00     0.208 A 
ATOM      5  N   LIG d   1       9.460   2.315  -4.087  0.00  0.00    -0.231 N 
ATOM      6  N   LIG d   1       9.855   2.676  -2.839  0.00  0.00    -0.207 NA
ATOM      7  C   LIG d   1      11.073   3.506  -2.729  0.00  0.00     0.105 A 
ATOM      8  H   LIG d   1      11.853   2.989  -2.170  0.00  0.00     0.065 H 
ATOM      9  S   LIG d   1      11.522   3.674  -4.500  0.00  0.00    -0.059 SA
ATOM     10  H   LIG d   1       9.907   1.874  -2.229  0.00  0.00     0.149 HD
ENDROOT
BRANCH   7  11
ATOM     11  C   LIG d   1      10.765   4.847  -2.114  0.00  0.00    -0.018 A 
ATOM     12  C   LIG d   1      11.398   5.233  -0.947  0.00  0.00    -0.054 A 
ATOM     13  C   LIG d   1      11.118   6.461  -0.381  0.00  0.00    -0.040 A 
ATOM     14  H   LIG d   1      12.111   4.572  -0.477  0.00  0.00     0.062 H 
ATOM     15  C   LIG d   1      10.200   7.310  -0.986  0.00  0.00     0.029 A 
ATOM     16  H   LIG d   1      11.613   6.762   0.531  0.00  0.00     0.064 H 
ATOM     17  C   LIG d   1       9.566   6.920  -2.159  0.00  0.00    -0.040 A 
ATOM     18  C   LIG d   1       9.851   5.690  -2.720  0.00  0.00    -0.054 A 
ATOM     19  H   LIG d   1       8.852   7.577  -2.631  0.00  0.00     0.064 H 
ATOM     20  H   LIG d   1       9.361   5.388  -3.633  0.00  0.00     0.062 H 
BRANCH  15  21
ATOM     21  N   LIG d   1       9.915   8.553  -0.417  0.00  0.00    -0.336 N 
BRANCH  21  22
ATOM     22  C   LIG d   1       8.674   9.250  -0.762  0.00  0.00     0.000 C 
ATOM     23  H   LIG d   1       8.407   9.029  -1.795  0.00  0.00     0.043 H 
ATOM     24  H   LIG d   1       7.874   8.917  -0.100  0.00  0.00     0.043 H 
ATOM     25  H   LIG d   1       8.817  10.325  -0.646  0.00  0.00     0.043 H 
ENDBRANCH  21  22
BRANCH  21  26
ATOM     26  C   LIG d   1      10.858   9.161   0.525  0.00  0.00     0.000 C 
ATOM     27  H   LIG d   1      10.426   9.156   1.526  0.00  0.00     0.043 H 
ATOM     28  H   LIG d   1      11.788   8.591   0.529  0.00  0.00     0.043 H 
ATOM     29  H   LIG d   1      11.063  10.188   0.223  0.00  0.00     0.043 H 
ENDBRANCH  21  26
ENDBRANCH  15  21
ENDBRANCH   7  11
BRANCH   1  30
ATOM     30  C   LIG d   1       7.336   0.895  -3.902  0.00  0.00     0.021 A 
ATOM     31  C   LIG d   1       7.280  -0.499  -3.859  0.00  0.00    -0.048 A 
ATOM     32  C   LIG d   1       6.267  -1.125  -3.164  0.00  0.00    -0.019 A 
ATOM     33  H   LIG d   1       8.029  -1.087  -4.368  0.00  0.00     0.063 H 
ATOM     34  C   LIG d   1       5.302  -0.371  -2.510  0.00  0.00     0.120 A 
ATOM     35  H   LIG d   1       6.223  -2.204  -3.130  0.00  0.00     0.065 H 
ATOM     36  C   LIG d   1       5.354   1.016  -2.550  0.00  0.00    -0.019 A 
ATOM     37  C   LIG d   1       6.368   1.650  -3.237  0.00  0.00    -0.048 A 
ATOM     38  H   LIG d   1       4.602   1.600  -2.040  0.00  0.00     0.065 H 
ATOM     39  H   LIG d   1       6.410   2.728  -3.265  0.00  0.00     0.063 H 
BRANCH  34  40
ATOM     40  O   LIG d   1       4.305  -0.992  -1.826  0.00  0.00    -0.492 OA
BRANCH  40  41
ATOM     41  C   LIG d   1       3.351  -1.727  -2.596  0.00  0.00     0.087 C 
ATOM     42  H   LIG d   1       3.874  -2.359  -3.315  0.00  0.00     0.069 H 
ATOM     43  H   LIG d   1       2.751  -2.349  -1.933  0.00  0.00     0.069 H 
BRANCH  41  44
ATOM     44  C   LIG d   1       2.439  -0.752  -3.344  0.00  0.00    -0.031 C 
ATOM     45  H   LIG d   1       2.274   0.135  -2.732  0.00  0.00     0.026 H 
ATOM     46  H   LIG d   1       2.911  -0.462  -4.283  0.00  0.00     0.026 H 
ATOM     47  H   LIG d   1       1.483  -1.234  -3.551  0.00  0.00     0.026 H 
ENDBRANCH  41  44
ENDBRANCH  40  41
ENDBRANCH  34  40
ENDBRANCH   1  30
TORSDOF 8
ENDMDL
MODEL 2
REMARK VINA RESULT:      -6.0      0.823      1.621
REMARK  8 active torsions:
REMARK  status: ('A' for Active; 'I' for Inactive)
REMARK    1  A    between atoms: C_1  and  C_2 
REMARK    2  A    between atoms: C_2  and  O_3 
REMARK    3  A    between atoms: O_3  and  C_4 
REMARK    4  A    between atoms: C_7  and  C_10 
REMARK    5  A    between atoms: C_16  and  C_19 
REMARK    6  A    between atoms: C_22  and  N_25 
REMARK    7  A    between atoms: N_25  and  C_26 
REMARK    8  A    between atoms: N_25  and  C_27 
ROOT
ATOM      1  C   LIG d   1       8.687   1.090  -4.732  0.00  0.00     0.179 A 
ATOM      2  N   LIG d   1       8.996   0.833  -5.978  0.00  0.00    -0.127 NA
ATOM      3  N   LIG d   1      10.064   1.471  -6.306  0.00  0.00    -0.121 NA
ATOM      4  C   LIG d   1      10.487   2.163  -5.290  0.00  0.00     0.208 A 
ATOM      5  N   LIG d   1       9.645   1.969  -4.230  0.00  0.00    -0.231 N 
ATOM      6  N   LIG d   1       9.888   2.595  -3.050  0.00  0.00    -0.207 NA
ATOM      7  C   LIG d   1      11.076   3.471  -2.980  0.00  0.00     0.105 A 
ATOM      8  H   LIG d   1      11.790   3.109  -2.240  0.00  0.00     0.065 H 
ATOM      9  S   LIG d   1      11.728   3.284  -4.685  0.00  0.00    -0.059 SA
ATOM     10  H   LIG d   1       9.876   1.940  -2.283  0.00  0.00     0.149 HD
ENDROOT
BRANCH   7  11
ATOM     11  C   LIG d   1      10.684   4.900  -2.699  0.00  0.00    -0.018 A 
ATOM     12  C   LIG d   1      10.290   5.723  -3.738  0.00  0.00    -0.054 A 
ATOM     13  C   LIG d   1       9.931   7.032  -3.485  0.00  0.00    -0.040 A 
ATOM     14  H   LIG d   1      10.264   5.342  -4.749  0.00  0.00     0.062 H 
ATOM     15  C   LIG d   1       9.965   7.522  -2.186  0.00  0.00     0.029 A 
ATOM     16  H   LIG d   1       9.623   7.675  -4.297  0.00  0.00     0.064 H 
ATOM     17  C   LIG d   1      10.361   6.692  -1.145  0.00  0.00    -0.040 A 
ATOM     18  C   LIG d   1      10.719   5.383  -1.405  0.00  0.00    -0.054 A 
ATOM     19  H   LIG d   1      10.390   7.069  -0.134  0.00  0.00     0.064 H 
ATOM     20  H   LIG d   1      11.023   4.737  -0.595  0.00  0.00     0.062 H 
BRANCH  15  21
ATOM     21  N   LIG d   1       9.601   8.845  -1.927  0.00  0.00    -0.336 N 
BRANCH  21  22
ATOM     22  C   LIG d   1      10.025   9.913  -2.836  0.00  0.00     0.000 C 
ATOM     23  H   LIG d   1       9.231  10.655  -2.920  0.00  0.00     0.043 H 
ATOM     24  H   LIG d   1      10.926  10.386  -2.446  0.00  0.00     0.043 H 
ATOM     25  H   LIG d   1      10.233   9.491  -3.820  0.00  0.00     0.043 H 
ENDBRANCH  21  22
BRANCH  21  26
ATOM     26  C   LIG d   1       8.798   9.166  -0.745  0.00  0.00     0.000 C 
ATOM     27  H   LIG d   1       9.417   9.689  -0.015  0.00  0.00     0.043 H 
ATOM     28  H   LIG d   1       7.963   9.805  -1.035  0.00  0.00     0.043 H 
ATOM     29  H   LIG d   1       8.416   8.246  -0.305  0.00  0.00     0.043 H 
ENDBRANCH  21  26
ENDBRANCH  15  21
ENDBRANCH   7  11
BRANCH   1  30
ATOM     30  C   LIG d   1       7.529   0.546  -3.992  0.00  0.00     0.021 A 
ATOM     31  C   LIG d   1       6.614   1.412  -3.390  0.00  0.00    -0.048 A 
ATOM     32  C   LIG d   1       5.535   0.901  -2.701  0.00  0.00    -0.019 A 
ATOM     33  H   LIG d   1       6.751   2.481  -3.464  0.00  0.00     0.063 H 
ATOM     34  C   LIG d   1       5.358  -0.473  -2.604  0.00  0.00     0.120 A 
ATOM     35  H   LIG d   1       4.826   1.570  -2.235  0.00  0.00     0.065 H 
ATOM     36  C   LIG d   1       6.265  -1.338  -3.201  0.00  0.00    -0.019 A 
ATOM     37  C   LIG d   1       7.344  -0.834  -3.898  0.00  0.00    -0.048 A 
ATOM     38  H   LIG d   1       6.125  -2.405  -3.124  0.00  0.00     0.065 H 
ATOM     39  H   LIG d   1       8.047  -1.507  -4.365  0.00  0.00     0.063 H 
BRANCH  34  40
ATOM     40  O   LIG d   1       4.293  -0.972  -1.924  0.00  0.00    -0.492 OA
BRANCH  40  41
ATOM     41  C   LIG d   1       3.292  -1.645  -2.689  0.00  0.00     0.087 C 
ATOM     42  H   LIG d   1       3.768  -2.355  -3.367  0.00  0.00     0.069 H 
ATOM     43  H   LIG d   1       2.618  -2.179  -2.019  0.00  0.00     0.069 H 
BRANCH  41  44
ATOM     44  C   LIG d   1       2.497  -0.621  -3.502  0.00  0.00    -0.031 C 
ATOM     45  H   LIG d   1       2.243  -1.047  -4.474  0.00  0.00     0.026 H 
ATOM     46  H   LIG d   1       1.582  -0.365  -2.968  0.00  0.00     0.026 H 
ATOM     47  H   LIG d   1       3.099   0.276  -3.645  0.00  0.00     0.026 H 
ENDBRANCH  41  44
ENDBRANCH  40  41
ENDBRANCH  34  40
ENDBRANCH   1  30
TORSDOF 8
ENDMDL
MODEL 3
REMARK VINA RESULT:      -5.6      7.003     11.808
REMARK  8 active torsions:
REMARK  status: ('A' for Active; 'I' for Inactive)
REMARK    1  A    between atoms: C_1  and  C_2 
REMARK    2  A    between atoms: C_2  and  O_3 
REMARK    3  A    between atoms: O_3  and  C_4 
REMARK    4  A    between atoms: C_7  and  C_10 
REMARK    5  A    between atoms: C_16  and  C_19 
REMARK    6  A    between atoms: C_22  and  N_25 
REMARK    7  A    between atoms: N_25  and  C_26 
REMARK    8  A    between atoms: N_25  and  C_27 
ROOT
ATOM      1  C   LIG d   1       5.758  -3.739  -6.267  0.00  0.00     0.179 A 
ATOM      2  N   LIG d   1       6.666  -3.379  -7.139  0.00  0.00    -0.127 NA
ATOM      3  N   LIG d   1       7.105  -4.412  -7.768  0.00  0.00    -0.121 NA
ATOM      4  C   LIG d   1       6.502  -5.477  -7.330  0.00  0.00     0.208 A 
ATOM      5  N   LIG d   1       5.613  -5.124  -6.354  0.00  0.00    -0.231 N 
ATOM      6  N   LIG d   1       4.862  -6.077  -5.745  0.00  0.00    -0.207 NA
ATOM      7  C   LIG d   1       5.055  -7.474  -6.184  0.00  0.00     0.105 A 
ATOM      8  H   LIG d   1       4.139  -7.884  -6.610  0.00  0.00     0.065 H 
ATOM      9  S   LIG d   1       6.344  -7.243  -7.470  0.00  0.00    -0.059 SA
ATOM     10  H   LIG d   1       3.884  -5.827  -5.752  0.00  0.00     0.149 HD
ENDROOT
BRANCH   7  11
ATOM     11  C   LIG d   1       5.560  -8.336  -5.055  0.00  0.00    -0.018 A 
ATOM     12  C   LIG d   1       6.878  -8.236  -4.647  0.00  0.00    -0.054 A 
ATOM     13  C   LIG d   1       7.344  -9.025  -3.614  0.00  0.00    -0.040 A 
ATOM     14  H   LIG d   1       7.544  -7.542  -5.139  0.00  0.00     0.062 H 
ATOM     15  C   LIG d   1       6.487  -9.918  -2.983  0.00  0.00     0.029 A 
ATOM     16  H   LIG d   1       8.373  -8.946  -3.296  0.00  0.00     0.064 H 
ATOM     17  C   LIG d   1       5.164 -10.015  -3.394  0.00  0.00    -0.040 A 
ATOM     18  C   LIG d   1       4.705  -9.224  -4.429  0.00  0.00    -0.054 A 
ATOM     19  H   LIG d   1       4.497 -10.709  -2.906  0.00  0.00     0.064 H 
ATOM     20  H   LIG d   1       3.675  -9.296  -4.746  0.00  0.00     0.062 H 
BRANCH  15  21
ATOM     21  N   LIG d   1       6.956 -10.716  -1.936  0.00  0.00    -0.336 N 
BRANCH  21  22
ATOM     22  C   LIG d   1       8.268 -10.450  -1.342  0.00  0.00     0.000 C 
ATOM     23  H   LIG d   1       8.856  -9.833  -2.021  0.00  0.00     0.043 H 
ATOM     24  H   LIG d   1       8.139  -9.926  -0.395  0.00  0.00     0.043 H 
ATOM     25  H   LIG d   1       8.786 -11.393  -1.168  0.00  0.00     0.043 H 
ENDBRANCH  21  22
BRANCH  21  26
ATOM     26  C   LIG d   1       6.135 -11.820  -1.433  0.00  0.00     0.000 C 
ATOM     27  H   LIG d   1       6.766 -12.692  -1.258  0.00  0.00     0.043 H 
ATOM     28  H   LIG d   1       5.660 -11.523  -0.498  0.00  0.00     0.043 H 
ATOM     29  H   LIG d   1       5.369 -12.067  -2.167  0.00  0.00     0.043 H 
ENDBRANCH  21  26
ENDBRANCH  15  21
ENDBRANCH   7  11
BRANCH   1  30
ATOM     30  C   LIG d   1       5.022  -2.841  -5.354  0.00  0.00     0.021 A 
ATOM     31  C   LIG d   1       4.536  -1.617  -5.818  0.00  0.00    -0.048 A 
ATOM     32  C   LIG d   1       3.848  -0.782  -4.963  0.00  0.00    -0.019 A 
ATOM     33  H   LIG d   1       4.698  -1.325  -6.844  0.00  0.00     0.063 H 
ATOM     34  C   LIG d   1       3.640  -1.157  -3.642  0.00  0.00     0.120 A 
ATOM     35  H   LIG d   1       3.471   0.165  -5.321  0.00  0.00     0.065 H 
ATOM     36  C   LIG d   1       4.121  -2.373  -3.176  0.00  0.00    -0.019 A 
ATOM     37  C   LIG d   1       4.804  -3.217  -4.027  0.00  0.00    -0.048 A 
ATOM     38  H   LIG d   1       3.958  -2.661  -2.149  0.00  0.00     0.065 H 
ATOM     39  H   LIG d   1       5.175  -4.164  -3.666  0.00  0.00     0.063 H 
BRANCH  34  40
ATOM     40  O   LIG d   1       2.962  -0.331  -2.803  0.00  0.00    -0.492 OA
BRANCH  40  41
ATOM     41  C   LIG d   1       3.475   0.993  -2.641  0.00  0.00     0.087 C 
ATOM     42  H   LIG d   1       3.832   1.365  -3.602  0.00  0.00     0.069 H 
ATOM     43  H   LIG d   1       2.686   1.646  -2.268  0.00  0.00     0.069 H 
BRANCH  41  44
ATOM     44  C   LIG d   1       4.634   0.973  -1.641  0.00  0.00    -0.031 C 
ATOM     45  H   LIG d   1       5.578   1.075  -2.178  0.00  0.00     0.026 H 
ATOM     46  H   LIG d   1       4.523   1.800  -0.941  0.00  0.00     0.026 H 
ATOM     47  H   LIG d   1       4.626   0.029  -1.095  0.00  0.00     0.026 H 
ENDBRANCH  41  44
ENDBRANCH  40  41
ENDBRANCH  34  40
ENDBRANCH   1  30
TORSDOF 8
ENDMDL
MODEL 4
REMARK VINA RESULT:      -5.6      7.856     10.925
REMARK  8 active torsions:
REMARK  status: ('A' for Active; 'I' for Inactive)
REMARK    1  A    between atoms: C_1  and  C_2 
REMARK    2  A    between atoms: C_2  and  O_3 
REMARK    3  A    between atoms: O_3  and  C_4 
REMARK    4  A    between atoms: C_7  and  C_10 
REMARK    5  A    between atoms: C_16  and  C_19 
REMARK    6  A    between atoms: C_22  and  N_25 
REMARK    7  A    between atoms: N_25  and  C_26 
REMARK    8  A    between atoms: N_25  and  C_27 
ROOT
ATOM      1  C   LIG d   1       5.287  -8.724  -4.953  0.00  0.00     0.179 A 
ATOM      2  N   LIG d   1       4.315  -9.160  -5.714  0.00  0.00    -0.127 NA
ATOM      3  N   LIG d   1       4.051  -8.297  -6.629  0.00  0.00    -0.121 NA
ATOM      4  C   LIG d   1       4.838  -7.270  -6.499  0.00  0.00     0.208 A 
ATOM      5  N   LIG d   1       5.670  -7.471  -5.432  0.00  0.00    -0.231 N 
ATOM      6  N   LIG d   1       6.586  -6.526  -5.100  0.00  0.00    -0.207 NA
ATOM      7  C   LIG d   1       6.631  -5.305  -5.932  0.00  0.00     0.105 A 
ATOM      8  H   LIG d   1       7.597  -5.201  -6.427  0.00  0.00     0.065 H 
ATOM      9  S   LIG d   1       5.299  -5.676  -7.139  0.00  0.00    -0.059 SA
ATOM     10  H   LIG d   1       7.505  -6.930  -5.002  0.00  0.00     0.149 HD
ENDROOT
BRANCH   7  11
ATOM     11  C   LIG d   1       6.304  -4.079  -5.119  0.00  0.00    -0.018 A 
ATOM     12  C   LIG d   1       4.985  -3.723  -4.907  0.00  0.00    -0.054 A 
ATOM     13  C   LIG d   1       4.682  -2.600  -4.164  0.00  0.00    -0.040 A 
ATOM     14  H   LIG d   1       4.190  -4.324  -5.325  0.00  0.00     0.062 H 
ATOM     15  C   LIG d   1       5.704  -1.827  -3.627  0.00  0.00     0.029 A 
ATOM     16  H   LIG d   1       3.651  -2.323  -3.998  0.00  0.00     0.064 H 
ATOM     17  C   LIG d   1       7.028  -2.187  -3.841  0.00  0.00    -0.040 A 
ATOM     18  C   LIG d   1       7.324  -3.313  -4.586  0.00  0.00    -0.054 A 
ATOM     19  H   LIG d   1       7.824  -1.589  -3.426  0.00  0.00     0.064 H 
ATOM     20  H   LIG d   1       8.353  -3.595  -4.749  0.00  0.00     0.062 H 
BRANCH  15  21
ATOM     21  N   LIG d   1       5.400  -0.691  -2.873  0.00  0.00    -0.336 N 
BRANCH  21  22
ATOM     22  C   LIG d   1       6.123   0.561  -3.111  0.00  0.00     0.000 C 
ATOM     23  H   LIG d   1       7.095   0.519  -2.621  0.00  0.00     0.043 H 
ATOM     24  H   LIG d   1       6.262   0.701  -4.184  0.00  0.00     0.043 H 
ATOM     25  H   LIG d   1       5.548   1.394  -2.707  0.00  0.00     0.043 H 
ENDBRANCH  21  22
BRANCH  21  26
ATOM     26  C   LIG d   1       4.360  -0.751  -1.844  0.00  0.00     0.000 C 
ATOM     27  H   LIG d   1       3.882   0.225  -1.753  0.00  0.00     0.043 H 
ATOM     28  H   LIG d   1       3.613  -1.495  -2.124  0.00  0.00     0.043 H 
ATOM     29  H   LIG d   1       4.808  -1.026  -0.890  0.00  0.00     0.043 H 
ENDBRANCH  21  26
ENDBRANCH  15  21
ENDBRANCH   7  11
BRANCH   1  30
ATOM     30  C   LIG d   1       5.872  -9.430  -3.794  0.00  0.00     0.021 A 
ATOM     31  C   LIG d   1       7.237  -9.318  -3.523  0.00  0.00    -0.048 A 
ATOM     32  C   LIG d   1       7.779  -9.978  -2.441  0.00  0.00    -0.019 A 
ATOM     33  H   LIG d   1       7.867  -8.716  -4.160  0.00  0.00     0.063 H 
ATOM     34  C   LIG d   1       6.969 -10.753  -1.621  0.00  0.00     0.120 A 
ATOM     35  H   LIG d   1       8.835  -9.892  -2.230  0.00  0.00     0.065 H 
ATOM     36  C   LIG d   1       5.611 -10.867  -1.887  0.00  0.00    -0.019 A 
ATOM     37  C   LIG d   1       5.060 -10.205  -2.964  0.00  0.00    -0.048 A 
ATOM     38  H   LIG d   1       4.984 -11.471  -1.248  0.00  0.00     0.065 H 
ATOM     39  H   LIG d   1       4.003 -10.290  -3.168  0.00  0.00     0.063 H 
BRANCH  34  40
ATOM     40  O   LIG d   1       7.507 -11.402  -0.555  0.00  0.00    -0.492 OA
BRANCH  40  41
ATOM     41  C   LIG d   1       8.797 -11.988  -0.736  0.00  0.00     0.087 C 
ATOM     42  H   LIG d   1       8.709 -13.075  -0.717  0.00  0.00     0.069 H 
ATOM     43  H   LIG d   1       9.208 -11.674  -1.696  0.00  0.00     0.069 H 
BRANCH  41  44
ATOM     44  C   LIG d   1       9.728 -11.533   0.390  0.00  0.00    -0.031 C 
ATOM     45  H   LIG d   1      10.386 -10.745   0.022  0.00  0.00     0.026 H 
ATOM     46  H   LIG d   1       9.133 -11.150   1.220  0.00  0.00     0.026 H 
ATOM     47  H   LIG d   1      10.327 -12.377   0.731  0.00  0.00     0.026 H 
ENDBRANCH  41  44
ENDBRANCH  40  41
ENDBRANCH  34  40
ENDBRANCH   1  30
TORSDOF 8
ENDMDL
MODEL 5
REMARK VINA RESULT:      -5.5      7.272     12.422
REMARK  8 active torsions:
REMARK  status: ('A' for Active; 'I' for Inactive)
REMARK    1  A    between atoms: C_1  and  C_2 
REMARK    2  A    between atoms: C_2  and  O_3 
REMARK    3  A    between atoms: O_3  and  C_4 
REMARK    4  A    between atoms: C_7  and  C_10 
REMARK    5  A    between atoms: C_16  and  C_19 
REMARK    6  A    between atoms: C_22  and  N_25 
REMARK    7  A    between atoms: N_25  and  C_26 
REMARK    8  A    between atoms: N_25  and  C_27 
ROOT
ATOM      1  C   LIG d   1       3.824   0.020  -8.285  0.00  0.00     0.179 A 
ATOM      2  N   LIG d   1       4.765   0.714  -8.874  0.00  0.00    -0.127 NA
ATOM      3  N   LIG d   1       4.641   0.627 -10.152  0.00  0.00    -0.121 NA
ATOM      4  C   LIG d   1       3.619  -0.123 -10.439  0.00  0.00     0.208 A 
ATOM      5  N   LIG d   1       3.036  -0.556  -9.281  0.00  0.00    -0.231 N 
ATOM      6  N   LIG d   1       1.942  -1.359  -9.332  0.00  0.00    -0.207 NA
ATOM      7  C   LIG d   1       1.434  -1.726 -10.670  0.00  0.00     0.105 A 
ATOM      8  H   LIG d   1       0.421  -1.355 -10.823  0.00  0.00     0.065 H 
ATOM      9  S   LIG d   1       2.636  -0.840 -11.736  0.00  0.00    -0.059 SA
ATOM     10  H   LIG d   1       1.201  -0.998  -8.750  0.00  0.00     0.149 HD
ENDROOT
BRANCH   7  11
ATOM     11  C   LIG d   1       1.505  -3.216 -10.890  0.00  0.00    -0.018 A 
ATOM     12  C   LIG d   1       2.676  -3.791 -11.349  0.00  0.00    -0.054 A 
ATOM     13  C   LIG d   1       2.744  -5.155 -11.552  0.00  0.00    -0.040 A 
ATOM     14  H   LIG d   1       3.538  -3.171 -11.550  0.00  0.00     0.062 H 
ATOM     15  C   LIG d   1       1.635  -5.950 -11.293  0.00  0.00     0.029 A 
ATOM     16  H   LIG d   1       3.659  -5.603 -11.910  0.00  0.00     0.064 H 
ATOM     17  C   LIG d   1       0.460  -5.370 -10.832  0.00  0.00    -0.040 A 
ATOM     18  C   LIG d   1       0.399  -4.004 -10.631  0.00  0.00    -0.054 A 
ATOM     19  H   LIG d   1      -0.403  -5.985 -10.631  0.00  0.00     0.064 H 
ATOM     20  H   LIG d   1      -0.512  -3.554 -10.269  0.00  0.00     0.062 H 
BRANCH  15  21
ATOM     21  N   LIG d   1       1.701  -7.330 -11.496  0.00  0.00    -0.336 N 
BRANCH  21  22
ATOM     22  C   LIG d   1       2.797  -7.904 -12.281  0.00  0.00     0.000 C 
ATOM     23  H   LIG d   1       2.467  -8.059 -13.308  0.00  0.00     0.043 H 
ATOM     24  H   LIG d   1       3.647  -7.221 -12.272  0.00  0.00     0.043 H 
ATOM     25  H   LIG d   1       3.094  -8.859 -11.847  0.00  0.00     0.043 H 
ENDBRANCH  21  22
BRANCH  21  26
ATOM     26  C   LIG d   1       0.674  -8.205 -10.925  0.00  0.00     0.000 C 
ATOM     27  H   LIG d   1      -0.262  -8.068 -11.467  0.00  0.00     0.043 H 
ATOM     28  H   LIG d   1       0.993  -9.244 -11.009  0.00  0.00     0.043 H 
ATOM     29  H   LIG d   1       0.527  -7.954  -9.875  0.00  0.00     0.043 H 
ENDBRANCH  21  26
ENDBRANCH  15  21
ENDBRANCH   7  11
BRANCH   1  30
ATOM     30  C   LIG d   1       3.632  -0.126  -6.827  0.00  0.00     0.021 A 
ATOM     31  C   LIG d   1       2.576   0.528  -6.191  0.00  0.00    -0.048 A 
ATOM     32  C   LIG d   1       2.399   0.388  -4.831  0.00  0.00    -0.019 A 
ATOM     33  H   LIG d   1       1.897   1.143  -6.763  0.00  0.00     0.063 H 
ATOM     34  C   LIG d   1       3.272  -0.402  -4.094  0.00  0.00     0.120 A 
ATOM     35  H   LIG d   1       1.582   0.894  -4.338  0.00  0.00     0.065 H 
ATOM     36  C   LIG d   1       4.324  -1.054  -4.722  0.00  0.00    -0.019 A 
ATOM     37  C   LIG d   1       4.503  -0.925  -6.083  0.00  0.00    -0.048 A 
ATOM     38  H   LIG d   1       5.000  -1.667  -4.146  0.00  0.00     0.065 H 
ATOM     39  H   LIG d   1       5.319  -1.435  -6.572  0.00  0.00     0.063 H 
BRANCH  34  40
ATOM     40  O   LIG d   1       3.095  -0.537  -2.753  0.00  0.00    -0.492 OA
BRANCH  40  41
ATOM     41  C   LIG d   1       4.268  -0.504  -1.938  0.00  0.00     0.087 C 
ATOM     42  H   LIG d   1       4.082  -1.050  -1.012  0.00  0.00     0.069 H 
ATOM     43  H   LIG d   1       5.096  -0.968  -2.473  0.00  0.00     0.069 H 
BRANCH  41  44
ATOM     44  C   LIG d   1       4.621   0.948  -1.610  0.00  0.00    -0.031 C 
ATOM     45  H   LIG d   1       3.852   1.609  -2.011  0.00  0.00     0.026 H 
ATOM     46  H   LIG d   1       4.678   1.072  -0.528  0.00  0.00     0.026 H 
ATOM     47  H   LIG d   1       5.584   1.198  -2.056  0.00  0.00     0.026 H 
ENDBRANCH  41  44
ENDBRANCH  40  41
ENDBRANCH  34  40
ENDBRANCH   1  30
TORSDOF 8
ENDMDL
MODEL 6
REMARK VINA RESULT:      -5.5      2.779      8.184
REMARK  8 active torsions:
REMARK  status: ('A' for Active; 'I' for Inactive)
REMARK    1  A    between atoms: C_1  and  C_2 
REMARK    2  A    between atoms: C_2  and  O_3 
REMARK    3  A    between atoms: O_3  and  C_4 
REMARK    4  A    between atoms: C_7  and  C_10 
REMARK    5  A    between atoms: C_16  and  C_19 
REMARK    6  A    between atoms: C_22  and  N_25 
REMARK    7  A    between atoms: N_25  and  C_26 
REMARK    8  A    between atoms: N_25  and  C_27 
ROOT
ATOM      1  C   LIG d   1      10.858   3.284  -3.143  0.00  0.00     0.179 A 
ATOM      2  N   LIG d   1      11.995   2.641  -3.053  0.00  0.00    -0.127 NA
ATOM      3  N   LIG d   1      11.952   1.569  -3.762  0.00  0.00    -0.121 NA
ATOM      4  C   LIG d   1      10.790   1.474  -4.337  0.00  0.00     0.208 A 
ATOM      5  N   LIG d   1      10.022   2.549  -3.984  0.00  0.00    -0.231 N 
ATOM      6  N   LIG d   1       8.759   2.667  -4.468  0.00  0.00    -0.207 NA
ATOM      7  C   LIG d   1       8.277   1.600  -5.369  0.00  0.00     0.105 A 
ATOM      8  H   LIG d   1       8.045   1.994  -6.359  0.00  0.00     0.065 H 
ATOM      9  S   LIG d   1       9.754   0.512  -5.415  0.00  0.00    -0.059 SA
ATOM     10  H   LIG d   1       8.611   3.579  -4.875  0.00  0.00     0.149 HD
ENDROOT
BRANCH   7  11
ATOM     11  C   LIG d   1       7.089   0.884  -4.779  0.00  0.00    -0.018 A 
ATOM     12  C   LIG d   1       6.462  -0.119  -5.496  0.00  0.00    -0.054 A 
ATOM     13  C   LIG d   1       5.374  -0.777  -4.959  0.00  0.00    -0.040 A 
ATOM     14  H   LIG d   1       6.824  -0.387  -6.478  0.00  0.00     0.062 H 
ATOM     15  C   LIG d   1       4.910  -0.432  -3.696  0.00  0.00     0.029 A 
ATOM     16  H   LIG d   1       4.885  -1.561  -5.519  0.00  0.00     0.064 H 
ATOM     17  C   LIG d   1       5.542   0.575  -2.978  0.00  0.00    -0.040 A 
ATOM     18  C   LIG d   1       6.630   1.230  -3.522  0.00  0.00    -0.054 A 
ATOM     19  H   LIG d   1       5.183   0.846  -1.997  0.00  0.00     0.064 H 
ATOM     20  H   LIG d   1       7.124   2.010  -2.962  0.00  0.00     0.062 H 
BRANCH  15  21
ATOM     21  N   LIG d   1       3.810  -1.097  -3.149  0.00  0.00    -0.336 N 
BRANCH  21  22
ATOM     22  C   LIG d   1       3.998  -2.364  -2.439  0.00  0.00     0.000 C 
ATOM     23  H   LIG d   1       3.028  -2.823  -2.249  0.00  0.00     0.043 H 
ATOM     24  H   LIG d   1       4.605  -3.035  -3.047  0.00  0.00     0.043 H 
ATOM     25  H   LIG d   1       4.503  -2.178  -1.490  0.00  0.00     0.043 H 
ENDBRANCH  21  22
BRANCH  21  26
ATOM     26  C   LIG d   1       2.467  -0.527  -3.286  0.00  0.00     0.000 C 
ATOM     27  H   LIG d   1       2.496   0.307  -3.988  0.00  0.00     0.043 H 
ATOM     28  H   LIG d   1       1.784  -1.291  -3.658  0.00  0.00     0.043 H 
ATOM     29  H   LIG d   1       2.122  -0.173  -2.315  0.00  0.00     0.043 H 
ENDBRANCH  21  26
ENDBRANCH  15  21
ENDBRANCH   7  11
BRANCH   1  30
ATOM     30  C   LIG d   1      10.520   4.557  -2.473  0.00  0.00     0.021 A 
ATOM     31  C   LIG d   1      10.961   4.801  -1.171  0.00  0.00    -0.048 A 
ATOM     32  C   LIG d   1      10.645   5.990  -0.550  0.00  0.00    -0.019 A 
ATOM     33  H   LIG d   1      11.550   4.060  -0.651  0.00  0.00     0.063 H 
ATOM     34  C   LIG d   1       9.887   6.944  -1.217  0.00  0.00     0.120 A 
ATOM     35  H   LIG d   1      10.986   6.181   0.457  0.00  0.00     0.065 H 
ATOM     36  C   LIG d   1       9.446   6.705  -2.512  0.00  0.00    -0.019 A 
ATOM     37  C   LIG d   1       9.764   5.521  -3.142  0.00  0.00    -0.048 A 
ATOM     38  H   LIG d   1       8.857   7.448  -3.027  0.00  0.00     0.065 H 
ATOM     39  H   LIG d   1       9.424   5.337  -4.151  0.00  0.00     0.063 H 
BRANCH  34  40
ATOM     40  O   LIG d   1       9.577   8.115  -0.601  0.00  0.00    -0.492 OA
BRANCH  40  41
ATOM     41  C   LIG d   1      10.646   8.814   0.039  0.00  0.00     0.087 C 
ATOM     42  H   LIG d   1      10.842   8.367   1.014  0.00  0.00     0.069 H 
ATOM     43  H   LIG d   1      11.543   8.750  -0.577  0.00  0.00     0.069 H 
BRANCH  41  44
ATOM     44  C   LIG d   1      10.258  10.283   0.222  0.00  0.00    -0.031 C 
ATOM     45  H   LIG d   1      11.148  10.867   0.461  0.00  0.00     0.026 H 
ATOM     46  H   LIG d   1       9.814  10.659  -0.700  0.00  0.00     0.026 H 
ATOM     47  H   LIG d   1       9.537  10.370   1.035  0.00  0.00     0.026 H 
ENDBRANCH  41  44
ENDBRANCH  40  41
ENDBRANCH  34  40
ENDBRANCH   1  30
TORSDOF 8
ENDMDL
MODEL 7
REMARK VINA RESULT:      -5.3      6.810      9.655
REMARK  8 active torsions:
REMARK  status: ('A' for Active; 'I' for Inactive)
REMARK    1  A    between atoms: C_1  and  C_2 
REMARK    2  A    between atoms: C_2  and  O_3 
REMARK    3  A    between atoms: O_3  and  C_4 
REMARK    4  A    between atoms: C_7  and  C_10 
REMARK    5  A    between atoms: C_16  and  C_19 
REMARK    6  A    between atoms: C_22  and  N_25 
REMARK    7  A    between atoms: N_25  and  C_26 
REMARK    8  A    between atoms: N_25  and  C_27 
ROOT
ATOM      1  C   LIG d   1       3.442  -0.086  -5.826  0.00  0.00     0.179 A 
ATOM      2  N   LIG d   1       2.596   0.243  -4.883  0.00  0.00    -0.127 NA
ATOM      3  N   LIG d   1       3.156   0.131  -3.731  0.00  0.00    -0.121 NA
ATOM      4  C   LIG d   1       4.382  -0.274  -3.881  0.00  0.00     0.208 A 
ATOM      5  N   LIG d   1       4.644  -0.438  -5.213  0.00  0.00    -0.231 N 
ATOM      6  N   LIG d   1       5.871  -0.858  -5.615  0.00  0.00    -0.207 NA
ATOM      7  C   LIG d   1       6.875  -1.119  -4.563  0.00  0.00     0.105 A 
ATOM      8  H   LIG d   1       7.735  -0.457  -4.666  0.00  0.00     0.065 H 
ATOM      9  S   LIG d   1       5.898  -0.715  -3.063  0.00  0.00    -0.059 SA
ATOM     10  H   LIG d   1       6.245  -0.252  -6.329  0.00  0.00     0.149 HD
ENDROOT
BRANCH   7  11
ATOM     11  C   LIG d   1       7.302  -2.565  -4.563  0.00  0.00    -0.018 A 
ATOM     12  C   LIG d   1       8.396  -2.961  -3.816  0.00  0.00    -0.054 A 
ATOM     13  C   LIG d   1       8.789  -4.285  -3.814  0.00  0.00    -0.040 A 
ATOM     14  H   LIG d   1       8.944  -2.234  -3.234  0.00  0.00     0.062 H 
ATOM     15  C   LIG d   1       8.084  -5.219  -4.562  0.00  0.00     0.029 A 
ATOM     16  H   LIG d   1       9.644  -4.594  -3.230  0.00  0.00     0.064 H 
ATOM     17  C   LIG d   1       6.986  -4.817  -5.311  0.00  0.00    -0.040 A 
ATOM     18  C   LIG d   1       6.598  -3.491  -5.309  0.00  0.00    -0.054 A 
ATOM     19  H   LIG d   1       6.437  -5.540  -5.895  0.00  0.00     0.064 H 
ATOM     20  H   LIG d   1       5.741  -3.180  -5.888  0.00  0.00     0.062 H 
BRANCH  15  21
ATOM     21  N   LIG d   1       8.480  -6.558  -4.561  0.00  0.00    -0.336 N 
BRANCH  21  22
ATOM     22  C   LIG d   1       7.816  -7.519  -5.446  0.00  0.00     0.000 C 
ATOM     23  H   LIG d   1       6.960  -7.955  -4.933  0.00  0.00     0.043 H 
ATOM     24  H   LIG d   1       7.477  -7.008  -6.348  0.00  0.00     0.043 H 
ATOM     25  H   LIG d   1       8.518  -8.307  -5.718  0.00  0.00     0.043 H 
ENDBRANCH  21  22
BRANCH  21  26
ATOM     26  C   LIG d   1       9.558  -7.004  -3.675  0.00  0.00     0.000 C 
ATOM     27  H   LIG d   1      10.442  -7.238  -4.269  0.00  0.00     0.043 H 
ATOM     28  H   LIG d   1       9.797  -6.211  -2.966  0.00  0.00     0.043 H 
ATOM     29  H   LIG d   1       9.238  -7.893  -3.133  0.00  0.00     0.043 H 
ENDBRANCH  21  26
ENDBRANCH  15  21
ENDBRANCH   7  11
BRANCH   1  30
ATOM     30  C   LIG d   1       3.172  -0.086  -7.279  0.00  0.00     0.021 A 
ATOM     31  C   LIG d   1       3.172  -1.287  -7.991  0.00  0.00    -0.048 A 
ATOM     32  C   LIG d   1       2.919  -1.283  -9.346  0.00  0.00    -0.019 A 
ATOM     33  H   LIG d   1       3.370  -2.218  -7.481  0.00  0.00     0.063 H 
ATOM     34  C   LIG d   1       2.665  -0.086 -10.003  0.00  0.00     0.120 A 
ATOM     35  H   LIG d   1       2.919  -2.211  -9.898  0.00  0.00     0.065 H 
ATOM     36  C   LIG d   1       2.664   1.111  -9.299  0.00  0.00    -0.019 A 
ATOM     37  C   LIG d   1       2.910   1.114  -7.942  0.00  0.00    -0.048 A 
ATOM     38  H   LIG d   1       2.467   2.040  -9.813  0.00  0.00     0.065 H 
ATOM     39  H   LIG d   1       2.905   2.045  -7.394  0.00  0.00     0.063 H 
BRANCH  34  40
ATOM     40  O   LIG d   1       2.416  -0.086 -11.339  0.00  0.00    -0.492 OA
BRANCH  40  41
ATOM     41  C   LIG d   1       3.081  -1.079 -12.122  0.00  0.00     0.087 C 
ATOM     42  H   LIG d   1       3.401  -1.897 -11.477  0.00  0.00     0.069 H 
ATOM     43  H   LIG d   1       2.398  -1.461 -12.881  0.00  0.00     0.069 H 
BRANCH  41  44
ATOM     44  C   LIG d   1       4.303  -0.459 -12.803  0.00  0.00    -0.031 C 
ATOM     45  H   LIG d   1       5.203  -0.985 -12.482  0.00  0.00     0.026 H 
ATOM     46  H   LIG d   1       4.199  -0.546 -13.885  0.00  0.00     0.026 H 
ATOM     47  H   LIG d   1       4.379   0.593 -12.527  0.00  0.00     0.026 H 
ENDBRANCH  41  44
ENDBRANCH  40  41
ENDBRANCH  34  40
ENDBRANCH   1  30
TORSDOF 8
ENDMDL
MODEL 8
REMARK VINA RESULT:      -5.3      6.790     10.250
REMARK  8 active torsions:
REMARK  status: ('A' for Active; 'I' for Inactive)
REMARK    1  A    between atoms: C_1  and  C_2 
REMARK    2  A    between atoms: C_2  and  O_3 
REMARK    3  A    between atoms: O_3  and  C_4 
REMARK    4  A    between atoms: C_7  and  C_10 
REMARK    5  A    between atoms: C_16  and  C_19 
REMARK    6  A    between atoms: C_22  and  N_25 
REMARK    7  A    between atoms: N_25  and  C_26 
REMARK    8  A    between atoms: N_25  and  C_27 
ROOT
ATOM      1  C   LIG d   1       8.424  -3.046  -4.543  0.00  0.00     0.179 A 
ATOM      2  N   LIG d   1       9.337  -2.195  -4.937  0.00  0.00    -0.127 NA
ATOM      3  N   LIG d   1      10.436  -2.813  -5.188  0.00  0.00    -0.121 NA
ATOM      4  C   LIG d   1      10.279  -4.085  -4.968  0.00  0.00     0.208 A 
ATOM      5  N   LIG d   1       9.000  -4.316  -4.545  0.00  0.00    -0.231 N 
ATOM      6  N   LIG d   1       8.601  -5.581  -4.252  0.00  0.00    -0.207 NA
ATOM      7  C   LIG d   1       9.599  -6.659  -4.411  0.00  0.00     0.105 A 
ATOM      8  H   LIG d   1       9.283  -7.381  -5.164  0.00  0.00     0.065 H 
ATOM      9  S   LIG d   1      11.048  -5.689  -4.984  0.00  0.00    -0.059 SA
ATOM     10  H   LIG d   1       7.742  -5.810  -4.730  0.00  0.00     0.149 HD
ENDROOT
BRANCH   7  11
ATOM     11  C   LIG d   1       9.883  -7.337  -3.095  0.00  0.00    -0.018 A 
ATOM     12  C   LIG d   1       9.620  -8.686  -2.943  0.00  0.00    -0.054 A 
ATOM     13  C   LIG d   1       9.878  -9.310  -1.739  0.00  0.00    -0.040 A 
ATOM     14  H   LIG d   1       9.211  -9.252  -3.767  0.00  0.00     0.062 H 
ATOM     15  C   LIG d   1      10.405  -8.582  -0.680  0.00  0.00     0.029 A 
ATOM     16  H   LIG d   1       9.673 -10.364  -1.621  0.00  0.00     0.064 H 
ATOM     17  C   LIG d   1      10.668  -7.227  -0.835  0.00  0.00    -0.040 A 
ATOM     18  C   LIG d   1      10.407  -6.609  -2.043  0.00  0.00    -0.054 A 
ATOM     19  H   LIG d   1      11.076  -6.658  -0.014  0.00  0.00     0.064 H 
ATOM     20  H   LIG d   1      10.616  -5.557  -2.165  0.00  0.00     0.062 H 
BRANCH  15  21
ATOM     21  N   LIG d   1      10.668  -9.211   0.539  0.00  0.00    -0.336 N 
BRANCH  21  22
ATOM     22  C   LIG d   1      11.181  -8.433   1.669  0.00  0.00     0.000 C 
ATOM     23  H   LIG d   1      12.089  -7.910   1.369  0.00  0.00     0.043 H 
ATOM     24  H   LIG d   1      10.430  -7.707   1.982  0.00  0.00     0.043 H 
ATOM     25  H   LIG d   1      11.406  -9.103   2.500  0.00  0.00     0.043 H 
ENDBRANCH  21  22
BRANCH  21  26
ATOM     26  C   LIG d   1      10.432 -10.649   0.688  0.00  0.00     0.000 C 
ATOM     27  H   LIG d   1      11.185 -11.074   1.352  0.00  0.00     0.043 H 
ATOM     28  H   LIG d   1       9.441 -10.813   1.112  0.00  0.00     0.043 H 
ATOM     29  H   LIG d   1      10.494 -11.130  -0.287  0.00  0.00     0.043 H 
ENDBRANCH  21  26
ENDBRANCH  15  21
ENDBRANCH   7  11
BRANCH   1  30
ATOM     30  C   LIG d   1       7.033  -2.720  -4.162  0.00  0.00     0.021 A 
ATOM     31  C   LIG d   1       5.968  -3.389  -4.766  0.00  0.00    -0.048 A 
ATOM     32  C   LIG d   1       4.672  -3.083  -4.408  0.00  0.00    -0.019 A 
ATOM     33  H   LIG d   1       6.157  -4.146  -5.512  0.00  0.00     0.063 H 
ATOM     34  C   LIG d   1       4.427  -2.109  -3.449  0.00  0.00     0.120 A 
ATOM     35  H   LIG d   1       3.846  -3.600  -4.874  0.00  0.00     0.065 H 
ATOM     36  C   LIG d   1       5.484  -1.441  -2.846  0.00  0.00    -0.019 A 
ATOM     37  C   LIG d   1       6.783  -1.746  -3.194  0.00  0.00    -0.048 A 
ATOM     38  H   LIG d   1       5.290  -0.684  -2.101  0.00  0.00     0.065 H 
ATOM     39  H   LIG d   1       7.605  -1.229  -2.722  0.00  0.00     0.063 H 
BRANCH  34  40
ATOM     40  O   LIG d   1       3.148  -1.810  -3.099  0.00  0.00    -0.492 OA
BRANCH  40  41
ATOM     41  C   LIG d   1       2.793  -0.426  -3.062  0.00  0.00     0.087 C 
ATOM     42  H   LIG d   1       1.921  -0.292  -2.421  0.00  0.00     0.069 H 
ATOM     43  H   LIG d   1       3.627   0.153  -2.667  0.00  0.00     0.069 H 
BRANCH  41  44
ATOM     44  C   LIG d   1       2.463   0.054  -4.477  0.00  0.00    -0.031 C 
ATOM     45  H   LIG d   1       2.555   1.140  -4.523  0.00  0.00     0.026 H 
ATOM     46  H   LIG d   1       3.156  -0.400  -5.185  0.00  0.00     0.026 H 
ATOM     47  H   LIG d   1       1.443  -0.235  -4.731  0.00  0.00     0.026 H 
ENDBRANCH  41  44
ENDBRANCH  40  41
ENDBRANCH  34  40
ENDBRANCH   1  30
TORSDOF 8
ENDMDL
MODEL 9
REMARK VINA RESULT:      -5.1      4.739     10.070
REMARK  8 active torsions:
REMARK  status: ('A' for Active; 'I' for Inactive)
REMARK    1  A    between atoms: C_1  and  C_2 
REMARK    2  A    between atoms: C_2  and  O_3 
REMARK    3  A    between atoms: O_3  and  C_4 
REMARK    4  A    between atoms: C_7  and  C_10 
REMARK    5  A    between atoms: C_16  and  C_19 
REMARK    6  A    between atoms: C_22  and  N_25 
REMARK    7  A    between atoms: N_25  and  C_26 
REMARK    8  A    between atoms: N_25  and  C_27 
ROOT
ATOM      1  C   LIG d   1       6.584   1.008  -3.617  0.00  0.00     0.179 A 
ATOM      2  N   LIG d   1       5.776   1.666  -2.825  0.00  0.00    -0.127 NA
ATOM      3  N   LIG d   1       4.872   0.875  -2.364  0.00  0.00    -0.121 NA
ATOM      4  C   LIG d   1       5.059  -0.322  -2.836  0.00  0.00     0.208 A 
ATOM      5  N   LIG d   1       6.151  -0.317  -3.659  0.00  0.00    -0.231 N 
ATOM      6  N   LIG d   1       6.542  -1.464  -4.271  0.00  0.00    -0.207 NA
ATOM      7  C   LIG d   1       5.745  -2.679  -4.006  0.00  0.00     0.105 A 
ATOM      8  H   LIG d   1       6.346  -3.447  -3.520  0.00  0.00     0.065 H 
ATOM      9  S   LIG d   1       4.478  -2.002  -2.864  0.00  0.00    -0.059 SA
ATOM     10  H   LIG d   1       7.525  -1.637  -4.122  0.00  0.00     0.149 HD
ENDROOT
BRANCH   7  11
ATOM     11  C   LIG d   1       5.114  -3.204  -5.271  0.00  0.00    -0.018 A 
ATOM     12  C   LIG d   1       4.875  -2.347  -6.329  0.00  0.00    -0.054 A 
ATOM     13  C   LIG d   1       4.297  -2.824  -7.489  0.00  0.00    -0.040 A 
ATOM     14  H   LIG d   1       5.140  -1.303  -6.249  0.00  0.00     0.062 H 
ATOM     15  C   LIG d   1       3.957  -4.167  -7.592  0.00  0.00     0.029 A 
ATOM     16  H   LIG d   1       4.111  -2.155  -8.316  0.00  0.00     0.064 H 
ATOM     17  C   LIG d   1       4.199  -5.025  -6.527  0.00  0.00    -0.040 A 
ATOM     18  C   LIG d   1       4.777  -4.541  -5.369  0.00  0.00    -0.054 A 
ATOM     19  H   LIG d   1       3.935  -6.069  -6.603  0.00  0.00     0.064 H 
ATOM     20  H   LIG d   1       4.969  -5.209  -4.543  0.00  0.00     0.062 H 
BRANCH  15  21
ATOM     21  N   LIG d   1       3.374  -4.654  -8.764  0.00  0.00    -0.336 N 
BRANCH  21  22
ATOM     22  C   LIG d   1       2.742  -3.727  -9.707  0.00  0.00     0.000 C 
ATOM     23  H   LIG d   1       2.741  -4.168 -10.704  0.00  0.00     0.043 H 
ATOM     24  H   LIG d   1       1.716  -3.533  -9.394  0.00  0.00     0.043 H 
ATOM     25  H   LIG d   1       3.300  -2.791  -9.725  0.00  0.00     0.043 H 
ENDBRANCH  21  22
BRANCH  21  26
ATOM     26  C   LIG d   1       3.392  -6.090  -9.050  0.00  0.00     0.000 C 
ATOM     27  H   LIG d   1       2.482  -6.549  -8.663  0.00  0.00     0.043 H 
ATOM     28  H   LIG d   1       3.446  -6.246 -10.128  0.00  0.00     0.043 H 
ATOM     29  H   LIG d   1       4.260  -6.544  -8.573  0.00  0.00     0.043 H 
ENDBRANCH  21  26
ENDBRANCH  15  21
ENDBRANCH   7  11
BRANCH   1  30
ATOM     30  C   LIG d   1       7.746   1.569  -4.338  0.00  0.00     0.021 A 
ATOM     31  C   LIG d   1       8.748   2.241  -3.635  0.00  0.00    -0.048 A 
ATOM     32  C   LIG d   1       9.831   2.761  -4.310  0.00  0.00    -0.019 A 
ATOM     33  H   LIG d   1       8.675   2.352  -2.563  0.00  0.00     0.063 H 
ATOM     34  C   LIG d   1       9.925   2.619  -5.689  0.00  0.00     0.120 A 
ATOM     35  H   LIG d   1      10.607   3.281  -3.768  0.00  0.00     0.065 H 
ATOM     36  C   LIG d   1       8.931   1.952  -6.392  0.00  0.00    -0.019 A 
ATOM     37  C   LIG d   1       7.848   1.422  -5.722  0.00  0.00    -0.048 A 
ATOM     38  H   LIG d   1       9.008   1.843  -7.463  0.00  0.00     0.065 H 
ATOM     39  H   LIG d   1       7.077   0.900  -6.269  0.00  0.00     0.063 H 
BRANCH  34  40
ATOM     40  O   LIG d   1      10.994   3.134  -6.351  0.00  0.00    -0.492 OA
BRANCH  40  41
ATOM     41  C   LIG d   1      10.718   3.982  -7.468  0.00  0.00     0.087 C 
ATOM     42  H   LIG d   1      11.627   4.118  -8.055  0.00  0.00     0.069 H 
ATOM     43  H   LIG d   1       9.948   3.526  -8.089  0.00  0.00     0.069 H 
BRANCH  41  44
ATOM     44  C   LIG d   1      10.229   5.343  -6.966  0.00  0.00    -0.031 C 
ATOM     45  H   LIG d   1      10.787   6.136  -7.466  0.00  0.00     0.026 H 
ATOM     46  H   LIG d   1       9.168   5.451  -7.188  0.00  0.00     0.026 H 
ATOM     47  H   LIG d   1      10.386   5.412  -5.890  0.00  0.00     0.026 H 
ENDBRANCH  41  44
ENDBRANCH  40  41
ENDBRANCH  34  40
ENDBRANCH   1  30
TORSDOF 8
ENDMDL
