MODEL 1
REMARK VINA RESULT:      -7.4      0.000      0.000
REMARK  10 active torsions:
REMARK  status: ('A' for Active; 'I' for Inactive)
REMARK    1  A    between atoms: C_1  and  C_2 
REMARK    2  A    between atoms: C_5  and  C_31 
REMARK    3  A    between atoms: C_6  and  C_8 
REMARK    4  A    between atoms: C_8  and  O_9 
REMARK    5  A    between atoms: O_9  and  C_10 
REMARK    6  A    between atoms: C_18  and  C_19 
REMARK    7  A    between atoms: C_22  and  O_27 
REMARK    8  A    between atoms: C_23  and  O_25 
REMARK    9  A    between atoms: O_25  and  C_26 
REMARK   10  A    between atoms: O_27  and  C_28 
ROOT
ATOM      1  C   LIG d   1       7.864   0.751  -6.311  0.00  0.00     0.124 A 
ATOM      2  C   LIG d   1       8.261   1.031  -7.616  0.00  0.00    -0.019 A 
ATOM      3  C   LIG d   1       8.965   2.169  -7.890  0.00  0.00    -0.044 A 
ATOM      4  C   LIG d   1       9.288   3.052  -6.858  0.00  0.00     0.068 A 
ATOM      5  C   LIG d   1       8.894   2.781  -5.539  0.00  0.00     0.143 A 
ATOM      6  C   LIG d   1       8.177   1.619  -5.277  0.00  0.00     0.023 A 
ATOM      7  O   LIG d   1       9.317   3.771  -4.724  0.00  0.00    -0.451 OA
ATOM      8  C   LIG d   1       9.990   4.729  -5.404  0.00  0.00     0.176 A 
ATOM      9  C   LIG d   1      10.541   5.851  -4.875  0.00  0.00    -0.008 C 
ATOM     10  C   LIG d   1      10.012   4.335  -6.821  0.00  0.00     0.232 A 
ATOM     11  O   LIG d   1      10.518   4.934  -7.754  0.00  0.00    -0.283 OA
ATOM     12  H   LIG d   1       8.010   0.347  -8.413  0.00  0.00     0.065 H 
ATOM     13  H   LIG d   1       9.272   2.384  -8.902  0.00  0.00     0.063 H 
ATOM     14  H   LIG d   1       7.865   1.392  -4.268  0.00  0.00     0.069 H 
ATOM     15  H   LIG d   1      10.985   6.592  -5.524  0.00  0.00     0.066 H 
ENDROOT
BRANCH   1  16
ATOM     16  O   LIG d   1       7.164  -0.383  -6.048  0.00  0.00    -0.487 OA
BRANCH  16  17
ATOM     17  C   LIG d   1       7.502  -1.091  -4.855  0.00  0.00     0.115 C 
ATOM     18  H   LIG d   1       7.836  -2.096  -5.112  0.00  0.00     0.075 H 
ATOM     19  H   LIG d   1       8.301  -0.565  -4.332  0.00  0.00     0.075 H 
BRANCH  17  20
ATOM     20  C   LIG d   1       6.290  -1.178  -3.962  0.00  0.00    -0.007 A 
ATOM     21  C   LIG d   1       5.533  -2.334  -3.934  0.00  0.00    -0.044 A 
ATOM     22  C   LIG d   1       4.424  -2.415  -3.112  0.00  0.00    -0.058 A 
ATOM     23  C   LIG d   1       4.068  -1.336  -2.324  0.00  0.00    -0.059 A 
ATOM     24  H   LIG d   1       3.835  -3.319  -3.088  0.00  0.00     0.062 H 
ATOM     25  C   LIG d   1       4.823  -0.178  -2.356  0.00  0.00    -0.050 A 
ATOM     26  H   LIG d   1       3.201  -1.398  -1.685  0.00  0.00     0.062 H 
ATOM     27  C   LIG d   1       5.934  -0.099  -3.174  0.00  0.00    -0.052 A 
ATOM     28  H   LIG d   1       6.524   0.806  -3.199  0.00  0.00     0.062 H 
BRANCH  21  29
ATOM     29  C   LIG d   1       5.918  -3.508  -4.798  0.00  0.00    -0.039 C 
ATOM     30  H   LIG d   1       6.403  -4.266  -4.183  0.00  0.00     0.028 H 
ATOM     31  H   LIG d   1       5.024  -3.930  -5.257  0.00  0.00     0.028 H 
ATOM     32  H   LIG d   1       6.605  -3.177  -5.576  0.00  0.00     0.028 H 
ENDBRANCH  21  29
BRANCH  25  33
ATOM     33  C   LIG d   1       4.434   0.998  -1.497  0.00  0.00    -0.040 C 
ATOM     34  H   LIG d   1       4.166   1.840  -2.135  0.00  0.00     0.028 H 
ATOM     35  H   LIG d   1       3.582   0.727  -0.874  0.00  0.00     0.028 H 
ATOM     36  H   LIG d   1       5.275   1.277  -0.862  0.00  0.00     0.028 H 
ENDBRANCH  25  33
ENDBRANCH  17  20
ENDBRANCH  16  17
ENDBRANCH   1  16
BRANCH   9  37
ATOM     37  C   LIG d   1      10.535   6.058  -3.422  0.00  0.00    -0.018 A 
ATOM     38  C   LIG d   1       9.552   6.861  -2.830  0.00  0.00    -0.009 A 
ATOM     39  C   LIG d   1       9.552   7.051  -1.463  0.00  0.00     0.162 A 
ATOM     40  H   LIG d   1       8.796   7.331  -3.442  0.00  0.00     0.066 H 
ATOM     41  C   LIG d   1      10.531   6.448  -0.674  0.00  0.00     0.162 A 
ATOM     42  C   LIG d   1      11.503   5.646  -1.259  0.00  0.00    -0.016 A 
ATOM     43  C   LIG d   1      11.512   5.450  -2.622  0.00  0.00    -0.051 A 
ATOM     44  H   LIG d   1      12.259   5.179  -0.644  0.00  0.00     0.066 H 
ATOM     45  H   LIG d   1      12.272   4.830  -3.075  0.00  0.00     0.062 H 
BRANCH  39  46
ATOM     46  O   LIG d   1       8.600   7.831  -0.885  0.00  0.00    -0.491 OA
BRANCH  46  47
ATOM     47  C   LIG d   1       8.829   9.241  -0.885  0.00  0.00     0.079 C 
ATOM     48  H   LIG d   1       9.483   9.503  -0.052  0.00  0.00     0.066 H 
ATOM     49  H   LIG d   1       7.879   9.764  -0.780  0.00  0.00     0.066 H 
ATOM     50  H   LIG d   1       9.303   9.532  -1.823  0.00  0.00     0.066 H 
ENDBRANCH  46  47
ENDBRANCH  39  46
BRANCH  41  51
ATOM     51  O   LIG d   1      10.533   6.641   0.671  0.00  0.00    -0.491 OA
BRANCH  51  52
ATOM     52  C   LIG d   1      10.999   5.560   1.481  0.00  0.00     0.079 C 
ATOM     53  H   LIG d   1      11.179   4.687   0.854  0.00  0.00     0.066 H 
ATOM     54  H   LIG d   1      11.927   5.851   1.973  0.00  0.00     0.066 H 
ATOM     55  H   LIG d   1      10.248   5.319   2.233  0.00  0.00     0.066 H 
ENDBRANCH  51  52
ENDBRANCH  41  51
ENDBRANCH   9  37
TORSDOF 10
ENDMDL
MODEL 2
REMARK VINA RESULT:      -7.2      1.214      2.151
REMARK  10 active torsions:
REMARK  status: ('A' for Active; 'I' for Inactive)
REMARK    1  A    between atoms: C_1  and  C_2 
REMARK    2  A    between atoms: C_5  and  C_31 
REMARK    3  A    between atoms: C_6  and  C_8 
REMARK    4  A    between atoms: C_8  and  O_9 
REMARK    5  A    between atoms: O_9  and  C_10 
REMARK    6  A    between atoms: C_18  and  C_19 
REMARK    7  A    between atoms: C_22  and  O_27 
REMARK    8  A    between atoms: C_23  and  O_25 
REMARK    9  A    between atoms: O_25  and  C_26 
REMARK   10  A    between atoms: O_27  and  C_28 
ROOT
ATOM      1  C   LIG d   1       7.938   1.741  -5.305  0.00  0.00     0.124 A 
ATOM      2  C   LIG d   1       8.417   1.808  -6.611  0.00  0.00    -0.019 A 
ATOM      3  C   LIG d   1       9.294   2.791  -6.971  0.00  0.00    -0.044 A 
ATOM      4  C   LIG d   1       9.710   3.731  -6.026  0.00  0.00     0.068 A 
ATOM      5  C   LIG d   1       9.235   3.674  -4.708  0.00  0.00     0.143 A 
ATOM      6  C   LIG d   1       8.343   2.667  -4.357  0.00  0.00     0.023 A 
ATOM      7  O   LIG d   1       9.775   4.678  -3.985  0.00  0.00    -0.451 OA
ATOM      8  C   LIG d   1      10.608   5.443  -4.730  0.00  0.00     0.176 A 
ATOM      9  C   LIG d   1      11.303   6.526  -4.299  0.00  0.00    -0.008 C 
ATOM     10  C   LIG d   1      10.618   4.890  -6.092  0.00  0.00     0.232 A 
ATOM     11  O   LIG d   1      11.240   5.298  -7.058  0.00  0.00    -0.283 OA
ATOM     12  H   LIG d   1       8.093   1.080  -7.341  0.00  0.00     0.065 H 
ATOM     13  H   LIG d   1       9.663   2.842  -7.983  0.00  0.00     0.063 H 
ATOM     14  H   LIG d   1       7.966   2.606  -3.347  0.00  0.00     0.069 H 
ATOM     15  H   LIG d   1      11.875   7.115  -5.000  0.00  0.00     0.066 H 
ENDROOT
BRANCH   1  16
ATOM     16  O   LIG d   1       7.067   0.759  -4.957  0.00  0.00    -0.487 OA
BRANCH  16  17
ATOM     17  C   LIG d   1       6.709   0.669  -3.577  0.00  0.00     0.115 C 
ATOM     18  H   LIG d   1       7.604   0.491  -2.981  0.00  0.00     0.075 H 
ATOM     19  H   LIG d   1       6.242   1.601  -3.260  0.00  0.00     0.075 H 
BRANCH  17  20
ATOM     20  C   LIG d   1       5.741  -0.469  -3.382  0.00  0.00    -0.007 A 
ATOM     21  C   LIG d   1       4.736  -0.369  -2.438  0.00  0.00    -0.044 A 
ATOM     22  C   LIG d   1       3.845  -1.411  -2.262  0.00  0.00    -0.058 A 
ATOM     23  C   LIG d   1       3.966  -2.559  -3.025  0.00  0.00    -0.059 A 
ATOM     24  H   LIG d   1       3.058  -1.331  -1.528  0.00  0.00     0.062 H 
ATOM     25  C   LIG d   1       4.974  -2.662  -3.965  0.00  0.00    -0.050 A 
ATOM     26  H   LIG d   1       3.272  -3.374  -2.885  0.00  0.00     0.062 H 
ATOM     27  C   LIG d   1       5.861  -1.617  -4.144  0.00  0.00    -0.052 A 
ATOM     28  H   LIG d   1       6.649  -1.697  -4.879  0.00  0.00     0.062 H 
BRANCH  21  29
ATOM     29  C   LIG d   1       4.609   0.880  -1.604  0.00  0.00    -0.039 C 
ATOM     30  H   LIG d   1       4.809   0.640  -0.560  0.00  0.00     0.028 H 
ATOM     31  H   LIG d   1       5.327   1.623  -1.950  0.00  0.00     0.028 H 
ATOM     32  H   LIG d   1       3.599   1.279  -1.698  0.00  0.00     0.028 H 
ENDBRANCH  21  29
BRANCH  25  33
ATOM     33  C   LIG d   1       5.104  -3.912  -4.796  0.00  0.00    -0.040 C 
ATOM     34  H   LIG d   1       6.059  -3.901  -5.321  0.00  0.00     0.028 H 
ATOM     35  H   LIG d   1       5.056  -4.786  -4.147  0.00  0.00     0.028 H 
ATOM     36  H   LIG d   1       4.292  -3.953  -5.521  0.00  0.00     0.028 H 
ENDBRANCH  25  33
ENDBRANCH  17  20
ENDBRANCH  16  17
ENDBRANCH   1  16
BRANCH   9  37
ATOM     37  C   LIG d   1      11.278   6.898  -2.879  0.00  0.00    -0.018 A 
ATOM     38  C   LIG d   1      10.125   7.463  -2.319  0.00  0.00    -0.009 A 
ATOM     39  C   LIG d   1      10.109   7.810  -0.983  0.00  0.00     0.162 A 
ATOM     40  H   LIG d   1       9.251   7.627  -2.932  0.00  0.00     0.066 H 
ATOM     41  C   LIG d   1      11.240   7.602  -0.194  0.00  0.00     0.162 A 
ATOM     42  C   LIG d   1      12.382   7.036  -0.746  0.00  0.00    -0.016 A 
ATOM     43  C   LIG d   1      12.409   6.687  -2.078  0.00  0.00    -0.051 A 
ATOM     44  H   LIG d   1      13.255   6.875  -0.130  0.00  0.00     0.066 H 
ATOM     45  H   LIG d   1      13.300   6.251  -2.506  0.00  0.00     0.062 H 
BRANCH  39  46
ATOM     46  O   LIG d   1       8.992   8.359  -0.437  0.00  0.00    -0.491 OA
BRANCH  46  47
ATOM     47  C   LIG d   1       8.704   9.717  -0.777  0.00  0.00     0.079 C 
ATOM     48  H   LIG d   1       7.640   9.908  -0.641  0.00  0.00     0.066 H 
ATOM     49  H   LIG d   1       8.976   9.896  -1.817  0.00  0.00     0.066 H 
ATOM     50  H   LIG d   1       9.277  10.383  -0.131  0.00  0.00     0.066 H 
ENDBRANCH  46  47
ENDBRANCH  39  46
BRANCH  41  51
ATOM     51  O   LIG d   1      11.224   7.949   1.119  0.00  0.00    -0.491 OA
BRANCH  51  52
ATOM     52  C   LIG d   1      11.849   9.185   1.471  0.00  0.00     0.079 C 
ATOM     53  H   LIG d   1      11.084   9.918   1.731  0.00  0.00     0.066 H 
ATOM     54  H   LIG d   1      12.507   9.029   2.325  0.00  0.00     0.066 H 
ATOM     55  H   LIG d   1      12.431   9.552   0.625  0.00  0.00     0.066 H 
ENDBRANCH  51  52
ENDBRANCH  41  51
ENDBRANCH   9  37
TORSDOF 10
ENDMDL
MODEL 3
REMARK VINA RESULT:      -7.0      6.590     12.381
REMARK  10 active torsions:
REMARK  status: ('A' for Active; 'I' for Inactive)
REMARK    1  A    between atoms: C_1  and  C_2 
REMARK    2  A    between atoms: C_5  and  C_31 
REMARK    3  A    between atoms: C_6  and  C_8 
REMARK    4  A    between atoms: C_8  and  O_9 
REMARK    5  A    between atoms: O_9  and  C_10 
REMARK    6  A    between atoms: C_18  and  C_19 
REMARK    7  A    between atoms: C_22  and  O_27 
REMARK    8  A    between atoms: C_23  and  O_25 
REMARK    9  A    between atoms: O_25  and  C_26 
REMARK   10  A    between atoms: O_27  and  C_28 
ROOT
ATOM      1  C   LIG d   1       3.960  -0.082  -7.649  0.00  0.00     0.124 A 
ATOM      2  C   LIG d   1       3.347   1.002  -8.273  0.00  0.00    -0.019 A 
ATOM      3  C   LIG d   1       2.462   0.797  -9.293  0.00  0.00    -0.044 A 
ATOM      4  C   LIG d   1       2.172  -0.503  -9.710  0.00  0.00     0.068 A 
ATOM      5  C   LIG d   1       2.782  -1.603  -9.089  0.00  0.00     0.143 A 
ATOM      6  C   LIG d   1       3.681  -1.377  -8.053  0.00  0.00     0.023 A 
ATOM      7  O   LIG d   1       2.347  -2.748  -9.659  0.00  0.00    -0.451 OA
ATOM      8  C   LIG d   1       1.460  -2.509 -10.653  0.00  0.00     0.176 A 
ATOM      9  C   LIG d   1       0.841  -3.444 -11.419  0.00  0.00    -0.008 C 
ATOM     10  C   LIG d   1       1.291  -1.052 -10.757  0.00  0.00     0.232 A 
ATOM     11  O   LIG d   1       0.581  -0.436 -11.533  0.00  0.00    -0.283 OA
ATOM     12  H   LIG d   1       3.573   2.007  -7.950  0.00  0.00     0.065 H 
ATOM     13  H   LIG d   1       1.989   1.638  -9.775  0.00  0.00     0.063 H 
ATOM     14  H   LIG d   1       4.161  -2.212  -7.563  0.00  0.00     0.069 H 
ATOM     15  H   LIG d   1       0.213  -3.139 -12.242  0.00  0.00     0.066 H 
ENDROOT
BRANCH   1  16
ATOM     16  O   LIG d   1       4.838   0.133  -6.637  0.00  0.00    -0.487 OA
BRANCH  16  17
ATOM     17  C   LIG d   1       5.450  -1.019  -6.054  0.00  0.00     0.115 C 
ATOM     18  H   LIG d   1       5.155  -1.908  -6.611  0.00  0.00     0.075 H 
ATOM     19  H   LIG d   1       6.534  -0.913  -6.088  0.00  0.00     0.075 H 
BRANCH  17  20
ATOM     20  C   LIG d   1       5.004  -1.154  -4.621  0.00  0.00    -0.007 A 
ATOM     21  C   LIG d   1       4.635  -2.390  -4.124  0.00  0.00    -0.044 A 
ATOM     22  C   LIG d   1       4.230  -2.515  -2.808  0.00  0.00    -0.058 A 
ATOM     23  C   LIG d   1       4.185  -1.401  -1.991  0.00  0.00    -0.059 A 
ATOM     24  H   LIG d   1       3.946  -3.482  -2.420  0.00  0.00     0.062 H 
ATOM     25  C   LIG d   1       4.549  -0.163  -2.488  0.00  0.00    -0.050 A 
ATOM     26  H   LIG d   1       3.865  -1.498  -0.965  0.00  0.00     0.062 H 
ATOM     27  C   LIG d   1       4.958  -0.040  -3.803  0.00  0.00    -0.052 A 
ATOM     28  H   LIG d   1       5.243   0.927  -4.192  0.00  0.00     0.062 H 
BRANCH  21  29
ATOM     29  C   LIG d   1       4.679  -3.604  -5.017  0.00  0.00    -0.039 C 
ATOM     30  H   LIG d   1       3.950  -4.336  -4.671  0.00  0.00     0.028 H 
ATOM     31  H   LIG d   1       4.443  -3.311  -6.041  0.00  0.00     0.028 H 
ATOM     32  H   LIG d   1       5.676  -4.042  -4.986  0.00  0.00     0.028 H 
ENDBRANCH  21  29
BRANCH  25  33
ATOM     33  C   LIG d   1       4.500   1.051  -1.597  0.00  0.00    -0.040 C 
ATOM     34  H   LIG d   1       4.238   1.927  -2.191  0.00  0.00     0.028 H 
ATOM     35  H   LIG d   1       3.751   0.901  -0.820  0.00  0.00     0.028 H 
ATOM     36  H   LIG d   1       5.475   1.203  -1.136  0.00  0.00     0.028 H 
ENDBRANCH  25  33
ENDBRANCH  17  20
ENDBRANCH  16  17
ENDBRANCH   1  16
BRANCH   9  37
ATOM     37  C   LIG d   1       1.026  -4.871 -11.127  0.00  0.00    -0.018 A 
ATOM     38  C   LIG d   1       0.058  -5.570 -10.395  0.00  0.00    -0.009 A 
ATOM     39  C   LIG d   1       0.239  -6.912 -10.124  0.00  0.00     0.162 A 
ATOM     40  H   LIG d   1      -0.826  -5.061 -10.043  0.00  0.00     0.066 H 
ATOM     41  C   LIG d   1       1.384  -7.567 -10.575  0.00  0.00     0.162 A 
ATOM     42  C   LIG d   1       2.342  -6.876 -11.306  0.00  0.00    -0.016 A 
ATOM     43  C   LIG d   1       2.172  -5.538 -11.581  0.00  0.00    -0.051 A 
ATOM     44  H   LIG d   1       3.226  -7.389 -11.656  0.00  0.00     0.066 H 
ATOM     45  H   LIG d   1       2.920  -5.002 -12.146  0.00  0.00     0.062 H 
BRANCH  39  46
ATOM     46  O   LIG d   1      -0.699  -7.594  -9.413  0.00  0.00    -0.491 OA
BRANCH  46  47
ATOM     47  C   LIG d   1      -1.904  -6.896  -9.093  0.00  0.00     0.079 C 
ATOM     48  H   LIG d   1      -2.637  -7.057  -9.883  0.00  0.00     0.066 H 
ATOM     49  H   LIG d   1      -1.694  -5.831  -9.003  0.00  0.00     0.066 H 
ATOM     50  H   LIG d   1      -2.301  -7.270  -8.149  0.00  0.00     0.066 H 
ENDBRANCH  46  47
ENDBRANCH  39  46
BRANCH  41  51
ATOM     51  O   LIG d   1       1.562  -8.886 -10.302  0.00  0.00    -0.491 OA
BRANCH  51  52
ATOM     52  C   LIG d   1       1.189  -9.816 -11.322  0.00  0.00     0.079 C 
ATOM     53  H   LIG d   1       0.461 -10.521 -10.921  0.00  0.00     0.066 H 
ATOM     54  H   LIG d   1       0.750  -9.277 -12.161  0.00  0.00     0.066 H 
ATOM     55  H   LIG d   1       2.072 -10.358 -11.660  0.00  0.00     0.066 H 
ENDBRANCH  51  52
ENDBRANCH  41  51
ENDBRANCH   9  37
TORSDOF 10
ENDMDL
MODEL 4
REMARK VINA RESULT:      -7.0      2.159      3.358
REMARK  10 active torsions:
REMARK  status: ('A' for Active; 'I' for Inactive)
REMARK    1  A    between atoms: C_1  and  C_2 
REMARK    2  A    between atoms: C_5  and  C_31 
REMARK    3  A    between atoms: C_6  and  C_8 
REMARK    4  A    between atoms: C_8  and  O_9 
REMARK    5  A    between atoms: O_9  and  C_10 
REMARK    6  A    between atoms: C_18  and  C_19 
REMARK    7  A    between atoms: C_22  and  O_27 
REMARK    8  A    between atoms: C_23  and  O_25 
REMARK    9  A    between atoms: O_25  and  C_26 
REMARK   10  A    between atoms: O_27  and  C_28 
ROOT
ATOM      1  C   LIG d   1       8.636   1.404  -4.411  0.00  0.00     0.124 A 
ATOM      2  C   LIG d   1       9.679   0.636  -4.924  0.00  0.00    -0.019 A 
ATOM      3  C   LIG d   1      10.974   1.034  -4.749  0.00  0.00    -0.044 A 
ATOM      4  C   LIG d   1      11.251   2.212  -4.055  0.00  0.00     0.068 A 
ATOM      5  C   LIG d   1      10.210   2.994  -3.533  0.00  0.00     0.143 A 
ATOM      6  C   LIG d   1       8.897   2.576  -3.720  0.00  0.00     0.023 A 
ATOM      7  O   LIG d   1      10.721   4.076  -2.908  0.00  0.00    -0.451 OA
ATOM      8  C   LIG d   1      12.073   4.097  -2.963  0.00  0.00     0.176 A 
ATOM      9  C   LIG d   1      12.883   5.048  -2.432  0.00  0.00    -0.008 C 
ATOM     10  C   LIG d   1      12.505   2.905  -3.708  0.00  0.00     0.232 A 
ATOM     11  O   LIG d   1      13.645   2.566  -3.976  0.00  0.00    -0.283 OA
ATOM     12  H   LIG d   1       9.462  -0.275  -5.461  0.00  0.00     0.065 H 
ATOM     13  H   LIG d   1      11.781   0.438  -5.147  0.00  0.00     0.063 H 
ATOM     14  H   LIG d   1       8.082   3.164  -3.326  0.00  0.00     0.069 H 
ATOM     15  H   LIG d   1      13.948   5.010  -2.607  0.00  0.00     0.066 H 
ENDROOT
BRANCH   1  16
ATOM     16  O   LIG d   1       7.352   1.000  -4.590  0.00  0.00    -0.487 OA
BRANCH  16  17
ATOM     17  C   LIG d   1       6.478   1.103  -3.465  0.00  0.00     0.115 C 
ATOM     18  H   LIG d   1       7.066   1.264  -2.562  0.00  0.00     0.075 H 
ATOM     19  H   LIG d   1       5.796   1.941  -3.609  0.00  0.00     0.075 H 
BRANCH  17  20
ATOM     20  C   LIG d   1       5.685  -0.171  -3.327  0.00  0.00    -0.007 A 
ATOM     21  C   LIG d   1       4.625  -0.235  -2.442  0.00  0.00    -0.044 A 
ATOM     22  C   LIG d   1       3.895  -1.402  -2.319  0.00  0.00    -0.058 A 
ATOM     23  C   LIG d   1       4.230  -2.510  -3.075  0.00  0.00    -0.059 A 
ATOM     24  H   LIG d   1       3.064  -1.450  -1.630  0.00  0.00     0.062 H 
ATOM     25  C   LIG d   1       5.293  -2.448  -3.957  0.00  0.00    -0.050 A 
ATOM     26  H   LIG d   1       3.662  -3.422  -2.977  0.00  0.00     0.062 H 
ATOM     27  C   LIG d   1       6.020  -1.279  -4.084  0.00  0.00    -0.052 A 
ATOM     28  H   LIG d   1       6.850  -1.231  -4.773  0.00  0.00     0.062 H 
BRANCH  21  29
ATOM     29  C   LIG d   1       4.263   0.972  -1.614  0.00  0.00    -0.039 C 
ATOM     30  H   LIG d   1       5.072   1.700  -1.661  0.00  0.00     0.028 H 
ATOM     31  H   LIG d   1       3.348   1.419  -2.003  0.00  0.00     0.028 H 
ATOM     32  H   LIG d   1       4.107   0.668  -0.579  0.00  0.00     0.028 H 
ENDBRANCH  21  29
BRANCH  25  33
ATOM     33  C   LIG d   1       5.658  -3.656  -4.782  0.00  0.00    -0.040 C 
ATOM     34  H   LIG d   1       4.930  -3.781  -5.584  0.00  0.00     0.028 H 
ATOM     35  H   LIG d   1       6.651  -3.518  -5.209  0.00  0.00     0.028 H 
ATOM     36  H   LIG d   1       5.655  -4.543  -4.148  0.00  0.00     0.028 H 
ENDBRANCH  25  33
ENDBRANCH  17  20
ENDBRANCH  16  17
ENDBRANCH   1  16
BRANCH   9  37
ATOM     37  C   LIG d   1      12.313   6.128  -1.618  0.00  0.00    -0.018 A 
ATOM     38  C   LIG d   1      12.099   5.939  -0.247  0.00  0.00    -0.009 A 
ATOM     39  C   LIG d   1      11.562   6.958   0.512  0.00  0.00     0.162 A 
ATOM     40  H   LIG d   1      12.354   4.996   0.215  0.00  0.00     0.066 H 
ATOM     41  C   LIG d   1      11.228   8.173  -0.086  0.00  0.00     0.162 A 
ATOM     42  C   LIG d   1      11.445   8.365  -1.445  0.00  0.00    -0.016 A 
ATOM     43  C   LIG d   1      11.980   7.354  -2.211  0.00  0.00    -0.051 A 
ATOM     44  H   LIG d   1      11.187   9.309  -1.904  0.00  0.00     0.066 H 
ATOM     45  H   LIG d   1      12.143   7.504  -3.268  0.00  0.00     0.062 H 
BRANCH  39  46
ATOM     46  O   LIG d   1      11.353   6.777   1.844  0.00  0.00    -0.491 OA
BRANCH  46  47
ATOM     47  C   LIG d   1      10.856   5.502   2.254  0.00  0.00     0.079 C 
ATOM     48  H   LIG d   1      11.161   5.308   3.283  0.00  0.00     0.066 H 
ATOM     49  H   LIG d   1      11.261   4.728   1.603  0.00  0.00     0.066 H 
ATOM     50  H   LIG d   1       9.768   5.498   2.192  0.00  0.00     0.066 H 
ENDBRANCH  46  47
ENDBRANCH  39  46
BRANCH  41  51
ATOM     51  O   LIG d   1      10.694   9.173   0.662  0.00  0.00    -0.491 OA
BRANCH  51  52
ATOM     52  C   LIG d   1      10.699  10.484   0.092  0.00  0.00     0.079 C 
ATOM     53  H   LIG d   1      10.155  11.166   0.745  0.00  0.00     0.066 H 
ATOM     54  H   LIG d   1      11.727  10.827  -0.019  0.00  0.00     0.066 H 
ATOM     55  H   LIG d   1      10.218  10.456  -0.886  0.00  0.00     0.066 H 
ENDBRANCH  51  52
ENDBRANCH  41  51
ENDBRANCH   9  37
TORSDOF 10
ENDMDL
MODEL 5
REMARK VINA RESULT:      -6.8      1.315      2.067
REMARK  10 active torsions:
REMARK  status: ('A' for Active; 'I' for Inactive)
REMARK    1  A    between atoms: C_1  and  C_2 
REMARK    2  A    between atoms: C_5  and  C_31 
REMARK    3  A    between atoms: C_6  and  C_8 
REMARK    4  A    between atoms: C_8  and  O_9 
REMARK    5  A    between atoms: O_9  and  C_10 
REMARK    6  A    between atoms: C_18  and  C_19 
REMARK    7  A    between atoms: C_22  and  O_27 
REMARK    8  A    between atoms: C_23  and  O_25 
REMARK    9  A    between atoms: O_25  and  C_26 
REMARK   10  A    between atoms: O_27  and  C_28 
ROOT
ATOM      1  C   LIG d   1       8.319   1.694  -5.848  0.00  0.00     0.124 A 
ATOM      2  C   LIG d   1       8.602   2.101  -7.150  0.00  0.00    -0.019 A 
ATOM      3  C   LIG d   1       9.286   3.261  -7.373  0.00  0.00    -0.044 A 
ATOM      4  C   LIG d   1       9.703   4.041  -6.293  0.00  0.00     0.068 A 
ATOM      5  C   LIG d   1       9.424   3.642  -4.977  0.00  0.00     0.143 A 
ATOM      6  C   LIG d   1       8.727   2.459  -4.767  0.00  0.00     0.023 A 
ATOM      7  O   LIG d   1       9.923   4.550  -4.110  0.00  0.00    -0.451 OA
ATOM      8  C   LIG d   1      10.540   5.571  -4.750  0.00  0.00     0.176 A 
ATOM      9  C   LIG d   1      11.141   6.638  -4.166  0.00  0.00    -0.008 C 
ATOM     10  C   LIG d   1      10.436   5.316  -6.195  0.00  0.00     0.232 A 
ATOM     11  O   LIG d   1      10.861   6.005  -7.106  0.00  0.00    -0.283 OA
ATOM     12  H   LIG d   1       8.278   1.496  -7.984  0.00  0.00     0.065 H 
ATOM     13  H   LIG d   1       9.504   3.575  -8.382  0.00  0.00     0.063 H 
ATOM     14  H   LIG d   1       8.503   2.135  -3.761  0.00  0.00     0.069 H 
ATOM     15  H   LIG d   1      11.531   7.440  -4.775  0.00  0.00     0.066 H 
ENDROOT
BRANCH   1  16
ATOM     16  O   LIG d   1       7.638   0.539  -5.637  0.00  0.00    -0.487 OA
BRANCH  16  17
ATOM     17  C   LIG d   1       7.899  -0.153  -4.414  0.00  0.00     0.115 C 
ATOM     18  H   LIG d   1       8.419  -1.086  -4.629  0.00  0.00     0.075 H 
ATOM     19  H   LIG d   1       8.519   0.469  -3.769  0.00  0.00     0.075 H 
BRANCH  17  20
ATOM     20  C   LIG d   1       6.595  -0.454  -3.720  0.00  0.00    -0.007 A 
ATOM     21  C   LIG d   1       6.205  -1.764  -3.519  0.00  0.00    -0.044 A 
ATOM     22  C   LIG d   1       5.012  -2.041  -2.878  0.00  0.00    -0.058 A 
ATOM     23  C   LIG d   1       4.204  -1.005  -2.445  0.00  0.00    -0.059 A 
ATOM     24  H   LIG d   1       4.709  -3.065  -2.718  0.00  0.00     0.062 H 
ATOM     25  C   LIG d   1       4.592   0.306  -2.650  0.00  0.00    -0.050 A 
ATOM     26  H   LIG d   1       3.271  -1.221  -1.948  0.00  0.00     0.062 H 
ATOM     27  C   LIG d   1       5.788   0.582  -3.287  0.00  0.00    -0.052 A 
ATOM     28  H   LIG d   1       6.091   1.606  -3.447  0.00  0.00     0.062 H 
BRANCH  21  29
ATOM     29  C   LIG d   1       7.083  -2.893  -3.996  0.00  0.00    -0.039 C 
ATOM     30  H   LIG d   1       8.125  -2.577  -3.973  0.00  0.00     0.028 H 
ATOM     31  H   LIG d   1       6.951  -3.757  -3.344  0.00  0.00     0.028 H 
ATOM     32  H   LIG d   1       6.808  -3.162  -5.015  0.00  0.00     0.028 H 
ENDBRANCH  21  29
BRANCH  25  33
ATOM     33  C   LIG d   1       3.712   1.434  -2.178  0.00  0.00    -0.040 C 
ATOM     34  H   LIG d   1       4.333   2.237  -1.781  0.00  0.00     0.028 H 
ATOM     35  H   LIG d   1       3.122   1.809  -3.013  0.00  0.00     0.028 H 
ATOM     36  H   LIG d   1       3.045   1.072  -1.396  0.00  0.00     0.028 H 
ENDBRANCH  25  33
ENDBRANCH  17  20
ENDBRANCH  16  17
ENDBRANCH   1  16
BRANCH   9  37
ATOM     37  C   LIG d   1      11.263   6.702  -2.704  0.00  0.00    -0.018 A 
ATOM     38  C   LIG d   1      12.467   6.348  -2.082  0.00  0.00    -0.009 A 
ATOM     39  C   LIG d   1      12.574   6.411  -0.707  0.00  0.00     0.162 A 
ATOM     40  H   LIG d   1      13.309   6.026  -2.677  0.00  0.00     0.066 H 
ATOM     41  C   LIG d   1      11.485   6.822   0.060  0.00  0.00     0.162 A 
ATOM     42  C   LIG d   1      10.292   7.179  -0.556  0.00  0.00    -0.016 A 
ATOM     43  C   LIG d   1      10.175   7.120  -1.926  0.00  0.00    -0.051 A 
ATOM     44  H   LIG d   1       9.452   7.500   0.043  0.00  0.00     0.066 H 
ATOM     45  H   LIG d   1       9.245   7.394  -2.402  0.00  0.00     0.062 H 
BRANCH  39  46
ATOM     46  O   LIG d   1      13.742   6.067  -0.100  0.00  0.00    -0.491 OA
BRANCH  46  47
ATOM     47  C   LIG d   1      14.907   6.809  -0.468  0.00  0.00     0.079 C 
ATOM     48  H   LIG d   1      15.617   6.802   0.358  0.00  0.00     0.066 H 
ATOM     49  H   LIG d   1      14.626   7.836  -0.698  0.00  0.00     0.066 H 
ATOM     50  H   LIG d   1      15.366   6.352  -1.345  0.00  0.00     0.066 H 
ENDBRANCH  46  47
ENDBRANCH  39  46
BRANCH  41  51
ATOM     51  O   LIG d   1      11.591   6.878   1.413  0.00  0.00    -0.491 OA
BRANCH  51  52
ATOM     52  C   LIG d   1      10.943   5.845   2.158  0.00  0.00     0.079 C 
ATOM     53  H   LIG d   1       9.960   5.650   1.728  0.00  0.00     0.066 H 
ATOM     54  H   LIG d   1      11.544   4.937   2.118  0.00  0.00     0.066 H 
ATOM     55  H   LIG d   1      10.829   6.161   3.195  0.00  0.00     0.066 H 
ENDBRANCH  51  52
ENDBRANCH  41  51
ENDBRANCH   9  37
TORSDOF 10
ENDMDL
MODEL 6
REMARK VINA RESULT:      -6.7      6.729     12.344
REMARK  10 active torsions:
REMARK  status: ('A' for Active; 'I' for Inactive)
REMARK    1  A    between atoms: C_1  and  C_2 
REMARK    2  A    between atoms: C_5  and  C_31 
REMARK    3  A    between atoms: C_6  and  C_8 
REMARK    4  A    between atoms: C_8  and  O_9 
REMARK    5  A    between atoms: O_9  and  C_10 
REMARK    6  A    between atoms: C_18  and  C_19 
REMARK    7  A    between atoms: C_22  and  O_27 
REMARK    8  A    between atoms: C_23  and  O_25 
REMARK    9  A    between atoms: O_25  and  C_26 
REMARK   10  A    between atoms: O_27  and  C_28 
ROOT
ATOM      1  C   LIG d   1       3.060   0.743  -7.570  0.00  0.00     0.124 A 
ATOM      2  C   LIG d   1       3.501   1.553  -8.613  0.00  0.00    -0.019 A 
ATOM      3  C   LIG d   1       3.434   1.109  -9.903  0.00  0.00    -0.044 A 
ATOM      4  C   LIG d   1       2.924  -0.161 -10.175  0.00  0.00     0.068 A 
ATOM      5  C   LIG d   1       2.476  -0.987  -9.133  0.00  0.00     0.143 A 
ATOM      6  C   LIG d   1       2.551  -0.520  -7.826  0.00  0.00     0.023 A 
ATOM      7  O   LIG d   1       2.029  -2.157  -9.638  0.00  0.00    -0.451 OA
ATOM      8  C   LIG d   1       2.140  -2.198 -10.987  0.00  0.00     0.176 A 
ATOM      9  C   LIG d   1       1.780  -3.230 -11.791  0.00  0.00    -0.008 C 
ATOM     10  C   LIG d   1       2.727  -0.921 -11.423  0.00  0.00     0.232 A 
ATOM     11  O   LIG d   1       2.989  -0.571 -12.560  0.00  0.00    -0.283 OA
ATOM     12  H   LIG d   1       3.896   2.536  -8.401  0.00  0.00     0.065 H 
ATOM     13  H   LIG d   1       3.777   1.738 -10.710  0.00  0.00     0.063 H 
ATOM     14  H   LIG d   1       2.211  -1.141  -7.010  0.00  0.00     0.069 H 
ATOM     15  H   LIG d   1       1.990  -3.190 -12.849  0.00  0.00     0.066 H 
ENDROOT
BRANCH   1  16
ATOM     16  O   LIG d   1       3.130   1.194  -6.292  0.00  0.00    -0.487 OA
BRANCH  16  17
ATOM     17  C   LIG d   1       2.585   0.350  -5.276  0.00  0.00     0.115 C 
ATOM     18  H   LIG d   1       1.932   0.935  -4.629  0.00  0.00     0.075 H 
ATOM     19  H   LIG d   1       2.013  -0.454  -5.738  0.00  0.00     0.075 H 
BRANCH  17  20
ATOM     20  C   LIG d   1       3.706  -0.238  -4.457  0.00  0.00    -0.007 A 
ATOM     21  C   LIG d   1       4.110   0.383  -3.290  0.00  0.00    -0.044 A 
ATOM     22  C   LIG d   1       5.135  -0.158  -2.537  0.00  0.00    -0.058 A 
ATOM     23  C   LIG d   1       5.762  -1.318  -2.956  0.00  0.00    -0.059 A 
ATOM     24  H   LIG d   1       5.448   0.325  -1.624  0.00  0.00     0.062 H 
ATOM     25  C   LIG d   1       5.361  -1.937  -4.125  0.00  0.00    -0.050 A 
ATOM     26  H   LIG d   1       6.564  -1.739  -2.369  0.00  0.00     0.062 H 
ATOM     27  C   LIG d   1       4.333  -1.397  -4.876  0.00  0.00    -0.052 A 
ATOM     28  H   LIG d   1       4.020  -1.881  -5.789  0.00  0.00     0.062 H 
BRANCH  21  29
ATOM     29  C   LIG d   1       3.430   1.650  -2.837  0.00  0.00    -0.039 C 
ATOM     30  H   LIG d   1       3.237   1.595  -1.766  0.00  0.00     0.028 H 
ATOM     31  H   LIG d   1       4.075   2.504  -3.047  0.00  0.00     0.028 H 
ATOM     32  H   LIG d   1       2.488   1.767  -3.371  0.00  0.00     0.028 H 
ENDBRANCH  21  29
BRANCH  25  33
ATOM     33  C   LIG d   1       6.044  -3.200  -4.581  0.00  0.00    -0.040 C 
ATOM     34  H   LIG d   1       5.318  -3.848  -5.072  0.00  0.00     0.028 H 
ATOM     35  H   LIG d   1       6.842  -2.951  -5.280  0.00  0.00     0.028 H 
ATOM     36  H   LIG d   1       6.466  -3.717  -3.718  0.00  0.00     0.028 H 
ENDBRANCH  25  33
ENDBRANCH  17  20
ENDBRANCH  16  17
ENDBRANCH   1  16
BRANCH   9  37
ATOM     37  C   LIG d   1       1.103  -4.403 -11.222  0.00  0.00    -0.018 A 
ATOM     38  C   LIG d   1      -0.203  -4.291 -10.728  0.00  0.00    -0.009 A 
ATOM     39  C   LIG d   1      -0.832  -5.397 -10.194  0.00  0.00     0.162 A 
ATOM     40  H   LIG d   1      -0.715  -3.341 -10.764  0.00  0.00     0.066 H 
ATOM     41  C   LIG d   1      -0.168  -6.622 -10.143  0.00  0.00     0.162 A 
ATOM     42  C   LIG d   1       1.125  -6.736 -10.638  0.00  0.00    -0.016 A 
ATOM     43  C   LIG d   1       1.763  -5.638 -11.172  0.00  0.00    -0.051 A 
ATOM     44  H   LIG d   1       1.635  -7.688 -10.599  0.00  0.00     0.066 H 
ATOM     45  H   LIG d   1       2.769  -5.729 -11.553  0.00  0.00     0.062 H 
BRANCH  39  46
ATOM     46  O   LIG d   1      -2.100  -5.291  -9.713  0.00  0.00    -0.491 OA
BRANCH  46  47
ATOM     47  C   LIG d   1      -3.140  -5.078 -10.669  0.00  0.00     0.079 C 
ATOM     48  H   LIG d   1      -4.109  -5.164 -10.176  0.00  0.00     0.066 H 
ATOM     49  H   LIG d   1      -3.067  -5.826 -11.458  0.00  0.00     0.066 H 
ATOM     50  H   LIG d   1      -3.039  -4.082 -11.100  0.00  0.00     0.066 H 
ENDBRANCH  46  47
ENDBRANCH  39  46
BRANCH  41  51
ATOM     51  O   LIG d   1      -0.787  -7.708  -9.612  0.00  0.00    -0.491 OA
BRANCH  51  52
ATOM     52  C   LIG d   1      -1.356  -8.644 -10.530  0.00  0.00     0.079 C 
ATOM     53  H   LIG d   1      -2.098  -9.253 -10.014  0.00  0.00     0.066 H 
ATOM     54  H   LIG d   1      -1.834  -8.105 -11.347  0.00  0.00     0.066 H 
ATOM     55  H   LIG d   1      -0.571  -9.286 -10.928  0.00  0.00     0.066 H 
ENDBRANCH  51  52
ENDBRANCH  41  51
ENDBRANCH   9  37
TORSDOF 10
ENDMDL
MODEL 7
REMARK VINA RESULT:      -6.7      4.702      8.820
REMARK  10 active torsions:
REMARK  status: ('A' for Active; 'I' for Inactive)
REMARK    1  A    between atoms: C_1  and  C_2 
REMARK    2  A    between atoms: C_5  and  C_31 
REMARK    3  A    between atoms: C_6  and  C_8 
REMARK    4  A    between atoms: C_8  and  O_9 
REMARK    5  A    between atoms: O_9  and  C_10 
REMARK    6  A    between atoms: C_18  and  C_19 
REMARK    7  A    between atoms: C_22  and  O_27 
REMARK    8  A    between atoms: C_23  and  O_25 
REMARK    9  A    between atoms: O_25  and  C_26 
REMARK   10  A    between atoms: O_27  and  C_28 
ROOT
ATOM      1  C   LIG d   1       2.895  -3.761  -9.871  0.00  0.00     0.124 A 
ATOM      2  C   LIG d   1       2.668  -5.113  -9.625  0.00  0.00    -0.019 A 
ATOM      3  C   LIG d   1       3.094  -5.679  -8.457  0.00  0.00    -0.044 A 
ATOM      4  C   LIG d   1       3.758  -4.899  -7.509  0.00  0.00     0.068 A 
ATOM      5  C   LIG d   1       3.992  -3.536  -7.744  0.00  0.00     0.143 A 
ATOM      6  C   LIG d   1       3.552  -2.976  -8.938  0.00  0.00     0.023 A 
ATOM      7  O   LIG d   1       4.644  -2.997  -6.692  0.00  0.00    -0.451 OA
ATOM      8  C   LIG d   1       4.883  -3.914  -5.725  0.00  0.00     0.176 A 
ATOM      9  C   LIG d   1       5.517  -3.689  -4.546  0.00  0.00    -0.008 C 
ATOM     10  C   LIG d   1       4.335  -5.198  -6.186  0.00  0.00     0.232 A 
ATOM     11  O   LIG d   1       4.353  -6.269  -5.603  0.00  0.00    -0.283 OA
ATOM     12  H   LIG d   1       2.155  -5.715 -10.361  0.00  0.00     0.065 H 
ATOM     13  H   LIG d   1       2.918  -6.727  -8.269  0.00  0.00     0.063 H 
ATOM     14  H   LIG d   1       3.723  -1.928  -9.138  0.00  0.00     0.069 H 
ATOM     15  H   LIG d   1       5.728  -4.513  -3.881  0.00  0.00     0.066 H 
ENDROOT
BRANCH   1  16
ATOM     16  O   LIG d   1       2.468  -3.207 -11.035  0.00  0.00    -0.487 OA
BRANCH  16  17
ATOM     17  C   LIG d   1       1.583  -2.090 -10.935  0.00  0.00     0.115 C 
ATOM     18  H   LIG d   1       0.970  -2.031 -11.834  0.00  0.00     0.075 H 
ATOM     19  H   LIG d   1       0.939  -2.211 -10.064  0.00  0.00     0.075 H 
BRANCH  17  20
ATOM     20  C   LIG d   1       2.387  -0.823 -10.792  0.00  0.00    -0.007 A 
ATOM     21  C   LIG d   1       3.303  -0.471 -11.766  0.00  0.00    -0.044 A 
ATOM     22  C   LIG d   1       4.037   0.693 -11.637  0.00  0.00    -0.058 A 
ATOM     23  C   LIG d   1       3.862   1.501 -10.529  0.00  0.00    -0.059 A 
ATOM     24  H   LIG d   1       4.749   0.970 -12.400  0.00  0.00     0.062 H 
ATOM     25  C   LIG d   1       2.950   1.146  -9.552  0.00  0.00    -0.050 A 
ATOM     26  H   LIG d   1       4.438   2.408 -10.426  0.00  0.00     0.062 H 
ATOM     27  C   LIG d   1       2.212  -0.015  -9.684  0.00  0.00    -0.052 A 
ATOM     28  H   LIG d   1       1.500  -0.292  -8.921  0.00  0.00     0.062 H 
BRANCH  21  29
ATOM     29  C   LIG d   1       3.497  -1.355 -12.972  0.00  0.00    -0.039 C 
ATOM     30  H   LIG d   1       4.554  -1.381 -13.236  0.00  0.00     0.028 H 
ATOM     31  H   LIG d   1       3.155  -2.365 -12.741  0.00  0.00     0.028 H 
ATOM     32  H   LIG d   1       2.923  -0.960 -13.809  0.00  0.00     0.028 H 
ENDBRANCH  21  29
BRANCH  25  33
ATOM     33  C   LIG d   1       2.760   2.027  -8.344  0.00  0.00    -0.040 C 
ATOM     34  H   LIG d   1       3.699   2.527  -8.109  0.00  0.00     0.028 H 
ATOM     35  H   LIG d   1       1.994   2.773  -8.555  0.00  0.00     0.028 H 
ATOM     36  H   LIG d   1       2.450   1.418  -7.495  0.00  0.00     0.028 H 
ENDBRANCH  25  33
ENDBRANCH  17  20
ENDBRANCH  16  17
ENDBRANCH   1  16
BRANCH   9  37
ATOM     37  C   LIG d   1       5.914  -2.326  -4.174  0.00  0.00    -0.018 A 
ATOM     38  C   LIG d   1       5.177  -1.613  -3.219  0.00  0.00    -0.009 A 
ATOM     39  C   LIG d   1       5.557  -0.332  -2.874  0.00  0.00     0.162 A 
ATOM     40  H   LIG d   1       4.313  -2.066  -2.755  0.00  0.00     0.066 H 
ATOM     41  C   LIG d   1       6.669   0.253  -3.478  0.00  0.00     0.162 A 
ATOM     42  C   LIG d   1       7.405  -0.454  -4.421  0.00  0.00    -0.016 A 
ATOM     43  C   LIG d   1       7.034  -1.733  -4.772  0.00  0.00    -0.051 A 
ATOM     44  H   LIG d   1       8.268   0.002  -4.884  0.00  0.00     0.066 H 
ATOM     45  H   LIG d   1       7.606  -2.279  -5.508  0.00  0.00     0.062 H 
BRANCH  39  46
ATOM     46  O   LIG d   1       4.842   0.362  -1.949  0.00  0.00    -0.491 OA
BRANCH  46  47
ATOM     47  C   LIG d   1       3.686   1.062  -2.413  0.00  0.00     0.079 C 
ATOM     48  H   LIG d   1       2.790   0.595  -2.003  0.00  0.00     0.066 H 
ATOM     49  H   LIG d   1       3.650   1.022  -3.501  0.00  0.00     0.066 H 
ATOM     50  H   LIG d   1       3.735   2.101  -2.088  0.00  0.00     0.066 H 
ENDBRANCH  46  47
ENDBRANCH  39  46
BRANCH  41  51
ATOM     51  O   LIG d   1       7.037   1.516  -3.141  0.00  0.00    -0.491 OA
BRANCH  51  52
ATOM     52  C   LIG d   1       8.105   2.102  -3.889  0.00  0.00     0.079 C 
ATOM     53  H   LIG d   1       7.789   3.072  -4.273  0.00  0.00     0.066 H 
ATOM     54  H   LIG d   1       8.972   2.232  -3.242  0.00  0.00     0.066 H 
ATOM     55  H   LIG d   1       8.367   1.449  -4.721  0.00  0.00     0.066 H 
ENDBRANCH  51  52
ENDBRANCH  41  51
ENDBRANCH   9  37
TORSDOF 10
ENDMDL
MODEL 8
REMARK VINA RESULT:      -6.6      1.870      3.345
REMARK  10 active torsions:
REMARK  status: ('A' for Active; 'I' for Inactive)
REMARK    1  A    between atoms: C_1  and  C_2 
REMARK    2  A    between atoms: C_5  and  C_31 
REMARK    3  A    between atoms: C_6  and  C_8 
REMARK    4  A    between atoms: C_8  and  O_9 
REMARK    5  A    between atoms: O_9  and  C_10 
REMARK    6  A    between atoms: C_18  and  C_19 
REMARK    7  A    between atoms: C_22  and  O_27 
REMARK    8  A    between atoms: C_23  and  O_25 
REMARK    9  A    between atoms: O_25  and  C_26 
REMARK   10  A    between atoms: O_27  and  C_28 
ROOT
ATOM      1  C   LIG d   1       8.539   1.530  -4.833  0.00  0.00     0.124 A 
ATOM      2  C   LIG d   1       9.057   1.028  -6.024  0.00  0.00    -0.019 A 
ATOM      3  C   LIG d   1       9.642   1.870  -6.927  0.00  0.00    -0.044 A 
ATOM      4  C   LIG d   1       9.720   3.237  -6.653  0.00  0.00     0.068 A 
ATOM      5  C   LIG d   1       9.202   3.754  -5.457  0.00  0.00     0.143 A 
ATOM      6  C   LIG d   1       8.609   2.885  -4.549  0.00  0.00     0.023 A 
ATOM      7  O   LIG d   1       9.393   5.091  -5.417  0.00  0.00    -0.451 OA
ATOM      8  C   LIG d   1      10.021   5.542  -6.529  0.00  0.00     0.176 A 
ATOM      9  C   LIG d   1      10.356   6.830  -6.794  0.00  0.00    -0.008 C 
ATOM     10  C   LIG d   1      10.268   4.383  -7.400  0.00  0.00     0.232 A 
ATOM     11  O   LIG d   1      10.807   4.374  -8.493  0.00  0.00    -0.283 OA
ATOM     12  H   LIG d   1       8.996  -0.029  -6.234  0.00  0.00     0.065 H 
ATOM     13  H   LIG d   1      10.043   1.479  -7.849  0.00  0.00     0.063 H 
ATOM     14  H   LIG d   1       8.205   3.264  -3.622  0.00  0.00     0.069 H 
ATOM     15  H   LIG d   1      10.781   7.092  -7.752  0.00  0.00     0.066 H 
ENDROOT
BRANCH   1  16
ATOM     16  O   LIG d   1       7.959   0.686  -3.942  0.00  0.00    -0.487 OA
BRANCH  16  17
ATOM     17  C   LIG d   1       6.661   1.040  -3.462  0.00  0.00     0.115 C 
ATOM     18  H   LIG d   1       6.754   1.528  -2.492  0.00  0.00     0.075 H 
ATOM     19  H   LIG d   1       6.185   1.721  -4.168  0.00  0.00     0.075 H 
BRANCH  17  20
ATOM     20  C   LIG d   1       5.821  -0.203  -3.320  0.00  0.00    -0.007 A 
ATOM     21  C   LIG d   1       4.781  -0.235  -2.411  0.00  0.00    -0.044 A 
ATOM     22  C   LIG d   1       4.007  -1.373  -2.283  0.00  0.00    -0.058 A 
ATOM     23  C   LIG d   1       4.280  -2.484  -3.059  0.00  0.00    -0.059 A 
ATOM     24  H   LIG d   1       3.192  -1.396  -1.575  0.00  0.00     0.062 H 
ATOM     25  C   LIG d   1       5.324  -2.455  -3.966  0.00  0.00    -0.050 A 
ATOM     26  H   LIG d   1       3.678  -3.374  -2.958  0.00  0.00     0.062 H 
ATOM     27  C   LIG d   1       6.094  -1.314  -4.096  0.00  0.00    -0.052 A 
ATOM     28  H   LIG d   1       6.909  -1.291  -4.804  0.00  0.00     0.062 H 
BRANCH  21  29
ATOM     29  C   LIG d   1       4.487   0.975  -1.560  0.00  0.00    -0.039 C 
ATOM     30  H   LIG d   1       4.624   0.722  -0.509  0.00  0.00     0.028 H 
ATOM     31  H   LIG d   1       5.167   1.784  -1.831  0.00  0.00     0.028 H 
ATOM     32  H   LIG d   1       3.459   1.295  -1.725  0.00  0.00     0.028 H 
ENDBRANCH  21  29
BRANCH  25  33
ATOM     33  C   LIG d   1       5.621  -3.666  -4.812  0.00  0.00    -0.040 C 
ATOM     34  H   LIG d   1       6.377  -3.413  -5.555  0.00  0.00     0.028 H 
ATOM     35  H   LIG d   1       5.988  -4.471  -4.178  0.00  0.00     0.028 H 
ATOM     36  H   LIG d   1       4.710  -3.988  -5.317  0.00  0.00     0.028 H 
ENDBRANCH  25  33
ENDBRANCH  17  20
ENDBRANCH  16  17
ENDBRANCH   1  16
BRANCH   9  37
ATOM     37  C   LIG d   1      10.143   7.868  -5.778  0.00  0.00    -0.018 A 
ATOM     38  C   LIG d   1      10.527   7.643  -4.450  0.00  0.00    -0.009 A 
ATOM     39  C   LIG d   1      10.322   8.624  -3.500  0.00  0.00     0.162 A 
ATOM     40  H   LIG d   1      10.981   6.704  -4.170  0.00  0.00     0.066 H 
ATOM     41  C   LIG d   1       9.731   9.834  -3.862  0.00  0.00     0.162 A 
ATOM     42  C   LIG d   1       9.355  10.061  -5.180  0.00  0.00    -0.016 A 
ATOM     43  C   LIG d   1       9.554   9.089  -6.135  0.00  0.00    -0.051 A 
ATOM     44  H   LIG d   1       8.900  11.001  -5.456  0.00  0.00     0.066 H 
ATOM     45  H   LIG d   1       9.257   9.267  -7.158  0.00  0.00     0.062 H 
BRANCH  39  46
ATOM     46  O   LIG d   1      10.693   8.408  -2.210  0.00  0.00    -0.491 OA
BRANCH  46  47
ATOM     47  C   LIG d   1       9.973   7.408  -1.487  0.00  0.00     0.079 C 
ATOM     48  H   LIG d   1      10.395   6.427  -1.707  0.00  0.00     0.066 H 
ATOM     49  H   LIG d   1       8.926   7.428  -1.784  0.00  0.00     0.066 H 
ATOM     50  H   LIG d   1      10.053   7.604  -0.417  0.00  0.00     0.066 H 
ENDBRANCH  46  47
ENDBRANCH  39  46
BRANCH  41  51
ATOM     51  O   LIG d   1       9.526  10.795  -2.924  0.00  0.00    -0.491 OA
BRANCH  51  52
ATOM     52  C   LIG d   1       8.616  11.845  -3.260  0.00  0.00     0.079 C 
ATOM     53  H   LIG d   1       7.595  11.513  -3.075  0.00  0.00     0.066 H 
ATOM     54  H   LIG d   1       8.831  12.720  -2.647  0.00  0.00     0.066 H 
ATOM     55  H   LIG d   1       8.730  12.102  -4.313  0.00  0.00     0.066 H 
ENDBRANCH  51  52
ENDBRANCH  41  51
ENDBRANCH   9  37
TORSDOF 10
ENDMDL
MODEL 9
REMARK VINA RESULT:      -6.5      1.481      2.305
REMARK  10 active torsions:
REMARK  status: ('A' for Active; 'I' for Inactive)
REMARK    1  A    between atoms: C_1  and  C_2 
REMARK    2  A    between atoms: C_5  and  C_31 
REMARK    3  A    between atoms: C_6  and  C_8 
REMARK    4  A    between atoms: C_8  and  O_9 
REMARK    5  A    between atoms: O_9  and  C_10 
REMARK    6  A    between atoms: C_18  and  C_19 
REMARK    7  A    between atoms: C_22  and  O_27 
REMARK    8  A    between atoms: C_23  and  O_25 
REMARK    9  A    between atoms: O_25  and  C_26 
REMARK   10  A    between atoms: O_27  and  C_28 
ROOT
ATOM      1  C   LIG d   1       8.213   1.115  -5.509  0.00  0.00     0.124 A 
ATOM      2  C   LIG d   1       9.293   0.357  -5.954  0.00  0.00    -0.019 A 
ATOM      3  C   LIG d   1      10.571   0.783  -5.727  0.00  0.00    -0.044 A 
ATOM      4  C   LIG d   1      10.793   1.981  -5.046  0.00  0.00     0.068 A 
ATOM      5  C   LIG d   1       9.713   2.754  -4.593  0.00  0.00     0.143 A 
ATOM      6  C   LIG d   1       8.420   2.306  -4.832  0.00  0.00     0.023 A 
ATOM      7  O   LIG d   1      10.174   3.859  -3.967  0.00  0.00    -0.451 OA
ATOM      8  C   LIG d   1      11.527   3.905  -3.959  0.00  0.00     0.176 A 
ATOM      9  C   LIG d   1      12.293   4.882  -3.411  0.00  0.00    -0.008 C 
ATOM     10  C   LIG d   1      12.016   2.705  -4.655  0.00  0.00     0.232 A 
ATOM     11  O   LIG d   1      13.173   2.383  -4.862  0.00  0.00    -0.283 OA
ATOM     12  H   LIG d   1       9.119  -0.569  -6.481  0.00  0.00     0.065 H 
ATOM     13  H   LIG d   1      11.406   0.195  -6.073  0.00  0.00     0.063 H 
ATOM     14  H   LIG d   1       7.575   2.887  -4.490  0.00  0.00     0.069 H 
ATOM     15  H   LIG d   1      13.366   4.861  -3.534  0.00  0.00     0.066 H 
ENDROOT
BRANCH   1  16
ATOM     16  O   LIG d   1       6.947   0.683  -5.739  0.00  0.00    -0.487 OA
BRANCH  16  17
ATOM     17  C   LIG d   1       6.699  -0.714  -5.577  0.00  0.00     0.115 C 
ATOM     18  H   LIG d   1       6.216  -1.104  -6.473  0.00  0.00     0.075 H 
ATOM     19  H   LIG d   1       7.642  -1.235  -5.416  0.00  0.00     0.075 H 
BRANCH  17  20
ATOM     20  C   LIG d   1       5.798  -0.930  -4.388  0.00  0.00    -0.007 A 
ATOM     21  C   LIG d   1       5.215  -2.165  -4.177  0.00  0.00    -0.044 A 
ATOM     22  C   LIG d   1       4.392  -2.364  -3.084  0.00  0.00    -0.058 A 
ATOM     23  C   LIG d   1       4.144  -1.324  -2.207  0.00  0.00    -0.059 A 
ATOM     24  H   LIG d   1       3.939  -3.330  -2.917  0.00  0.00     0.062 H 
ATOM     25  C   LIG d   1       4.723  -0.087  -2.421  0.00  0.00    -0.050 A 
ATOM     26  H   LIG d   1       3.499  -1.478  -1.356  0.00  0.00     0.062 H 
ATOM     27  C   LIG d   1       5.550   0.110  -3.511  0.00  0.00    -0.052 A 
ATOM     28  H   LIG d   1       6.002   1.077  -3.678  0.00  0.00     0.062 H 
BRANCH  21  29
ATOM     29  C   LIG d   1       5.480  -3.297  -5.136  0.00  0.00    -0.039 C 
ATOM     30  H   LIG d   1       5.517  -4.237  -4.587  0.00  0.00     0.028 H 
ATOM     31  H   LIG d   1       4.682  -3.340  -5.878  0.00  0.00     0.028 H 
ATOM     32  H   LIG d   1       6.433  -3.132  -5.638  0.00  0.00     0.028 H 
ENDBRANCH  21  29
BRANCH  25  33
ATOM     33  C   LIG d   1       4.453   1.046  -1.464  0.00  0.00    -0.040 C 
ATOM     34  H   LIG d   1       5.293   1.147  -0.776  0.00  0.00     0.028 H 
ATOM     35  H   LIG d   1       4.328   1.972  -2.024  0.00  0.00     0.028 H 
ATOM     36  H   LIG d   1       3.545   0.836  -0.900  0.00  0.00     0.028 H 
ENDBRANCH  25  33
ENDBRANCH  17  20
ENDBRANCH  16  17
ENDBRANCH   1  16
BRANCH   9  37
ATOM     37  C   LIG d   1      11.664   5.968  -2.649  0.00  0.00    -0.018 A 
ATOM     38  C   LIG d   1      11.367   5.795  -1.291  0.00  0.00    -0.009 A 
ATOM     39  C   LIG d   1      10.776   6.820  -0.581  0.00  0.00     0.162 A 
ATOM     40  H   LIG d   1      11.601   4.861  -0.801  0.00  0.00     0.066 H 
ATOM     41  C   LIG d   1      10.471   8.023  -1.216  0.00  0.00     0.162 A 
ATOM     42  C   LIG d   1      10.770   8.199  -2.561  0.00  0.00    -0.016 A 
ATOM     43  C   LIG d   1      11.359   7.182  -3.279  0.00  0.00    -0.051 A 
ATOM     44  H   LIG d   1      10.534   9.134  -3.048  0.00  0.00     0.066 H 
ATOM     45  H   LIG d   1      11.587   7.320  -4.325  0.00  0.00     0.062 H 
BRANCH  39  46
ATOM     46  O   LIG d   1      10.486   6.655   0.737  0.00  0.00    -0.491 OA
BRANCH  46  47
ATOM     47  C   LIG d   1      11.058   5.520   1.389  0.00  0.00     0.079 C 
ATOM     48  H   LIG d   1      10.354   4.688   1.354  0.00  0.00     0.066 H 
ATOM     49  H   LIG d   1      11.275   5.768   2.427  0.00  0.00     0.066 H 
ATOM     50  H   LIG d   1      11.980   5.235   0.882  0.00  0.00     0.066 H 
ENDBRANCH  46  47
ENDBRANCH  39  46
BRANCH  41  51
ATOM     51  O   LIG d   1       9.883   9.029  -0.517  0.00  0.00    -0.491 OA
BRANCH  51  52
ATOM     52  C   LIG d   1       8.563   9.407  -0.910  0.00  0.00     0.079 C 
ATOM     53  H   LIG d   1       8.097   8.586  -1.455  0.00  0.00     0.066 H 
ATOM     54  H   LIG d   1       7.972   9.636  -0.023  0.00  0.00     0.066 H 
ATOM     55  H   LIG d   1       8.612  10.288  -1.551  0.00  0.00     0.066 H 
ENDBRANCH  51  52
ENDBRANCH  41  51
ENDBRANCH   9  37
TORSDOF 10
ENDMDL
