MODEL 1
REMARK VINA RESULT:      -7.9      0.000      0.000
REMARK  4 active torsions:
REMARK  status: ('A' for Active; 'I' for Inactive)
REMARK    1  A    between atoms: C_1  and  N_12 
REMARK       I    between atoms: N_12  and  C_13 
REMARK    2  A    between atoms: C_13  and  C_15 
REMARK    3  A    between atoms: C_15  and  C_16 
REMARK    4  A    between atoms: C_15  and  C_20 
ROOT
ATOM      1  N   LIG d   1       3.504  -0.506  -5.508  0.00  0.00    -0.279 N 
ATOM      2  C   LIG d   1       4.685  -0.230  -4.919  0.00  0.00     0.252 C 
ATOM      3  O   LIG d   1       5.590   0.249  -5.570  0.00  0.00    -0.273 OA
ATOM      4  H   LIG d   1       2.758  -0.822  -4.973  0.00  0.00     0.155 HD
ENDROOT
BRANCH   1   5
ATOM      5  C   LIG d   1       3.354  -0.338  -6.891  0.00  0.00     0.111 A 
ATOM      6  C   LIG d   1       3.670  -1.378  -7.757  0.00  0.00     0.185 A 
ATOM      7  C   LIG d   1       3.526  -1.208  -9.125  0.00  0.00     0.198 A 
ATOM      8  F   LIG d   1       4.118  -2.554  -7.266  0.00  0.00    -0.200 F 
ATOM      9  C   LIG d   1       3.066  -0.002  -9.629  0.00  0.00     0.199 A 
ATOM     10  F   LIG d   1       3.833  -2.219  -9.966  0.00  0.00    -0.199 F 
ATOM     11  C   LIG d   1       2.750   1.037  -8.768  0.00  0.00     0.198 A 
ATOM     12  F   LIG d   1       2.925   0.161 -10.963  0.00  0.00    -0.199 F 
ATOM     13  C   LIG d   1       2.893   0.870  -7.400  0.00  0.00     0.185 A 
ATOM     14  F   LIG d   1       2.302   2.211  -9.262  0.00  0.00    -0.199 F 
ATOM     15  F   LIG d   1       2.584   1.883  -6.560  0.00  0.00    -0.200 F 
ENDBRANCH   1   5
BRANCH   2  16
ATOM     16  C   LIG d   1       4.881  -0.514  -3.453  0.00  0.00     0.289 C 
ATOM     17 BR   LIG d   1       6.670  -1.279  -3.167  0.00  0.00    -0.056 Br
BRANCH  16  18
ATOM     18  C   LIG d   1       4.750   0.787  -2.658  0.00  0.00     0.422 C 
ATOM     19  F   LIG d   1       5.941   1.513  -2.755  0.00  0.00    -0.168 F 
ATOM     20  F   LIG d   1       3.696   1.546  -3.177  0.00  0.00    -0.168 F 
ATOM     21  F   LIG d   1       4.494   0.489  -1.315  0.00  0.00    -0.168 F 
ENDBRANCH  16  18
BRANCH  16  22
ATOM     22  C   LIG d   1       3.820  -1.510  -2.980  0.00  0.00     0.422 C 
ATOM     23  F   LIG d   1       2.580  -0.867  -2.900  0.00  0.00    -0.168 F 
ATOM     24  F   LIG d   1       3.738  -2.571  -3.888  0.00  0.00    -0.168 F 
ATOM     25  F   LIG d   1       4.172  -2.003  -1.718  0.00  0.00    -0.168 F 
ENDBRANCH  16  22
ENDBRANCH   2  16
TORSDOF 4
ENDMDL
MODEL 2
REMARK VINA RESULT:      -7.9      0.035      2.171
REMARK  4 active torsions:
REMARK  status: ('A' for Active; 'I' for Inactive)
REMARK    1  A    between atoms: C_1  and  N_12 
REMARK       I    between atoms: N_12  and  C_13 
REMARK    2  A    between atoms: C_13  and  C_15 
REMARK    3  A    between atoms: C_15  and  C_16 
REMARK    4  A    between atoms: C_15  and  C_20 
ROOT
ATOM      1  N   LIG d   1       3.526  -0.507  -5.489  0.00  0.00    -0.279 N 
ATOM      2  C   LIG d   1       4.706  -0.218  -4.905  0.00  0.00     0.252 C 
ATOM      3  O   LIG d   1       5.602   0.272  -5.559  0.00  0.00    -0.273 OA
ATOM      4  H   LIG d   1       2.785  -0.832  -4.951  0.00  0.00     0.155 HD
ENDROOT
BRANCH   1   5
ATOM      5  C   LIG d   1       3.367  -0.339  -6.871  0.00  0.00     0.111 A 
ATOM      6  C   LIG d   1       2.895   0.866  -7.377  0.00  0.00     0.185 A 
ATOM      7  C   LIG d   1       2.734   1.029  -8.743  0.00  0.00     0.198 A 
ATOM      8  F   LIG d   1       2.593   1.880  -6.536  0.00  0.00    -0.200 F 
ATOM      9  C   LIG d   1       3.045  -0.011  -9.606  0.00  0.00     0.199 A 
ATOM     10  F   LIG d   1       2.275   2.200  -9.234  0.00  0.00    -0.199 F 
ATOM     11  C   LIG d   1       3.515  -1.214  -9.105  0.00  0.00     0.198 A 
ATOM     12  F   LIG d   1       2.888   0.150 -10.938  0.00  0.00    -0.199 F 
ATOM     13  C   LIG d   1       3.678  -1.379  -7.739  0.00  0.00     0.185 A 
ATOM     14  F   LIG d   1       3.817  -2.225  -9.948  0.00  0.00    -0.199 F 
ATOM     15  F   LIG d   1       4.138  -2.552  -7.251  0.00  0.00    -0.200 F 
ENDBRANCH   1   5
BRANCH   2  16
ATOM     16  C   LIG d   1       4.911  -0.501  -3.439  0.00  0.00     0.289 C 
ATOM     17 BR   LIG d   1       6.702  -1.264  -3.164  0.00  0.00    -0.056 Br
BRANCH  16  18
ATOM     18  C   LIG d   1       4.784   0.800  -2.645  0.00  0.00     0.422 C 
ATOM     19  F   LIG d   1       5.973   1.528  -2.750  0.00  0.00    -0.168 F 
ATOM     20  F   LIG d   1       3.725   1.557  -3.157  0.00  0.00    -0.168 F 
ATOM     21  F   LIG d   1       4.538   0.503  -1.300  0.00  0.00    -0.168 F 
ENDBRANCH  16  18
BRANCH  16  22
ATOM     22  C   LIG d   1       3.854  -1.498  -2.959  0.00  0.00     0.422 C 
ATOM     23  F   LIG d   1       2.615  -0.854  -2.866  0.00  0.00    -0.168 F 
ATOM     24  F   LIG d   1       3.762  -2.556  -3.869  0.00  0.00    -0.168 F 
ATOM     25  F   LIG d   1       4.217  -1.994  -1.703  0.00  0.00    -0.168 F 
ENDBRANCH  16  22
ENDBRANCH   2  16
TORSDOF 4
ENDMDL
MODEL 3
REMARK VINA RESULT:      -7.8      1.217      3.133
REMARK  4 active torsions:
REMARK  status: ('A' for Active; 'I' for Inactive)
REMARK    1  A    between atoms: C_1  and  N_12 
REMARK       I    between atoms: N_12  and  C_13 
REMARK    2  A    between atoms: C_13  and  C_15 
REMARK    3  A    between atoms: C_15  and  C_16 
REMARK    4  A    between atoms: C_15  and  C_20 
ROOT
ATOM      1  N   LIG d   1       3.293  -0.273  -5.689  0.00  0.00    -0.279 N 
ATOM      2  C   LIG d   1       4.375  -0.043  -4.919  0.00  0.00     0.252 C 
ATOM      3  O   LIG d   1       5.421   0.299  -5.429  0.00  0.00    -0.273 OA
ATOM      4  H   LIG d   1       2.438  -0.477  -5.277  0.00  0.00     0.155 HD
ENDROOT
BRANCH   1   5
ATOM      5  C   LIG d   1       3.402  -0.217  -7.086  0.00  0.00     0.111 A 
ATOM      6  C   LIG d   1       3.083   0.954  -7.763  0.00  0.00     0.185 A 
ATOM      7  C   LIG d   1       3.185   1.005  -9.144  0.00  0.00     0.198 A 
ATOM      8  F   LIG d   1       2.671   2.042  -7.075  0.00  0.00    -0.200 F 
ATOM      9  C   LIG d   1       3.607  -0.111  -9.849  0.00  0.00     0.199 A 
ATOM     10  F   LIG d   1       2.875   2.143  -9.801  0.00  0.00    -0.199 F 
ATOM     11  C   LIG d   1       3.926  -1.280  -9.177  0.00  0.00     0.198 A 
ATOM     12  F   LIG d   1       3.708  -0.058 -11.196  0.00  0.00    -0.199 F 
ATOM     13  C   LIG d   1       3.824  -1.334  -7.796  0.00  0.00     0.185 A 
ATOM     14  F   LIG d   1       4.337  -2.366  -9.867  0.00  0.00    -0.199 F 
ATOM     15  F   LIG d   1       4.136  -2.474  -7.141  0.00  0.00    -0.200 F 
ENDBRANCH   1   5
BRANCH   2  16
ATOM     16  C   LIG d   1       4.285  -0.211  -3.424  0.00  0.00     0.289 C 
ATOM     17 BR   LIG d   1       2.472  -0.797  -2.939  0.00  0.00    -0.056 Br
BRANCH  16  18
ATOM     18  C   LIG d   1       5.299  -1.261  -2.966  0.00  0.00     0.422 C 
ATOM     19  F   LIG d   1       4.891  -1.800  -1.742  0.00  0.00    -0.168 F 
ATOM     20  F   LIG d   1       5.380  -2.279  -3.922  0.00  0.00    -0.168 F 
ATOM     21  F   LIG d   1       6.555  -0.661  -2.815  0.00  0.00    -0.168 F 
ENDBRANCH  16  18
BRANCH  16  22
ATOM     22  C   LIG d   1       4.589   1.124  -2.742  0.00  0.00     0.422 C 
ATOM     23  F   LIG d   1       4.545   0.958  -1.353  0.00  0.00    -0.168 F 
ATOM     24  F   LIG d   1       5.862   1.563  -3.120  0.00  0.00    -0.168 F 
ATOM     25  F   LIG d   1       3.636   2.073  -3.128  0.00  0.00    -0.168 F 
ENDBRANCH  16  22
ENDBRANCH   2  16
TORSDOF 4
ENDMDL
MODEL 4
REMARK VINA RESULT:      -7.8      1.218      2.233
REMARK  4 active torsions:
REMARK  status: ('A' for Active; 'I' for Inactive)
REMARK    1  A    between atoms: C_1  and  N_12 
REMARK       I    between atoms: N_12  and  C_13 
REMARK    2  A    between atoms: C_13  and  C_15 
REMARK    3  A    between atoms: C_15  and  C_16 
REMARK    4  A    between atoms: C_15  and  C_20 
ROOT
ATOM      1  N   LIG d   1       3.281  -0.272  -5.700  0.00  0.00    -0.279 N 
ATOM      2  C   LIG d   1       4.364  -0.047  -4.929  0.00  0.00     0.252 C 
ATOM      3  O   LIG d   1       5.412   0.291  -5.439  0.00  0.00    -0.273 OA
ATOM      4  H   LIG d   1       2.425  -0.472  -5.288  0.00  0.00     0.155 HD
ENDROOT
BRANCH   1   5
ATOM      5  C   LIG d   1       3.390  -0.216  -7.096  0.00  0.00     0.111 A 
ATOM      6  C   LIG d   1       3.816  -1.332  -7.806  0.00  0.00     0.185 A 
ATOM      7  C   LIG d   1       3.929  -1.274  -9.186  0.00  0.00     0.198 A 
ATOM      8  F   LIG d   1       4.120  -2.474  -7.151  0.00  0.00    -0.200 F 
ATOM      9  C   LIG d   1       3.617  -0.103  -9.857  0.00  0.00     0.199 A 
ATOM     10  F   LIG d   1       4.342  -2.360  -9.875  0.00  0.00    -0.199 F 
ATOM     11  C   LIG d   1       3.193   1.012  -9.152  0.00  0.00     0.198 A 
ATOM     12  F   LIG d   1       3.726  -0.049 -11.203  0.00  0.00    -0.199 F 
ATOM     13  C   LIG d   1       3.079   0.957  -7.773  0.00  0.00     0.185 A 
ATOM     14  F   LIG d   1       2.889   2.152  -9.810  0.00  0.00    -0.199 F 
ATOM     15  F   LIG d   1       2.664   2.044  -7.086  0.00  0.00    -0.200 F 
ENDBRANCH   1   5
BRANCH   2  16
ATOM     16  C   LIG d   1       4.272  -0.215  -3.434  0.00  0.00     0.289 C 
ATOM     17 BR   LIG d   1       2.460  -0.803  -2.950  0.00  0.00    -0.056 Br
BRANCH  16  18
ATOM     18  C   LIG d   1       5.288  -1.263  -2.975  0.00  0.00     0.422 C 
ATOM     19  F   LIG d   1       4.878  -1.805  -1.753  0.00  0.00    -0.168 F 
ATOM     20  F   LIG d   1       5.373  -2.280  -3.932  0.00  0.00    -0.168 F 
ATOM     21  F   LIG d   1       6.542  -0.661  -2.821  0.00  0.00    -0.168 F 
ENDBRANCH  16  18
BRANCH  16  22
ATOM     22  C   LIG d   1       4.574   1.121  -2.751  0.00  0.00     0.422 C 
ATOM     23  F   LIG d   1       3.616   2.066  -3.133  0.00  0.00    -0.168 F 
ATOM     24  F   LIG d   1       4.537   0.953  -1.363  0.00  0.00    -0.168 F 
ATOM     25  F   LIG d   1       5.845   1.564  -3.133  0.00  0.00    -0.168 F 
ENDBRANCH  16  22
ENDBRANCH   2  16
TORSDOF 4
ENDMDL
MODEL 5
REMARK VINA RESULT:      -7.7      2.306      6.069
REMARK  4 active torsions:
REMARK  status: ('A' for Active; 'I' for Inactive)
REMARK    1  A    between atoms: C_1  and  N_12 
REMARK       I    between atoms: N_12  and  C_13 
REMARK    2  A    between atoms: C_13  and  C_15 
REMARK    3  A    between atoms: C_15  and  C_16 
REMARK    4  A    between atoms: C_15  and  C_20 
ROOT
ATOM      1  N   LIG d   1       3.336  -0.349  -6.864  0.00  0.00    -0.279 N 
ATOM      2  C   LIG d   1       4.221   0.320  -7.630  0.00  0.00     0.252 C 
ATOM      3  O   LIG d   1       5.302   0.633  -7.176  0.00  0.00    -0.273 OA
ATOM      4  H   LIG d   1       2.501  -0.663  -7.248  0.00  0.00     0.155 HD
ENDROOT
BRANCH   1   5
ATOM      5  C   LIG d   1       3.621  -0.593  -5.513  0.00  0.00     0.111 A 
ATOM      6  C   LIG d   1       4.376  -1.701  -5.150  0.00  0.00     0.185 A 
ATOM      7  C   LIG d   1       4.652  -1.944  -3.814  0.00  0.00     0.198 A 
ATOM      8  F   LIG d   1       4.841  -2.544  -6.099  0.00  0.00    -0.200 F 
ATOM      9  C   LIG d   1       4.176  -1.080  -2.841  0.00  0.00     0.199 A 
ATOM     10  F   LIG d   1       5.386  -3.021  -3.461  0.00  0.00    -0.199 F 
ATOM     11  C   LIG d   1       3.423   0.026  -3.200  0.00  0.00     0.198 A 
ATOM     12  F   LIG d   1       4.448  -1.317  -1.538  0.00  0.00    -0.199 F 
ATOM     13  C   LIG d   1       3.145   0.271  -4.535  0.00  0.00     0.185 A 
ATOM     14  F   LIG d   1       2.960   0.867  -2.249  0.00  0.00    -0.199 F 
ATOM     15  F   LIG d   1       2.412   1.351  -4.885  0.00  0.00    -0.200 F 
ENDBRANCH   1   5
BRANCH   2  16
ATOM     16  C   LIG d   1       3.868   0.678  -9.050  0.00  0.00     0.289 C 
ATOM     17 BR   LIG d   1       2.134  -0.123  -9.517  0.00  0.00    -0.056 Br
BRANCH  16  18
ATOM     18  C   LIG d   1       3.780   2.199  -9.187  0.00  0.00     0.422 C 
ATOM     19  F   LIG d   1       3.373   2.528 -10.484  0.00  0.00    -0.168 F 
ATOM     20  F   LIG d   1       2.852   2.697  -8.266  0.00  0.00    -0.168 F 
ATOM     21  F   LIG d   1       5.036   2.764  -8.936  0.00  0.00    -0.168 F 
ENDBRANCH  16  18
BRANCH  16  22
ATOM     22  C   LIG d   1       4.947   0.143  -9.994  0.00  0.00     0.422 C 
ATOM     23  F   LIG d   1       4.417   0.015 -11.283  0.00  0.00    -0.168 F 
ATOM     24  F   LIG d   1       6.027   1.032 -10.020  0.00  0.00    -0.168 F 
ATOM     25  F   LIG d   1       5.384  -1.107  -9.543  0.00  0.00    -0.168 F 
ENDBRANCH  16  22
ENDBRANCH   2  16
TORSDOF 4
ENDMDL
MODEL 6
REMARK VINA RESULT:      -7.6      1.066      2.660
REMARK  4 active torsions:
REMARK  status: ('A' for Active; 'I' for Inactive)
REMARK    1  A    between atoms: C_1  and  N_12 
REMARK       I    between atoms: N_12  and  C_13 
REMARK    2  A    between atoms: C_13  and  C_15 
REMARK    3  A    between atoms: C_15  and  C_16 
REMARK    4  A    between atoms: C_15  and  C_20 
ROOT
ATOM      1  N   LIG d   1       3.268  -0.385  -6.056  0.00  0.00    -0.279 N 
ATOM      2  C   LIG d   1       4.421  -0.248  -5.371  0.00  0.00     0.252 C 
ATOM      3  O   LIG d   1       5.439   0.063  -5.954  0.00  0.00    -0.273 OA
ATOM      4  H   LIG d   1       2.440  -0.563  -5.581  0.00  0.00     0.155 HD
ENDROOT
BRANCH   1   5
ATOM      5  C   LIG d   1       3.264  -0.272  -7.453  0.00  0.00     0.111 A 
ATOM      6  C   LIG d   1       3.026   0.960  -8.050  0.00  0.00     0.185 A 
ATOM      7  C   LIG d   1       3.017   1.070  -9.432  0.00  0.00     0.198 A 
ATOM      8  F   LIG d   1       2.803   2.051  -7.285  0.00  0.00    -0.200 F 
ATOM      9  C   LIG d   1       3.246  -0.049 -10.217  0.00  0.00     0.199 A 
ATOM     10  F   LIG d   1       2.786   2.267 -10.012  0.00  0.00    -0.199 F 
ATOM     11  C   LIG d   1       3.483  -1.279  -9.624  0.00  0.00     0.198 A 
ATOM     12  F   LIG d   1       3.238   0.060 -11.564  0.00  0.00    -0.199 F 
ATOM     13  C   LIG d   1       3.493  -1.391  -8.243  0.00  0.00     0.185 A 
ATOM     14  F   LIG d   1       3.706  -2.367 -10.392  0.00  0.00    -0.199 F 
ATOM     15  F   LIG d   1       3.725  -2.590  -7.665  0.00  0.00    -0.200 F 
ENDBRANCH   1   5
BRANCH   2  16
ATOM     16  C   LIG d   1       4.445  -0.478  -3.883  0.00  0.00     0.289 C 
ATOM     17 BR   LIG d   1       6.002   0.436  -3.103  0.00  0.00    -0.056 Br
BRANCH  16  18
ATOM     18  C   LIG d   1       3.163   0.077  -3.259  0.00  0.00     0.422 C 
ATOM     19  F   LIG d   1       2.126  -0.847  -3.424  0.00  0.00    -0.168 F 
ATOM     20  F   LIG d   1       3.370   0.308  -1.895  0.00  0.00    -0.168 F 
ATOM     21  F   LIG d   1       2.821   1.279  -3.889  0.00  0.00    -0.168 F 
ENDBRANCH  16  18
BRANCH  16  22
ATOM     22  C   LIG d   1       4.542  -1.979  -3.600  0.00  0.00     0.422 C 
ATOM     23  F   LIG d   1       3.808  -2.284  -2.448  0.00  0.00    -0.168 F 
ATOM     24  F   LIG d   1       4.023  -2.693  -4.686  0.00  0.00    -0.168 F 
ATOM     25  F   LIG d   1       5.882  -2.332  -3.407  0.00  0.00    -0.168 F 
ENDBRANCH  16  22
ENDBRANCH   2  16
TORSDOF 4
ENDMDL
MODEL 7
REMARK VINA RESULT:      -7.6      2.288      6.575
REMARK  4 active torsions:
REMARK  status: ('A' for Active; 'I' for Inactive)
REMARK    1  A    between atoms: C_1  and  N_12 
REMARK       I    between atoms: N_12  and  C_13 
REMARK    2  A    between atoms: C_13  and  C_15 
REMARK    3  A    between atoms: C_15  and  C_16 
REMARK    4  A    between atoms: C_15  and  C_20 
ROOT
ATOM      1  N   LIG d   1       4.562   0.344  -6.728  0.00  0.00    -0.279 N 
ATOM      2  C   LIG d   1       3.917   0.074  -7.879  0.00  0.00     0.252 C 
ATOM      3  O   LIG d   1       3.077  -0.802  -7.914  0.00  0.00    -0.273 OA
ATOM      4  H   LIG d   1       5.182   1.090  -6.681  0.00  0.00     0.155 HD
ENDROOT
BRANCH   1   5
ATOM      5  C   LIG d   1       4.340  -0.453  -5.596  0.00  0.00     0.111 A 
ATOM      6  C   LIG d   1       3.353  -0.104  -4.682  0.00  0.00     0.185 A 
ATOM      7  C   LIG d   1       3.138  -0.889  -3.561  0.00  0.00     0.198 A 
ATOM      8  F   LIG d   1       2.604   1.002  -4.886  0.00  0.00    -0.200 F 
ATOM      9  C   LIG d   1       3.906  -2.023  -3.352  0.00  0.00     0.199 A 
ATOM     10  F   LIG d   1       2.178  -0.549  -2.673  0.00  0.00    -0.199 F 
ATOM     11  C   LIG d   1       4.891  -2.374  -4.261  0.00  0.00     0.198 A 
ATOM     12  F   LIG d   1       3.694  -2.788  -2.258  0.00  0.00    -0.199 F 
ATOM     13  C   LIG d   1       5.108  -1.591  -5.383  0.00  0.00     0.185 A 
ATOM     14  F   LIG d   1       5.638  -3.480  -4.054  0.00  0.00    -0.199 F 
ATOM     15  F   LIG d   1       6.068  -1.934  -6.270  0.00  0.00    -0.200 F 
ENDBRANCH   1   5
BRANCH   2  16
ATOM     16  C   LIG d   1       4.238   0.859  -9.125  0.00  0.00     0.289 C 
ATOM     17 BR   LIG d   1       6.020   1.670  -8.947  0.00  0.00    -0.056 Br
BRANCH  16  18
ATOM     18  C   LIG d   1       4.221  -0.075 -10.336  0.00  0.00     0.422 C 
ATOM     19  F   LIG d   1       4.924   0.517 -11.391  0.00  0.00    -0.168 F 
ATOM     20  F   LIG d   1       4.826  -1.290  -9.996  0.00  0.00    -0.168 F 
ATOM     21  F   LIG d   1       2.899  -0.306 -10.730  0.00  0.00    -0.168 F 
ENDBRANCH  16  18
BRANCH  16  22
ATOM     22  C   LIG d   1       3.194   1.961  -9.316  0.00  0.00     0.422 C 
ATOM     23  F   LIG d   1       1.912   1.401  -9.278  0.00  0.00    -0.168 F 
ATOM     24  F   LIG d   1       3.320   2.907  -8.294  0.00  0.00    -0.168 F 
ATOM     25  F   LIG d   1       3.394   2.583 -10.554  0.00  0.00    -0.168 F 
ENDBRANCH  16  22
ENDBRANCH   2  16
TORSDOF 4
ENDMDL
MODEL 8
REMARK VINA RESULT:      -7.5      2.308      6.238
REMARK  4 active torsions:
REMARK  status: ('A' for Active; 'I' for Inactive)
REMARK    1  A    between atoms: C_1  and  N_12 
REMARK       I    between atoms: N_12  and  C_13 
REMARK    2  A    between atoms: C_13  and  C_15 
REMARK    3  A    between atoms: C_15  and  C_16 
REMARK    4  A    between atoms: C_15  and  C_20 
ROOT
ATOM      1  N   LIG d   1       4.550   0.343  -6.725  0.00  0.00    -0.279 N 
ATOM      2  C   LIG d   1       3.952   0.028  -7.891  0.00  0.00     0.252 C 
ATOM      3  O   LIG d   1       3.154  -0.885  -7.936  0.00  0.00    -0.273 OA
ATOM      4  H   LIG d   1       5.134   1.117  -6.672  0.00  0.00     0.155 HD
ENDROOT
BRANCH   1   5
ATOM      5  C   LIG d   1       4.330  -0.447  -5.588  0.00  0.00     0.111 A 
ATOM      6  C   LIG d   1       5.127  -1.560  -5.350  0.00  0.00     0.185 A 
ATOM      7  C   LIG d   1       4.905  -2.344  -4.229  0.00  0.00     0.198 A 
ATOM      8  F   LIG d   1       6.117  -1.880  -6.212  0.00  0.00    -0.200 F 
ATOM      9  C   LIG d   1       3.889  -2.016  -3.345  0.00  0.00     0.199 A 
ATOM     10  F   LIG d   1       5.679  -3.426  -3.998  0.00  0.00    -0.199 F 
ATOM     11  C   LIG d   1       3.093  -0.906  -3.580  0.00  0.00     0.198 A 
ATOM     12  F   LIG d   1       3.675  -2.781  -2.251  0.00  0.00    -0.199 F 
ATOM     13  C   LIG d   1       3.313  -0.122  -4.700  0.00  0.00     0.185 A 
ATOM     14  F   LIG d   1       2.104  -0.590  -2.716  0.00  0.00    -0.199 F 
ATOM     15  F   LIG d   1       2.537   0.961  -4.928  0.00  0.00    -0.200 F 
ENDBRANCH   1   5
BRANCH   2  16
ATOM     16  C   LIG d   1       4.273   0.810  -9.138  0.00  0.00     0.289 C 
ATOM     17 BR   LIG d   1       6.058   1.618  -8.963  0.00  0.00    -0.056 Br
BRANCH  16  18
ATOM     18  C   LIG d   1       4.254  -0.127 -10.348  0.00  0.00     0.422 C 
ATOM     19  F   LIG d   1       4.937   0.472 -11.411  0.00  0.00    -0.168 F 
ATOM     20  F   LIG d   1       4.878  -1.333 -10.012  0.00  0.00    -0.168 F 
ATOM     21  F   LIG d   1       2.930  -0.374 -10.725  0.00  0.00    -0.168 F 
ENDBRANCH  16  18
BRANCH  16  22
ATOM     22  C   LIG d   1       3.232   1.914  -9.332  0.00  0.00     0.422 C 
ATOM     23  F   LIG d   1       3.375   2.472 -10.607  0.00  0.00    -0.168 F 
ATOM     24  F   LIG d   1       1.948   1.372  -9.201  0.00  0.00    -0.168 F 
ATOM     25  F   LIG d   1       3.418   2.907  -8.363  0.00  0.00    -0.168 F 
ENDBRANCH  16  22
ENDBRANCH   2  16
TORSDOF 4
ENDMDL
MODEL 9
REMARK VINA RESULT:      -7.2      1.470      2.202
REMARK  4 active torsions:
REMARK  status: ('A' for Active; 'I' for Inactive)
REMARK    1  A    between atoms: C_1  and  N_12 
REMARK       I    between atoms: N_12  and  C_13 
REMARK    2  A    between atoms: C_13  and  C_15 
REMARK    3  A    between atoms: C_15  and  C_16 
REMARK    4  A    between atoms: C_15  and  C_20 
ROOT
ATOM      1  N   LIG d   1       3.812  -1.322  -5.706  0.00  0.00    -0.279 N 
ATOM      2  C   LIG d   1       4.636  -0.470  -5.063  0.00  0.00     0.252 C 
ATOM      3  O   LIG d   1       5.479   0.142  -5.684  0.00  0.00    -0.273 OA
ATOM      4  H   LIG d   1       3.092  -1.758  -5.223  0.00  0.00     0.155 HD
ENDROOT
BRANCH   1   5
ATOM      5  C   LIG d   1       3.997  -1.580  -7.072  0.00  0.00     0.111 A 
ATOM      6  C   LIG d   1       4.875  -2.576  -7.480  0.00  0.00     0.185 A 
ATOM      7  C   LIG d   1       5.060  -2.825  -8.830  0.00  0.00     0.198 A 
ATOM      8  F   LIG d   1       5.550  -3.301  -6.560  0.00  0.00    -0.200 F 
ATOM      9  C   LIG d   1       4.369  -2.082  -9.773  0.00  0.00     0.199 A 
ATOM     10  F   LIG d   1       5.915  -3.794  -9.226  0.00  0.00    -0.199 F 
ATOM     11  C   LIG d   1       3.492  -1.088  -9.369  0.00  0.00     0.198 A 
ATOM     12  F   LIG d   1       4.550  -2.327 -11.090  0.00  0.00    -0.199 F 
ATOM     13  C   LIG d   1       3.305  -0.836  -8.020  0.00  0.00     0.185 A 
ATOM     14  F   LIG d   1       2.819  -0.365 -10.291  0.00  0.00    -0.199 F 
ATOM     15  F   LIG d   1       2.449   0.132  -7.626  0.00  0.00    -0.200 F 
ENDBRANCH   1   5
BRANCH   2  16
ATOM     16  C   LIG d   1       4.508  -0.278  -3.574  0.00  0.00     0.289 C 
ATOM     17 BR   LIG d   1       5.846   1.028  -2.965  0.00  0.00    -0.056 Br
BRANCH  16  18
ATOM     18  C   LIG d   1       3.105   0.238  -3.245  0.00  0.00     0.422 C 
ATOM     19  F   LIG d   1       2.619   0.985  -4.323  0.00  0.00    -0.168 F 
ATOM     20  F   LIG d   1       2.254  -0.845  -3.006  0.00  0.00    -0.168 F 
ATOM     21  F   LIG d   1       3.162   1.048  -2.106  0.00  0.00    -0.168 F 
ENDBRANCH  16  18
BRANCH  16  22
ATOM     22  C   LIG d   1       4.739  -1.613  -2.865  0.00  0.00     0.422 C 
ATOM     23  F   LIG d   1       6.067  -2.014  -3.047  0.00  0.00    -0.168 F 
ATOM     24  F   LIG d   1       4.479  -1.467  -1.498  0.00  0.00    -0.168 F 
ATOM     25  F   LIG d   1       3.882  -2.581  -3.401  0.00  0.00    -0.168 F 
ENDBRANCH  16  22
ENDBRANCH   2  16
TORSDOF 4
ENDMDL
