MODEL 1
REMARK VINA RESULT:      -6.0      0.000      0.000
REMARK  9 active torsions:
REMARK  status: ('A' for Active; 'I' for Inactive)
REMARK    1  A    between atoms: C_1  and  C_2 
REMARK    2  A    between atoms: C_2  and  C_3 
REMARK    3  A    between atoms: C_3  and  O_4 
REMARK    4  A    between atoms: O_4  and  C_5 
REMARK    5  A    between atoms: C_8  and  C_11 
REMARK       I    between atoms: C_11  and  N_13 
REMARK       I    between atoms: N_13  and  CA_14 
REMARK    6  A    between atoms: CA_14  and  CB_16 
REMARK       I    between atoms: CA_14  and  C_20 
REMARK    7  A    between atoms: CB_16  and  CG_17 
REMARK    8  A    between atoms: CG_17  and  CD1_18 
REMARK    9  A    between atoms: CG_17  and  CD2_19 
ROOT
ATOM      1  C   UNK d   0       3.658  -0.445  -6.721  0.00  0.00     0.245 C 
ATOM      2  O   UNK d   0       4.759   0.063  -6.641  0.00  0.00    -0.270 OA
ATOM      3  N   LEU d   1       2.887  -0.560  -5.621  0.00  0.00    -0.303 N 
ATOM      4  CA  LEU d   1       3.378  -0.073  -4.329  0.00  0.00     0.063 C 
ATOM      5  HA  LEU d   1       4.454  -0.237  -4.265  0.00  0.00     0.056 H 
ATOM      6  C   LEU d   1       3.085   1.400  -4.204  0.00  0.00     0.062 C 
ATOM      7  O   LEU d   1       2.524   1.983  -5.101  0.00  0.00    -0.548 OA
ATOM      8  H   LEU d   1       2.008  -0.965  -5.685  0.00  0.00     0.150 HD
ATOM      9  OXT LEU d   1       3.448   2.064  -3.095  0.00  0.00    -0.548 OA
ENDROOT
BRANCH   1  10
ATOM     10  C   UNK d   0       3.163  -0.936  -8.023  0.00  0.00     0.037 A 
ATOM     11  C   UNK d   0       2.338  -0.127  -8.808  0.00  0.00    -0.046 A 
ATOM     12  C   UNK d   0       1.879  -0.589 -10.022  0.00  0.00    -0.019 A 
ATOM     13  H   UNK d   0       2.060   0.858  -8.464  0.00  0.00     0.063 H 
ATOM     14  C   UNK d   0       2.235  -1.857 -10.465  0.00  0.00     0.120 A 
ATOM     15  H   UNK d   0       1.241   0.037 -10.630  0.00  0.00     0.065 H 
ATOM     16  C   UNK d   0       3.055  -2.664  -9.687  0.00  0.00    -0.019 A 
ATOM     17  C   UNK d   0       3.523  -2.208  -8.475  0.00  0.00    -0.046 A 
ATOM     18  H   UNK d   0       3.329  -3.650 -10.034  0.00  0.00     0.065 H 
ATOM     19  H   UNK d   0       4.164  -2.834  -7.872  0.00  0.00     0.063 H 
BRANCH  14  20
ATOM     20  O   UNK d   0       1.781  -2.308 -11.662  0.00  0.00    -0.492 OA
BRANCH  20  21
ATOM     21  C   UNK d   0       2.070  -1.507 -12.809  0.00  0.00     0.089 C 
ATOM     22  H   UNK d   0       1.385  -1.767 -13.616  0.00  0.00     0.070 H 
ATOM     23  H   UNK d   0       1.950  -0.453 -12.557  0.00  0.00     0.070 H 
BRANCH  21  24
ATOM     24  C   UNK d   0       3.510  -1.761 -13.259  0.00  0.00    -0.021 C 
ATOM     25  H   UNK d   0       3.941  -2.565 -12.663  0.00  0.00     0.029 H 
ATOM     26  H   UNK d   0       3.517  -2.045 -14.312  0.00  0.00     0.029 H 
BRANCH  24  27
ATOM     27  C   UNK d   0       4.337  -0.488 -13.071  0.00  0.00    -0.062 C 
ATOM     28  H   UNK d   0       5.082  -0.651 -12.291  0.00  0.00     0.023 H 
ATOM     29  H   UNK d   0       4.839  -0.237 -14.006  0.00  0.00     0.023 H 
ATOM     30  H   UNK d   0       3.680   0.333 -12.779  0.00  0.00     0.023 H 
ENDBRANCH  24  27
ENDBRANCH  21  24
ENDBRANCH  20  21
ENDBRANCH  14  20
ENDBRANCH   1  10
BRANCH   4  31
ATOM     31  CB  LEU d   1       2.677  -0.831  -3.200  0.00  0.00    -0.027 C 
ATOM     32  HB1 LEU d   1       2.263  -0.117  -2.486  0.00  0.00     0.029 H 
ATOM     33  HB2 LEU d   1       1.873  -1.438  -3.614  0.00  0.00     0.029 H 
BRANCH  31  34
ATOM     34  CG  LEU d   1       3.685  -1.734  -2.489  0.00  0.00    -0.045 C 
ATOM     35  HG  LEU d   1       3.153  -2.442  -1.852  0.00  0.00     0.030 H 
BRANCH  34  36
ATOM     36  CD1 LEU d   1       4.504  -2.502  -3.529  0.00  0.00    -0.063 C 
ATOM     37 1HD1 LEU d   1       4.319  -3.571  -3.420  0.00  0.00     0.023 H 
ATOM     38 2HD1 LEU d   1       4.212  -2.183  -4.530  0.00  0.00     0.023 H 
ATOM     39 3HD1 LEU d   1       5.564  -2.299  -3.379  0.00  0.00     0.023 H 
ENDBRANCH  34  36
BRANCH  34  40
ATOM     40  CD2 LEU d   1       4.621  -0.881  -1.632  0.00  0.00    -0.063 C 
ATOM     41 1HD2 LEU d   1       4.523  -1.172  -0.586  0.00  0.00     0.023 H 
ATOM     42 2HD2 LEU d   1       5.651  -1.031  -1.956  0.00  0.00     0.023 H 
ATOM     43 3HD2 LEU d   1       4.356   0.171  -1.741  0.00  0.00     0.023 H 
ENDBRANCH  34  40
ENDBRANCH  31  34
ENDBRANCH   4  31
TORSDOF 11
ENDMDL
MODEL 2
REMARK VINA RESULT:      -5.9      1.024      1.401
REMARK  9 active torsions:
REMARK  status: ('A' for Active; 'I' for Inactive)
REMARK    1  A    between atoms: C_1  and  C_2 
REMARK    2  A    between atoms: C_2  and  C_3 
REMARK    3  A    between atoms: C_3  and  O_4 
REMARK    4  A    between atoms: O_4  and  C_5 
REMARK    5  A    between atoms: C_8  and  C_11 
REMARK       I    between atoms: C_11  and  N_13 
REMARK       I    between atoms: N_13  and  CA_14 
REMARK    6  A    between atoms: CA_14  and  CB_16 
REMARK       I    between atoms: CA_14  and  C_20 
REMARK    7  A    between atoms: CB_16  and  CG_17 
REMARK    8  A    between atoms: CG_17  and  CD1_18 
REMARK    9  A    between atoms: CG_17  and  CD2_19 
ROOT
ATOM      1  C   UNK d   0       3.705  -0.148  -6.595  0.00  0.00     0.245 C 
ATOM      2  O   UNK d   0       4.832   0.285  -6.447  0.00  0.00    -0.270 OA
ATOM      3  N   LEU d   1       2.936  -0.406  -5.520  0.00  0.00    -0.303 N 
ATOM      4  CA  LEU d   1       3.457  -0.165  -4.172  0.00  0.00     0.063 C 
ATOM      5  HA  LEU d   1       4.523  -0.390  -4.149  0.00  0.00     0.056 H 
ATOM      6  C   LEU d   1       3.240   1.280  -3.800  0.00  0.00     0.062 C 
ATOM      7  O   LEU d   1       2.705   2.030  -4.581  0.00  0.00    -0.548 OA
ATOM      8  H   LEU d   1       2.037  -0.751  -5.638  0.00  0.00     0.150 HD
ATOM      9  OXT LEU d   1       3.641   1.731  -2.602  0.00  0.00    -0.548 OA
ENDROOT
BRANCH   1  10
ATOM     10  C   UNK d   0       3.180  -0.391  -7.954  0.00  0.00     0.037 A 
ATOM     11  C   UNK d   0       2.639   0.663  -8.694  0.00  0.00    -0.046 A 
ATOM     12  C   UNK d   0       2.150   0.433  -9.960  0.00  0.00    -0.019 A 
ATOM     13  H   UNK d   0       2.603   1.657  -8.273  0.00  0.00     0.063 H 
ATOM     14  C   UNK d   0       2.194  -0.847 -10.502  0.00  0.00     0.120 A 
ATOM     15  H   UNK d   0       1.731   1.247 -10.534  0.00  0.00     0.065 H 
ATOM     16  C   UNK d   0       2.731  -1.897  -9.770  0.00  0.00    -0.019 A 
ATOM     17  C   UNK d   0       3.228  -1.674  -8.504  0.00  0.00    -0.046 A 
ATOM     18  H   UNK d   0       2.764  -2.891 -10.193  0.00  0.00     0.065 H 
ATOM     19  H   UNK d   0       3.650  -2.490  -7.937  0.00  0.00     0.063 H 
BRANCH  14  20
ATOM     20  O   UNK d   0       1.712  -1.069 -11.751  0.00  0.00    -0.492 OA
BRANCH  20  21
ATOM     21  C   UNK d   0       1.852  -2.391 -12.274  0.00  0.00     0.089 C 
ATOM     22  H   UNK d   0       2.889  -2.557 -12.569  0.00  0.00     0.070 H 
ATOM     23  H   UNK d   0       1.572  -3.117 -11.510  0.00  0.00     0.070 H 
BRANCH  21  24
ATOM     24  C   UNK d   0       0.942  -2.558 -13.493  0.00  0.00    -0.021 C 
ATOM     25  H   UNK d   0       1.347  -1.990 -14.330  0.00  0.00     0.029 H 
ATOM     26  H   UNK d   0       0.886  -3.613 -13.763  0.00  0.00     0.029 H 
BRANCH  24  27
ATOM     27  C   UNK d   0      -0.459  -2.043 -13.158  0.00  0.00    -0.062 C 
ATOM     28  H   UNK d   0      -0.864  -2.610 -12.319  0.00  0.00     0.023 H 
ATOM     29  H   UNK d   0      -0.404  -0.987 -12.889  0.00  0.00     0.023 H 
ATOM     30  H   UNK d   0      -1.108  -2.163 -14.026  0.00  0.00     0.023 H 
ENDBRANCH  24  27
ENDBRANCH  21  24
ENDBRANCH  20  21
ENDBRANCH  14  20
ENDBRANCH   1  10
BRANCH   4  31
ATOM     31  CB  LEU d   1       2.724  -1.064  -3.174  0.00  0.00    -0.027 C 
ATOM     32  HB1 LEU d   1       2.281  -0.450  -2.389  0.00  0.00     0.029 H 
ATOM     33  HB2 LEU d   1       1.939  -1.616  -3.690  0.00  0.00     0.029 H 
BRANCH  31  34
ATOM     34  CG  LEU d   1       3.714  -2.049  -2.551  0.00  0.00    -0.045 C 
ATOM     35  HG  LEU d   1       3.168  -2.810  -1.994  0.00  0.00     0.030 H 
BRANCH  34  36
ATOM     36  CD1 LEU d   1       4.533  -2.718  -3.658  0.00  0.00    -0.063 C 
ATOM     37 1HD1 LEU d   1       4.510  -3.800  -3.523  0.00  0.00     0.023 H 
ATOM     38 2HD1 LEU d   1       4.106  -2.465  -4.629  0.00  0.00     0.023 H 
ATOM     39 3HD1 LEU d   1       5.563  -2.367  -3.611  0.00  0.00     0.023 H 
ENDBRANCH  34  36
BRANCH  34  40
ATOM     40  CD2 LEU d   1       4.654  -1.300  -1.605  0.00  0.00    -0.063 C 
ATOM     41 1HD2 LEU d   1       5.285  -2.015  -1.077  0.00  0.00     0.023 H 
ATOM     42 2HD2 LEU d   1       5.280  -0.617  -2.179  0.00  0.00     0.023 H 
ATOM     43 3HD2 LEU d   1       4.066  -0.733  -0.882  0.00  0.00     0.023 H 
ENDBRANCH  34  40
ENDBRANCH  31  34
ENDBRANCH   4  31
TORSDOF 11
ENDMDL
MODEL 3
REMARK VINA RESULT:      -5.7      4.094      6.432
REMARK  9 active torsions:
REMARK  status: ('A' for Active; 'I' for Inactive)
REMARK    1  A    between atoms: C_1  and  C_2 
REMARK    2  A    between atoms: C_2  and  C_3 
REMARK    3  A    between atoms: C_3  and  O_4 
REMARK    4  A    between atoms: O_4  and  C_5 
REMARK    5  A    between atoms: C_8  and  C_11 
REMARK       I    between atoms: C_11  and  N_13 
REMARK       I    between atoms: N_13  and  CA_14 
REMARK    6  A    between atoms: CA_14  and  CB_16 
REMARK       I    between atoms: CA_14  and  C_20 
REMARK    7  A    between atoms: CB_16  and  CG_17 
REMARK    8  A    between atoms: CG_17  and  CD1_18 
REMARK    9  A    between atoms: CG_17  and  CD2_19 
ROOT
ATOM      1  C   UNK d   0       5.272  -2.686  -5.255  0.00  0.00     0.245 C 
ATOM      2  O   UNK d   0       6.156  -1.890  -5.504  0.00  0.00    -0.270 OA
ATOM      3  N   LEU d   1       4.058  -2.246  -4.869  0.00  0.00    -0.303 N 
ATOM      4  CA  LEU d   1       3.804  -0.808  -4.749  0.00  0.00     0.063 C 
ATOM      5  HA  LEU d   1       4.706  -0.309  -4.395  0.00  0.00     0.056 H 
ATOM      6  C   LEU d   1       3.418  -0.252  -6.095  0.00  0.00     0.062 C 
ATOM      7  O   LEU d   1       3.360  -0.981  -7.056  0.00  0.00    -0.548 OA
ATOM      8  H   LEU d   1       3.352  -2.881  -4.671  0.00  0.00     0.150 HD
ATOM      9  OXT LEU d   1       3.138   1.055  -6.226  0.00  0.00    -0.548 OA
ENDROOT
BRANCH   1  10
ATOM     10  C   UNK d   0       5.527  -4.135  -5.377  0.00  0.00     0.037 A 
ATOM     11  C   UNK d   0       4.459  -5.025  -5.518  0.00  0.00    -0.046 A 
ATOM     12  C   UNK d   0       4.702  -6.376  -5.631  0.00  0.00    -0.019 A 
ATOM     13  H   UNK d   0       3.445  -4.654  -5.538  0.00  0.00     0.063 H 
ATOM     14  C   UNK d   0       6.006  -6.854  -5.604  0.00  0.00     0.120 A 
ATOM     15  H   UNK d   0       3.876  -7.064  -5.741  0.00  0.00     0.065 H 
ATOM     16  C   UNK d   0       7.071  -5.973  -5.463  0.00  0.00    -0.019 A 
ATOM     17  C   UNK d   0       6.837  -4.620  -5.355  0.00  0.00    -0.046 A 
ATOM     18  H   UNK d   0       8.084  -6.348  -5.442  0.00  0.00     0.065 H 
ATOM     19  H   UNK d   0       7.665  -3.934  -5.251  0.00  0.00     0.063 H 
BRANCH  14  20
ATOM     20  O   UNK d   0       6.241  -8.186  -5.716  0.00  0.00    -0.492 OA
BRANCH  20  21
ATOM     21  C   UNK d   0       5.138  -9.062  -5.474  0.00  0.00     0.089 C 
ATOM     22  H   UNK d   0       4.207  -8.497  -5.526  0.00  0.00     0.070 H 
ATOM     23  H   UNK d   0       5.127  -9.850  -6.227  0.00  0.00     0.070 H 
BRANCH  21  24
ATOM     24  C   UNK d   0       5.278  -9.686  -4.084  0.00  0.00    -0.021 C 
ATOM     25  H   UNK d   0       5.829 -10.623  -4.160  0.00  0.00     0.029 H 
ATOM     26  H   UNK d   0       5.816  -9.000  -3.429  0.00  0.00     0.029 H 
BRANCH  24  27
ATOM     27  C   UNK d   0       3.888  -9.959  -3.504  0.00  0.00    -0.062 C 
ATOM     28  H   UNK d   0       3.128  -9.608  -4.204  0.00  0.00     0.023 H 
ATOM     29  H   UNK d   0       3.765 -11.030  -3.342  0.00  0.00     0.023 H 
ATOM     30  H   UNK d   0       3.780  -9.432  -2.556  0.00  0.00     0.023 H 
ENDBRANCH  24  27
ENDBRANCH  21  24
ENDBRANCH  20  21
ENDBRANCH  14  20
ENDBRANCH   1  10
BRANCH   4  31
ATOM     31  CB  LEU d   1       2.666  -0.573  -3.754  0.00  0.00    -0.027 C 
ATOM     32  HB1 LEU d   1       1.927   0.095  -4.198  0.00  0.00     0.029 H 
ATOM     33  HB2 LEU d   1       2.195  -1.525  -3.509  0.00  0.00     0.029 H 
BRANCH  31  34
ATOM     34  CG  LEU d   1       3.225   0.062  -2.480  0.00  0.00    -0.045 C 
ATOM     35  HG  LEU d   1       2.428   0.159  -1.742  0.00  0.00     0.030 H 
BRANCH  34  36
ATOM     36  CD1 LEU d   1       4.337  -0.824  -1.914  0.00  0.00    -0.063 C 
ATOM     37 1HD1 LEU d   1       5.212  -0.767  -2.562  0.00  0.00     0.023 H 
ATOM     38 2HD1 LEU d   1       4.603  -0.480  -0.914  0.00  0.00     0.023 H 
ATOM     39 3HD1 LEU d   1       3.990  -1.855  -1.862  0.00  0.00     0.023 H 
ENDBRANCH  34  36
BRANCH  34  40
ATOM     40  CD2 LEU d   1       3.791   1.446  -2.804  0.00  0.00    -0.063 C 
ATOM     41 1HD2 LEU d   1       3.237   2.204  -2.251  0.00  0.00     0.023 H 
ATOM     42 2HD2 LEU d   1       4.842   1.485  -2.520  0.00  0.00     0.023 H 
ATOM     43 3HD2 LEU d   1       3.696   1.635  -3.873  0.00  0.00     0.023 H 
ENDBRANCH  34  40
ENDBRANCH  31  34
ENDBRANCH   4  31
TORSDOF 11
ENDMDL
MODEL 4
REMARK VINA RESULT:      -5.4      6.099      9.503
REMARK  9 active torsions:
REMARK  status: ('A' for Active; 'I' for Inactive)
REMARK    1  A    between atoms: C_1  and  C_2 
REMARK    2  A    between atoms: C_2  and  C_3 
REMARK    3  A    between atoms: C_3  and  O_4 
REMARK    4  A    between atoms: O_4  and  C_5 
REMARK    5  A    between atoms: C_8  and  C_11 
REMARK       I    between atoms: C_11  and  N_13 
REMARK       I    between atoms: N_13  and  CA_14 
REMARK    6  A    between atoms: CA_14  and  CB_16 
REMARK       I    between atoms: CA_14  and  C_20 
REMARK    7  A    between atoms: CB_16  and  CG_17 
REMARK    8  A    between atoms: CG_17  and  CD1_18 
REMARK    9  A    between atoms: CG_17  and  CD2_19 
ROOT
ATOM      1  C   UNK d   0       8.030   1.633  -4.581  0.00  0.00     0.245 C 
ATOM      2  O   UNK d   0       7.546   1.624  -5.696  0.00  0.00    -0.270 OA
ATOM      3  N   LEU d   1       7.774   0.623  -3.727  0.00  0.00    -0.303 N 
ATOM      4  CA  LEU d   1       6.911  -0.486  -4.141  0.00  0.00     0.063 C 
ATOM      5  HA  LEU d   1       6.125  -0.109  -4.796  0.00  0.00     0.056 H 
ATOM      6  C   LEU d   1       7.731  -1.512  -4.880  0.00  0.00     0.062 C 
ATOM      7  O   LEU d   1       8.915  -1.335  -5.044  0.00  0.00    -0.548 OA
ATOM      8  H   LEU d   1       8.161   0.631  -2.837  0.00  0.00     0.150 HD
ATOM      9  OXT LEU d   1       7.146  -2.621  -5.357  0.00  0.00    -0.548 OA
ENDROOT
BRANCH   1  10
ATOM     10  C   UNK d   0       8.900   2.751  -4.164  0.00  0.00     0.037 A 
ATOM     11  C   UNK d   0       9.778   2.590  -3.088  0.00  0.00    -0.046 A 
ATOM     12  C   UNK d   0      10.587   3.635  -2.702  0.00  0.00    -0.019 A 
ATOM     13  H   UNK d   0       9.821   1.649  -2.561  0.00  0.00     0.063 H 
ATOM     14  C   UNK d   0      10.531   4.848  -3.379  0.00  0.00     0.120 A 
ATOM     15  H   UNK d   0      11.267   3.512  -1.870  0.00  0.00     0.065 H 
ATOM     16  C   UNK d   0       9.660   5.011  -4.448  0.00  0.00    -0.019 A 
ATOM     17  C   UNK d   0       8.851   3.969  -4.845  0.00  0.00    -0.046 A 
ATOM     18  H   UNK d   0       9.619   5.955  -4.973  0.00  0.00     0.065 H 
ATOM     19  H   UNK d   0       8.177   4.095  -5.679  0.00  0.00     0.063 H 
BRANCH  14  20
ATOM     20  O   UNK d   0      11.332   5.874  -2.995  0.00  0.00    -0.492 OA
BRANCH  20  21
ATOM     21  C   UNK d   0      10.698   7.127  -2.732  0.00  0.00     0.089 C 
ATOM     22  H   UNK d   0      11.458   7.893  -2.572  0.00  0.00     0.070 H 
ATOM     23  H   UNK d   0      10.075   7.407  -3.582  0.00  0.00     0.070 H 
BRANCH  21  24
ATOM     24  C   UNK d   0       9.825   7.006  -1.480  0.00  0.00    -0.021 C 
ATOM     25  H   UNK d   0       9.277   7.934  -1.328  0.00  0.00     0.029 H 
ATOM     26  H   UNK d   0       9.120   6.184  -1.608  0.00  0.00     0.029 H 
BRANCH  24  27
ATOM     27  C   UNK d   0      10.712   6.731  -0.264  0.00  0.00    -0.062 C 
ATOM     28  H   UNK d   0      11.163   7.665   0.074  0.00  0.00     0.023 H 
ATOM     29  H   UNK d   0      10.108   6.308   0.539  0.00  0.00     0.023 H 
ATOM     30  H   UNK d   0      11.498   6.027  -0.538  0.00  0.00     0.023 H 
ENDBRANCH  24  27
ENDBRANCH  21  24
ENDBRANCH  20  21
ENDBRANCH  14  20
ENDBRANCH   1  10
BRANCH   4  31
ATOM     31  CB  LEU d   1       6.281  -1.130  -2.905  0.00  0.00    -0.027 C 
ATOM     32  HB1 LEU d   1       6.377  -2.215  -2.972  0.00  0.00     0.029 H 
ATOM     33  HB2 LEU d   1       6.790  -0.775  -2.010  0.00  0.00     0.029 H 
BRANCH  31  34
ATOM     34  CG  LEU d   1       4.800  -0.755  -2.832  0.00  0.00    -0.045 C 
ATOM     35  HG  LEU d   1       4.458  -0.435  -3.817  0.00  0.00     0.030 H 
BRANCH  34  36
ATOM     36  CD1 LEU d   1       3.987  -1.970  -2.381  0.00  0.00    -0.063 C 
ATOM     37 1HD1 LEU d   1       2.924  -1.734  -2.430  0.00  0.00     0.023 H 
ATOM     38 2HD1 LEU d   1       4.202  -2.815  -3.036  0.00  0.00     0.023 H 
ATOM     39 3HD1 LEU d   1       4.255  -2.227  -1.357  0.00  0.00     0.023 H 
ENDBRANCH  34  36
BRANCH  34  40
ATOM     40  CD2 LEU d   1       4.610   0.386  -1.831  0.00  0.00    -0.063 C 
ATOM     41 1HD2 LEU d   1       4.411   1.313  -2.369  0.00  0.00     0.023 H 
ATOM     42 2HD2 LEU d   1       3.770   0.158  -1.175  0.00  0.00     0.023 H 
ATOM     43 3HD2 LEU d   1       5.516   0.500  -1.235  0.00  0.00     0.023 H 
ENDBRANCH  34  40
ENDBRANCH  31  34
ENDBRANCH   4  31
TORSDOF 11
ENDMDL
MODEL 5
REMARK VINA RESULT:      -5.3      5.098      7.824
REMARK  9 active torsions:
REMARK  status: ('A' for Active; 'I' for Inactive)
REMARK    1  A    between atoms: C_1  and  C_2 
REMARK    2  A    between atoms: C_2  and  C_3 
REMARK    3  A    between atoms: C_3  and  O_4 
REMARK    4  A    between atoms: O_4  and  C_5 
REMARK    5  A    between atoms: C_8  and  C_11 
REMARK       I    between atoms: C_11  and  N_13 
REMARK       I    between atoms: N_13  and  CA_14 
REMARK    6  A    between atoms: CA_14  and  CB_16 
REMARK       I    between atoms: CA_14  and  C_20 
REMARK    7  A    between atoms: CB_16  and  CG_17 
REMARK    8  A    between atoms: CG_17  and  CD1_18 
REMARK    9  A    between atoms: CG_17  and  CD2_19 
ROOT
ATOM      1  C   UNK d   0       6.616   0.237  -5.003  0.00  0.00     0.245 C 
ATOM      2  O   UNK d   0       6.081  -0.002  -6.068  0.00  0.00    -0.270 OA
ATOM      3  N   LEU d   1       6.140  -0.317  -3.870  0.00  0.00    -0.303 N 
ATOM      4  CA  LEU d   1       4.978  -1.208  -3.923  0.00  0.00     0.063 C 
ATOM      5  HA  LEU d   1       4.290  -0.862  -4.695  0.00  0.00     0.056 H 
ATOM      6  C   LEU d   1       5.432  -2.608  -4.246  0.00  0.00     0.062 C 
ATOM      7  O   LEU d   1       6.606  -2.838  -4.415  0.00  0.00    -0.548 OA
ATOM      8  H   LEU d   1       6.566  -0.126  -3.020  0.00  0.00     0.150 HD
ATOM      9  OXT LEU d   1       4.532  -3.599  -4.346  0.00  0.00    -0.548 OA
ENDROOT
BRANCH   1  10
ATOM     10  C   UNK d   0       7.786   1.135  -4.950  0.00  0.00     0.037 A 
ATOM     11  C   UNK d   0       8.063   1.856  -3.786  0.00  0.00    -0.046 A 
ATOM     12  C   UNK d   0       9.157   2.692  -3.740  0.00  0.00    -0.019 A 
ATOM     13  H   UNK d   0       7.421   1.759  -2.923  0.00  0.00     0.063 H 
ATOM     14  C   UNK d   0       9.983   2.820  -4.850  0.00  0.00     0.120 A 
ATOM     15  H   UNK d   0       9.372   3.250  -2.840  0.00  0.00     0.065 H 
ATOM     16  C   UNK d   0       9.711   2.104  -6.009  0.00  0.00    -0.019 A 
ATOM     17  C   UNK d   0       8.623   1.262  -6.061  0.00  0.00    -0.046 A 
ATOM     18  H   UNK d   0      10.356   2.206  -6.871  0.00  0.00     0.065 H 
ATOM     19  H   UNK d   0       8.415   0.702  -6.961  0.00  0.00     0.063 H 
BRANCH  14  20
ATOM     20  O   UNK d   0      11.060   3.644  -4.801  0.00  0.00    -0.492 OA
BRANCH  20  21
ATOM     21  C   UNK d   0      10.940   4.821  -3.999  0.00  0.00     0.089 C 
ATOM     22  H   UNK d   0      10.165   4.670  -3.247  0.00  0.00     0.070 H 
ATOM     23  H   UNK d   0      11.891   5.023  -3.505  0.00  0.00     0.070 H 
BRANCH  21  24
ATOM     24  C   UNK d   0      10.564   6.008  -4.887  0.00  0.00    -0.021 C 
ATOM     25  H   UNK d   0      11.207   6.856  -4.652  0.00  0.00     0.029 H 
ATOM     26  H   UNK d   0      10.694   5.734  -5.935  0.00  0.00     0.029 H 
BRANCH  24  27
ATOM     27  C   UNK d   0       9.104   6.391  -4.638  0.00  0.00    -0.062 C 
ATOM     28  H   UNK d   0       9.062   7.221  -3.932  0.00  0.00     0.023 H 
ATOM     29  H   UNK d   0       8.641   6.691  -5.578  0.00  0.00     0.023 H 
ATOM     30  H   UNK d   0       8.569   5.535  -4.226  0.00  0.00     0.023 H 
ENDBRANCH  24  27
ENDBRANCH  21  24
ENDBRANCH  20  21
ENDBRANCH  14  20
ENDBRANCH   1  10
BRANCH   4  31
ATOM     31  CB  LEU d   1       4.269  -1.201  -2.567  0.00  0.00    -0.027 C 
ATOM     32  HB1 LEU d   1       3.859  -2.192  -2.367  0.00  0.00     0.029 H 
ATOM     33  HB2 LEU d   1       4.981  -0.938  -1.786  0.00  0.00     0.029 H 
BRANCH  31  34
ATOM     34  CG  LEU d   1       3.134  -0.175  -2.589  0.00  0.00    -0.045 C 
ATOM     35  HG  LEU d   1       2.366  -0.468  -1.873  0.00  0.00     0.030 H 
BRANCH  34  36
ATOM     36  CD1 LEU d   1       3.684   1.202  -2.211  0.00  0.00    -0.063 C 
ATOM     37 1HD1 LEU d   1       4.770   1.199  -2.311  0.00  0.00     0.023 H 
ATOM     38 2HD1 LEU d   1       3.261   1.957  -2.873  0.00  0.00     0.023 H 
ATOM     39 3HD1 LEU d   1       3.415   1.430  -1.180  0.00  0.00     0.023 H 
ENDBRANCH  34  36
BRANCH  34  40
ATOM     40  CD2 LEU d   1       2.528  -0.114  -3.992  0.00  0.00    -0.063 C 
ATOM     41 1HD2 LEU d   1       2.692   0.876  -4.417  0.00  0.00     0.023 H 
ATOM     42 2HD2 LEU d   1       2.999  -0.865  -4.626  0.00  0.00     0.023 H 
ATOM     43 3HD2 LEU d   1       1.456  -0.310  -3.933  0.00  0.00     0.023 H 
ENDBRANCH  34  40
ENDBRANCH  31  34
ENDBRANCH   4  31
TORSDOF 11
ENDMDL
MODEL 6
REMARK VINA RESULT:      -5.3      1.841      2.168
REMARK  9 active torsions:
REMARK  status: ('A' for Active; 'I' for Inactive)
REMARK    1  A    between atoms: C_1  and  C_2 
REMARK    2  A    between atoms: C_2  and  C_3 
REMARK    3  A    between atoms: C_3  and  O_4 
REMARK    4  A    between atoms: O_4  and  C_5 
REMARK    5  A    between atoms: C_8  and  C_11 
REMARK       I    between atoms: C_11  and  N_13 
REMARK       I    between atoms: N_13  and  CA_14 
REMARK    6  A    between atoms: CA_14  and  CB_16 
REMARK       I    between atoms: CA_14  and  C_20 
REMARK    7  A    between atoms: CB_16  and  CG_17 
REMARK    8  A    between atoms: CG_17  and  CD1_18 
REMARK    9  A    between atoms: CG_17  and  CD2_19 
ROOT
ATOM      1  C   UNK d   0       4.551  -1.067  -6.410  0.00  0.00     0.245 C 
ATOM      2  O   UNK d   0       5.298  -2.010  -6.235  0.00  0.00    -0.270 OA
ATOM      3  N   LEU d   1       4.484  -0.081  -5.494  0.00  0.00    -0.303 N 
ATOM      4  CA  LEU d   1       5.310  -0.147  -4.286  0.00  0.00     0.063 C 
ATOM      5  HA  LEU d   1       5.406  -1.185  -3.968  0.00  0.00     0.056 H 
ATOM      6  C   LEU d   1       6.676   0.418  -4.580  0.00  0.00     0.062 C 
ATOM      7  O   LEU d   1       6.933   0.832  -5.686  0.00  0.00    -0.548 OA
ATOM      8  H   LEU d   1       3.888   0.672  -5.634  0.00  0.00     0.150 HD
ATOM      9  OXT LEU d   1       7.607   0.459  -3.614  0.00  0.00    -0.548 OA
ENDROOT
BRANCH   1  10
ATOM     10  C   UNK d   0       3.718  -1.001  -7.627  0.00  0.00     0.037 A 
ATOM     11  C   UNK d   0       3.136   0.209  -8.012  0.00  0.00    -0.046 A 
ATOM     12  C   UNK d   0       2.360   0.267  -9.149  0.00  0.00    -0.019 A 
ATOM     13  H   UNK d   0       3.293   1.098  -7.420  0.00  0.00     0.063 H 
ATOM     14  C   UNK d   0       2.155  -0.877  -9.911  0.00  0.00     0.120 A 
ATOM     15  H   UNK d   0       1.909   1.202  -9.447  0.00  0.00     0.065 H 
ATOM     16  C   UNK d   0       2.732  -2.082  -9.532  0.00  0.00    -0.019 A 
ATOM     17  C   UNK d   0       3.515  -2.147  -8.400  0.00  0.00    -0.046 A 
ATOM     18  H   UNK d   0       2.571  -2.970 -10.127  0.00  0.00     0.065 H 
ATOM     19  H   UNK d   0       3.967  -3.083  -8.108  0.00  0.00     0.063 H 
BRANCH  14  20
ATOM     20  O   UNK d   0       1.390  -0.816 -11.031  0.00  0.00    -0.492 OA
BRANCH  20  21
ATOM     21  C   UNK d   0       1.690  -1.747 -12.072  0.00  0.00     0.089 C 
ATOM     22  H   UNK d   0       1.937  -2.714 -11.635  0.00  0.00     0.070 H 
ATOM     23  H   UNK d   0       0.822  -1.855 -12.724  0.00  0.00     0.070 H 
BRANCH  21  24
ATOM     24  C   UNK d   0       2.879  -1.235 -12.888  0.00  0.00    -0.021 C 
ATOM     25  H   UNK d   0       2.522  -0.814 -13.827  0.00  0.00     0.029 H 
ATOM     26  H   UNK d   0       3.404  -0.466 -12.321  0.00  0.00     0.029 H 
BRANCH  24  27
ATOM     27  C   UNK d   0       3.834  -2.394 -13.180  0.00  0.00    -0.062 C 
ATOM     28  H   UNK d   0       4.757  -2.254 -12.616  0.00  0.00     0.023 H 
ATOM     29  H   UNK d   0       3.367  -3.334 -12.883  0.00  0.00     0.023 H 
ATOM     30  H   UNK d   0       4.059  -2.421 -14.246  0.00  0.00     0.023 H 
ENDBRANCH  24  27
ENDBRANCH  21  24
ENDBRANCH  20  21
ENDBRANCH  14  20
ENDBRANCH   1  10
BRANCH   4  31
ATOM     31  CB  LEU d   1       4.650   0.669  -3.172  0.00  0.00    -0.027 C 
ATOM     32  HB1 LEU d   1       5.420   1.167  -2.582  0.00  0.00     0.029 H 
ATOM     33  HB2 LEU d   1       3.989   1.416  -3.611  0.00  0.00     0.029 H 
BRANCH  31  34
ATOM     34  CG  LEU d   1       3.839  -0.262  -2.269  0.00  0.00    -0.045 C 
ATOM     35  HG  LEU d   1       3.680   0.217  -1.303  0.00  0.00     0.030 H 
BRANCH  34  36
ATOM     36  CD1 LEU d   1       2.486  -0.553  -2.922  0.00  0.00    -0.063 C 
ATOM     37 1HD1 LEU d   1       2.118   0.348  -3.414  0.00  0.00     0.023 H 
ATOM     38 2HD1 LEU d   1       2.601  -1.348  -3.659  0.00  0.00     0.023 H 
ATOM     39 3HD1 LEU d   1       1.774  -0.866  -2.158  0.00  0.00     0.023 H 
ENDBRANCH  34  36
BRANCH  34  40
ATOM     40  CD2 LEU d   1       4.602  -1.572  -2.070  0.00  0.00    -0.063 C 
ATOM     41 1HD2 LEU d   1       5.258  -1.745  -2.923  0.00  0.00     0.023 H 
ATOM     42 2HD2 LEU d   1       5.198  -1.512  -1.159  0.00  0.00     0.023 H 
ATOM     43 3HD2 LEU d   1       3.892  -2.396  -1.985  0.00  0.00     0.023 H 
ENDBRANCH  34  40
ENDBRANCH  31  34
ENDBRANCH   4  31
TORSDOF 11
ENDMDL
MODEL 7
REMARK VINA RESULT:      -5.2      2.438      3.043
REMARK  9 active torsions:
REMARK  status: ('A' for Active; 'I' for Inactive)
REMARK    1  A    between atoms: C_1  and  C_2 
REMARK    2  A    between atoms: C_2  and  C_3 
REMARK    3  A    between atoms: C_3  and  O_4 
REMARK    4  A    between atoms: O_4  and  C_5 
REMARK    5  A    between atoms: C_8  and  C_11 
REMARK       I    between atoms: C_11  and  N_13 
REMARK       I    between atoms: N_13  and  CA_14 
REMARK    6  A    between atoms: CA_14  and  CB_16 
REMARK       I    between atoms: CA_14  and  C_20 
REMARK    7  A    between atoms: CB_16  and  CG_17 
REMARK    8  A    between atoms: CG_17  and  CD1_18 
REMARK    9  A    between atoms: CG_17  and  CD2_19 
ROOT
ATOM      1  C   UNK d   0       3.584   0.248  -5.702  0.00  0.00     0.245 C 
ATOM      2  O   UNK d   0       2.786   0.823  -4.986  0.00  0.00    -0.270 OA
ATOM      3  N   LEU d   1       4.695  -0.297  -5.170  0.00  0.00    -0.303 N 
ATOM      4  CA  LEU d   1       4.943  -0.197  -3.729  0.00  0.00     0.063 C 
ATOM      5  HA  LEU d   1       4.574   0.761  -3.363  0.00  0.00     0.056 H 
ATOM      6  C   LEU d   1       4.228  -1.317  -3.018  0.00  0.00     0.062 C 
ATOM      7  O   LEU d   1       3.578  -2.116  -3.649  0.00  0.00    -0.548 OA
ATOM      8  H   LEU d   1       5.332  -0.756  -5.741  0.00  0.00     0.150 HD
ATOM      9  OXT LEU d   1       4.313  -1.426  -1.683  0.00  0.00    -0.548 OA
ENDROOT
BRANCH   1  10
ATOM     10  C   UNK d   0       3.334   0.148  -7.153  0.00  0.00     0.037 A 
ATOM     11  C   UNK d   0       2.905   1.268  -7.869  0.00  0.00    -0.046 A 
ATOM     12  C   UNK d   0       2.673   1.170  -9.223  0.00  0.00    -0.019 A 
ATOM     13  H   UNK d   0       2.755   2.210  -7.362  0.00  0.00     0.063 H 
ATOM     14  C   UNK d   0       2.864  -0.042  -9.877  0.00  0.00     0.120 A 
ATOM     15  H   UNK d   0       2.342   2.036  -9.778  0.00  0.00     0.065 H 
ATOM     16  C   UNK d   0       3.290  -1.158  -9.169  0.00  0.00    -0.019 A 
ATOM     17  C   UNK d   0       3.530  -1.067  -7.815  0.00  0.00    -0.046 A 
ATOM     18  H   UNK d   0       3.437  -2.099  -9.680  0.00  0.00     0.065 H 
ATOM     19  H   UNK d   0       3.866  -1.934  -7.266  0.00  0.00     0.063 H 
BRANCH  14  20
ATOM     20  O   UNK d   0       2.635  -0.134 -11.211  0.00  0.00    -0.492 OA
BRANCH  20  21
ATOM     21  C   UNK d   0       3.145  -1.289 -11.879  0.00  0.00     0.089 C 
ATOM     22  H   UNK d   0       4.060  -1.027 -12.412  0.00  0.00     0.070 H 
ATOM     23  H   UNK d   0       3.363  -2.067 -11.146  0.00  0.00     0.070 H 
BRANCH  21  24
ATOM     24  C   UNK d   0       2.104  -1.805 -12.875  0.00  0.00    -0.021 C 
ATOM     25  H   UNK d   0       2.140  -1.203 -13.782  0.00  0.00     0.029 H 
ATOM     26  H   UNK d   0       2.321  -2.845 -13.120  0.00  0.00     0.029 H 
BRANCH  24  27
ATOM     27  C   UNK d   0       0.710  -1.708 -12.252  0.00  0.00    -0.062 C 
ATOM     28  H   UNK d   0       0.648  -2.378 -11.394  0.00  0.00     0.023 H 
ATOM     29  H   UNK d   0       0.527  -0.684 -11.927  0.00  0.00     0.023 H 
ATOM     30  H   UNK d   0      -0.039  -1.995 -12.991  0.00  0.00     0.023 H 
ENDBRANCH  24  27
ENDBRANCH  21  24
ENDBRANCH  20  21
ENDBRANCH  14  20
ENDBRANCH   1  10
BRANCH   4  31
ATOM     31  CB  LEU d   1       6.446  -0.301  -3.463  0.00  0.00    -0.027 C 
ATOM     32  HB1 LEU d   1       6.665   0.081  -2.465  0.00  0.00     0.029 H 
ATOM     33  HB2 LEU d   1       6.756  -1.344  -3.528  0.00  0.00     0.029 H 
BRANCH  31  34
ATOM     34  CG  LEU d   1       7.207   0.524  -4.502  0.00  0.00    -0.045 C 
ATOM     35  HG  LEU d   1       6.537   0.783  -5.322  0.00  0.00     0.030 H 
BRANCH  34  36
ATOM     36  CD1 LEU d   1       7.733   1.805  -3.851  0.00  0.00    -0.063 C 
ATOM     37 1HD1 LEU d   1       6.971   2.582  -3.912  0.00  0.00     0.023 H 
ATOM     38 2HD1 LEU d   1       7.970   1.610  -2.805  0.00  0.00     0.023 H 
ATOM     39 3HD1 LEU d   1       8.631   2.134  -4.371  0.00  0.00     0.023 H 
ENDBRANCH  34  36
BRANCH  34  40
ATOM     40  CD2 LEU d   1       8.382  -0.293  -5.042  0.00  0.00    -0.063 C 
ATOM     41 1HD2 LEU d   1       9.017  -0.609  -4.214  0.00  0.00     0.023 H 
ATOM     42 2HD2 LEU d   1       8.005  -1.171  -5.566  0.00  0.00     0.023 H 
ATOM     43 3HD2 LEU d   1       8.964   0.319  -5.731  0.00  0.00     0.023 H 
ENDBRANCH  34  40
ENDBRANCH  31  34
ENDBRANCH   4  31
TORSDOF 11
ENDMDL
MODEL 8
REMARK VINA RESULT:      -4.9      5.290      8.133
REMARK  9 active torsions:
REMARK  status: ('A' for Active; 'I' for Inactive)
REMARK    1  A    between atoms: C_1  and  C_2 
REMARK    2  A    between atoms: C_2  and  C_3 
REMARK    3  A    between atoms: C_3  and  O_4 
REMARK    4  A    between atoms: O_4  and  C_5 
REMARK    5  A    between atoms: C_8  and  C_11 
REMARK       I    between atoms: C_11  and  N_13 
REMARK       I    between atoms: N_13  and  CA_14 
REMARK    6  A    between atoms: CA_14  and  CB_16 
REMARK       I    between atoms: CA_14  and  C_20 
REMARK    7  A    between atoms: CB_16  and  CG_17 
REMARK    8  A    between atoms: CG_17  and  CD1_18 
REMARK    9  A    between atoms: CG_17  and  CD2_19 
ROOT
ATOM      1  C   UNK d   0       8.716   1.277  -4.931  0.00  0.00     0.245 C 
ATOM      2  O   UNK d   0       9.683   0.617  -5.260  0.00  0.00    -0.270 OA
ATOM      3  N   LEU d   1       8.643   2.580  -5.268  0.00  0.00    -0.303 N 
ATOM      4  CA  LEU d   1       9.730   3.202  -6.028  0.00  0.00     0.063 C 
ATOM      5  HA  LEU d   1      10.682   2.766  -5.723  0.00  0.00     0.056 H 
ATOM      6  C   LEU d   1       9.516   2.959  -7.500  0.00  0.00     0.062 C 
ATOM      7  O   LEU d   1       8.554   2.331  -7.875  0.00  0.00    -0.548 OA
ATOM      8  H   LEU d   1       7.871   3.107  -5.006  0.00  0.00     0.150 HD
ATOM      9  OXT LEU d   1      10.394   3.439  -8.394  0.00  0.00    -0.548 OA
ENDROOT
BRANCH   1  10
ATOM     10  C   UNK d   0       7.620   0.651  -4.165  0.00  0.00     0.037 A 
ATOM     11  C   UNK d   0       6.692   1.449  -3.491  0.00  0.00    -0.046 A 
ATOM     12  C   UNK d   0       5.672   0.861  -2.777  0.00  0.00    -0.019 A 
ATOM     13  H   UNK d   0       6.775   2.525  -3.529  0.00  0.00     0.063 H 
ATOM     14  C   UNK d   0       5.566  -0.524  -2.725  0.00  0.00     0.120 A 
ATOM     15  H   UNK d   0       4.953   1.477  -2.256  0.00  0.00     0.065 H 
ATOM     16  C   UNK d   0       6.486  -1.321  -3.393  0.00  0.00    -0.019 A 
ATOM     17  C   UNK d   0       7.506  -0.741  -4.115  0.00  0.00    -0.046 A 
ATOM     18  H   UNK d   0       6.401  -2.398  -3.351  0.00  0.00     0.065 H 
ATOM     19  H   UNK d   0       8.219  -1.360  -4.638  0.00  0.00     0.063 H 
BRANCH  14  20
ATOM     20  O   UNK d   0       4.558  -1.099  -2.021  0.00  0.00    -0.492 OA
BRANCH  20  21
ATOM     21  C   UNK d   0       3.471  -1.645  -2.771  0.00  0.00     0.089 C 
ATOM     22  H   UNK d   0       3.837  -1.997  -3.736  0.00  0.00     0.070 H 
ATOM     23  H   UNK d   0       3.033  -2.479  -2.223  0.00  0.00     0.070 H 
BRANCH  21  24
ATOM     24  C   UNK d   0       2.410  -0.565  -2.990  0.00  0.00    -0.021 C 
ATOM     25  H   UNK d   0       1.421  -0.987  -2.813  0.00  0.00     0.029 H 
ATOM     26  H   UNK d   0       2.582   0.260  -2.298  0.00  0.00     0.029 H 
BRANCH  24  27
ATOM     27  C   UNK d   0       2.495  -0.050  -4.428  0.00  0.00    -0.062 C 
ATOM     28  H   UNK d   0       2.466   1.040  -4.426  0.00  0.00     0.023 H 
ATOM     29  H   UNK d   0       3.427  -0.388  -4.882  0.00  0.00     0.023 H 
ATOM     30  H   UNK d   0       1.651  -0.434  -5.003  0.00  0.00     0.023 H 
ENDBRANCH  24  27
ENDBRANCH  21  24
ENDBRANCH  20  21
ENDBRANCH  14  20
ENDBRANCH   1  10
BRANCH   4  31
ATOM     31  CB  LEU d   1       9.746   4.707  -5.757  0.00  0.00    -0.027 C 
ATOM     32  HB1 LEU d   1      10.659   5.140  -6.168  0.00  0.00     0.029 H 
ATOM     33  HB2 LEU d   1       8.880   5.171  -6.227  0.00  0.00     0.029 H 
BRANCH  31  34
ATOM     34  CG  LEU d   1       9.701   4.954  -4.248  0.00  0.00    -0.045 C 
ATOM     35  HG  LEU d   1       8.964   4.291  -3.793  0.00  0.00     0.030 H 
BRANCH  34  36
ATOM     36  CD1 LEU d   1      11.079   4.674  -3.644  0.00  0.00    -0.063 C 
ATOM     37 1HD1 LEU d   1      11.480   3.752  -4.066  0.00  0.00     0.023 H 
ATOM     38 2HD1 LEU d   1      11.752   5.500  -3.874  0.00  0.00     0.023 H 
ATOM     39 3HD1 LEU d   1      10.988   4.569  -2.564  0.00  0.00     0.023 H 
ENDBRANCH  34  36
BRANCH  34  40
ATOM     40  CD2 LEU d   1       9.313   6.409  -3.980  0.00  0.00    -0.063 C 
ATOM     41 1HD2 LEU d   1       8.266   6.560  -4.240  0.00  0.00     0.023 H 
ATOM     42 2HD2 LEU d   1       9.462   6.637  -2.924  0.00  0.00     0.023 H 
ATOM     43 3HD2 LEU d   1       9.936   7.069  -4.585  0.00  0.00     0.023 H 
ENDBRANCH  34  40
ENDBRANCH  31  34
ENDBRANCH   4  31
TORSDOF 11
ENDMDL
MODEL 9
REMARK VINA RESULT:      -4.8      6.053      8.300
REMARK  9 active torsions:
REMARK  status: ('A' for Active; 'I' for Inactive)
REMARK    1  A    between atoms: C_1  and  C_2 
REMARK    2  A    between atoms: C_2  and  C_3 
REMARK    3  A    between atoms: C_3  and  O_4 
REMARK    4  A    between atoms: O_4  and  C_5 
REMARK    5  A    between atoms: C_8  and  C_11 
REMARK       I    between atoms: C_11  and  N_13 
REMARK       I    between atoms: N_13  and  CA_14 
REMARK    6  A    between atoms: CA_14  and  CB_16 
REMARK       I    between atoms: CA_14  and  C_20 
REMARK    7  A    between atoms: CB_16  and  CG_17 
REMARK    8  A    between atoms: CG_17  and  CD1_18 
REMARK    9  A    between atoms: CG_17  and  CD2_19 
ROOT
ATOM      1  C   UNK d   0       9.179   2.519  -5.010  0.00  0.00     0.245 C 
ATOM      2  O   UNK d   0      10.293   2.112  -5.279  0.00  0.00    -0.270 OA
ATOM      3  N   LEU d   1       8.966   3.839  -4.844  0.00  0.00    -0.303 N 
ATOM      4  CA  LEU d   1      10.077   4.784  -4.985  0.00  0.00     0.063 C 
ATOM      5  HA  LEU d   1      10.993   4.325  -4.612  0.00  0.00     0.056 H 
ATOM      6  C   LEU d   1      10.250   5.143  -6.438  0.00  0.00     0.062 C 
ATOM      7  O   LEU d   1       9.520   4.659  -7.271  0.00  0.00    -0.548 OA
ATOM      8  H   LEU d   1       8.077   4.164  -4.630  0.00  0.00     0.150 HD
ATOM      9  OXT LEU d   1      11.215   5.999  -6.807  0.00  0.00    -0.548 OA
ENDROOT
BRANCH   1  10
ATOM     10  C   UNK d   0       8.060   1.567  -4.868  0.00  0.00     0.037 A 
ATOM     11  C   UNK d   0       7.384   1.457  -3.650  0.00  0.00    -0.046 A 
ATOM     12  C   UNK d   0       6.341   0.568  -3.522  0.00  0.00    -0.019 A 
ATOM     13  H   UNK d   0       7.681   2.068  -2.810  0.00  0.00     0.063 H 
ATOM     14  C   UNK d   0       5.959  -0.220  -4.601  0.00  0.00     0.120 A 
ATOM     15  H   UNK d   0       5.818   0.483  -2.580  0.00  0.00     0.065 H 
ATOM     16  C   UNK d   0       6.628  -0.114  -5.814  0.00  0.00    -0.019 A 
ATOM     17  C   UNK d   0       7.669   0.777  -5.953  0.00  0.00    -0.046 A 
ATOM     18  H   UNK d   0       6.329  -0.728  -6.652  0.00  0.00     0.065 H 
ATOM     19  H   UNK d   0       8.186   0.863  -6.897  0.00  0.00     0.063 H 
BRANCH  14  20
ATOM     20  O   UNK d   0       4.930  -1.094  -4.471  0.00  0.00    -0.492 OA
BRANCH  20  21
ATOM     21  C   UNK d   0       3.621  -0.539  -4.331  0.00  0.00     0.089 C 
ATOM     22  H   UNK d   0       3.682   0.549  -4.364  0.00  0.00     0.070 H 
ATOM     23  H   UNK d   0       2.987  -0.891  -5.144  0.00  0.00     0.070 H 
BRANCH  21  24
ATOM     24  C   UNK d   0       3.022  -0.975  -2.992  0.00  0.00    -0.021 C 
ATOM     25  H   UNK d   0       3.037  -0.137  -2.296  0.00  0.00     0.029 H 
ATOM     26  H   UNK d   0       1.993  -1.302  -3.144  0.00  0.00     0.029 H 
BRANCH  24  27
ATOM     27  C   UNK d   0       3.843  -2.130  -2.417  0.00  0.00    -0.062 C 
ATOM     28  H   UNK d   0       4.693  -2.332  -3.070  0.00  0.00     0.023 H 
ATOM     29  H   UNK d   0       4.205  -1.862  -1.424  0.00  0.00     0.023 H 
ATOM     30  H   UNK d   0       3.219  -3.022  -2.347  0.00  0.00     0.023 H 
ENDBRANCH  24  27
ENDBRANCH  21  24
ENDBRANCH  20  21
ENDBRANCH  14  20
ENDBRANCH   1  10
BRANCH   4  31
ATOM     31  CB  LEU d   1       9.775   6.049  -4.179  0.00  0.00    -0.027 C 
ATOM     32  HB1 LEU d   1      10.518   6.813  -4.412  0.00  0.00     0.029 H 
ATOM     33  HB2 LEU d   1       8.782   6.417  -4.437  0.00  0.00     0.029 H 
BRANCH  31  34
ATOM     34  CG  LEU d   1       9.827   5.727  -2.685  0.00  0.00    -0.045 C 
ATOM     35  HG  LEU d   1       9.089   4.959  -2.453  0.00  0.00     0.030 H 
BRANCH  34  36
ATOM     36  CD1 LEU d   1      11.223   5.218  -2.321  0.00  0.00    -0.063 C 
ATOM     37 1HD1 LEU d   1      11.969   5.751  -2.910  0.00  0.00     0.023 H 
ATOM     38 2HD1 LEU d   1      11.408   5.389  -1.260  0.00  0.00     0.023 H 
ATOM     39 3HD1 LEU d   1      11.288   4.151  -2.533  0.00  0.00     0.023 H 
ENDBRANCH  34  36
BRANCH  34  40
ATOM     40  CD2 LEU d   1       9.519   6.991  -1.879  0.00  0.00    -0.063 C 
ATOM     41 1HD2 LEU d   1       8.441   7.141  -1.835  0.00  0.00     0.023 H 
ATOM     42 2HD2 LEU d   1       9.912   6.883  -0.868  0.00  0.00     0.023 H 
ATOM     43 3HD2 LEU d   1       9.985   7.851  -2.360  0.00  0.00     0.023 H 
ENDBRANCH  34  40
ENDBRANCH  31  34
ENDBRANCH   4  31
TORSDOF 11
ENDMDL
MODEL 10
REMARK VINA RESULT:      -4.6     12.647     14.411
REMARK  9 active torsions:
REMARK  status: ('A' for Active; 'I' for Inactive)
REMARK    1  A    between atoms: C_1  and  C_2 
REMARK    2  A    between atoms: C_2  and  C_3 
REMARK    3  A    between atoms: C_3  and  O_4 
REMARK    4  A    between atoms: O_4  and  C_5 
REMARK    5  A    between atoms: C_8  and  C_11 
REMARK       I    between atoms: C_11  and  N_13 
REMARK       I    between atoms: N_13  and  CA_14 
REMARK    6  A    between atoms: CA_14  and  CB_16 
REMARK       I    between atoms: CA_14  and  C_20 
REMARK    7  A    between atoms: CB_16  and  CG_17 
REMARK    8  A    between atoms: CG_17  and  CD1_18 
REMARK    9  A    between atoms: CG_17  and  CD2_19 
ROOT
ATOM      1  C   UNK d   0      -5.148   9.630 -13.925  0.00  0.00     0.245 C 
ATOM      2  O   UNK d   0      -5.060  10.426 -14.839  0.00  0.00    -0.270 OA
ATOM      3  N   LEU d   1      -5.533  10.047 -12.703  0.00  0.00    -0.303 N 
ATOM      4  CA  LEU d   1      -5.845  11.461 -12.476  0.00  0.00     0.063 C 
ATOM      5  HA  LEU d   1      -5.185  12.080 -13.084  0.00  0.00     0.056 H 
ATOM      6  C   LEU d   1      -7.278  11.727 -12.860  0.00  0.00     0.062 C 
ATOM      7  O   LEU d   1      -7.968  10.828 -13.279  0.00  0.00    -0.548 OA
ATOM      8  H   LEU d   1      -5.604   9.412 -11.973  0.00  0.00     0.150 HD
ATOM      9  OXT LEU d   1      -7.787  12.962 -12.736  0.00  0.00    -0.548 OA
ENDROOT
BRANCH   1  10
ATOM     10  C   UNK d   0      -4.834   8.206 -14.153  0.00  0.00     0.037 A 
ATOM     11  C   UNK d   0      -3.503   7.785 -14.224  0.00  0.00    -0.046 A 
ATOM     12  C   UNK d   0      -3.214   6.455 -14.437  0.00  0.00    -0.019 A 
ATOM     13  H   UNK d   0      -2.703   8.501 -14.113  0.00  0.00     0.063 H 
ATOM     14  C   UNK d   0      -4.244   5.533 -14.582  0.00  0.00     0.120 A 
ATOM     15  H   UNK d   0      -2.186   6.129 -14.492  0.00  0.00     0.065 H 
ATOM     16  C   UNK d   0      -5.568   5.947 -14.512  0.00  0.00    -0.019 A 
ATOM     17  C   UNK d   0      -5.866   7.274 -14.294  0.00  0.00    -0.046 A 
ATOM     18  H   UNK d   0      -6.366   5.228 -14.626  0.00  0.00     0.065 H 
ATOM     19  H   UNK d   0      -6.895   7.595 -14.234  0.00  0.00     0.063 H 
BRANCH  14  20
ATOM     20  O   UNK d   0      -3.955   4.224 -14.791  0.00  0.00    -0.492 OA
BRANCH  20  21
ATOM     21  C   UNK d   0      -4.662   3.268 -13.998  0.00  0.00     0.089 C 
ATOM     22  H   UNK d   0      -5.730   3.486 -14.034  0.00  0.00     0.070 H 
ATOM     23  H   UNK d   0      -4.483   2.267 -14.389  0.00  0.00     0.070 H 
BRANCH  21  24
ATOM     24  C   UNK d   0      -4.173   3.345 -12.550  0.00  0.00    -0.021 C 
ATOM     25  H   UNK d   0      -3.549   2.480 -12.331  0.00  0.00     0.029 H 
ATOM     26  H   UNK d   0      -3.592   4.257 -12.411  0.00  0.00     0.029 H 
BRANCH  24  27
ATOM     27  C   UNK d   0      -5.376   3.358 -11.605  0.00  0.00    -0.062 C 
ATOM     28  H   UNK d   0      -5.227   2.621 -10.816  0.00  0.00     0.023 H 
ATOM     29  H   UNK d   0      -5.479   4.349 -11.161  0.00  0.00     0.023 H 
ATOM     30  H   UNK d   0      -6.280   3.115 -12.164  0.00  0.00     0.023 H 
ENDBRANCH  24  27
ENDBRANCH  21  24
ENDBRANCH  20  21
ENDBRANCH  14  20
ENDBRANCH   1  10
BRANCH   4  31
ATOM     31  CB  LEU d   1      -5.642  11.797 -10.997  0.00  0.00    -0.027 C 
ATOM     32  HB1 LEU d   1      -4.641  12.206 -10.852  0.00  0.00     0.029 H 
ATOM     33  HB2 LEU d   1      -6.384  12.532 -10.686  0.00  0.00     0.029 H 
BRANCH  31  34
ATOM     34  CG  LEU d   1      -5.799  10.527 -10.159  0.00  0.00    -0.045 C 
ATOM     35  HG  LEU d   1      -5.705   9.653 -10.803  0.00  0.00     0.030 H 
BRANCH  34  36
ATOM     36  CD1 LEU d   1      -4.711  10.488  -9.084  0.00  0.00    -0.063 C 
ATOM     37 1HD1 LEU d   1      -4.782   9.552  -8.530  0.00  0.00     0.023 H 
ATOM     38 2HD1 LEU d   1      -3.731  10.558  -9.555  0.00  0.00     0.023 H 
ATOM     39 3HD1 LEU d   1      -4.846  11.325  -8.400  0.00  0.00     0.023 H 
ENDBRANCH  34  36
BRANCH  34  40
ATOM     40  CD2 LEU d   1      -7.176  10.523  -9.492  0.00  0.00    -0.063 C 
ATOM     41 1HD2 LEU d   1      -7.254  11.371  -8.813  0.00  0.00     0.023 H 
ATOM     42 2HD2 LEU d   1      -7.951  10.596 -10.255  0.00  0.00     0.023 H 
ATOM     43 3HD2 LEU d   1      -7.305   9.597  -8.931  0.00  0.00     0.023 H 
ENDBRANCH  34  40
ENDBRANCH  31  34
ENDBRANCH   4  31
TORSDOF 11
ENDMDL
