MODEL 1
REMARK VINA RESULT:      -6.5      0.000      0.000
REMARK  2 active torsions:
REMARK  status: ('A' for Active; 'I' for Inactive)
REMARK    1  A    between atoms: CA_11  and  C_15 
REMARK    2  A    between atoms: C_15  and  O_16 
ROOT
ATOM      1  C   LIG d   1       4.808   0.845  -2.197  0.00  0.00    -0.061 A 
ATOM      2  C   LIG d   1       3.455   0.587  -2.359  0.00  0.00    -0.060 A 
ATOM      3  C   LIG d   1       3.033  -0.553  -3.008  0.00  0.00    -0.038 A 
ATOM      4  C   LIG d   1       3.966  -1.455  -3.510  0.00  0.00     0.048 A 
ATOM      5  C   LIG d   1       5.335  -1.193  -3.346  0.00  0.00     0.008 A 
ATOM      6  C   LIG d   1       5.746  -0.036  -2.685  0.00  0.00    -0.052 A 
ATOM      7  C   LIG d   1       6.052  -2.313  -3.972  0.00  0.00     0.019 A 
ATOM      8  C   LIG d   1       7.396  -2.643  -4.145  0.00  0.00     0.012 A 
ATOM      9  C   LIG d   1       7.712  -3.812  -4.806  0.00  0.00     0.171 A 
ATOM     10  N   LIG d   1       6.766  -4.613  -5.263  0.00  0.00    -0.211 N 
ATOM     11  CA  LIG d   1       5.484  -4.341  -5.129  0.00  0.00     0.232 A 
ATOM     12  C   LIG d   1       5.071  -3.184  -4.478  0.00  0.00     0.118 A 
ATOM     13  N   LIG d   1       3.829  -2.652  -4.190  0.00  0.00    -0.349 N 
ATOM     14  H   LIG d   1       2.827  -3.042  -4.422  0.00  0.00     0.166 HD
ATOM     15  H   LIG d   1       5.127   1.741  -1.684  0.00  0.00     0.062 H 
ATOM     16  H   LIG d   1       2.726   1.284  -1.972  0.00  0.00     0.062 H 
ATOM     17  H   LIG d   1       1.977  -0.745  -3.129  0.00  0.00     0.064 H 
ATOM     18  H   LIG d   1       6.799   0.169  -2.557  0.00  0.00     0.062 H 
ATOM     19  H   LIG d   1       8.174  -1.995  -3.769  0.00  0.00     0.068 H 
ATOM     20  H   LIG d   1       8.749  -4.079  -4.945  0.00  0.00     0.138 H 
ATOM     21  H   LIG d   1       7.037  -5.546  -5.778  0.00  0.00     0.453 HD
ENDROOT
BRANCH  11  22
ATOM     22  C   LIG d   1       4.457  -5.294  -5.682  0.00  0.00     0.131 C 
ATOM     23  H1  LIG d   1       4.943  -5.993  -6.379  0.00  0.00     0.067 H 
ATOM     24  H2  LIG d   1       4.000  -5.859  -4.857  0.00  0.00     0.067 H 
BRANCH  22  25
ATOM     25  O   LIG d   1       3.446  -4.558  -6.373  0.00  0.00    -0.384 OA
ATOM     26  H   LIG d   1       3.622  -4.215  -7.404  0.00  0.00     0.210 HD
ENDBRANCH  22  25
ENDBRANCH  11  22
TORSDOF 2
ENDMDL
MODEL 2
REMARK VINA RESULT:      -5.8      2.143      3.001
REMARK  2 active torsions:
REMARK  status: ('A' for Active; 'I' for Inactive)
REMARK    1  A    between atoms: CA_11  and  C_15 
REMARK    2  A    between atoms: C_15  and  O_16 
ROOT
ATOM      1  C   LIG d   1       3.015   0.174  -2.704  0.00  0.00    -0.061 A 
ATOM      2  C   LIG d   1       4.022   0.949  -2.147  0.00  0.00    -0.060 A 
ATOM      3  C   LIG d   1       5.341   0.566  -2.259  0.00  0.00    -0.038 A 
ATOM      4  C   LIG d   1       5.673  -0.605  -2.932  0.00  0.00     0.048 A 
ATOM      5  C   LIG d   1       4.653  -1.389  -3.494  0.00  0.00     0.008 A 
ATOM      6  C   LIG d   1       3.323  -0.988  -3.374  0.00  0.00    -0.052 A 
ATOM      7  C   LIG d   1       5.313  -2.541  -4.126  0.00  0.00     0.019 A 
ATOM      8  C   LIG d   1       4.870  -3.657  -4.835  0.00  0.00     0.012 A 
ATOM      9  C   LIG d   1       5.802  -4.564  -5.293  0.00  0.00     0.171 A 
ATOM     10  N   LIG d   1       7.093  -4.383  -5.075  0.00  0.00    -0.211 N 
ATOM     11  CA  LIG d   1       7.558  -3.348  -4.406  0.00  0.00     0.232 A 
ATOM     12  C   LIG d   1       6.692  -2.383  -3.906  0.00  0.00     0.118 A 
ATOM     13  N   LIG d   1       6.886  -1.218  -3.189  0.00  0.00    -0.349 N 
ATOM     14  H   LIG d   1       7.820  -0.761  -2.830  0.00  0.00     0.166 HD
ATOM     15  H   LIG d   1       1.984   0.485  -2.612  0.00  0.00     0.062 H 
ATOM     16  H   LIG d   1       3.770   1.860  -1.624  0.00  0.00     0.062 H 
ATOM     17  H   LIG d   1       6.118   1.177  -1.822  0.00  0.00     0.064 H 
ATOM     18  H   LIG d   1       2.536  -1.589  -3.806  0.00  0.00     0.062 H 
ATOM     19  H   LIG d   1       3.817  -3.808  -5.021  0.00  0.00     0.068 H 
ATOM     20  H   LIG d   1       5.472  -5.433  -5.844  0.00  0.00     0.138 H 
ATOM     21  H   LIG d   1       7.822  -5.112  -5.457  0.00  0.00     0.453 HD
ENDROOT
BRANCH  11  22
ATOM     22  C   LIG d   1       9.042  -3.208  -4.186  0.00  0.00     0.131 C 
ATOM     23  H1  LIG d   1       9.566  -4.044  -4.673  0.00  0.00     0.067 H 
ATOM     24  H2  LIG d   1       9.388  -2.257  -4.619  0.00  0.00     0.067 H 
BRANCH  22  25
ATOM     25  O   LIG d   1       9.320  -3.222  -2.785  0.00  0.00    -0.384 OA
ATOM     26  H   LIG d   1       9.335  -4.177  -2.237  0.00  0.00     0.210 HD
ENDBRANCH  22  25
ENDBRANCH  11  22
TORSDOF 2
ENDMDL
MODEL 3
REMARK VINA RESULT:      -5.8      2.455      3.296
REMARK  2 active torsions:
REMARK  status: ('A' for Active; 'I' for Inactive)
REMARK    1  A    between atoms: CA_11  and  C_15 
REMARK    2  A    between atoms: C_15  and  O_16 
ROOT
ATOM      1  C   LIG d   1       3.857   1.135  -2.226  0.00  0.00    -0.061 A 
ATOM      2  C   LIG d   1       4.393   0.005  -1.626  0.00  0.00    -0.060 A 
ATOM      3  C   LIG d   1       4.617  -1.138  -2.361  0.00  0.00    -0.038 A 
ATOM      4  C   LIG d   1       4.304  -1.168  -3.717  0.00  0.00     0.048 A 
ATOM      5  C   LIG d   1       3.761  -0.024  -4.323  0.00  0.00     0.008 A 
ATOM      6  C   LIG d   1       3.542   1.126  -3.567  0.00  0.00    -0.052 A 
ATOM      7  C   LIG d   1       3.543  -0.365  -5.737  0.00  0.00     0.019 A 
ATOM      8  C   LIG d   1       3.040   0.317  -6.844  0.00  0.00     0.012 A 
ATOM      9  C   LIG d   1       2.978  -0.340  -8.056  0.00  0.00     0.171 A 
ATOM     10  N   LIG d   1       3.391  -1.589  -8.175  0.00  0.00    -0.211 N 
ATOM     11  CA  LIG d   1       3.868  -2.276  -7.157  0.00  0.00     0.232 A 
ATOM     12  C   LIG d   1       3.967  -1.696  -5.898  0.00  0.00     0.118 A 
ATOM     13  N   LIG d   1       4.419  -2.158  -4.677  0.00  0.00    -0.349 N 
ATOM     14  H   LIG d   1       4.827  -3.143  -4.404  0.00  0.00     0.166 HD
ATOM     15  H   LIG d   1       3.688   2.027  -1.640  0.00  0.00     0.062 H 
ATOM     16  H   LIG d   1       4.638   0.023  -0.574  0.00  0.00     0.062 H 
ATOM     17  H   LIG d   1       5.035  -2.013  -1.885  0.00  0.00     0.064 H 
ATOM     18  H   LIG d   1       3.124   2.008  -4.030  0.00  0.00     0.062 H 
ATOM     19  H   LIG d   1       2.706   1.340  -6.754  0.00  0.00     0.068 H 
ATOM     20  H   LIG d   1       2.592   0.178  -8.921  0.00  0.00     0.138 H 
ATOM     21  H   LIG d   1       3.344  -2.093  -9.151  0.00  0.00     0.453 HD
ENDROOT
BRANCH  11  22
ATOM     22  C   LIG d   1       4.314  -3.701  -7.361  0.00  0.00     0.131 C 
ATOM     23  H1  LIG d   1       4.205  -3.970  -8.422  0.00  0.00     0.067 H 
ATOM     24  H2  LIG d   1       5.368  -3.801  -7.064  0.00  0.00     0.067 H 
BRANCH  22  25
ATOM     25  O   LIG d   1       3.510  -4.571  -6.564  0.00  0.00    -0.384 OA
ATOM     26  H   LIG d   1       2.842  -5.301  -7.048  0.00  0.00     0.210 HD
ENDBRANCH  22  25
ENDBRANCH  11  22
TORSDOF 2
ENDMDL
MODEL 4
REMARK VINA RESULT:      -5.6      2.228      2.479
REMARK  2 active torsions:
REMARK  status: ('A' for Active; 'I' for Inactive)
REMARK    1  A    between atoms: CA_11  and  C_15 
REMARK    2  A    between atoms: C_15  and  O_16 
ROOT
ATOM      1  C   LIG d   1       4.406   0.192  -1.495  0.00  0.00    -0.061 A 
ATOM      2  C   LIG d   1       3.827   1.281  -2.131  0.00  0.00    -0.060 A 
ATOM      3  C   LIG d   1       3.598   1.256  -3.489  0.00  0.00    -0.038 A 
ATOM      4  C   LIG d   1       3.948   0.135  -4.235  0.00  0.00     0.048 A 
ATOM      5  C   LIG d   1       4.534  -0.965  -3.591  0.00  0.00     0.008 A 
ATOM      6  C   LIG d   1       4.759  -0.926  -2.216  0.00  0.00    -0.052 A 
ATOM      7  C   LIG d   1       4.783  -1.974  -4.632  0.00  0.00     0.019 A 
ATOM      8  C   LIG d   1       5.332  -3.255  -4.643  0.00  0.00     0.012 A 
ATOM      9  C   LIG d   1       5.413  -3.932  -5.843  0.00  0.00     0.171 A 
ATOM     10  N   LIG d   1       4.974  -3.385  -6.963  0.00  0.00    -0.211 N 
ATOM     11  CA  LIG d   1       4.453  -2.175  -7.003  0.00  0.00     0.232 A 
ATOM     12  C   LIG d   1       4.332  -1.420  -5.843  0.00  0.00     0.118 A 
ATOM     13  N   LIG d   1       3.836  -0.157  -5.583  0.00  0.00    -0.349 N 
ATOM     14  H   LIG d   1       3.397   0.581  -6.271  0.00  0.00     0.166 HD
ATOM     15  H   LIG d   1       4.580   0.223  -0.429  0.00  0.00     0.062 H 
ATOM     16  H   LIG d   1       3.554   2.154  -1.557  0.00  0.00     0.062 H 
ATOM     17  H   LIG d   1       3.146   2.108  -3.976  0.00  0.00     0.064 H 
ATOM     18  H   LIG d   1       5.210  -1.772  -1.717  0.00  0.00     0.062 H 
ATOM     19  H   LIG d   1       5.688  -3.710  -3.731  0.00  0.00     0.068 H 
ATOM     20  H   LIG d   1       5.835  -4.925  -5.866  0.00  0.00     0.138 H 
ATOM     21  H   LIG d   1       5.036  -3.943  -7.909  0.00  0.00     0.453 HD
ENDROOT
BRANCH  11  22
ATOM     22  C   LIG d   1       3.979  -1.610  -8.316  0.00  0.00     0.131 C 
ATOM     23  H1  LIG d   1       4.678  -0.830  -8.654  0.00  0.00     0.067 H 
ATOM     24  H2  LIG d   1       3.936  -2.413  -9.067  0.00  0.00     0.067 H 
BRANCH  22  25
ATOM     25  O   LIG d   1       2.678  -1.043  -8.150  0.00  0.00    -0.384 OA
ATOM     26  H   LIG d   1       1.795  -1.567  -8.546  0.00  0.00     0.210 HD
ENDBRANCH  22  25
ENDBRANCH  11  22
TORSDOF 2
ENDMDL
MODEL 5
REMARK VINA RESULT:      -5.6      3.603      4.578
REMARK  2 active torsions:
REMARK  status: ('A' for Active; 'I' for Inactive)
REMARK    1  A    between atoms: CA_11  and  C_15 
REMARK    2  A    between atoms: C_15  and  O_16 
ROOT
ATOM      1  C   LIG d   1       3.515  -1.588  -2.629  0.00  0.00    -0.061 A 
ATOM      2  C   LIG d   1       3.190  -0.272  -2.333  0.00  0.00    -0.060 A 
ATOM      3  C   LIG d   1       4.087   0.743  -2.586  0.00  0.00    -0.038 A 
ATOM      4  C   LIG d   1       5.330   0.454  -3.140  0.00  0.00     0.048 A 
ATOM      5  C   LIG d   1       5.658  -0.878  -3.438  0.00  0.00     0.008 A 
ATOM      6  C   LIG d   1       4.740  -1.894  -3.178  0.00  0.00    -0.052 A 
ATOM      7  C   LIG d   1       7.016  -0.856  -4.003  0.00  0.00     0.019 A 
ATOM      8  C   LIG d   1       7.892  -1.827  -4.485  0.00  0.00     0.012 A 
ATOM      9  C   LIG d   1       9.128  -1.431  -4.952  0.00  0.00     0.171 A 
ATOM     10  N   LIG d   1       9.480  -0.158  -4.951  0.00  0.00    -0.211 N 
ATOM     11  CA  LIG d   1       8.689   0.794  -4.500  0.00  0.00     0.232 A 
ATOM     12  C   LIG d   1       7.425   0.489  -4.010  0.00  0.00     0.118 A 
ATOM     13  N   LIG d   1       6.401   1.256  -3.490  0.00  0.00    -0.349 N 
ATOM     14  H   LIG d   1       6.347   2.344  -3.335  0.00  0.00     0.166 HD
ATOM     15  H   LIG d   1       2.804  -2.376  -2.428  0.00  0.00     0.062 H 
ATOM     16  H   LIG d   1       2.227  -0.042  -1.903  0.00  0.00     0.062 H 
ATOM     17  H   LIG d   1       3.824   1.765  -2.352  0.00  0.00     0.064 H 
ATOM     18  H   LIG d   1       4.990  -2.920  -3.406  0.00  0.00     0.062 H 
ATOM     19  H   LIG d   1       7.608  -2.869  -4.493  0.00  0.00     0.068 H 
ATOM     20  H   LIG d   1       9.816  -2.174  -5.329  0.00  0.00     0.138 H 
ATOM     21  H   LIG d   1      10.466   0.140  -5.338  0.00  0.00     0.453 HD
ENDROOT
BRANCH  11  22
ATOM     22  C   LIG d   1       9.157   2.226  -4.522  0.00  0.00     0.131 C 
ATOM     23  H1  LIG d   1      10.229   2.258  -4.768  0.00  0.00     0.067 H 
ATOM     24  H2  LIG d   1       8.590   2.786  -5.280  0.00  0.00     0.067 H 
BRANCH  22  25
ATOM     25  O   LIG d   1       8.946   2.816  -3.238  0.00  0.00    -0.384 OA
ATOM     26  H   LIG d   1       9.107   3.895  -3.095  0.00  0.00     0.210 HD
ENDBRANCH  22  25
ENDBRANCH  11  22
TORSDOF 2
ENDMDL
MODEL 6
REMARK VINA RESULT:      -5.4     11.644     13.948
REMARK  2 active torsions:
REMARK  status: ('A' for Active; 'I' for Inactive)
REMARK    1  A    between atoms: CA_11  and  C_15 
REMARK    2  A    between atoms: C_15  and  O_16 
ROOT
ATOM      1  C   LIG d   1      11.051   6.256   0.397  0.00  0.00    -0.061 A 
ATOM      2  C   LIG d   1      10.479   5.787  -0.777  0.00  0.00    -0.060 A 
ATOM      3  C   LIG d   1       9.947   6.665  -1.695  0.00  0.00    -0.038 A 
ATOM      4  C   LIG d   1       9.978   8.035  -1.450  0.00  0.00     0.048 A 
ATOM      5  C   LIG d   1      10.556   8.508  -0.262  0.00  0.00     0.008 A 
ATOM      6  C   LIG d   1      11.092   7.607   0.657  0.00  0.00    -0.052 A 
ATOM      7  C   LIG d   1      10.438   9.973  -0.295  0.00  0.00     0.019 A 
ATOM      8  C   LIG d   1      10.808  11.006   0.564  0.00  0.00     0.012 A 
ATOM      9  C   LIG d   1      10.528  12.307   0.198  0.00  0.00     0.171 A 
ATOM     10  N   LIG d   1       9.927  12.576  -0.948  0.00  0.00    -0.211 N 
ATOM     11  CA  LIG d   1       9.553  11.634  -1.789  0.00  0.00     0.232 A 
ATOM     12  C   LIG d   1       9.794  10.296  -1.503  0.00  0.00     0.118 A 
ATOM     13  N   LIG d   1       9.528   9.121  -2.179  0.00  0.00    -0.349 N 
ATOM     14  H   LIG d   1       9.038   8.965  -3.152  0.00  0.00     0.166 HD
ATOM     15  H   LIG d   1      11.466   5.557   1.109  0.00  0.00     0.062 H 
ATOM     16  H   LIG d   1      10.451   4.725  -0.973  0.00  0.00     0.062 H 
ATOM     17  H   LIG d   1       9.504   6.291  -2.606  0.00  0.00     0.064 H 
ATOM     18  H   LIG d   1      11.538   7.968   1.573  0.00  0.00     0.062 H 
ATOM     19  H   LIG d   1      11.305  10.793   1.499  0.00  0.00     0.068 H 
ATOM     20  H   LIG d   1      10.810  13.116   0.855  0.00  0.00     0.138 H 
ATOM     21  H   LIG d   1       9.722  13.620  -1.228  0.00  0.00     0.453 HD
ENDROOT
BRANCH  11  22
ATOM     22  C   LIG d   1       8.865  12.012  -3.075  0.00  0.00     0.131 C 
ATOM     23  H1  LIG d   1       8.851  13.107  -3.175  0.00  0.00     0.067 H 
ATOM     24  H2  LIG d   1       9.410  11.574  -3.924  0.00  0.00     0.067 H 
BRANCH  22  25
ATOM     25  O   LIG d   1       7.525  11.517  -3.061  0.00  0.00    -0.384 OA
ATOM     26  H   LIG d   1       6.961  11.429  -4.003  0.00  0.00     0.210 HD
ENDBRANCH  22  25
ENDBRANCH  11  22
TORSDOF 2
ENDMDL
MODEL 7
REMARK VINA RESULT:      -5.4      3.679      4.384
REMARK  2 active torsions:
REMARK  status: ('A' for Active; 'I' for Inactive)
REMARK    1  A    between atoms: CA_11  and  C_15 
REMARK    2  A    between atoms: C_15  and  O_16 
ROOT
ATOM      1  C   LIG d   1       4.518  -1.935  -2.410  0.00  0.00    -0.061 A 
ATOM      2  C   LIG d   1       3.994  -0.719  -1.996  0.00  0.00    -0.060 A 
ATOM      3  C   LIG d   1       3.582   0.216  -2.921  0.00  0.00    -0.038 A 
ATOM      4  C   LIG d   1       3.689  -0.055  -4.281  0.00  0.00     0.048 A 
ATOM      5  C   LIG d   1       4.220  -1.285  -4.699  0.00  0.00     0.008 A 
ATOM      6  C   LIG d   1       4.632  -2.222  -3.752  0.00  0.00    -0.052 A 
ATOM      7  C   LIG d   1       4.202  -1.270  -6.169  0.00  0.00     0.019 A 
ATOM      8  C   LIG d   1       4.585  -2.169  -7.163  0.00  0.00     0.012 A 
ATOM      9  C   LIG d   1       4.420  -1.806  -8.484  0.00  0.00     0.171 A 
ATOM     10  N   LIG d   1       3.903  -0.634  -8.809  0.00  0.00    -0.211 N 
ATOM     11  CA  LIG d   1       3.532   0.250  -7.905  0.00  0.00     0.232 A 
ATOM     12  C   LIG d   1       3.662  -0.029  -6.550  0.00  0.00     0.118 A 
ATOM     13  N   LIG d   1       3.362   0.683  -5.405  0.00  0.00    -0.349 N 
ATOM     14  H   LIG d   1       2.927   1.688  -5.295  0.00  0.00     0.166 HD
ATOM     15  H   LIG d   1       4.837  -2.661  -1.675  0.00  0.00     0.062 H 
ATOM     16  H   LIG d   1       3.909  -0.503  -0.941  0.00  0.00     0.062 H 
ATOM     17  H   LIG d   1       3.175   1.160  -2.589  0.00  0.00     0.064 H 
ATOM     18  H   LIG d   1       5.041  -3.170  -4.070  0.00  0.00     0.062 H 
ATOM     19  H   LIG d   1       5.003  -3.130  -6.905  0.00  0.00     0.068 H 
ATOM     20  H   LIG d   1       4.712  -2.494  -9.264  0.00  0.00     0.138 H 
ATOM     21  H   LIG d   1       3.769  -0.367  -9.867  0.00  0.00     0.453 HD
ENDROOT
BRANCH  11  22
ATOM     22  C   LIG d   1       2.957   1.571  -8.346  0.00  0.00     0.131 C 
ATOM     23  H1  LIG d   1       2.237   1.404  -9.160  0.00  0.00     0.067 H 
ATOM     24  H2  LIG d   1       2.447   2.049  -7.497  0.00  0.00     0.067 H 
BRANCH  22  25
ATOM     25  O   LIG d   1       4.010   2.419  -8.807  0.00  0.00    -0.384 OA
ATOM     26  H   LIG d   1       5.042   2.254  -8.460  0.00  0.00     0.210 HD
ENDBRANCH  22  25
ENDBRANCH  11  22
TORSDOF 2
ENDMDL
MODEL 8
REMARK VINA RESULT:      -5.4      4.266      5.330
REMARK  2 active torsions:
REMARK  status: ('A' for Active; 'I' for Inactive)
REMARK    1  A    between atoms: CA_11  and  C_15 
REMARK    2  A    between atoms: C_15  and  O_16 
ROOT
ATOM      1  C   LIG d   1       3.192   2.172  -9.618  0.00  0.00    -0.061 A 
ATOM      2  C   LIG d   1       3.993   1.282 -10.318  0.00  0.00    -0.060 A 
ATOM      3  C   LIG d   1       4.477   0.147  -9.706  0.00  0.00    -0.038 A 
ATOM      4  C   LIG d   1       4.166  -0.115  -8.375  0.00  0.00     0.048 A 
ATOM      5  C   LIG d   1       3.356   0.787  -7.667  0.00  0.00     0.008 A 
ATOM      6  C   LIG d   1       2.872   1.931  -8.300  0.00  0.00    -0.052 A 
ATOM      7  C   LIG d   1       3.211   0.241  -6.310  0.00  0.00     0.019 A 
ATOM      8  C   LIG d   1       2.547   0.650  -5.154  0.00  0.00     0.012 A 
ATOM      9  C   LIG d   1       2.635  -0.137  -4.025  0.00  0.00     0.171 A 
ATOM     10  N   LIG d   1       3.327  -1.263  -4.032  0.00  0.00    -0.211 N 
ATOM     11  CA  LIG d   1       3.975  -1.688  -5.097  0.00  0.00     0.232 A 
ATOM     12  C   LIG d   1       3.944  -0.959  -6.280  0.00  0.00     0.118 A 
ATOM     13  N   LIG d   1       4.507  -1.153  -7.526  0.00  0.00    -0.349 N 
ATOM     14  H   LIG d   1       5.144  -1.973  -7.890  0.00  0.00     0.166 HD
ATOM     15  H   LIG d   1       2.817   3.059 -10.109  0.00  0.00     0.062 H 
ATOM     16  H   LIG d   1       4.238   1.480 -11.351  0.00  0.00     0.062 H 
ATOM     17  H   LIG d   1       5.099  -0.541 -10.259  0.00  0.00     0.064 H 
ATOM     18  H   LIG d   1       2.249   2.627  -7.758  0.00  0.00     0.062 H 
ATOM     19  H   LIG d   1       1.976   1.566  -5.143  0.00  0.00     0.068 H 
ATOM     20  H   LIG d   1       2.125   0.168  -3.123  0.00  0.00     0.138 H 
ATOM     21  H   LIG d   1       3.377  -1.883  -3.125  0.00  0.00     0.453 HD
ENDROOT
BRANCH  11  22
ATOM     22  C   LIG d   1       4.752  -2.977  -5.034  0.00  0.00     0.131 C 
ATOM     23  H1  LIG d   1       5.762  -2.817  -5.437  0.00  0.00     0.067 H 
ATOM     24  H2  LIG d   1       4.823  -3.311  -3.988  0.00  0.00     0.067 H 
BRANCH  22  25
ATOM     25  O   LIG d   1       4.083  -3.975  -5.807  0.00  0.00    -0.384 OA
ATOM     26  H   LIG d   1       3.115  -4.376  -5.469  0.00  0.00     0.210 HD
ENDBRANCH  22  25
ENDBRANCH  11  22
TORSDOF 2
ENDMDL
MODEL 9
REMARK VINA RESULT:      -5.4      1.878      4.610
REMARK  2 active torsions:
REMARK  status: ('A' for Active; 'I' for Inactive)
REMARK    1  A    between atoms: CA_11  and  C_15 
REMARK    2  A    between atoms: C_15  and  O_16 
ROOT
ATOM      1  C   LIG d   1       7.949  -3.510  -4.006  0.00  0.00    -0.061 A 
ATOM      2  C   LIG d   1       7.199  -4.213  -4.937  0.00  0.00    -0.060 A 
ATOM      3  C   LIG d   1       5.974  -3.738  -5.350  0.00  0.00    -0.038 A 
ATOM      4  C   LIG d   1       5.478  -2.545  -4.834  0.00  0.00     0.048 A 
ATOM      5  C   LIG d   1       6.238  -1.834  -3.892  0.00  0.00     0.008 A 
ATOM      6  C   LIG d   1       7.476  -2.327  -3.484  0.00  0.00    -0.052 A 
ATOM      7  C   LIG d   1       5.458  -0.637  -3.544  0.00  0.00     0.019 A 
ATOM      8  C   LIG d   1       5.652   0.445  -2.687  0.00  0.00     0.012 A 
ATOM      9  C   LIG d   1       4.674   1.415  -2.611  0.00  0.00     0.171 A 
ATOM     10  N   LIG d   1       3.574   1.331  -3.338  0.00  0.00    -0.211 N 
ATOM     11  CA  LIG d   1       3.343   0.325  -4.157  0.00  0.00     0.232 A 
ATOM     12  C   LIG d   1       4.272  -0.699  -4.298  0.00  0.00     0.118 A 
ATOM     13  N   LIG d   1       4.305  -1.848  -5.063  0.00  0.00    -0.349 N 
ATOM     14  H   LIG d   1       3.563  -2.239  -5.776  0.00  0.00     0.166 HD
ATOM     15  H   LIG d   1       8.910  -3.892  -3.691  0.00  0.00     0.062 H 
ATOM     16  H   LIG d   1       7.578  -5.140  -5.341  0.00  0.00     0.062 H 
ATOM     17  H   LIG d   1       5.397  -4.293  -6.076  0.00  0.00     0.064 H 
ATOM     18  H   LIG d   1       8.063  -1.783  -2.759  0.00  0.00     0.062 H 
ATOM     19  H   LIG d   1       6.552   0.522  -2.094  0.00  0.00     0.068 H 
ATOM     20  H   LIG d   1       4.813   2.259  -1.951  0.00  0.00     0.138 H 
ATOM     21  H   LIG d   1       2.810   2.119  -3.272  0.00  0.00     0.453 HD
ENDROOT
BRANCH  11  22
ATOM     22  C   LIG d   1       2.063   0.288  -4.950  0.00  0.00     0.131 C 
ATOM     23  H1  LIG d   1       1.376  -0.447  -4.505  0.00  0.00     0.067 H 
ATOM     24  H2  LIG d   1       1.594   1.283  -4.937  0.00  0.00     0.067 H 
BRANCH  22  25
ATOM     25  O   LIG d   1       2.350  -0.085  -6.300  0.00  0.00    -0.384 OA
ATOM     26  H   LIG d   1       1.736   0.312  -7.122  0.00  0.00     0.210 HD
ENDBRANCH  22  25
ENDBRANCH  11  22
TORSDOF 2
ENDMDL
MODEL 10
REMARK VINA RESULT:      -5.3      9.472     11.567
REMARK  2 active torsions:
REMARK  status: ('A' for Active; 'I' for Inactive)
REMARK    1  A    between atoms: CA_11  and  C_15 
REMARK    2  A    between atoms: C_15  and  O_16 
ROOT
ATOM      1  C   LIG d   1       9.968   3.629  -3.852  0.00  0.00    -0.061 A 
ATOM      2  C   LIG d   1       9.356   4.431  -4.803  0.00  0.00    -0.060 A 
ATOM      3  C   LIG d   1       9.120   5.764  -4.547  0.00  0.00    -0.038 A 
ATOM      4  C   LIG d   1       9.494   6.317  -3.326  0.00  0.00     0.048 A 
ATOM      5  C   LIG d   1      10.113   5.504  -2.364  0.00  0.00     0.008 A 
ATOM      6  C   LIG d   1      10.347   4.158  -2.638  0.00  0.00    -0.052 A 
ATOM      7  C   LIG d   1      10.383   6.365  -1.203  0.00  0.00     0.019 A 
ATOM      8  C   LIG d   1      10.965   6.168   0.049  0.00  0.00     0.012 A 
ATOM      9  C   LIG d   1      11.053   7.239   0.915  0.00  0.00     0.171 A 
ATOM     10  N   LIG d   1      10.604   8.432   0.569  0.00  0.00    -0.211 N 
ATOM     11  CA  LIG d   1      10.041   8.665  -0.599  0.00  0.00     0.232 A 
ATOM     12  C   LIG d   1       9.909   7.646  -1.535  0.00  0.00     0.118 A 
ATOM     13  N   LIG d   1       9.381   7.596  -2.810  0.00  0.00    -0.349 N 
ATOM     14  H   LIG d   1       8.919   8.392  -3.412  0.00  0.00     0.166 HD
ATOM     15  H   LIG d   1      10.150   2.585  -4.065  0.00  0.00     0.062 H 
ATOM     16  H   LIG d   1       9.062   4.008  -5.753  0.00  0.00     0.062 H 
ATOM     17  H   LIG d   1       8.642   6.381  -5.295  0.00  0.00     0.064 H 
ATOM     18  H   LIG d   1      10.823   3.529  -1.899  0.00  0.00     0.062 H 
ATOM     19  H   LIG d   1      11.339   5.196   0.335  0.00  0.00     0.068 H 
ATOM     20  H   LIG d   1      11.502   7.100   1.887  0.00  0.00     0.138 H 
ATOM     21  H   LIG d   1      10.692   9.276   1.269  0.00  0.00     0.453 HD
ENDROOT
BRANCH  11  22
ATOM     22  C   LIG d   1       9.543  10.049  -0.925  0.00  0.00     0.131 C 
ATOM     23  H1  LIG d   1       9.703  10.710  -0.060  0.00  0.00     0.067 H 
ATOM     24  H2  LIG d   1      10.094  10.442  -1.793  0.00  0.00     0.067 H 
BRANCH  22  25
ATOM     25  O   LIG d   1       8.149   9.994  -1.231  0.00  0.00    -0.384 OA
ATOM     26  H   LIG d   1       7.412   9.878  -0.422  0.00  0.00     0.210 HD
ENDBRANCH  22  25
ENDBRANCH  11  22
TORSDOF 2
ENDMDL
