MODEL 1
REMARK VINA RESULT:      -5.7      0.000      0.000
REMARK  4 active torsions:
REMARK  status: ('A' for Active; 'I' for Inactive)
REMARK    1  A    between atoms: C_5  and  C_7 
REMARK    2  A    between atoms: C_9  and  C_12 
REMARK    3  A    between atoms: C_12  and  C_13 
REMARK    4  A    between atoms: C_13  and  N_17 
ROOT
ATOM      1  C   LIG d   1       3.316   0.178  -5.524  0.00  0.00     0.185 A 
ATOM      2  C   LIG d   1       3.387  -0.451  -6.728  0.00  0.00     0.010 A 
ATOM      3  C   LIG d   1       2.932   0.440  -7.711  0.00  0.00     0.086 A 
ATOM      4  N   LIG d   1       2.598   1.557  -7.127  0.00  0.00    -0.083 NA
ATOM      5  O   LIG d   1       2.828   1.414  -5.737  0.00  0.00    -0.353 OA
ATOM      6  H   LIG d   1       3.735  -1.460  -6.898  0.00  0.00     0.068 H 
ENDROOT
BRANCH   3   7
ATOM      7  C   LIG d   1       2.841   0.155  -9.188  0.00  0.00     0.015 C 
ATOM      8  H   LIG d   1       3.035  -0.904  -9.365  0.00  0.00     0.035 H 
ATOM      9  H   LIG d   1       1.843   0.406  -9.547  0.00  0.00     0.035 H 
BRANCH   7  10
ATOM     10  C   LIG d   1       3.879   0.994  -9.936  0.00  0.00     0.069 C 
ATOM     11  C   LIG d   1       5.336   0.635  -9.591  0.00  0.00     0.068 C 
ATOM     12  O   LIG d   1       5.577   0.736 -11.008  0.00  0.00    -0.376 OA
ATOM     13  H   LIG d   1       5.848   1.395  -9.000  0.00  0.00     0.058 H 
ATOM     14  H   LIG d   1       5.459  -0.372  -9.193  0.00  0.00     0.058 H 
ATOM     15  C   LIG d   1       4.202   0.469 -11.347  0.00  0.00     0.068 C 
ATOM     16  H   LIG d   1       3.980  -0.589 -11.486  0.00  0.00     0.058 H 
ATOM     17  H   LIG d   1       3.816   1.097 -12.151  0.00  0.00     0.058 H 
BRANCH  10  18
ATOM     18  N   LIG d   1       3.595   2.435  -9.887  0.00  0.00    -0.321 N 
ATOM     19  H   LIG d   1       4.449   2.972  -9.873  0.00  0.00     0.119 HD
ATOM     20  H   LIG d   1       3.005   2.714 -10.657  0.00  0.00     0.119 HD
ENDBRANCH  10  18
ENDBRANCH   7  10
ENDBRANCH   3   7
BRANCH   1  21
ATOM     21  C   LIG d   1       3.699  -0.396  -4.217  0.00  0.00     0.109 A 
ATOM     22  N   LIG d   1       3.850  -1.709  -4.092  0.00  0.00    -0.252 NA
ATOM     23  C   LIG d   1       4.190  -2.259  -2.945  0.00  0.00     0.028 A 
ATOM     24  C   LIG d   1       4.405  -1.483  -1.820  0.00  0.00    -0.044 A 
ATOM     25  H   LIG d   1       4.305  -3.332  -2.882  0.00  0.00     0.083 H 
ATOM     26  C   LIG d   1       4.258  -0.105  -1.905  0.00  0.00    -0.058 A 
ATOM     27  H   LIG d   1       4.685  -1.943  -0.884  0.00  0.00     0.063 H 
ATOM     28  C   LIG d   1       3.899   0.447  -3.123  0.00  0.00    -0.033 A 
ATOM     29  H   LIG d   1       4.415   0.521  -1.041  0.00  0.00     0.062 H 
ATOM     30  H   LIG d   1       3.776   1.515  -3.225  0.00  0.00     0.064 H 
ENDBRANCH   1  21
TORSDOF 4
ENDMDL
MODEL 2
REMARK VINA RESULT:      -5.6      1.681      2.087
REMARK  4 active torsions:
REMARK  status: ('A' for Active; 'I' for Inactive)
REMARK    1  A    between atoms: C_5  and  C_7 
REMARK    2  A    between atoms: C_9  and  C_12 
REMARK    3  A    between atoms: C_12  and  C_13 
REMARK    4  A    between atoms: C_13  and  N_17 
ROOT
ATOM      1  C   LIG d   1       3.865  -0.548  -5.743  0.00  0.00     0.185 A 
ATOM      2  C   LIG d   1       3.268   0.314  -6.611  0.00  0.00     0.010 A 
ATOM      3  C   LIG d   1       3.286  -0.272  -7.885  0.00  0.00     0.086 A 
ATOM      4  N   LIG d   1       3.869  -1.435  -7.792  0.00  0.00    -0.083 NA
ATOM      5  O   LIG d   1       4.250  -1.631  -6.443  0.00  0.00    -0.353 OA
ATOM      6  H   LIG d   1       2.852   1.279  -6.362  0.00  0.00     0.068 H 
ENDROOT
BRANCH   3   7
ATOM      7  C   LIG d   1       2.730   0.338  -9.146  0.00  0.00     0.015 C 
ATOM      8  H   LIG d   1       2.382  -0.454  -9.810  0.00  0.00     0.035 H 
ATOM      9  H   LIG d   1       1.896   0.994  -8.895  0.00  0.00     0.035 H 
BRANCH   7  10
ATOM     10  C   LIG d   1       3.823   1.147  -9.847  0.00  0.00     0.069 C 
ATOM     11  C   LIG d   1       3.835   2.639  -9.467  0.00  0.00     0.068 C 
ATOM     12  O   LIG d   1       5.267   2.493  -9.394  0.00  0.00    -0.376 OA
ATOM     13  H   LIG d   1       3.499   3.300 -10.266  0.00  0.00     0.058 H 
ATOM     14  H   LIG d   1       3.363   2.853  -8.508  0.00  0.00     0.058 H 
ATOM     15  C   LIG d   1       5.194   1.074  -9.150  0.00  0.00     0.068 C 
ATOM     16  H   LIG d   1       5.138   0.810  -8.094  0.00  0.00     0.058 H 
ATOM     17  H   LIG d   1       5.937   0.493  -9.697  0.00  0.00     0.058 H 
BRANCH  10  18
ATOM     18  N   LIG d   1       3.877   0.903 -11.295  0.00  0.00    -0.321 N 
ATOM     19  H   LIG d   1       3.842  -0.085 -11.498  0.00  0.00     0.119 HD
ATOM     20  H   LIG d   1       3.138   1.396 -11.774  0.00  0.00     0.119 HD
ENDBRANCH  10  18
ENDBRANCH   7  10
ENDBRANCH   3   7
BRANCH   1  21
ATOM     21  C   LIG d   1       4.060  -0.329  -4.294  0.00  0.00     0.109 A 
ATOM     22  N   LIG d   1       4.204   0.905  -3.827  0.00  0.00    -0.252 NA
ATOM     23  C   LIG d   1       4.380   1.140  -2.543  0.00  0.00     0.028 A 
ATOM     24  C   LIG d   1       4.420   0.104  -1.629  0.00  0.00    -0.044 A 
ATOM     25  H   LIG d   1       4.494   2.159  -2.199  0.00  0.00     0.083 H 
ATOM     26  C   LIG d   1       4.274  -1.203  -2.074  0.00  0.00    -0.058 A 
ATOM     27  H   LIG d   1       4.564   0.308  -0.578  0.00  0.00     0.063 H 
ATOM     28  C   LIG d   1       4.091  -1.423  -3.428  0.00  0.00    -0.033 A 
ATOM     29  H   LIG d   1       4.305  -2.029  -1.380  0.00  0.00     0.062 H 
ATOM     30  H   LIG d   1       3.973  -2.426  -3.808  0.00  0.00     0.064 H 
ENDBRANCH   1  21
TORSDOF 4
ENDMDL
MODEL 3
REMARK VINA RESULT:      -5.6      1.917      2.312
REMARK  4 active torsions:
REMARK  status: ('A' for Active; 'I' for Inactive)
REMARK    1  A    between atoms: C_5  and  C_7 
REMARK    2  A    between atoms: C_9  and  C_12 
REMARK    3  A    between atoms: C_12  and  C_13 
REMARK    4  A    between atoms: C_13  and  N_17 
ROOT
ATOM      1  C   LIG d   1       4.143  -0.050  -5.769  0.00  0.00     0.185 A 
ATOM      2  C   LIG d   1       3.004  -0.037  -6.513  0.00  0.00     0.010 A 
ATOM      3  C   LIG d   1       3.352   0.289  -7.832  0.00  0.00     0.086 A 
ATOM      4  N   LIG d   1       4.643   0.467  -7.883  0.00  0.00    -0.083 NA
ATOM      5  O   LIG d   1       5.168   0.262  -6.584  0.00  0.00    -0.353 OA
ATOM      6  H   LIG d   1       2.008  -0.242  -6.151  0.00  0.00     0.068 H 
ENDROOT
BRANCH   3   7
ATOM      7  C   LIG d   1       2.397   0.415  -8.991  0.00  0.00     0.015 C 
ATOM      8  H   LIG d   1       1.383   0.202  -8.650  0.00  0.00     0.035 H 
ATOM      9  H   LIG d   1       2.440   1.428  -9.391  0.00  0.00     0.035 H 
BRANCH   7  10
ATOM     10  C   LIG d   1       2.786  -0.582 -10.084  0.00  0.00     0.069 C 
ATOM     11  C   LIG d   1       1.640  -0.920 -11.056  0.00  0.00     0.068 C 
ATOM     12  O   LIG d   1       2.633  -0.794 -12.093  0.00  0.00    -0.376 OA
ATOM     13  H   LIG d   1       1.248  -1.930 -10.940  0.00  0.00     0.058 H 
ATOM     14  H   LIG d   1       0.860  -0.160 -11.098  0.00  0.00     0.058 H 
ATOM     15  C   LIG d   1       3.475   0.067 -11.300  0.00  0.00     0.068 C 
ATOM     16  H   LIG d   1       3.254   1.128 -11.417  0.00  0.00     0.058 H 
ATOM     17  H   LIG d   1       4.538  -0.161 -11.379  0.00  0.00     0.058 H 
BRANCH  10  18
ATOM     18  N   LIG d   1       3.488  -1.762  -9.562  0.00  0.00    -0.321 N 
ATOM     19  H   LIG d   1       3.093  -2.058  -8.682  0.00  0.00     0.119 HD
ATOM     20  H   LIG d   1       3.480  -2.516 -10.233  0.00  0.00     0.119 HD
ENDBRANCH  10  18
ENDBRANCH   7  10
ENDBRANCH   3   7
BRANCH   1  21
ATOM     21  C   LIG d   1       4.237  -0.347  -4.323  0.00  0.00     0.109 A 
ATOM     22  N   LIG d   1       4.649   0.593  -3.482  0.00  0.00    -0.252 NA
ATOM     23  C   LIG d   1       4.746   0.368  -2.188  0.00  0.00     0.028 A 
ATOM     24  C   LIG d   1       4.419  -0.865  -1.655  0.00  0.00    -0.044 A 
ATOM     25  H   LIG d   1       5.085   1.158  -1.534  0.00  0.00     0.083 H 
ATOM     26  C   LIG d   1       3.983  -1.879  -2.499  0.00  0.00    -0.058 A 
ATOM     27  H   LIG d   1       4.501  -1.040  -0.592  0.00  0.00     0.063 H 
ATOM     28  C   LIG d   1       3.891  -1.615  -3.854  0.00  0.00    -0.033 A 
ATOM     29  H   LIG d   1       3.726  -2.851  -2.107  0.00  0.00     0.062 H 
ATOM     30  H   LIG d   1       3.556  -2.380  -4.539  0.00  0.00     0.064 H 
ENDBRANCH   1  21
TORSDOF 4
ENDMDL
MODEL 4
REMARK VINA RESULT:      -5.5      1.983      6.344
REMARK  4 active torsions:
REMARK  status: ('A' for Active; 'I' for Inactive)
REMARK    1  A    between atoms: C_5  and  C_7 
REMARK    2  A    between atoms: C_9  and  C_12 
REMARK    3  A    between atoms: C_12  and  C_13 
REMARK    4  A    between atoms: C_13  and  N_17 
ROOT
ATOM      1  C   LIG d   1       2.996   0.696  -7.331  0.00  0.00     0.185 A 
ATOM      2  C   LIG d   1       3.029  -0.265  -6.368  0.00  0.00     0.010 A 
ATOM      3  C   LIG d   1       2.720   0.340  -5.141  0.00  0.00     0.086 A 
ATOM      4  N   LIG d   1       2.512   1.610  -5.352  0.00  0.00    -0.083 NA
ATOM      5  O   LIG d   1       2.685   1.862  -6.734  0.00  0.00    -0.353 OA
ATOM      6  H   LIG d   1       3.252  -1.310  -6.522  0.00  0.00     0.068 H 
ENDROOT
BRANCH   3   7
ATOM      7  C   LIG d   1       2.645  -0.357  -3.807  0.00  0.00     0.015 C 
ATOM      8  H   LIG d   1       1.711  -0.091  -3.311  0.00  0.00     0.035 H 
ATOM      9  H   LIG d   1       2.681  -1.436  -3.958  0.00  0.00     0.035 H 
BRANCH   7  10
ATOM     10  C   LIG d   1       3.826   0.077  -2.937  0.00  0.00     0.069 C 
ATOM     11  C   LIG d   1       4.328  -1.018  -1.978  0.00  0.00     0.068 C 
ATOM     12  O   LIG d   1       5.650  -0.602  -2.375  0.00  0.00    -0.376 OA
ATOM     13  H   LIG d   1       4.101  -0.823  -0.929  0.00  0.00     0.058 H 
ATOM     14  H   LIG d   1       4.071  -2.030  -2.290  0.00  0.00     0.058 H 
ATOM     15  C   LIG d   1       5.194  -0.062  -3.632  0.00  0.00     0.068 C 
ATOM     16  H   LIG d   1       5.202  -0.783  -4.449  0.00  0.00     0.058 H 
ATOM     17  H   LIG d   1       5.654   0.890  -3.895  0.00  0.00     0.058 H 
BRANCH  10  18
ATOM     18  N   LIG d   1       3.616   1.380  -2.292  0.00  0.00    -0.321 N 
ATOM     19  H   LIG d   1       3.975   1.379  -1.348  0.00  0.00     0.119 HD
ATOM     20  H   LIG d   1       4.030   2.124  -2.834  0.00  0.00     0.119 HD
ENDBRANCH  10  18
ENDBRANCH   7  10
ENDBRANCH   3   7
BRANCH   1  21
ATOM     21  C   LIG d   1       3.259   0.495  -8.772  0.00  0.00     0.109 A 
ATOM     22  N   LIG d   1       3.143  -0.717  -9.301  0.00  0.00    -0.252 NA
ATOM     23  C   LIG d   1       3.370  -0.936 -10.580  0.00  0.00     0.028 A 
ATOM     24  C   LIG d   1       3.739   0.095 -11.424  0.00  0.00    -0.044 A 
ATOM     25  H   LIG d   1       3.264  -1.936 -10.975  0.00  0.00     0.083 H 
ATOM     26  C   LIG d   1       3.872   1.379 -10.913  0.00  0.00    -0.058 A 
ATOM     27  H   LIG d   1       3.921  -0.095 -12.471  0.00  0.00     0.063 H 
ATOM     28  C   LIG d   1       3.629   1.582  -9.565  0.00  0.00    -0.033 A 
ATOM     29  H   LIG d   1       4.163   2.200 -11.551  0.00  0.00     0.062 H 
ATOM     30  H   LIG d   1       3.724   2.567  -9.135  0.00  0.00     0.064 H 
ENDBRANCH   1  21
TORSDOF 4
ENDMDL
MODEL 5
REMARK VINA RESULT:      -5.3      5.942      7.218
REMARK  4 active torsions:
REMARK  status: ('A' for Active; 'I' for Inactive)
REMARK    1  A    between atoms: C_5  and  C_7 
REMARK    2  A    between atoms: C_9  and  C_12 
REMARK    3  A    between atoms: C_12  and  C_13 
REMARK    4  A    between atoms: C_13  and  N_17 
ROOT
ATOM      1  C   LIG d   1       7.589   0.831  -3.836  0.00  0.00     0.185 A 
ATOM      2  C   LIG d   1       8.016   2.122  -3.791  0.00  0.00     0.010 A 
ATOM      3  C   LIG d   1       9.192   2.216  -4.551  0.00  0.00     0.086 A 
ATOM      4  N   LIG d   1       9.464   1.035  -5.032  0.00  0.00    -0.083 NA
ATOM      5  O   LIG d   1       8.464   0.137  -4.588  0.00  0.00    -0.353 OA
ATOM      6  H   LIG d   1       7.535   2.932  -3.264  0.00  0.00     0.068 H 
ENDROOT
BRANCH   3   7
ATOM      7  C   LIG d   1      10.003   3.467  -4.771  0.00  0.00     0.015 C 
ATOM      8  H   LIG d   1      10.632   3.341  -5.653  0.00  0.00     0.035 H 
ATOM      9  H   LIG d   1       9.333   4.314  -4.920  0.00  0.00     0.035 H 
BRANCH   7  10
ATOM     10  C   LIG d   1      10.886   3.725  -3.548  0.00  0.00     0.069 C 
ATOM     11  C   LIG d   1      11.972   4.792  -3.778  0.00  0.00     0.068 C 
ATOM     12  O   LIG d   1      11.605   5.285  -2.475  0.00  0.00    -0.376 OA
ATOM     13  H   LIG d   1      12.984   4.387  -3.828  0.00  0.00     0.058 H 
ATOM     14  H   LIG d   1      11.747   5.482  -4.591  0.00  0.00     0.058 H 
ATOM     15  C   LIG d   1      10.280   4.721  -2.542  0.00  0.00     0.068 C 
ATOM     16  H   LIG d   1       9.538   5.391  -2.978  0.00  0.00     0.058 H 
ATOM     17  H   LIG d   1       9.948   4.262  -1.611  0.00  0.00     0.058 H 
BRANCH  10  18
ATOM     18  N   LIG d   1      11.389   2.489  -2.933  0.00  0.00    -0.321 N 
ATOM     19  H   LIG d   1      12.148   2.099  -3.472  0.00  0.00     0.119 HD
ATOM     20  H   LIG d   1      11.672   2.650  -1.977  0.00  0.00     0.119 HD
ENDBRANCH  10  18
ENDBRANCH   7  10
ENDBRANCH   3   7
BRANCH   1  21
ATOM     21  C   LIG d   1       6.385   0.288  -3.173  0.00  0.00     0.109 A 
ATOM     22  N   LIG d   1       5.577   1.102  -2.504  0.00  0.00    -0.252 NA
ATOM     23  C   LIG d   1       4.495   0.657  -1.899  0.00  0.00     0.028 A 
ATOM     24  C   LIG d   1       4.157  -0.684  -1.941  0.00  0.00    -0.044 A 
ATOM     25  H   LIG d   1       3.861   1.349  -1.365  0.00  0.00     0.083 H 
ATOM     26  C   LIG d   1       4.974  -1.571  -2.630  0.00  0.00    -0.058 A 
ATOM     27  H   LIG d   1       3.267  -1.038  -1.443  0.00  0.00     0.063 H 
ATOM     28  C   LIG d   1       6.105  -1.077  -3.256  0.00  0.00    -0.033 A 
ATOM     29  H   LIG d   1       4.734  -2.622  -2.673  0.00  0.00     0.062 H 
ATOM     30  H   LIG d   1       6.763  -1.738  -3.800  0.00  0.00     0.064 H 
ENDBRANCH   1  21
TORSDOF 4
ENDMDL
MODEL 6
REMARK VINA RESULT:      -5.3      3.957      5.357
REMARK  4 active torsions:
REMARK  status: ('A' for Active; 'I' for Inactive)
REMARK    1  A    between atoms: C_5  and  C_7 
REMARK    2  A    between atoms: C_9  and  C_12 
REMARK    3  A    between atoms: C_12  and  C_13 
REMARK    4  A    between atoms: C_13  and  N_17 
ROOT
ATOM      1  C   LIG d   1       4.620  -1.414  -5.152  0.00  0.00     0.185 A 
ATOM      2  C   LIG d   1       5.167  -2.658  -5.094  0.00  0.00     0.010 A 
ATOM      3  C   LIG d   1       5.186  -3.184  -6.395  0.00  0.00     0.086 A 
ATOM      4  N   LIG d   1       4.672  -2.298  -7.201  0.00  0.00    -0.083 NA
ATOM      5  O   LIG d   1       4.299  -1.167  -6.436  0.00  0.00    -0.353 OA
ATOM      6  H   LIG d   1       5.525  -3.154  -4.204  0.00  0.00     0.068 H 
ENDROOT
BRANCH   3   7
ATOM      7  C   LIG d   1       5.708  -4.541  -6.791  0.00  0.00     0.015 C 
ATOM      8  H   LIG d   1       6.031  -4.516  -7.833  0.00  0.00     0.035 H 
ATOM      9  H   LIG d   1       6.554  -4.805  -6.156  0.00  0.00     0.035 H 
BRANCH   7  10
ATOM     10  C   LIG d   1       4.601  -5.583  -6.626  0.00  0.00     0.069 C 
ATOM     11  C   LIG d   1       4.751  -6.804  -7.552  0.00  0.00     0.068 C 
ATOM     12  O   LIG d   1       4.399  -7.585  -6.393  0.00  0.00    -0.376 OA
ATOM     13  H   LIG d   1       4.011  -6.843  -8.352  0.00  0.00     0.058 H 
ATOM     14  H   LIG d   1       5.769  -6.969  -7.903  0.00  0.00     0.058 H 
ATOM     15  C   LIG d   1       4.845  -6.572  -5.470  0.00  0.00     0.068 C 
ATOM     16  H   LIG d   1       5.892  -6.666  -5.184  0.00  0.00     0.058 H 
ATOM     17  H   LIG d   1       4.180  -6.428  -4.618  0.00  0.00     0.058 H 
BRANCH  10  18
ATOM     18  N   LIG d   1       3.254  -4.996  -6.632  0.00  0.00    -0.321 N 
ATOM     19  H   LIG d   1       2.800  -5.120  -5.739  0.00  0.00     0.119 HD
ATOM     20  H   LIG d   1       3.286  -4.020  -6.888  0.00  0.00     0.119 HD
ENDBRANCH  10  18
ENDBRANCH   7  10
ENDBRANCH   3   7
BRANCH   1  21
ATOM     21  C   LIG d   1       4.409  -0.501  -4.008  0.00  0.00     0.109 A 
ATOM     22  N   LIG d   1       3.868   0.694  -4.209  0.00  0.00    -0.252 NA
ATOM     23  C   LIG d   1       3.665   1.536  -3.217  0.00  0.00     0.028 A 
ATOM     24  C   LIG d   1       4.009   1.202  -1.920  0.00  0.00    -0.044 A 
ATOM     25  H   LIG d   1       3.221   2.500  -3.420  0.00  0.00     0.083 H 
ATOM     26  C   LIG d   1       4.578  -0.038  -1.664  0.00  0.00    -0.058 A 
ATOM     27  H   LIG d   1       3.837   1.899  -1.113  0.00  0.00     0.063 H 
ATOM     28  C   LIG d   1       4.781  -0.903  -2.725  0.00  0.00    -0.033 A 
ATOM     29  H   LIG d   1       4.859  -0.319  -0.660  0.00  0.00     0.062 H 
ATOM     30  H   LIG d   1       5.222  -1.875  -2.561  0.00  0.00     0.064 H 
ENDBRANCH   1  21
TORSDOF 4
ENDMDL
MODEL 7
REMARK VINA RESULT:      -5.1      5.632      6.386
REMARK  4 active torsions:
REMARK  status: ('A' for Active; 'I' for Inactive)
REMARK    1  A    between atoms: C_5  and  C_7 
REMARK    2  A    between atoms: C_9  and  C_12 
REMARK    3  A    between atoms: C_12  and  C_13 
REMARK    4  A    between atoms: C_13  and  N_17 
ROOT
ATOM      1  C   LIG d   1       6.979   1.009  -4.243  0.00  0.00     0.185 A 
ATOM      2  C   LIG d   1       7.947   1.837  -3.765  0.00  0.00     0.010 A 
ATOM      3  C   LIG d   1       8.599   2.420  -4.862  0.00  0.00     0.086 A 
ATOM      4  N   LIG d   1       8.051   1.964  -5.953  0.00  0.00    -0.083 NA
ATOM      5  O   LIG d   1       7.022   1.062  -5.587  0.00  0.00    -0.353 OA
ATOM      6  H   LIG d   1       8.174   2.015  -2.724  0.00  0.00     0.068 H 
ENDROOT
BRANCH   3   7
ATOM      7  C   LIG d   1       9.740   3.403  -4.790  0.00  0.00     0.015 C 
ATOM      8  H   LIG d   1       9.666   4.105  -5.622  0.00  0.00     0.035 H 
ATOM      9  H   LIG d   1       9.691   3.950  -3.849  0.00  0.00     0.035 H 
BRANCH   7  10
ATOM     10  C   LIG d   1      11.069   2.650  -4.876  0.00  0.00     0.069 C 
ATOM     11  C   LIG d   1      12.306   3.566  -4.845  0.00  0.00     0.068 C 
ATOM     12  O   LIG d   1      12.864   2.594  -3.939  0.00  0.00    -0.376 OA
ATOM     13  H   LIG d   1      12.829   3.631  -5.800  0.00  0.00     0.058 H 
ATOM     14  H   LIG d   1      12.123   4.539  -4.391  0.00  0.00     0.058 H 
ATOM     15  C   LIG d   1      11.569   2.118  -3.519  0.00  0.00     0.068 C 
ATOM     16  H   LIG d   1      11.161   2.649  -2.660  0.00  0.00     0.058 H 
ATOM     17  H   LIG d   1      11.509   1.034  -3.421  0.00  0.00     0.058 H 
BRANCH  10  18
ATOM     18  N   LIG d   1      11.095   1.652  -5.953  0.00  0.00    -0.321 N 
ATOM     19  H   LIG d   1      10.299   1.035  -5.895  0.00  0.00     0.119 HD
ATOM     20  H   LIG d   1      11.142   2.097  -6.858  0.00  0.00     0.119 HD
ENDBRANCH  10  18
ENDBRANCH   7  10
ENDBRANCH   3   7
BRANCH   1  21
ATOM     21  C   LIG d   1       6.051   0.194  -3.430  0.00  0.00     0.109 A 
ATOM     22  N   LIG d   1       5.980  -1.117  -3.627  0.00  0.00    -0.252 NA
ATOM     23  C   LIG d   1       5.166  -1.877  -2.925  0.00  0.00     0.028 A 
ATOM     24  C   LIG d   1       4.350  -1.334  -1.949  0.00  0.00    -0.044 A 
ATOM     25  H   LIG d   1       5.136  -2.941  -3.113  0.00  0.00     0.083 H 
ATOM     26  C   LIG d   1       4.392   0.033  -1.709  0.00  0.00    -0.058 A 
ATOM     27  H   LIG d   1       3.687  -1.967  -1.377  0.00  0.00     0.063 H 
ATOM     28  C   LIG d   1       5.256   0.809  -2.462  0.00  0.00    -0.033 A 
ATOM     29  H   LIG d   1       3.762   0.481  -0.956  0.00  0.00     0.062 H 
ATOM     30  H   LIG d   1       5.314   1.875  -2.303  0.00  0.00     0.064 H 
ENDBRANCH   1  21
TORSDOF 4
ENDMDL
MODEL 8
REMARK VINA RESULT:      -5.0     10.822     11.848
REMARK  4 active torsions:
REMARK  status: ('A' for Active; 'I' for Inactive)
REMARK    1  A    between atoms: C_5  and  C_7 
REMARK    2  A    between atoms: C_9  and  C_12 
REMARK    3  A    between atoms: C_12  and  C_13 
REMARK    4  A    between atoms: C_13  and  N_17 
ROOT
ATOM      1  C   LIG d   1       9.535   7.746  -1.912  0.00  0.00     0.185 A 
ATOM      2  C   LIG d   1      10.111   8.904  -2.335  0.00  0.00     0.010 A 
ATOM      3  C   LIG d   1       9.585   9.955  -1.569  0.00  0.00     0.086 A 
ATOM      4  N   LIG d   1       8.728   9.455  -0.723  0.00  0.00    -0.083 NA
ATOM      5  O   LIG d   1       8.674   8.055  -0.924  0.00  0.00    -0.353 OA
ATOM      6  H   LIG d   1      10.845   8.997  -3.121  0.00  0.00     0.068 H 
ENDROOT
BRANCH   3   7
ATOM      7  C   LIG d   1       9.946  11.412  -1.704  0.00  0.00     0.015 C 
ATOM      8  H   LIG d   1       9.754  11.922  -0.759  0.00  0.00     0.035 H 
ATOM      9  H   LIG d   1      11.002  11.503  -1.958  0.00  0.00     0.035 H 
BRANCH   7  10
ATOM     10  C   LIG d   1       9.099  12.048  -2.807  0.00  0.00     0.069 C 
ATOM     11  C   LIG d   1       9.140  13.587  -2.814  0.00  0.00     0.068 C 
ATOM     12  O   LIG d   1       9.264  13.466  -4.244  0.00  0.00    -0.376 OA
ATOM     13  H   LIG d   1       8.209  14.054  -2.490  0.00  0.00     0.058 H 
ATOM     14  H   LIG d   1      10.020  14.007  -2.328  0.00  0.00     0.058 H 
ATOM     15  C   LIG d   1       9.814  12.135  -4.168  0.00  0.00     0.068 C 
ATOM     16  H   LIG d   1      10.902  12.112  -4.097  0.00  0.00     0.058 H 
ATOM     17  H   LIG d   1       9.420  11.451  -4.919  0.00  0.00     0.058 H 
BRANCH  10  18
ATOM     18  N   LIG d   1       7.741  11.490  -2.883  0.00  0.00    -0.321 N 
ATOM     19  H   LIG d   1       7.659  10.841  -3.651  0.00  0.00     0.119 HD
ATOM     20  H   LIG d   1       7.480  11.054  -2.011  0.00  0.00     0.119 HD
ENDBRANCH  10  18
ENDBRANCH   7  10
ENDBRANCH   3   7
BRANCH   1  21
ATOM     21  C   LIG d   1       9.801   6.394  -2.447  0.00  0.00     0.109 A 
ATOM     22  N   LIG d   1      10.417   5.495  -1.689  0.00  0.00    -0.252 NA
ATOM     23  C   LIG d   1      10.673   4.280  -2.129  0.00  0.00     0.028 A 
ATOM     24  C   LIG d   1      10.307   3.894  -3.405  0.00  0.00    -0.044 A 
ATOM     25  H   LIG d   1      11.176   3.575  -1.483  0.00  0.00     0.083 H 
ATOM     26  C   LIG d   1       9.660   4.802  -4.232  0.00  0.00    -0.058 A 
ATOM     27  H   LIG d   1      10.520   2.895  -3.756  0.00  0.00     0.063 H 
ATOM     28  C   LIG d   1       9.404   6.072  -3.745  0.00  0.00    -0.033 A 
ATOM     29  H   LIG d   1       9.368   4.526  -5.234  0.00  0.00     0.062 H 
ATOM     30  H   LIG d   1       8.903   6.804  -4.362  0.00  0.00     0.064 H 
ENDBRANCH   1  21
TORSDOF 4
ENDMDL
MODEL 9
REMARK VINA RESULT:      -5.0      4.454      6.716
REMARK  4 active torsions:
REMARK  status: ('A' for Active; 'I' for Inactive)
REMARK    1  A    between atoms: C_5  and  C_7 
REMARK    2  A    between atoms: C_9  and  C_12 
REMARK    3  A    between atoms: C_12  and  C_13 
REMARK    4  A    between atoms: C_13  and  N_17 
ROOT
ATOM      1  C   LIG d   1       7.770   1.021  -4.025  0.00  0.00     0.185 A 
ATOM      2  C   LIG d   1       6.643   0.941  -3.267  0.00  0.00     0.010 A 
ATOM      3  C   LIG d   1       6.181  -0.384  -3.315  0.00  0.00     0.086 A 
ATOM      4  N   LIG d   1       6.992  -1.072  -4.069  0.00  0.00    -0.083 NA
ATOM      5  O   LIG d   1       8.007  -0.202  -4.536  0.00  0.00    -0.353 OA
ATOM      6  H   LIG d   1       6.184   1.753  -2.724  0.00  0.00     0.068 H 
ENDROOT
BRANCH   3   7
ATOM      7  C   LIG d   1       4.957  -0.917  -2.617  0.00  0.00     0.015 C 
ATOM      8  H   LIG d   1       5.197  -1.868  -2.140  0.00  0.00     0.035 H 
ATOM      9  H   LIG d   1       4.629  -0.204  -1.861  0.00  0.00     0.035 H 
BRANCH   7  10
ATOM     10  C   LIG d   1       3.838  -1.129  -3.639  0.00  0.00     0.069 C 
ATOM     11  C   LIG d   1       2.434  -0.794  -3.103  0.00  0.00     0.068 C 
ATOM     12  O   LIG d   1       2.226  -0.148  -4.374  0.00  0.00    -0.376 OA
ATOM     13  H   LIG d   1       1.803  -1.669  -2.944  0.00  0.00     0.058 H 
ATOM     14  H   LIG d   1       2.437  -0.109  -2.255  0.00  0.00     0.058 H 
ATOM     15  C   LIG d   1       3.635   0.063  -4.594  0.00  0.00     0.068 C 
ATOM     16  H   LIG d   1       4.005   1.010  -4.201  0.00  0.00     0.058 H 
ATOM     17  H   LIG d   1       3.956  -0.131  -5.617  0.00  0.00     0.058 H 
BRANCH  10  18
ATOM     18  N   LIG d   1       3.919  -2.429  -4.319  0.00  0.00    -0.321 N 
ATOM     19  H   LIG d   1       3.011  -2.867  -4.372  0.00  0.00     0.119 HD
ATOM     20  H   LIG d   1       4.328  -2.333  -5.237  0.00  0.00     0.119 HD
ENDBRANCH  10  18
ENDBRANCH   7  10
ENDBRANCH   3   7
BRANCH   1  21
ATOM     21  C   LIG d   1       8.584   2.234  -4.251  0.00  0.00     0.109 A 
ATOM     22  N   LIG d   1       9.082   2.896  -3.214  0.00  0.00    -0.252 NA
ATOM     23  C   LIG d   1       9.811   3.981  -3.373  0.00  0.00     0.028 A 
ATOM     24  C   LIG d   1      10.087   4.473  -4.636  0.00  0.00    -0.044 A 
ATOM     25  H   LIG d   1      10.201   4.493  -2.505  0.00  0.00     0.083 H 
ATOM     26  C   LIG d   1       9.586   3.812  -5.749  0.00  0.00    -0.058 A 
ATOM     27  H   LIG d   1      10.688   5.363  -4.756  0.00  0.00     0.063 H 
ATOM     28  C   LIG d   1       8.822   2.675  -5.553  0.00  0.00    -0.033 A 
ATOM     29  H   LIG d   1       9.784   4.179  -6.745  0.00  0.00     0.062 H 
ATOM     30  H   LIG d   1       8.416   2.136  -6.397  0.00  0.00     0.064 H 
ENDBRANCH   1  21
TORSDOF 4
ENDMDL
MODEL 10
REMARK VINA RESULT:      -5.0      4.975      5.913
REMARK  4 active torsions:
REMARK  status: ('A' for Active; 'I' for Inactive)
REMARK    1  A    between atoms: C_5  and  C_7 
REMARK    2  A    between atoms: C_9  and  C_12 
REMARK    3  A    between atoms: C_12  and  C_13 
REMARK    4  A    between atoms: C_13  and  N_17 
ROOT
ATOM      1  C   LIG d   1       6.630   0.246  -3.951  0.00  0.00     0.185 A 
ATOM      2  C   LIG d   1       7.234   1.390  -3.531  0.00  0.00     0.010 A 
ATOM      3  C   LIG d   1       8.543   1.401  -4.037  0.00  0.00     0.086 A 
ATOM      4  N   LIG d   1       8.721   0.312  -4.731  0.00  0.00    -0.083 NA
ATOM      5  O   LIG d   1       7.523  -0.441  -4.688  0.00  0.00    -0.353 OA
ATOM      6  H   LIG d   1       6.786   2.156  -2.916  0.00  0.00     0.068 H 
ENDROOT
BRANCH   3   7
ATOM      7  C   LIG d   1       9.566   2.484  -3.815  0.00  0.00     0.015 C 
ATOM      8  H   LIG d   1       9.266   3.097  -2.964  0.00  0.00     0.035 H 
ATOM      9  H   LIG d   1      10.537   2.032  -3.612  0.00  0.00     0.035 H 
BRANCH   7  10
ATOM     10  C   LIG d   1       9.662   3.361  -5.065  0.00  0.00     0.069 C 
ATOM     11  C   LIG d   1       9.324   4.842  -4.815  0.00  0.00     0.068 C 
ATOM     12  O   LIG d   1      10.469   5.126  -5.644  0.00  0.00    -0.376 OA
ATOM     13  H   LIG d   1       8.375   5.156  -5.250  0.00  0.00     0.058 H 
ATOM     14  H   LIG d   1       9.443   5.152  -3.777  0.00  0.00     0.058 H 
ATOM     15  C   LIG d   1      11.090   3.854  -5.370  0.00  0.00     0.068 C 
ATOM     16  H   LIG d   1      11.748   3.863  -4.501  0.00  0.00     0.058 H 
ATOM     17  H   LIG d   1      11.541   3.386  -6.245  0.00  0.00     0.058 H 
BRANCH  10  18
ATOM     18  N   LIG d   1       8.972   2.782  -6.226  0.00  0.00    -0.321 N 
ATOM     19  H   LIG d   1       9.406   3.076  -7.089  0.00  0.00     0.119 HD
ATOM     20  H   LIG d   1       8.939   1.775  -6.163  0.00  0.00     0.119 HD
ENDBRANCH  10  18
ENDBRANCH   7  10
ENDBRANCH   3   7
BRANCH   1  21
ATOM     21  C   LIG d   1       5.244  -0.170  -3.648  0.00  0.00     0.109 A 
ATOM     22  N   LIG d   1       4.227   0.436  -4.249  0.00  0.00    -0.252 NA
ATOM     23  C   LIG d   1       2.979   0.095  -4.005  0.00  0.00     0.028 A 
ATOM     24  C   LIG d   1       2.679  -0.914  -3.109  0.00  0.00    -0.044 A 
ATOM     25  H   LIG d   1       2.177   0.611  -4.514  0.00  0.00     0.083 H 
ATOM     26  C   LIG d   1       3.712  -1.575  -2.457  0.00  0.00    -0.058 A 
ATOM     27  H   LIG d   1       1.652  -1.187  -2.917  0.00  0.00     0.063 H 
ATOM     28  C   LIG d   1       5.015  -1.197  -2.731  0.00  0.00    -0.033 A 
ATOM     29  H   LIG d   1       3.503  -2.364  -1.750  0.00  0.00     0.062 H 
ATOM     30  H   LIG d   1       5.842  -1.689  -2.242  0.00  0.00     0.064 H 
ENDBRANCH   1  21
TORSDOF 4
ENDMDL
