MODEL 1
REMARK VINA RESULT:      -7.6      0.000      0.000
REMARK  7 active torsions:
REMARK  status: ('A' for Active; 'I' for Inactive)
REMARK    1  A    between atoms: C_1  and  O_2 
REMARK    2  A    between atoms: O_2  and  C_3 
REMARK    3  A    between atoms: C_6  and  C_22 
REMARK    4  A    between atoms: C_8  and  N_9 
REMARK       I    between atoms: N_9  and  C_10 
REMARK    5  A    between atoms: C_10  and  C_12 
REMARK    6  A    between atoms: C_12  and  C_13 
REMARK    7  A    between atoms: C_12  and  C_17 
ROOT
ATOM      1  C   LIG d   1       4.146  -1.770  -7.651  0.00  0.00     0.141 A 
ATOM      2  C   LIG d   1       3.645  -1.761  -8.943  0.00  0.00    -0.018 A 
ATOM      3  C   LIG d   1       3.473  -0.562  -9.609  0.00  0.00    -0.046 A 
ATOM      4  C   LIG d   1       3.801   0.629  -8.991  0.00  0.00     0.057 A 
ATOM      5  C   LIG d   1       4.301   0.629  -7.702  0.00  0.00    -0.025 A 
ATOM      6  C   LIG d   1       4.471  -0.569  -7.025  0.00  0.00     0.076 A 
ATOM      7  H   LIG d   1       3.388  -2.691  -9.429  0.00  0.00     0.066 H 
ATOM      8  H   LIG d   1       3.082  -0.558 -10.616  0.00  0.00     0.062 H 
ATOM      9  H   LIG d   1       4.556   1.563  -7.222  0.00  0.00     0.064 H 
ENDROOT
BRANCH   6  10
ATOM     10  N   LIG d   1       4.974  -0.572  -5.717  0.00  0.00    -0.281 N 
ATOM     11  C   LIG d   1       4.169  -0.250  -4.685  0.00  0.00     0.252 C 
ATOM     12  O   LIG d   1       2.987  -0.057  -4.876  0.00  0.00    -0.273 OA
ATOM     13  H   LIG d   1       5.901  -0.805  -5.554  0.00  0.00     0.155 HD
BRANCH  11  14
ATOM     14  C   LIG d   1       4.737  -0.132  -3.295  0.00  0.00     0.289 C 
ATOM     15 BR   LIG d   1       6.553   0.616  -3.389  0.00  0.00    -0.056 Br
BRANCH  14  16
ATOM     16  C   LIG d   1       3.848   0.791  -2.457  0.00  0.00     0.422 C 
ATOM     17  F   LIG d   1       4.458   1.030  -1.221  0.00  0.00    -0.168 F 
ATOM     18  F   LIG d   1       3.669   2.004  -3.132  0.00  0.00    -0.168 F 
ATOM     19  F   LIG d   1       2.605   0.181  -2.254  0.00  0.00    -0.168 F 
ENDBRANCH  14  16
BRANCH  14  20
ATOM     20  C   LIG d   1       4.789  -1.517  -2.645  0.00  0.00     0.422 C 
ATOM     21  F   LIG d   1       3.823  -2.341  -3.230  0.00  0.00    -0.168 F 
ATOM     22  F   LIG d   1       6.057  -2.074  -2.837  0.00  0.00    -0.168 F 
ATOM     23  F   LIG d   1       4.534  -1.398  -1.275  0.00  0.00    -0.168 F 
ENDBRANCH  14  20
ENDBRANCH  11  14
ENDBRANCH   6  10
BRANCH   1  24
ATOM     24  O   LIG d   1       4.315  -2.949  -6.993  0.00  0.00    -0.493 OA
BRANCH  24  25
ATOM     25  C   LIG d   1       3.962  -4.141  -7.697  0.00  0.00     0.079 C 
ATOM     26  H   LIG d   1       3.366  -3.884  -8.573  0.00  0.00     0.066 H 
ATOM     27  H   LIG d   1       4.869  -4.657  -8.015  0.00  0.00     0.066 H 
ATOM     28  H   LIG d   1       3.384  -4.793  -7.043  0.00  0.00     0.066 H 
ENDBRANCH  24  25
ENDBRANCH   1  24
BRANCH   4  29
ATOM     29  C   LIG d   1       3.613   1.933  -9.723  0.00  0.00     0.417 C 
ATOM     30  F   LIG d   1       4.596   2.843  -9.316  0.00  0.00    -0.166 F 
ATOM     31  F   LIG d   1       3.722   1.714 -11.101  0.00  0.00    -0.166 F 
ATOM     32  F   LIG d   1       2.347   2.454  -9.433  0.00  0.00    -0.166 F 
ENDBRANCH   4  29
TORSDOF 7
ENDMDL
MODEL 2
REMARK VINA RESULT:      -7.6      1.278      2.290
REMARK  7 active torsions:
REMARK  status: ('A' for Active; 'I' for Inactive)
REMARK    1  A    between atoms: C_1  and  O_2 
REMARK    2  A    between atoms: O_2  and  C_3 
REMARK    3  A    between atoms: C_6  and  C_22 
REMARK    4  A    between atoms: C_8  and  N_9 
REMARK       I    between atoms: N_9  and  C_10 
REMARK    5  A    between atoms: C_10  and  C_12 
REMARK    6  A    between atoms: C_12  and  C_13 
REMARK    7  A    between atoms: C_12  and  C_17 
ROOT
ATOM      1  C   LIG d   1       4.207  -1.723  -7.644  0.00  0.00     0.141 A 
ATOM      2  C   LIG d   1       4.439  -1.711  -9.010  0.00  0.00    -0.018 A 
ATOM      3  C   LIG d   1       4.287  -0.539  -9.727  0.00  0.00    -0.046 A 
ATOM      4  C   LIG d   1       3.905   0.623  -9.085  0.00  0.00     0.057 A 
ATOM      5  C   LIG d   1       3.672   0.620  -7.722  0.00  0.00    -0.025 A 
ATOM      6  C   LIG d   1       3.816  -0.554  -6.997  0.00  0.00     0.076 A 
ATOM      7  H   LIG d   1       4.738  -2.619  -9.516  0.00  0.00     0.066 H 
ATOM      8  H   LIG d   1       4.469  -0.532 -10.792  0.00  0.00     0.062 H 
ATOM      9  H   LIG d   1       3.373   1.530  -7.223  0.00  0.00     0.064 H 
ENDROOT
BRANCH   6  10
ATOM     10  N   LIG d   1       3.576  -0.561  -5.617  0.00  0.00    -0.281 N 
ATOM     11  C   LIG d   1       4.552  -0.196  -4.761  0.00  0.00     0.252 C 
ATOM     12  O   LIG d   1       5.603   0.234  -5.188  0.00  0.00    -0.273 OA
ATOM     13  H   LIG d   1       2.709  -0.829  -5.277  0.00  0.00     0.155 HD
BRANCH  11  14
ATOM     14  C   LIG d   1       4.336  -0.322  -3.275  0.00  0.00     0.289 C 
ATOM     15 BR   LIG d   1       2.447  -0.729  -2.918  0.00  0.00    -0.056 Br
BRANCH  14  16
ATOM     16  C   LIG d   1       5.213  -1.450  -2.726  0.00  0.00     0.422 C 
ATOM     17  F   LIG d   1       5.176  -2.538  -3.604  0.00  0.00    -0.168 F 
ATOM     18  F   LIG d   1       6.531  -0.996  -2.600  0.00  0.00    -0.168 F 
ATOM     19  F   LIG d   1       4.734  -1.845  -1.472  0.00  0.00    -0.168 F 
ENDBRANCH  14  16
BRANCH  14  20
ATOM     20  C   LIG d   1       4.713   0.995  -2.592  0.00  0.00     0.422 C 
ATOM     21  F   LIG d   1       4.563   0.861  -1.208  0.00  0.00    -0.168 F 
ATOM     22  F   LIG d   1       6.043   1.311  -2.890  0.00  0.00    -0.168 F 
ATOM     23  F   LIG d   1       3.876   2.016  -3.055  0.00  0.00    -0.168 F 
ENDBRANCH  14  20
ENDBRANCH  11  14
ENDBRANCH   6  10
BRANCH   1  24
ATOM     24  O   LIG d   1       4.355  -2.876  -6.938  0.00  0.00    -0.493 OA
BRANCH  24  25
ATOM     25  C   LIG d   1       4.003  -4.093  -7.600  0.00  0.00     0.079 C 
ATOM     26  H   LIG d   1       2.950  -4.064  -7.879  0.00  0.00     0.066 H 
ATOM     27  H   LIG d   1       4.613  -4.207  -8.497  0.00  0.00     0.066 H 
ATOM     28  H   LIG d   1       4.180  -4.935  -6.932  0.00  0.00     0.066 H 
ENDBRANCH  24  25
ENDBRANCH   1  24
BRANCH   4  29
ATOM     29  C   LIG d   1       3.743   1.899  -9.871  0.00  0.00     0.417 C 
ATOM     30  F   LIG d   1       4.759   2.795  -9.520  0.00  0.00    -0.166 F 
ATOM     31  F   LIG d   1       3.823   1.616 -11.239  0.00  0.00    -0.166 F 
ATOM     32  F   LIG d   1       2.498   2.469  -9.585  0.00  0.00    -0.166 F 
ENDBRANCH   4  29
TORSDOF 7
ENDMDL
MODEL 3
REMARK VINA RESULT:      -7.3      2.152      6.322
REMARK  7 active torsions:
REMARK  status: ('A' for Active; 'I' for Inactive)
REMARK    1  A    between atoms: C_1  and  O_2 
REMARK    2  A    between atoms: O_2  and  C_3 
REMARK    3  A    between atoms: C_6  and  C_22 
REMARK    4  A    between atoms: C_8  and  N_9 
REMARK       I    between atoms: N_9  and  C_10 
REMARK    5  A    between atoms: C_10  and  C_12 
REMARK    6  A    between atoms: C_12  and  C_13 
REMARK    7  A    between atoms: C_12  and  C_17 
ROOT
ATOM      1  C   LIG d   1       4.731  -2.337  -5.518  0.00  0.00     0.141 A 
ATOM      2  C   LIG d   1       5.255  -2.710  -4.290  0.00  0.00    -0.018 A 
ATOM      3  C   LIG d   1       5.148  -1.860  -3.205  0.00  0.00    -0.046 A 
ATOM      4  C   LIG d   1       4.517  -0.638  -3.340  0.00  0.00     0.057 A 
ATOM      5  C   LIG d   1       3.991  -0.258  -4.561  0.00  0.00    -0.025 A 
ATOM      6  C   LIG d   1       4.100  -1.103  -5.656  0.00  0.00     0.076 A 
ATOM      7  H   LIG d   1       5.749  -3.665  -4.182  0.00  0.00     0.066 H 
ATOM      8  H   LIG d   1       5.557  -2.154  -2.250  0.00  0.00     0.062 H 
ATOM      9  H   LIG d   1       3.499   0.698  -4.662  0.00  0.00     0.064 H 
ENDROOT
BRANCH   6  10
ATOM     10  N   LIG d   1       3.572  -0.718  -6.895  0.00  0.00    -0.281 N 
ATOM     11  C   LIG d   1       4.218   0.193  -7.650  0.00  0.00     0.252 C 
ATOM     12  O   LIG d   1       5.306   0.604  -7.303  0.00  0.00    -0.273 OA
ATOM     13  H   LIG d   1       2.741  -1.107  -7.210  0.00  0.00     0.155 HD
BRANCH  11  14
ATOM     14  C   LIG d   1       3.591   0.698  -8.922  0.00  0.00     0.289 C 
ATOM     15 BR   LIG d   1       2.133  -0.506  -9.460  0.00  0.00    -0.056 Br
BRANCH  14  16
ATOM     16  C   LIG d   1       3.032   2.104  -8.692  0.00  0.00     0.422 C 
ATOM     17  F   LIG d   1       1.920   2.306  -9.516  0.00  0.00    -0.168 F 
ATOM     18  F   LIG d   1       2.650   2.240  -7.353  0.00  0.00    -0.168 F 
ATOM     19  F   LIG d   1       4.016   3.053  -8.995  0.00  0.00    -0.168 F 
ENDBRANCH  14  16
BRANCH  14  20
ATOM     20  C   LIG d   1       4.647   0.745 -10.029  0.00  0.00     0.422 C 
ATOM     21  F   LIG d   1       4.068   1.227 -11.206  0.00  0.00    -0.168 F 
ATOM     22  F   LIG d   1       5.691   1.593  -9.640  0.00  0.00    -0.168 F 
ATOM     23  F   LIG d   1       5.150  -0.542 -10.248  0.00  0.00    -0.168 F 
ENDBRANCH  14  20
ENDBRANCH  11  14
ENDBRANCH   6  10
BRANCH   1  24
ATOM     24  O   LIG d   1       4.837  -3.171  -6.587  0.00  0.00    -0.493 OA
BRANCH  24  25
ATOM     25  C   LIG d   1       4.291  -4.484  -6.442  0.00  0.00     0.079 C 
ATOM     26  H   LIG d   1       4.741  -5.149  -7.179  0.00  0.00     0.066 H 
ATOM     27  H   LIG d   1       4.504  -4.857  -5.439  0.00  0.00     0.066 H 
ATOM     28  H   LIG d   1       3.213  -4.449  -6.595  0.00  0.00     0.066 H 
ENDBRANCH  24  25
ENDBRANCH   1  24
BRANCH   4  29
ATOM     29  C   LIG d   1       4.401   0.283  -2.153  0.00  0.00     0.417 C 
ATOM     30  F   LIG d   1       3.151   0.914  -2.172  0.00  0.00    -0.166 F 
ATOM     31  F   LIG d   1       4.532  -0.457  -0.974  0.00  0.00    -0.166 F 
ATOM     32  F   LIG d   1       5.411   1.249  -2.211  0.00  0.00    -0.166 F 
ENDBRANCH   4  29
TORSDOF 7
ENDMDL
MODEL 4
REMARK VINA RESULT:      -7.1      1.955      2.804
REMARK  7 active torsions:
REMARK  status: ('A' for Active; 'I' for Inactive)
REMARK    1  A    between atoms: C_1  and  O_2 
REMARK    2  A    between atoms: O_2  and  C_3 
REMARK    3  A    between atoms: C_6  and  C_22 
REMARK    4  A    between atoms: C_8  and  N_9 
REMARK       I    between atoms: N_9  and  C_10 
REMARK    5  A    between atoms: C_10  and  C_12 
REMARK    6  A    between atoms: C_12  and  C_13 
REMARK    7  A    between atoms: C_12  and  C_17 
ROOT
ATOM      1  C   LIG d   1       5.477   0.526  -7.709  0.00  0.00     0.141 A 
ATOM      2  C   LIG d   1       5.215   0.868  -9.026  0.00  0.00    -0.018 A 
ATOM      3  C   LIG d   1       4.155   0.283  -9.694  0.00  0.00    -0.046 A 
ATOM      4  C   LIG d   1       3.355  -0.643  -9.052  0.00  0.00     0.057 A 
ATOM      5  C   LIG d   1       3.610  -0.990  -7.738  0.00  0.00    -0.025 A 
ATOM      6  C   LIG d   1       4.675  -0.412  -7.063  0.00  0.00     0.076 A 
ATOM      7  H   LIG d   1       5.839   1.592  -9.530  0.00  0.00     0.066 H 
ATOM      8  H   LIG d   1       3.953   0.552 -10.720  0.00  0.00     0.062 H 
ATOM      9  H   LIG d   1       2.983  -1.714  -7.240  0.00  0.00     0.064 H 
ENDROOT
BRANCH   6  10
ATOM     10  N   LIG d   1       4.938  -0.765  -5.733  0.00  0.00    -0.281 N 
ATOM     11  C   LIG d   1       4.240  -0.193  -4.732  0.00  0.00     0.252 C 
ATOM     12  O   LIG d   1       3.316   0.551  -4.987  0.00  0.00    -0.273 OA
ATOM     13  H   LIG d   1       5.624  -1.421  -5.532  0.00  0.00     0.155 HD
BRANCH  11  14
ATOM     14  C   LIG d   1       4.605  -0.478  -3.299  0.00  0.00     0.289 C 
ATOM     15 BR   LIG d   1       6.506  -0.970  -3.191  0.00  0.00    -0.056 Br
BRANCH  14  16
ATOM     16  C   LIG d   1       4.352   0.769  -2.450  0.00  0.00     0.422 C 
ATOM     17  F   LIG d   1       2.985   1.065  -2.452  0.00  0.00    -0.168 F 
ATOM     18  F   LIG d   1       4.777   0.535  -1.138  0.00  0.00    -0.168 F 
ATOM     19  F   LIG d   1       5.064   1.849  -2.985  0.00  0.00    -0.168 F 
ENDBRANCH  14  16
BRANCH  14  20
ATOM     20  C   LIG d   1       3.749  -1.634  -2.775  0.00  0.00     0.422 C 
ATOM     21  F   LIG d   1       2.402  -1.260  -2.791  0.00  0.00    -0.168 F 
ATOM     22  F   LIG d   1       3.932  -2.756  -3.589  0.00  0.00    -0.168 F 
ATOM     23  F   LIG d   1       4.133  -1.941  -1.465  0.00  0.00    -0.168 F 
ENDBRANCH  14  20
ENDBRANCH  11  14
ENDBRANCH   6  10
BRANCH   1  24
ATOM     24  O   LIG d   1       6.520   1.099  -7.050  0.00  0.00    -0.493 OA
BRANCH  24  25
ATOM     25  C   LIG d   1       7.833   0.662  -7.407  0.00  0.00     0.079 C 
ATOM     26  H   LIG d   1       7.980   0.790  -8.479  0.00  0.00     0.066 H 
ATOM     27  H   LIG d   1       8.572   1.253  -6.866  0.00  0.00     0.066 H 
ATOM     28  H   LIG d   1       7.949  -0.390  -7.147  0.00  0.00     0.066 H 
ENDBRANCH  24  25
ENDBRANCH   1  24
BRANCH   4  29
ATOM     29  C   LIG d   1       2.201  -1.276  -9.785  0.00  0.00     0.417 C 
ATOM     30  F   LIG d   1       2.071  -2.612  -9.387  0.00  0.00    -0.166 F 
ATOM     31  F   LIG d   1       1.022  -0.584  -9.486  0.00  0.00    -0.166 F 
ATOM     32  F   LIG d   1       2.436  -1.221 -11.163  0.00  0.00    -0.166 F 
ENDBRANCH   4  29
TORSDOF 7
ENDMDL
MODEL 5
REMARK VINA RESULT:      -7.1      2.188      6.363
REMARK  7 active torsions:
REMARK  status: ('A' for Active; 'I' for Inactive)
REMARK    1  A    between atoms: C_1  and  O_2 
REMARK    2  A    between atoms: O_2  and  C_3 
REMARK    3  A    between atoms: C_6  and  C_22 
REMARK    4  A    between atoms: C_8  and  N_9 
REMARK       I    between atoms: N_9  and  C_10 
REMARK    5  A    between atoms: C_10  and  C_12 
REMARK    6  A    between atoms: C_12  and  C_13 
REMARK    7  A    between atoms: C_12  and  C_17 
ROOT
ATOM      1  C   LIG d   1       4.676  -2.327  -5.395  0.00  0.00     0.141 A 
ATOM      2  C   LIG d   1       5.169  -2.691  -4.153  0.00  0.00    -0.018 A 
ATOM      3  C   LIG d   1       5.083  -1.812  -3.089  0.00  0.00    -0.046 A 
ATOM      4  C   LIG d   1       4.504  -0.569  -3.261  0.00  0.00     0.057 A 
ATOM      5  C   LIG d   1       4.009  -0.197  -4.497  0.00  0.00    -0.025 A 
ATOM      6  C   LIG d   1       4.097  -1.071  -5.570  0.00  0.00     0.076 A 
ATOM      7  H   LIG d   1       5.623  -3.662  -4.016  0.00  0.00     0.066 H 
ATOM      8  H   LIG d   1       5.468  -2.099  -2.122  0.00  0.00     0.062 H 
ATOM      9  H   LIG d   1       3.557   0.775  -4.627  0.00  0.00     0.064 H 
ENDROOT
BRANCH   6  10
ATOM     10  N   LIG d   1       3.601  -0.696  -6.825  0.00  0.00    -0.281 N 
ATOM     11  C   LIG d   1       4.320   0.126  -7.616  0.00  0.00     0.252 C 
ATOM     12  O   LIG d   1       5.439   0.458  -7.286  0.00  0.00    -0.273 OA
ATOM     13  H   LIG d   1       2.740  -1.026  -7.125  0.00  0.00     0.155 HD
BRANCH  11  14
ATOM     14  C   LIG d   1       3.734   0.629  -8.910  0.00  0.00     0.289 C 
ATOM     15 BR   LIG d   1       5.163   0.824 -10.246  0.00  0.00    -0.056 Br
BRANCH  14  16
ATOM     16  C   LIG d   1       2.692  -0.368  -9.420  0.00  0.00     0.422 C 
ATOM     17  F   LIG d   1       2.338  -0.042 -10.733  0.00  0.00    -0.168 F 
ATOM     18  F   LIG d   1       3.228  -1.660  -9.389  0.00  0.00    -0.168 F 
ATOM     19  F   LIG d   1       1.556  -0.314  -8.603  0.00  0.00    -0.168 F 
ENDBRANCH  14  16
BRANCH  14  20
ATOM     20  C   LIG d   1       3.068   1.987  -8.673  0.00  0.00     0.422 C 
ATOM     21  F   LIG d   1       3.977   3.009  -8.963  0.00  0.00    -0.168 F 
ATOM     22  F   LIG d   1       1.949   2.107  -9.504  0.00  0.00    -0.168 F 
ATOM     23  F   LIG d   1       2.668   2.083  -7.336  0.00  0.00    -0.168 F 
ENDBRANCH  14  20
ENDBRANCH  11  14
ENDBRANCH   6  10
BRANCH   1  24
ATOM     24  O   LIG d   1       4.761  -3.190  -6.443  0.00  0.00    -0.493 OA
BRANCH  24  25
ATOM     25  C   LIG d   1       4.342  -4.536  -6.211  0.00  0.00     0.079 C 
ATOM     26  H   LIG d   1       4.579  -5.146  -7.082  0.00  0.00     0.066 H 
ATOM     27  H   LIG d   1       4.861  -4.932  -5.337  0.00  0.00     0.066 H 
ATOM     28  H   LIG d   1       3.266  -4.556  -6.034  0.00  0.00     0.066 H 
ENDBRANCH  24  25
ENDBRANCH   1  24
BRANCH   4  29
ATOM     29  C   LIG d   1       4.411   0.384  -2.097  0.00  0.00     0.417 C 
ATOM     30  F   LIG d   1       3.162   1.016  -2.111  0.00  0.00    -0.166 F 
ATOM     31  F   LIG d   1       4.561  -0.325  -0.901  0.00  0.00    -0.166 F 
ATOM     32  F   LIG d   1       5.422   1.346  -2.199  0.00  0.00    -0.166 F 
ENDBRANCH   4  29
TORSDOF 7
ENDMDL
MODEL 6
REMARK VINA RESULT:      -7.0      2.069      6.544
REMARK  7 active torsions:
REMARK  status: ('A' for Active; 'I' for Inactive)
REMARK    1  A    between atoms: C_1  and  O_2 
REMARK    2  A    between atoms: O_2  and  C_3 
REMARK    3  A    between atoms: C_6  and  C_22 
REMARK    4  A    between atoms: C_8  and  N_9 
REMARK       I    between atoms: N_9  and  C_10 
REMARK    5  A    between atoms: C_10  and  C_12 
REMARK    6  A    between atoms: C_12  and  C_13 
REMARK    7  A    between atoms: C_12  and  C_17 
ROOT
ATOM      1  C   LIG d   1       5.867  -2.116  -6.109  0.00  0.00     0.141 A 
ATOM      2  C   LIG d   1       5.901  -3.062  -5.098  0.00  0.00    -0.018 A 
ATOM      3  C   LIG d   1       5.167  -2.866  -3.943  0.00  0.00    -0.046 A 
ATOM      4  C   LIG d   1       4.398  -1.728  -3.793  0.00  0.00     0.057 A 
ATOM      5  C   LIG d   1       4.359  -0.778  -4.798  0.00  0.00    -0.025 A 
ATOM      6  C   LIG d   1       5.097  -0.965  -5.957  0.00  0.00     0.076 A 
ATOM      7  H   LIG d   1       6.501  -3.953  -5.212  0.00  0.00     0.066 H 
ATOM      8  H   LIG d   1       5.195  -3.606  -3.156  0.00  0.00     0.062 H 
ATOM      9  H   LIG d   1       3.757   0.110  -4.677  0.00  0.00     0.064 H 
ENDROOT
BRANCH   6  10
ATOM     10  N   LIG d   1       5.063  -0.003  -6.974  0.00  0.00    -0.281 N 
ATOM     11  C   LIG d   1       4.133  -0.083  -7.947  0.00  0.00     0.252 C 
ATOM     12  O   LIG d   1       3.266  -0.929  -7.888  0.00  0.00    -0.273 OA
ATOM     13  H   LIG d   1       5.708   0.721  -6.979  0.00  0.00     0.155 HD
BRANCH  11  14
ATOM     14  C   LIG d   1       4.173   0.877  -9.108  0.00  0.00     0.289 C 
ATOM     15 BR   LIG d   1       5.820   1.946  -9.021  0.00  0.00    -0.056 Br
BRANCH  14  16
ATOM     16  C   LIG d   1       4.143   0.092 -10.421  0.00  0.00     0.422 C 
ATOM     17  F   LIG d   1       2.897  -0.527 -10.567  0.00  0.00    -0.168 F 
ATOM     18  F   LIG d   1       4.359   0.966 -11.492  0.00  0.00    -0.168 F 
ATOM     19  F   LIG d   1       5.148  -0.883 -10.404  0.00  0.00    -0.168 F 
ENDBRANCH  14  16
BRANCH  14  20
ATOM     20  C   LIG d   1       2.958   1.806  -9.042  0.00  0.00     0.422 C 
ATOM     21  F   LIG d   1       3.156   2.892  -9.900  0.00  0.00    -0.168 F 
ATOM     22  F   LIG d   1       1.813   1.103  -9.433  0.00  0.00    -0.168 F 
ATOM     23  F   LIG d   1       2.796   2.269  -7.732  0.00  0.00    -0.168 F 
ENDBRANCH  14  20
ENDBRANCH  11  14
ENDBRANCH   6  10
BRANCH   1  24
ATOM     24  O   LIG d   1       6.590  -2.306  -7.246  0.00  0.00    -0.493 OA
BRANCH  24  25
ATOM     25  C   LIG d   1       6.111  -3.295  -8.160  0.00  0.00     0.079 C 
ATOM     26  H   LIG d   1       5.281  -2.887  -8.736  0.00  0.00     0.066 H 
ATOM     27  H   LIG d   1       6.917  -3.583  -8.838  0.00  0.00     0.066 H 
ATOM     28  H   LIG d   1       5.773  -4.170  -7.606  0.00  0.00     0.066 H 
ENDBRANCH  24  25
ENDBRANCH   1  24
BRANCH   4  29
ATOM     29  C   LIG d   1       3.599  -1.520  -2.533  0.00  0.00     0.417 C 
ATOM     30  F   LIG d   1       4.298  -0.666  -1.672  0.00  0.00    -0.166 F 
ATOM     31  F   LIG d   1       2.362  -0.948  -2.853  0.00  0.00    -0.166 F 
ATOM     32  F   LIG d   1       3.393  -2.752  -1.902  0.00  0.00    -0.166 F 
ENDBRANCH   4  29
TORSDOF 7
ENDMDL
MODEL 7
REMARK VINA RESULT:      -6.8      1.550      2.430
REMARK  7 active torsions:
REMARK  status: ('A' for Active; 'I' for Inactive)
REMARK    1  A    between atoms: C_1  and  O_2 
REMARK    2  A    between atoms: O_2  and  C_3 
REMARK    3  A    between atoms: C_6  and  C_22 
REMARK    4  A    between atoms: C_8  and  N_9 
REMARK       I    between atoms: N_9  and  C_10 
REMARK    5  A    between atoms: C_10  and  C_12 
REMARK    6  A    between atoms: C_12  and  C_13 
REMARK    7  A    between atoms: C_12  and  C_17 
ROOT
ATOM      1  C   LIG d   1       4.656  -2.277  -7.491  0.00  0.00     0.141 A 
ATOM      2  C   LIG d   1       4.945  -2.420  -8.839  0.00  0.00    -0.018 A 
ATOM      3  C   LIG d   1       4.581  -1.430  -9.733  0.00  0.00    -0.046 A 
ATOM      4  C   LIG d   1       3.930  -0.296  -9.286  0.00  0.00     0.057 A 
ATOM      5  C   LIG d   1       3.638  -0.145  -7.943  0.00  0.00    -0.025 A 
ATOM      6  C   LIG d   1       3.995  -1.137  -7.041  0.00  0.00     0.076 A 
ATOM      7  H   LIG d   1       5.454  -3.306  -9.192  0.00  0.00     0.066 H 
ATOM      8  H   LIG d   1       4.808  -1.543 -10.783  0.00  0.00     0.062 H 
ATOM      9  H   LIG d   1       3.129   0.742  -7.597  0.00  0.00     0.064 H 
ENDROOT
BRANCH   6  10
ATOM     10  N   LIG d   1       3.696  -0.990  -5.681  0.00  0.00    -0.281 N 
ATOM     11  C   LIG d   1       4.551  -0.334  -4.870  0.00  0.00     0.252 C 
ATOM     12  O   LIG d   1       5.527   0.214  -5.336  0.00  0.00    -0.273 OA
ATOM     13  H   LIG d   1       2.875  -1.360  -5.321  0.00  0.00     0.155 HD
BRANCH  11  14
ATOM     14  C   LIG d   1       4.292  -0.283  -3.386  0.00  0.00     0.289 C 
ATOM     15 BR   LIG d   1       4.103  -2.111  -2.688  0.00  0.00    -0.056 Br
BRANCH  14  16
ATOM     16  C   LIG d   1       5.464   0.411  -2.688  0.00  0.00     0.422 C 
ATOM     17  F   LIG d   1       5.649   1.683  -3.240  0.00  0.00    -0.168 F 
ATOM     18  F   LIG d   1       5.189   0.530  -1.322  0.00  0.00    -0.168 F 
ATOM     19  F   LIG d   1       6.627  -0.347  -2.866  0.00  0.00    -0.168 F 
ENDBRANCH  14  16
BRANCH  14  20
ATOM     20  C   LIG d   1       3.005   0.501  -3.120  0.00  0.00     0.422 C 
ATOM     21  F   LIG d   1       1.957  -0.393  -2.878  0.00  0.00    -0.168 F 
ATOM     22  F   LIG d   1       3.183   1.325  -2.004  0.00  0.00    -0.168 F 
ATOM     23  F   LIG d   1       2.699   1.287  -4.236  0.00  0.00    -0.168 F 
ENDBRANCH  14  20
ENDBRANCH  11  14
ENDBRANCH   6  10
BRANCH   1  24
ATOM     24  O   LIG d   1       5.012  -3.251  -6.611  0.00  0.00    -0.493 OA
BRANCH  24  25
ATOM     25  C   LIG d   1       4.399  -4.532  -6.777  0.00  0.00     0.079 C 
ATOM     26  H   LIG d   1       4.773  -4.998  -7.688  0.00  0.00     0.066 H 
ATOM     27  H   LIG d   1       4.640  -5.163  -5.920  0.00  0.00     0.066 H 
ATOM     28  H   LIG d   1       3.319  -4.411  -6.847  0.00  0.00     0.066 H 
ENDBRANCH  24  25
ENDBRANCH   1  24
BRANCH   4  29
ATOM     29  C   LIG d   1       3.538   0.781 -10.264  0.00  0.00     0.417 C 
ATOM     30  F   LIG d   1       2.731   0.229 -11.266  0.00  0.00    -0.166 F 
ATOM     31  F   LIG d   1       2.829   1.784  -9.595  0.00  0.00    -0.166 F 
ATOM     32  F   LIG d   1       4.688   1.330 -10.842  0.00  0.00    -0.166 F 
ENDBRANCH   4  29
TORSDOF 7
ENDMDL
MODEL 8
REMARK VINA RESULT:      -6.8      2.537      6.543
REMARK  7 active torsions:
REMARK  status: ('A' for Active; 'I' for Inactive)
REMARK    1  A    between atoms: C_1  and  O_2 
REMARK    2  A    between atoms: O_2  and  C_3 
REMARK    3  A    between atoms: C_6  and  C_22 
REMARK    4  A    between atoms: C_8  and  N_9 
REMARK       I    between atoms: N_9  and  C_10 
REMARK    5  A    between atoms: C_10  and  C_12 
REMARK    6  A    between atoms: C_12  and  C_13 
REMARK    7  A    between atoms: C_12  and  C_17 
ROOT
ATOM      1  C   LIG d   1       6.498  -1.909  -5.775  0.00  0.00     0.141 A 
ATOM      2  C   LIG d   1       6.956  -2.079  -4.478  0.00  0.00    -0.018 A 
ATOM      3  C   LIG d   1       6.075  -1.990  -3.416  0.00  0.00    -0.046 A 
ATOM      4  C   LIG d   1       4.737  -1.732  -3.645  0.00  0.00     0.057 A 
ATOM      5  C   LIG d   1       4.272  -1.560  -4.935  0.00  0.00    -0.025 A 
ATOM      6  C   LIG d   1       5.151  -1.643  -6.005  0.00  0.00     0.076 A 
ATOM      7  H   LIG d   1       8.002  -2.281  -4.297  0.00  0.00     0.066 H 
ATOM      8  H   LIG d   1       6.435  -2.124  -2.407  0.00  0.00     0.062 H 
ATOM      9  H   LIG d   1       3.225  -1.358  -5.109  0.00  0.00     0.064 H 
ENDROOT
BRANCH   6  10
ATOM     10  N   LIG d   1       4.683  -1.465  -7.313  0.00  0.00    -0.281 N 
ATOM     11  C   LIG d   1       4.588  -0.224  -7.833  0.00  0.00     0.252 C 
ATOM     12  O   LIG d   1       5.002   0.728  -7.205  0.00  0.00    -0.273 OA
ATOM     13  H   LIG d   1       4.427  -2.234  -7.846  0.00  0.00     0.155 HD
BRANCH  11  14
ATOM     14  C   LIG d   1       3.970  -0.022  -9.191  0.00  0.00     0.289 C 
ATOM     15 BR   LIG d   1       4.089  -1.691 -10.223  0.00  0.00    -0.056 Br
BRANCH  14  16
ATOM     16  C   LIG d   1       2.501   0.374  -9.029  0.00  0.00     0.422 C 
ATOM     17  F   LIG d   1       1.975  -0.242  -7.889  0.00  0.00    -0.168 F 
ATOM     18  F   LIG d   1       2.404   1.763  -8.896  0.00  0.00    -0.168 F 
ATOM     19  F   LIG d   1       1.780  -0.038 -10.157  0.00  0.00    -0.168 F 
ENDBRANCH  14  16
BRANCH  14  20
ATOM     20  C   LIG d   1       4.718   1.090  -9.931  0.00  0.00     0.422 C 
ATOM     21  F   LIG d   1       4.108   1.319 -11.168  0.00  0.00    -0.168 F 
ATOM     22  F   LIG d   1       4.684   2.262  -9.169  0.00  0.00    -0.168 F 
ATOM     23  F   LIG d   1       6.048   0.703 -10.131  0.00  0.00    -0.168 F 
ENDBRANCH  14  20
ENDBRANCH  11  14
ENDBRANCH   6  10
BRANCH   1  24
ATOM     24  O   LIG d   1       7.364  -1.995  -6.821  0.00  0.00    -0.493 OA
BRANCH  24  25
ATOM     25  C   LIG d   1       8.239  -3.125  -6.847  0.00  0.00     0.079 C 
ATOM     26  H   LIG d   1       7.740  -3.983  -6.397  0.00  0.00     0.066 H 
ATOM     27  H   LIG d   1       8.501  -3.357  -7.880  0.00  0.00     0.066 H 
ATOM     28  H   LIG d   1       9.145  -2.896  -6.286  0.00  0.00     0.066 H 
ENDBRANCH  24  25
ENDBRANCH   1  24
BRANCH   4  29
ATOM     29  C   LIG d   1       3.781  -1.637  -2.483  0.00  0.00     0.417 C 
ATOM     30  F   LIG d   1       3.530  -2.919  -1.980  0.00  0.00    -0.166 F 
ATOM     31  F   LIG d   1       4.346  -0.844  -1.478  0.00  0.00    -0.166 F 
ATOM     32  F   LIG d   1       2.581  -1.061  -2.911  0.00  0.00    -0.166 F 
ENDBRANCH   4  29
TORSDOF 7
ENDMDL
MODEL 9
REMARK VINA RESULT:      -6.6      4.155      6.520
REMARK  7 active torsions:
REMARK  status: ('A' for Active; 'I' for Inactive)
REMARK    1  A    between atoms: C_1  and  O_2 
REMARK    2  A    between atoms: O_2  and  C_3 
REMARK    3  A    between atoms: C_6  and  C_22 
REMARK    4  A    between atoms: C_8  and  N_9 
REMARK       I    between atoms: N_9  and  C_10 
REMARK    5  A    between atoms: C_10  and  C_12 
REMARK    6  A    between atoms: C_12  and  C_13 
REMARK    7  A    between atoms: C_12  and  C_17 
ROOT
ATOM      1  C   LIG d   1       8.395  -1.719  -5.596  0.00  0.00     0.141 A 
ATOM      2  C   LIG d   1       9.694  -2.192  -5.683  0.00  0.00    -0.018 A 
ATOM      3  C   LIG d   1      10.158  -3.111  -4.759  0.00  0.00    -0.046 A 
ATOM      4  C   LIG d   1       9.329  -3.560  -3.749  0.00  0.00     0.057 A 
ATOM      5  C   LIG d   1       8.031  -3.092  -3.656  0.00  0.00    -0.025 A 
ATOM      6  C   LIG d   1       7.560  -2.166  -4.575  0.00  0.00     0.076 A 
ATOM      7  H   LIG d   1      10.345  -1.843  -6.471  0.00  0.00     0.066 H 
ATOM      8  H   LIG d   1      11.172  -3.478  -4.829  0.00  0.00     0.062 H 
ATOM      9  H   LIG d   1       7.386  -3.445  -2.865  0.00  0.00     0.064 H 
ENDROOT
BRANCH   6  10
ATOM     10  N   LIG d   1       6.247  -1.688  -4.480  0.00  0.00    -0.281 N 
ATOM     11  C   LIG d   1       5.935  -0.755  -3.558  0.00  0.00     0.252 C 
ATOM     12  O   LIG d   1       6.809  -0.258  -2.879  0.00  0.00    -0.273 OA
ATOM     13  H   LIG d   1       5.563  -2.027  -5.077  0.00  0.00     0.155 HD
BRANCH  11  14
ATOM     14  C   LIG d   1       4.501  -0.331  -3.371  0.00  0.00     0.289 C 
ATOM     15 BR   LIG d   1       3.640  -0.138  -5.127  0.00  0.00    -0.056 Br
BRANCH  14  16
ATOM     16  C   LIG d   1       3.759  -1.389  -2.552  0.00  0.00     0.422 C 
ATOM     17  F   LIG d   1       2.442  -0.970  -2.333  0.00  0.00    -0.168 F 
ATOM     18  F   LIG d   1       3.753  -2.600  -3.252  0.00  0.00    -0.168 F 
ATOM     19  F   LIG d   1       4.403  -1.563  -1.322  0.00  0.00    -0.168 F 
ENDBRANCH  14  16
BRANCH  14  20
ATOM     20  C   LIG d   1       4.458   1.009  -2.632  0.00  0.00     0.422 C 
ATOM     21  F   LIG d   1       3.229   1.632  -2.868  0.00  0.00    -0.168 F 
ATOM     22  F   LIG d   1       4.614   0.788  -1.259  0.00  0.00    -0.168 F 
ATOM     23  F   LIG d   1       5.494   1.829  -3.093  0.00  0.00    -0.168 F 
ENDBRANCH  14  20
ENDBRANCH  11  14
ENDBRANCH   6  10
BRANCH   1  24
ATOM     24  O   LIG d   1       7.937  -0.814  -6.503  0.00  0.00    -0.493 OA
BRANCH  24  25
ATOM     25  C   LIG d   1       8.908  -0.193  -7.348  0.00  0.00     0.079 C 
ATOM     26  H   LIG d   1       8.473  -0.011  -8.330  0.00  0.00     0.066 H 
ATOM     27  H   LIG d   1       9.220   0.754  -6.907  0.00  0.00     0.066 H 
ATOM     28  H   LIG d   1       9.773  -0.848  -7.450  0.00  0.00     0.066 H 
ENDBRANCH  24  25
ENDBRANCH   1  24
BRANCH   4  29
ATOM     29  C   LIG d   1       9.840  -4.562  -2.747  0.00  0.00     0.417 C 
ATOM     30  F   LIG d   1       9.401  -4.206  -1.466  0.00  0.00    -0.166 F 
ATOM     31  F   LIG d   1       9.354  -5.834  -3.069  0.00  0.00    -0.166 F 
ATOM     32  F   LIG d   1      11.239  -4.578  -2.772  0.00  0.00    -0.166 F 
ENDBRANCH   4  29
TORSDOF 7
ENDMDL
