MODEL 1
REMARK VINA RESULT:      -6.4      0.000      0.000
REMARK  13 active torsions:
REMARK  status: ('A' for Active; 'I' for Inactive)
REMARK    1  A    between atoms: C_1  and  C_2 
REMARK    2  A    between atoms: C_2  and  C_32 
REMARK    3  A    between atoms: C_4  and  C_9 
REMARK    4  A    between atoms: C_9  and  C_11 
REMARK    5  A    between atoms: C_9  and  C_24 
REMARK    6  A    between atoms: C_11  and  C_12 
REMARK    7  A    between atoms: C_12  and  N_13 
REMARK    8  A    between atoms: C_14  and  C_15 
REMARK    9  A    between atoms: C_18  and  N_21 
REMARK   10  A    between atoms: N_21  and  C_22 
REMARK   11  A    between atoms: N_21  and  C_23 
REMARK   12  A    between atoms: C_29  and  O_30 
REMARK   13  A    between atoms: O_30  and  C_31 
ROOT
ATOM      1  C   LIG d   1       6.043  -1.707  -5.029  0.00  0.00    -0.004 C 
ATOM      2  H   LIG d   1       6.580  -1.020  -5.683  0.00  0.00     0.035 H 
ENDROOT
BRANCH   1   3
ATOM      3  C   LIG d   1       6.993  -2.811  -4.558  0.00  0.00    -0.029 C 
ATOM      4  C   LIG d   1       8.441  -2.323  -4.668  0.00  0.00    -0.021 C 
ATOM      5  C   LIG d   1       9.386  -3.458  -4.269  0.00  0.00     0.064 C 
ATOM      6  H   LIG d   1       8.590  -1.473  -4.003  0.00  0.00     0.030 H 
ATOM      7  H   LIG d   1       8.647  -2.022  -5.696  0.00  0.00     0.030 H 
ATOM      8  O   LIG d   1       9.148  -4.592  -5.106  0.00  0.00    -0.374 OA
ATOM      9  C   LIG d   1       7.824  -5.120  -5.009  0.00  0.00     0.049 C 
ATOM     10  C   LIG d   1       6.816  -4.052  -5.439  0.00  0.00    -0.026 C 
ATOM     11  H   LIG d   1       7.625  -5.415  -3.979  0.00  0.00     0.056 H 
ATOM     12  H   LIG d   1       7.732  -5.990  -5.660  0.00  0.00     0.056 H 
ATOM     13  H   LIG d   1       5.804  -4.439  -5.323  0.00  0.00     0.029 H 
ATOM     14  H   LIG d   1       6.989  -3.785  -6.482  0.00  0.00     0.029 H 
ATOM     15  H   LIG d   1       6.772  -3.065  -3.521  0.00  0.00     0.031 H 
BRANCH   5  16
ATOM     16  C   LIG d   1       9.135  -3.841  -2.809  0.00  0.00    -0.036 C 
ATOM     17  H   LIG d   1      10.025  -4.320  -2.400  0.00  0.00     0.026 H 
ATOM     18  H   LIG d   1       8.908  -2.944  -2.231  0.00  0.00     0.026 H 
ATOM     19  H   LIG d   1       8.293  -4.530  -2.753  0.00  0.00     0.026 H 
ENDBRANCH   5  16
BRANCH   5  20
ATOM     20  C   LIG d   1      10.836  -2.997  -4.433  0.00  0.00    -0.036 C 
ATOM     21  H   LIG d   1      11.488  -3.627  -3.827  0.00  0.00     0.026 H 
ATOM     22  H   LIG d   1      11.125  -3.076  -5.481  0.00  0.00     0.026 H 
ATOM     23  H   LIG d   1      10.927  -1.961  -4.108  0.00  0.00     0.026 H 
ENDBRANCH   5  20
ENDBRANCH   1   3
BRANCH   1  24
ATOM     24  C   LIG d   1       4.875  -2.332  -5.794  0.00  0.00     0.014 C 
ATOM     25  H   LIG d   1       5.171  -3.309  -6.176  0.00  0.00     0.033 H 
ATOM     26  H   LIG d   1       4.023  -2.446  -5.124  0.00  0.00     0.033 H 
BRANCH  24  27
ATOM     27  C   LIG d   1       4.488  -1.425  -6.963  0.00  0.00     0.144 C 
ATOM     28  H   LIG d   1       5.330  -0.780  -7.217  0.00  0.00     0.102 H 
ATOM     29  H   LIG d   1       4.225  -2.036  -7.826  0.00  0.00     0.102 H 
BRANCH  27  30
ATOM     30  N   LIG d   1       3.339  -0.599  -6.581  0.00  0.00    -0.247 N 
ATOM     31  C   LIG d   1       2.757   0.149  -7.463  0.00  0.00     0.172 C 
ATOM     32  H   LIG d   1       2.199   1.018  -7.150  0.00  0.00     0.138 H 
ATOM     33  H   LIG d   1       3.014  -0.614  -5.667  0.00  0.00     0.445 HD
BRANCH  31  34
ATOM     34  C   LIG d   1       2.860  -0.185  -8.895  0.00  0.00     0.038 A 
ATOM     35  C   LIG d   1       3.733   0.530  -9.720  0.00  0.00    -0.047 A 
ATOM     36  C   LIG d   1       3.830   0.212 -11.056  0.00  0.00    -0.040 A 
ATOM     37  H   LIG d   1       4.335   1.327  -9.309  0.00  0.00     0.063 H 
ATOM     38  C   LIG d   1       3.050  -0.811 -11.588  0.00  0.00     0.029 A 
ATOM     39  H   LIG d   1       4.508   0.760 -11.693  0.00  0.00     0.064 H 
ATOM     40  C   LIG d   1       2.176  -1.520 -10.771  0.00  0.00    -0.040 A 
ATOM     41  C   LIG d   1       2.078  -1.212  -9.432  0.00  0.00    -0.047 A 
ATOM     42  H   LIG d   1       1.572  -2.313 -11.186  0.00  0.00     0.064 H 
ATOM     43  H   LIG d   1       1.400  -1.763  -8.799  0.00  0.00     0.063 H 
BRANCH  38  44
ATOM     44  N   LIG d   1       3.146  -1.125 -12.940  0.00  0.00    -0.336 N 
BRANCH  44  45
ATOM     45  C   LIG d   1       2.168  -2.028 -13.554  0.00  0.00     0.000 C 
ATOM     46  H   LIG d   1       1.253  -2.026 -12.963  0.00  0.00     0.043 H 
ATOM     47  H   LIG d   1       1.948  -1.690 -14.567  0.00  0.00     0.043 H 
ATOM     48  H   LIG d   1       2.578  -3.038 -13.588  0.00  0.00     0.043 H 
ENDBRANCH  44  45
BRANCH  44  49
ATOM     49  C   LIG d   1       4.225  -0.555 -13.750  0.00  0.00     0.000 C 
ATOM     50  H   LIG d   1       4.142   0.532 -13.754  0.00  0.00     0.043 H 
ATOM     51  H   LIG d   1       5.188  -0.843 -13.327  0.00  0.00     0.043 H 
ATOM     52  H   LIG d   1       4.151  -0.929 -14.771  0.00  0.00     0.043 H 
ENDBRANCH  44  49
ENDBRANCH  38  44
ENDBRANCH  31  34
ENDBRANCH  27  30
ENDBRANCH  24  27
ENDBRANCH   1  24
BRANCH   1  53
ATOM     53  C   LIG d   1       5.517  -0.954  -3.834  0.00  0.00    -0.002 A 
ATOM     54  C   LIG d   1       5.828   0.387  -3.668  0.00  0.00     0.123 A 
ATOM     55  C   LIG d   1       5.337   1.079  -2.569  0.00  0.00    -0.020 A 
ATOM     56  C   LIG d   1       4.549   0.429  -1.641  0.00  0.00    -0.058 A 
ATOM     57  H   LIG d   1       5.573   2.125  -2.439  0.00  0.00     0.065 H 
ATOM     58  C   LIG d   1       4.245  -0.911  -1.807  0.00  0.00    -0.061 A 
ATOM     59  H   LIG d   1       4.170   0.965  -0.784  0.00  0.00     0.062 H 
ATOM     60  C   LIG d   1       4.729  -1.601  -2.902  0.00  0.00    -0.055 A 
ATOM     61  H   LIG d   1       3.629  -1.417  -1.079  0.00  0.00     0.062 H 
ATOM     62  H   LIG d   1       4.490  -2.646  -3.030  0.00  0.00     0.062 H 
BRANCH  54  63
ATOM     63  O   LIG d   1       6.608   1.024  -4.579  0.00  0.00    -0.495 OA
BRANCH  63  64
ATOM     64  C   LIG d   1       7.790   1.661  -4.090  0.00  0.00     0.079 C 
ATOM     65  H   LIG d   1       8.622   0.957  -4.120  0.00  0.00     0.066 H 
ATOM     66  H   LIG d   1       8.022   2.524  -4.714  0.00  0.00     0.066 H 
ATOM     67  H   LIG d   1       7.628   1.988  -3.063  0.00  0.00     0.066 H 
ENDBRANCH  63  64
ENDBRANCH  54  63
ENDBRANCH   1  53
TORSDOF 13
ENDMDL
MODEL 2
REMARK VINA RESULT:      -6.3      2.022      2.489
REMARK  13 active torsions:
REMARK  status: ('A' for Active; 'I' for Inactive)
REMARK    1  A    between atoms: C_1  and  C_2 
REMARK    2  A    between atoms: C_2  and  C_32 
REMARK    3  A    between atoms: C_4  and  C_9 
REMARK    4  A    between atoms: C_9  and  C_11 
REMARK    5  A    between atoms: C_9  and  C_24 
REMARK    6  A    between atoms: C_11  and  C_12 
REMARK    7  A    between atoms: C_12  and  N_13 
REMARK    8  A    between atoms: C_14  and  C_15 
REMARK    9  A    between atoms: C_18  and  N_21 
REMARK   10  A    between atoms: N_21  and  C_22 
REMARK   11  A    between atoms: N_21  and  C_23 
REMARK   12  A    between atoms: C_29  and  O_30 
REMARK   13  A    between atoms: O_30  and  C_31 
ROOT
ATOM      1  C   LIG d   1       4.826  -1.578  -5.926  0.00  0.00    -0.004 C 
ATOM      2  H   LIG d   1       5.804  -1.245  -6.273  0.00  0.00     0.035 H 
ENDROOT
BRANCH   1   3
ATOM      3  C   LIG d   1       4.668  -3.075  -6.206  0.00  0.00    -0.029 C 
ATOM      4  C   LIG d   1       6.002  -3.786  -5.957  0.00  0.00    -0.021 C 
ATOM      5  C   LIG d   1       5.856  -5.267  -6.313  0.00  0.00     0.064 C 
ATOM      6  H   LIG d   1       6.276  -3.689  -4.906  0.00  0.00     0.030 H 
ATOM      7  H   LIG d   1       6.777  -3.337  -6.579  0.00  0.00     0.030 H 
ATOM      8  O   LIG d   1       5.441  -5.390  -7.675  0.00  0.00    -0.374 OA
ATOM      9  C   LIG d   1       4.178  -4.785  -7.957  0.00  0.00     0.049 C 
ATOM     10  C   LIG d   1       4.256  -3.284  -7.668  0.00  0.00    -0.026 C 
ATOM     11  H   LIG d   1       3.410  -5.237  -7.329  0.00  0.00     0.056 H 
ATOM     12  H   LIG d   1       3.927  -4.940  -9.006  0.00  0.00     0.056 H 
ATOM     13  H   LIG d   1       3.282  -2.828  -7.839  0.00  0.00     0.029 H 
ATOM     14  H   LIG d   1       4.996  -2.824  -8.323  0.00  0.00     0.029 H 
ATOM     15  H   LIG d   1       3.905  -3.491  -5.549  0.00  0.00     0.031 H 
BRANCH   5  16
ATOM     16  C   LIG d   1       4.809  -5.910  -5.401  0.00  0.00    -0.036 C 
ATOM     17  H   LIG d   1       5.270  -6.718  -4.831  0.00  0.00     0.026 H 
ATOM     18  H   LIG d   1       4.416  -5.160  -4.713  0.00  0.00     0.026 H 
ATOM     19  H   LIG d   1       3.996  -6.310  -6.006  0.00  0.00     0.026 H 
ENDBRANCH   5  16
BRANCH   5  20
ATOM     20  C   LIG d   1       7.200  -5.973  -6.122  0.00  0.00    -0.036 C 
ATOM     21  H   LIG d   1       7.607  -5.720  -5.143  0.00  0.00     0.026 H 
ATOM     22  H   LIG d   1       7.057  -7.052  -6.189  0.00  0.00     0.026 H 
ATOM     23  H   LIG d   1       7.894  -5.650  -6.899  0.00  0.00     0.026 H 
ENDBRANCH   5  20
ENDBRANCH   1   3
BRANCH   1  24
ATOM     24  C   LIG d   1       3.732  -0.804  -6.664  0.00  0.00     0.014 C 
ATOM     25  H   LIG d   1       3.189  -1.480  -7.324  0.00  0.00     0.033 H 
ATOM     26  H   LIG d   1       3.042  -0.371  -5.939  0.00  0.00     0.033 H 
BRANCH  24  27
ATOM     27  C   LIG d   1       4.369   0.313  -7.492  0.00  0.00     0.144 C 
ATOM     28  H   LIG d   1       5.295   0.637  -7.015  0.00  0.00     0.102 H 
ATOM     29  H   LIG d   1       4.586  -0.055  -8.495  0.00  0.00     0.102 H 
BRANCH  27  30
ATOM     30  N   LIG d   1       3.443   1.446  -7.578  0.00  0.00    -0.247 N 
ATOM     31  C   LIG d   1       3.015   1.846  -8.732  0.00  0.00     0.172 C 
ATOM     32  H   LIG d   1       2.672   2.862  -8.859  0.00  0.00     0.138 H 
ATOM     33  H   LIG d   1       3.150   1.895  -6.770  0.00  0.00     0.445 HD
BRANCH  31  34
ATOM     34  C   LIG d   1       2.999   0.916  -9.875  0.00  0.00     0.038 A 
ATOM     35  C   LIG d   1       3.958   1.031 -10.887  0.00  0.00    -0.047 A 
ATOM     36  C   LIG d   1       3.943   0.157 -11.950  0.00  0.00    -0.040 A 
ATOM     37  H   LIG d   1       4.712   1.801 -10.831  0.00  0.00     0.063 H 
ATOM     38  C   LIG d   1       2.966  -0.832 -12.026  0.00  0.00     0.029 A 
ATOM     39  H   LIG d   1       4.685   0.242 -12.729  0.00  0.00     0.064 H 
ATOM     40  C   LIG d   1       2.007  -0.946 -11.024  0.00  0.00    -0.040 A 
ATOM     41  C   LIG d   1       2.020  -0.079  -9.954  0.00  0.00    -0.047 A 
ATOM     42  H   LIG d   1       1.251  -1.714 -11.086  0.00  0.00     0.064 H 
ATOM     43  H   LIG d   1       1.276  -0.169  -9.178  0.00  0.00     0.063 H 
BRANCH  38  44
ATOM     44  N   LIG d   1       2.950  -1.710 -13.106  0.00  0.00    -0.336 N 
BRANCH  44  45
ATOM     45  C   LIG d   1       2.176  -2.952 -13.029  0.00  0.00     0.000 C 
ATOM     46  H   LIG d   1       1.114  -2.714 -12.970  0.00  0.00     0.043 H 
ATOM     47  H   LIG d   1       2.366  -3.555 -13.917  0.00  0.00     0.043 H 
ATOM     48  H   LIG d   1       2.473  -3.510 -12.140  0.00  0.00     0.043 H 
ENDBRANCH  44  45
BRANCH  44  49
ATOM     49  C   LIG d   1       3.709  -1.394 -14.318  0.00  0.00     0.000 C 
ATOM     50  H   LIG d   1       4.505  -0.691 -14.076  0.00  0.00     0.043 H 
ATOM     51  H   LIG d   1       4.142  -2.308 -14.724  0.00  0.00     0.043 H 
ATOM     52  H   LIG d   1       3.043  -0.949 -15.057  0.00  0.00     0.043 H 
ENDBRANCH  44  49
ENDBRANCH  38  44
ENDBRANCH  31  34
ENDBRANCH  27  30
ENDBRANCH  24  27
ENDBRANCH   1  24
BRANCH   1  53
ATOM     53  C   LIG d   1       4.706  -1.330  -4.445  0.00  0.00    -0.002 A 
ATOM     54  C   LIG d   1       5.392  -0.275  -3.861  0.00  0.00     0.123 A 
ATOM     55  C   LIG d   1       5.276  -0.044  -2.497  0.00  0.00    -0.020 A 
ATOM     56  C   LIG d   1       4.486  -0.872  -1.724  0.00  0.00    -0.058 A 
ATOM     57  H   LIG d   1       5.804   0.779  -2.041  0.00  0.00     0.065 H 
ATOM     58  C   LIG d   1       3.807  -1.926  -2.308  0.00  0.00    -0.061 A 
ATOM     59  H   LIG d   1       4.398  -0.696  -0.662  0.00  0.00     0.062 H 
ATOM     60  C   LIG d   1       3.918  -2.155  -3.667  0.00  0.00    -0.055 A 
ATOM     61  H   LIG d   1       3.190  -2.572  -1.701  0.00  0.00     0.062 H 
ATOM     62  H   LIG d   1       3.388  -2.979  -4.120  0.00  0.00     0.062 H 
BRANCH  54  63
ATOM     63  O   LIG d   1       6.173   0.535  -4.623  0.00  0.00    -0.495 OA
BRANCH  63  64
ATOM     64  C   LIG d   1       7.336   1.087  -4.002  0.00  0.00     0.079 C 
ATOM     65  H   LIG d   1       7.715   1.911  -4.609  0.00  0.00     0.066 H 
ATOM     66  H   LIG d   1       7.077   1.457  -3.010  0.00  0.00     0.066 H 
ATOM     67  H   LIG d   1       8.103   0.318  -3.916  0.00  0.00     0.066 H 
ENDBRANCH  63  64
ENDBRANCH  54  63
ENDBRANCH   1  53
TORSDOF 13
ENDMDL
MODEL 3
REMARK VINA RESULT:      -6.1      2.292      4.124
REMARK  13 active torsions:
REMARK  status: ('A' for Active; 'I' for Inactive)
REMARK    1  A    between atoms: C_1  and  C_2 
REMARK    2  A    between atoms: C_2  and  C_32 
REMARK    3  A    between atoms: C_4  and  C_9 
REMARK    4  A    between atoms: C_9  and  C_11 
REMARK    5  A    between atoms: C_9  and  C_24 
REMARK    6  A    between atoms: C_11  and  C_12 
REMARK    7  A    between atoms: C_12  and  N_13 
REMARK    8  A    between atoms: C_14  and  C_15 
REMARK    9  A    between atoms: C_18  and  N_21 
REMARK   10  A    between atoms: N_21  and  C_22 
REMARK   11  A    between atoms: N_21  and  C_23 
REMARK   12  A    between atoms: C_29  and  O_30 
REMARK   13  A    between atoms: O_30  and  C_31 
ROOT
ATOM      1  C   LIG d   1       6.176  -1.848  -5.022  0.00  0.00    -0.004 C 
ATOM      2  H   LIG d   1       6.722  -1.145  -5.651  0.00  0.00     0.035 H 
ENDROOT
BRANCH   1   3
ATOM      3  C   LIG d   1       7.130  -2.939  -4.529  0.00  0.00    -0.029 C 
ATOM      4  C   LIG d   1       8.573  -2.432  -4.607  0.00  0.00    -0.021 C 
ATOM      5  C   LIG d   1       9.523  -3.555  -4.186  0.00  0.00     0.064 C 
ATOM      6  H   LIG d   1       8.696  -1.580  -3.939  0.00  0.00     0.030 H 
ATOM      7  H   LIG d   1       8.798  -2.129  -5.630  0.00  0.00     0.030 H 
ATOM      8  O   LIG d   1       9.320  -4.692  -5.028  0.00  0.00    -0.374 OA
ATOM      9  C   LIG d   1       8.001  -5.238  -4.960  0.00  0.00     0.049 C 
ATOM     10  C   LIG d   1       6.989  -4.183  -5.413  0.00  0.00    -0.026 C 
ATOM     11  H   LIG d   1       7.783  -5.535  -3.934  0.00  0.00     0.056 H 
ATOM     12  H   LIG d   1       7.935  -6.109  -5.612  0.00  0.00     0.056 H 
ATOM     13  H   LIG d   1       5.979  -4.583  -5.319  0.00  0.00     0.029 H 
ATOM     14  H   LIG d   1       7.181  -3.915  -6.452  0.00  0.00     0.029 H 
ATOM     15  H   LIG d   1       6.889  -3.196  -3.497  0.00  0.00     0.031 H 
BRANCH   5  16
ATOM     16  C   LIG d   1       9.245  -3.940  -2.732  0.00  0.00    -0.036 C 
ATOM     17  H   LIG d   1      10.189  -4.035  -2.194  0.00  0.00     0.026 H 
ATOM     18  H   LIG d   1       8.637  -3.167  -2.261  0.00  0.00     0.026 H 
ATOM     19  H   LIG d   1       8.713  -4.890  -2.703  0.00  0.00     0.026 H 
ENDBRANCH   5  16
BRANCH   5  20
ATOM     20  C   LIG d   1      10.971  -3.074  -4.319  0.00  0.00    -0.036 C 
ATOM     21  H   LIG d   1      11.005  -2.200  -4.969  0.00  0.00     0.026 H 
ATOM     22  H   LIG d   1      11.356  -2.809  -3.334  0.00  0.00     0.026 H 
ATOM     23  H   LIG d   1      11.581  -3.870  -4.746  0.00  0.00     0.026 H 
ENDBRANCH   5  20
ENDBRANCH   1   3
BRANCH   1  24
ATOM     24  C   LIG d   1       5.047  -2.487  -5.832  0.00  0.00     0.014 C 
ATOM     25  H   LIG d   1       5.439  -3.328  -6.403  0.00  0.00     0.033 H 
ATOM     26  H   LIG d   1       4.268  -2.838  -5.155  0.00  0.00     0.033 H 
BRANCH  24  27
ATOM     27  C   LIG d   1       4.458  -1.450  -6.791  0.00  0.00     0.144 C 
ATOM     28  H   LIG d   1       3.407  -1.290  -6.553  0.00  0.00     0.102 H 
ATOM     29  H   LIG d   1       5.002  -0.511  -6.689  0.00  0.00     0.102 H 
BRANCH  27  30
ATOM     30  N   LIG d   1       4.578  -1.936  -8.169  0.00  0.00    -0.247 N 
ATOM     31  C   LIG d   1       5.358  -1.329  -9.004  0.00  0.00     0.172 C 
ATOM     32  H   LIG d   1       5.178  -1.407 -10.066  0.00  0.00     0.138 H 
ATOM     33  H   LIG d   1       4.072  -2.713  -8.454  0.00  0.00     0.445 HD
BRANCH  31  34
ATOM     34  C   LIG d   1       6.491  -0.528  -8.506  0.00  0.00     0.038 A 
ATOM     35  C   LIG d   1       6.360   0.857  -8.360  0.00  0.00    -0.047 A 
ATOM     36  C   LIG d   1       7.419   1.600  -7.889  0.00  0.00    -0.040 A 
ATOM     37  H   LIG d   1       5.429   1.341  -8.611  0.00  0.00     0.063 H 
ATOM     38  C   LIG d   1       8.622   0.977  -7.571  0.00  0.00     0.029 A 
ATOM     39  H   LIG d   1       7.317   2.668  -7.772  0.00  0.00     0.064 H 
ATOM     40  C   LIG d   1       8.757  -0.399  -7.721  0.00  0.00    -0.040 A 
ATOM     41  C   LIG d   1       7.701  -1.151  -8.185  0.00  0.00    -0.047 A 
ATOM     42  H   LIG d   1       9.692  -0.880  -7.473  0.00  0.00     0.064 H 
ATOM     43  H   LIG d   1       7.807  -2.219  -8.300  0.00  0.00     0.063 H 
BRANCH  38  44
ATOM     44  N   LIG d   1       9.692   1.733  -7.102  0.00  0.00    -0.336 N 
BRANCH  44  45
ATOM     45  C   LIG d   1       9.633   3.197  -7.153  0.00  0.00     0.000 C 
ATOM     46  H   LIG d   1      10.595   3.609  -6.851  0.00  0.00     0.043 H 
ATOM     47  H   LIG d   1       9.402   3.516  -8.169  0.00  0.00     0.043 H 
ATOM     48  H   LIG d   1       8.856   3.552  -6.475  0.00  0.00     0.043 H 
ENDBRANCH  44  45
BRANCH  44  49
ATOM     49  C   LIG d   1      10.877   1.067  -6.557  0.00  0.00     0.000 C 
ATOM     50  H   LIG d   1      11.738   1.729  -6.640  0.00  0.00     0.043 H 
ATOM     51  H   LIG d   1      10.706   0.823  -5.507  0.00  0.00     0.043 H 
ATOM     52  H   LIG d   1      11.068   0.151  -7.115  0.00  0.00     0.043 H 
ENDBRANCH  44  49
ENDBRANCH  38  44
ENDBRANCH  31  34
ENDBRANCH  27  30
ENDBRANCH  24  27
ENDBRANCH   1  24
BRANCH   1  53
ATOM     53  C   LIG d   1       5.595  -1.118  -3.839  0.00  0.00    -0.002 A 
ATOM     54  C   LIG d   1       5.862   0.231  -3.657  0.00  0.00     0.123 A 
ATOM     55  C   LIG d   1       5.321   0.903  -2.569  0.00  0.00    -0.020 A 
ATOM     56  C   LIG d   1       4.527   0.225  -1.666  0.00  0.00    -0.058 A 
ATOM     57  H   LIG d   1       5.524   1.954  -2.428  0.00  0.00     0.065 H 
ATOM     58  C   LIG d   1       4.266  -1.122  -1.848  0.00  0.00    -0.061 A 
ATOM     59  H   LIG d   1       4.109   0.746  -0.818  0.00  0.00     0.062 H 
ATOM     60  C   LIG d   1       4.800  -1.792  -2.932  0.00  0.00    -0.055 A 
ATOM     61  H   LIG d   1       3.645  -1.650  -1.140  0.00  0.00     0.062 H 
ATOM     62  H   LIG d   1       4.596  -2.843  -3.071  0.00  0.00     0.062 H 
BRANCH  54  63
ATOM     63  O   LIG d   1       6.649   0.895  -4.544  0.00  0.00    -0.495 OA
BRANCH  63  64
ATOM     64  C   LIG d   1       7.744   1.641  -4.008  0.00  0.00     0.079 C 
ATOM     65  H   LIG d   1       7.502   2.705  -4.025  0.00  0.00     0.066 H 
ATOM     66  H   LIG d   1       7.930   1.328  -2.981  0.00  0.00     0.066 H 
ATOM     67  H   LIG d   1       8.635   1.462  -4.611  0.00  0.00     0.066 H 
ENDBRANCH  63  64
ENDBRANCH  54  63
ENDBRANCH   1  53
TORSDOF 13
ENDMDL
MODEL 4
REMARK VINA RESULT:      -6.0      2.265      3.807
REMARK  13 active torsions:
REMARK  status: ('A' for Active; 'I' for Inactive)
REMARK    1  A    between atoms: C_1  and  C_2 
REMARK    2  A    between atoms: C_2  and  C_32 
REMARK    3  A    between atoms: C_4  and  C_9 
REMARK    4  A    between atoms: C_9  and  C_11 
REMARK    5  A    between atoms: C_9  and  C_24 
REMARK    6  A    between atoms: C_11  and  C_12 
REMARK    7  A    between atoms: C_12  and  N_13 
REMARK    8  A    between atoms: C_14  and  C_15 
REMARK    9  A    between atoms: C_18  and  N_21 
REMARK   10  A    between atoms: N_21  and  C_22 
REMARK   11  A    between atoms: N_21  and  C_23 
REMARK   12  A    between atoms: C_29  and  O_30 
REMARK   13  A    between atoms: O_30  and  C_31 
ROOT
ATOM      1  C   LIG d   1       6.180  -1.222  -4.711  0.00  0.00    -0.004 C 
ATOM      2  H   LIG d   1       5.801  -1.306  -5.730  0.00  0.00     0.035 H 
ENDROOT
BRANCH   1   3
ATOM      3  C   LIG d   1       7.566  -0.574  -4.734  0.00  0.00    -0.029 C 
ATOM      4  C   LIG d   1       7.552   0.633  -5.678  0.00  0.00    -0.021 C 
ATOM      5  C   LIG d   1       8.960   1.227  -5.754  0.00  0.00     0.064 C 
ATOM      6  H   LIG d   1       6.859   1.384  -5.299  0.00  0.00     0.030 H 
ATOM      7  H   LIG d   1       7.237   0.315  -6.672  0.00  0.00     0.030 H 
ATOM      8  O   LIG d   1       9.877   0.225  -6.197  0.00  0.00    -0.374 OA
ATOM      9  C   LIG d   1       9.967  -0.907  -5.329  0.00  0.00     0.049 C 
ATOM     10  C   LIG d   1       8.600  -1.588  -5.236  0.00  0.00    -0.026 C 
ATOM     11  H   LIG d   1      10.279  -0.580  -4.337  0.00  0.00     0.056 H 
ATOM     12  H   LIG d   1      10.698  -1.611  -5.725  0.00  0.00     0.056 H 
ATOM     13  H   LIG d   1       8.656  -2.424  -4.540  0.00  0.00     0.029 H 
ATOM     14  H   LIG d   1       8.305  -1.951  -6.221  0.00  0.00     0.029 H 
ATOM     15  H   LIG d   1       7.833  -0.248  -3.729  0.00  0.00     0.031 H 
BRANCH   5  16
ATOM     16  C   LIG d   1       9.378   1.726  -4.369  0.00  0.00    -0.036 C 
ATOM     17  H   LIG d   1       9.156   0.961  -3.624  0.00  0.00     0.026 H 
ATOM     18  H   LIG d   1      10.449   1.934  -4.365  0.00  0.00     0.026 H 
ATOM     19  H   LIG d   1       8.831   2.637  -4.130  0.00  0.00     0.026 H 
ENDBRANCH   5  16
BRANCH   5  20
ATOM     20  C   LIG d   1       8.967   2.398  -6.740  0.00  0.00    -0.036 C 
ATOM     21  H   LIG d   1       9.707   2.211  -7.520  0.00  0.00     0.026 H 
ATOM     22  H   LIG d   1       7.980   2.497  -7.193  0.00  0.00     0.026 H 
ATOM     23  H   LIG d   1       9.219   3.317  -6.212  0.00  0.00     0.026 H 
ENDBRANCH   5  20
ENDBRANCH   1   3
BRANCH   1  24
ATOM     24  C   LIG d   1       6.279  -2.615  -4.088  0.00  0.00     0.014 C 
ATOM     25  H   LIG d   1       7.301  -2.982  -4.177  0.00  0.00     0.033 H 
ATOM     26  H   LIG d   1       6.003  -2.561  -3.034  0.00  0.00     0.033 H 
BRANCH  24  27
ATOM     27  C   LIG d   1       5.329  -3.568  -4.815  0.00  0.00     0.144 C 
ATOM     28  H   LIG d   1       4.703  -4.084  -4.087  0.00  0.00     0.102 H 
ATOM     29  H   LIG d   1       4.699  -3.000  -5.500  0.00  0.00     0.102 H 
BRANCH  27  30
ATOM     30  N   LIG d   1       6.109  -4.551  -5.572  0.00  0.00    -0.247 N 
ATOM     31  C   LIG d   1       5.944  -4.663  -6.851  0.00  0.00     0.172 C 
ATOM     32  H   LIG d   1       6.190  -5.589  -7.348  0.00  0.00     0.138 H 
ATOM     33  H   LIG d   1       6.750  -5.118  -5.114  0.00  0.00     0.445 HD
BRANCH  31  34
ATOM     34  C   LIG d   1       5.417  -3.527  -7.628  0.00  0.00     0.038 A 
ATOM     35  C   LIG d   1       6.271  -2.492  -8.022  0.00  0.00    -0.047 A 
ATOM     36  C   LIG d   1       5.776  -1.435  -8.753  0.00  0.00    -0.040 A 
ATOM     37  H   LIG d   1       7.317  -2.525  -7.760  0.00  0.00     0.063 H 
ATOM     38  C   LIG d   1       4.425  -1.389  -9.087  0.00  0.00     0.029 A 
ATOM     39  H   LIG d   1       6.435  -0.638  -9.062  0.00  0.00     0.064 H 
ATOM     40  C   LIG d   1       3.573  -2.414  -8.690  0.00  0.00    -0.040 A 
ATOM     41  C   LIG d   1       4.061  -3.478  -7.966  0.00  0.00    -0.047 A 
ATOM     42  H   LIG d   1       2.525  -2.376  -8.951  0.00  0.00     0.064 H 
ATOM     43  H   LIG d   1       3.398  -4.273  -7.659  0.00  0.00     0.063 H 
BRANCH  38  44
ATOM     44  N   LIG d   1       3.928  -0.316  -9.820  0.00  0.00    -0.336 N 
BRANCH  44  45
ATOM     45  C   LIG d   1       4.845   0.701 -10.344  0.00  0.00     0.000 C 
ATOM     46  H   LIG d   1       4.311   1.642 -10.467  0.00  0.00     0.043 H 
ATOM     47  H   LIG d   1       5.671   0.838  -9.646  0.00  0.00     0.043 H 
ATOM     48  H   LIG d   1       5.234   0.375 -11.309  0.00  0.00     0.043 H 
ENDBRANCH  44  45
BRANCH  44  49
ATOM     49  C   LIG d   1       2.489  -0.202 -10.067  0.00  0.00     0.000 C 
ATOM     50  H   LIG d   1       1.974  -1.051  -9.620  0.00  0.00     0.043 H 
ATOM     51  H   LIG d   1       2.117   0.723  -9.624  0.00  0.00     0.043 H 
ATOM     52  H   LIG d   1       2.305  -0.189 -11.141  0.00  0.00     0.043 H 
ENDBRANCH  44  49
ENDBRANCH  38  44
ENDBRANCH  31  34
ENDBRANCH  27  30
ENDBRANCH  24  27
ENDBRANCH   1  24
BRANCH   1  53
ATOM     53  C   LIG d   1       5.241  -0.371  -3.895  0.00  0.00    -0.002 A 
ATOM     54  C   LIG d   1       4.000  -0.021  -4.407  0.00  0.00     0.123 A 
ATOM     55  C   LIG d   1       3.135   0.758  -3.651  0.00  0.00    -0.020 A 
ATOM     56  C   LIG d   1       3.516   1.191  -2.396  0.00  0.00    -0.058 A 
ATOM     57  H   LIG d   1       2.167   1.027  -4.044  0.00  0.00     0.065 H 
ATOM     58  C   LIG d   1       4.757   0.845  -1.891  0.00  0.00    -0.061 A 
ATOM     59  H   LIG d   1       2.846   1.801  -1.809  0.00  0.00     0.062 H 
ATOM     60  C   LIG d   1       5.618   0.066  -2.641  0.00  0.00    -0.055 A 
ATOM     61  H   LIG d   1       5.053   1.185  -0.910  0.00  0.00     0.062 H 
ATOM     62  H   LIG d   1       6.586  -0.203  -2.244  0.00  0.00     0.062 H 
BRANCH  54  63
ATOM     63  O   LIG d   1       3.630  -0.444  -5.644  0.00  0.00    -0.495 OA
BRANCH  63  64
ATOM     64  C   LIG d   1       2.745   0.403  -6.381  0.00  0.00     0.079 C 
ATOM     65  H   LIG d   1       3.328   1.098  -6.987  0.00  0.00     0.066 H 
ATOM     66  H   LIG d   1       2.117  -0.206  -7.031  0.00  0.00     0.066 H 
ATOM     67  H   LIG d   1       2.117   0.964  -5.688  0.00  0.00     0.066 H 
ENDBRANCH  63  64
ENDBRANCH  54  63
ENDBRANCH   1  53
TORSDOF 13
ENDMDL
MODEL 5
REMARK VINA RESULT:      -6.0      2.652      4.755
REMARK  13 active torsions:
REMARK  status: ('A' for Active; 'I' for Inactive)
REMARK    1  A    between atoms: C_1  and  C_2 
REMARK    2  A    between atoms: C_2  and  C_32 
REMARK    3  A    between atoms: C_4  and  C_9 
REMARK    4  A    between atoms: C_9  and  C_11 
REMARK    5  A    between atoms: C_9  and  C_24 
REMARK    6  A    between atoms: C_11  and  C_12 
REMARK    7  A    between atoms: C_12  and  N_13 
REMARK    8  A    between atoms: C_14  and  C_15 
REMARK    9  A    between atoms: C_18  and  N_21 
REMARK   10  A    between atoms: N_21  and  C_22 
REMARK   11  A    between atoms: N_21  and  C_23 
REMARK   12  A    between atoms: C_29  and  O_30 
REMARK   13  A    between atoms: O_30  and  C_31 
ROOT
ATOM      1  C   LIG d   1       4.934  -0.851  -6.540  0.00  0.00    -0.004 C 
ATOM      2  H   LIG d   1       5.227   0.199  -6.578  0.00  0.00     0.035 H 
ENDROOT
BRANCH   1   3
ATOM      3  C   LIG d   1       4.343  -1.166  -5.164  0.00  0.00    -0.029 C 
ATOM      4  C   LIG d   1       4.678  -0.032  -4.190  0.00  0.00    -0.021 C 
ATOM      5  C   LIG d   1       4.150  -0.391  -2.800  0.00  0.00     0.064 C 
ATOM      6  H   LIG d   1       4.210   0.891  -4.531  0.00  0.00     0.030 H 
ATOM      7  H   LIG d   1       5.759   0.103  -4.146  0.00  0.00     0.030 H 
ATOM      8  O   LIG d   1       4.722  -1.632  -2.379  0.00  0.00    -0.374 OA
ATOM      9  C   LIG d   1       4.403  -2.737  -3.226  0.00  0.00     0.049 C 
ATOM     10  C   LIG d   1       4.942  -2.473  -4.634  0.00  0.00    -0.026 C 
ATOM     11  H   LIG d   1       3.321  -2.862  -3.268  0.00  0.00     0.056 H 
ATOM     12  H   LIG d   1       4.858  -3.643  -2.827  0.00  0.00     0.056 H 
ATOM     13  H   LIG d   1       4.660  -3.295  -5.292  0.00  0.00     0.029 H 
ATOM     14  H   LIG d   1       6.028  -2.387  -4.599  0.00  0.00     0.029 H 
ATOM     15  H   LIG d   1       3.261  -1.267  -5.246  0.00  0.00     0.031 H 
BRANCH   5  16
ATOM     16  C   LIG d   1       2.627  -0.523  -2.851  0.00  0.00    -0.036 C 
ATOM     17  H   LIG d   1       2.246  -0.736  -1.852  0.00  0.00     0.026 H 
ATOM     18  H   LIG d   1       2.193   0.410  -3.213  0.00  0.00     0.026 H 
ATOM     19  H   LIG d   1       2.355  -1.335  -3.525  0.00  0.00     0.026 H 
ENDBRANCH   5  16
BRANCH   5  20
ATOM     20  C   LIG d   1       4.533   0.710  -1.808  0.00  0.00    -0.036 C 
ATOM     21  H   LIG d   1       4.447   0.328  -0.790  0.00  0.00     0.026 H 
ATOM     22  H   LIG d   1       5.561   1.024  -1.993  0.00  0.00     0.026 H 
ATOM     23  H   LIG d   1       3.865   1.562  -1.935  0.00  0.00     0.026 H 
ENDBRANCH   5  20
ENDBRANCH   1   3
BRANCH   1  24
ATOM     24  C   LIG d   1       6.161  -1.732  -6.782  0.00  0.00     0.014 C 
ATOM     25  H   LIG d   1       6.795  -1.724  -5.895  0.00  0.00     0.033 H 
ATOM     26  H   LIG d   1       5.839  -2.753  -6.989  0.00  0.00     0.033 H 
BRANCH  24  27
ATOM     27  C   LIG d   1       6.948  -1.193  -7.977  0.00  0.00     0.144 C 
ATOM     28  H   LIG d   1       7.946  -1.632  -7.983  0.00  0.00     0.102 H 
ATOM     29  H   LIG d   1       6.431  -1.453  -8.900  0.00  0.00     0.102 H 
BRANCH  27  30
ATOM     30  N   LIG d   1       7.058   0.265  -7.873  0.00  0.00    -0.247 N 
ATOM     31  C   LIG d   1       6.917   1.002  -8.927  0.00  0.00     0.172 C 
ATOM     32  H   LIG d   1       7.359   1.986  -8.962  0.00  0.00     0.138 H 
ATOM     33  H   LIG d   1       7.236   0.677  -7.013  0.00  0.00     0.445 HD
BRANCH  31  34
ATOM     34  C   LIG d   1       6.152   0.497 -10.082  0.00  0.00     0.038 A 
ATOM     35  C   LIG d   1       6.659  -0.555 -10.852  0.00  0.00    -0.047 A 
ATOM     36  C   LIG d   1       5.940  -1.027 -11.927  0.00  0.00    -0.040 A 
ATOM     37  H   LIG d   1       7.610  -0.999 -10.600  0.00  0.00     0.063 H 
ATOM     38  C   LIG d   1       4.717  -0.450 -12.255  0.00  0.00     0.029 A 
ATOM     39  H   LIG d   1       6.328  -1.842 -12.519  0.00  0.00     0.064 H 
ATOM     40  C   LIG d   1       4.213   0.600 -11.495  0.00  0.00    -0.040 A 
ATOM     41  C   LIG d   1       4.923   1.073 -10.414  0.00  0.00    -0.047 A 
ATOM     42  H   LIG d   1       3.263   1.045 -11.752  0.00  0.00     0.064 H 
ATOM     43  H   LIG d   1       4.531   1.888  -9.825  0.00  0.00     0.063 H 
BRANCH  38  44
ATOM     44  N   LIG d   1       3.996  -0.927 -13.346  0.00  0.00    -0.336 N 
BRANCH  44  45
ATOM     45  C   LIG d   1       2.878  -1.852 -13.138  0.00  0.00     0.000 C 
ATOM     46  H   LIG d   1       1.969  -1.284 -12.943  0.00  0.00     0.043 H 
ATOM     47  H   LIG d   1       2.741  -2.463 -14.030  0.00  0.00     0.043 H 
ATOM     48  H   LIG d   1       3.094  -2.496 -12.285  0.00  0.00     0.043 H 
ENDBRANCH  44  45
BRANCH  44  49
ATOM     49  C   LIG d   1       4.354  -0.504 -14.702  0.00  0.00     0.000 C 
ATOM     50  H   LIG d   1       4.121  -1.303 -15.406  0.00  0.00     0.043 H 
ATOM     51  H   LIG d   1       3.787   0.389 -14.966  0.00  0.00     0.043 H 
ATOM     52  H   LIG d   1       5.420  -0.283 -14.744  0.00  0.00     0.043 H 
ENDBRANCH  44  49
ENDBRANCH  38  44
ENDBRANCH  31  34
ENDBRANCH  27  30
ENDBRANCH  24  27
ENDBRANCH   1  24
BRANCH   1  53
ATOM     53  C   LIG d   1       3.902  -1.122  -7.604  0.00  0.00    -0.002 A 
ATOM     54  C   LIG d   1       2.965  -0.152  -7.925  0.00  0.00     0.123 A 
ATOM     55  C   LIG d   1       2.018  -0.403  -8.909  0.00  0.00    -0.020 A 
ATOM     56  C   LIG d   1       2.007  -1.621  -9.559  0.00  0.00    -0.058 A 
ATOM     57  H   LIG d   1       1.291   0.353  -9.164  0.00  0.00     0.065 H 
ATOM     58  C   LIG d   1       2.940  -2.589  -9.233  0.00  0.00    -0.061 A 
ATOM     59  H   LIG d   1       1.269  -1.819 -10.322  0.00  0.00     0.062 H 
ATOM     60  C   LIG d   1       3.886  -2.339  -8.256  0.00  0.00    -0.055 A 
ATOM     61  H   LIG d   1       2.929  -3.541  -9.743  0.00  0.00     0.062 H 
ATOM     62  H   LIG d   1       4.613  -3.097  -8.004  0.00  0.00     0.062 H 
BRANCH  54  63
ATOM     63  O   LIG d   1       2.974   1.044  -7.280  0.00  0.00    -0.495 OA
BRANCH  63  64
ATOM     64  C   LIG d   1       2.698   2.207  -8.063  0.00  0.00     0.079 C 
ATOM     65  H   LIG d   1       2.705   1.942  -9.122  0.00  0.00     0.066 H 
ATOM     66  H   LIG d   1       1.719   2.602  -7.795  0.00  0.00     0.066 H 
ATOM     67  H   LIG d   1       3.461   2.963  -7.874  0.00  0.00     0.066 H 
ENDBRANCH  63  64
ENDBRANCH  54  63
ENDBRANCH   1  53
TORSDOF 13
ENDMDL
MODEL 6
REMARK VINA RESULT:      -6.0      3.060      6.641
REMARK  13 active torsions:
REMARK  status: ('A' for Active; 'I' for Inactive)
REMARK    1  A    between atoms: C_1  and  C_2 
REMARK    2  A    between atoms: C_2  and  C_32 
REMARK    3  A    between atoms: C_4  and  C_9 
REMARK    4  A    between atoms: C_9  and  C_11 
REMARK    5  A    between atoms: C_9  and  C_24 
REMARK    6  A    between atoms: C_11  and  C_12 
REMARK    7  A    between atoms: C_12  and  N_13 
REMARK    8  A    between atoms: C_14  and  C_15 
REMARK    9  A    between atoms: C_18  and  N_21 
REMARK   10  A    between atoms: N_21  and  C_22 
REMARK   11  A    between atoms: N_21  and  C_23 
REMARK   12  A    between atoms: C_29  and  O_30 
REMARK   13  A    between atoms: O_30  and  C_31 
ROOT
ATOM      1  C   LIG d   1       5.302  -1.085  -6.439  0.00  0.00    -0.004 C 
ATOM      2  H   LIG d   1       6.208  -0.515  -6.235  0.00  0.00     0.035 H 
ENDROOT
BRANCH   1   3
ATOM      3  C   LIG d   1       4.524  -1.288  -5.136  0.00  0.00    -0.029 C 
ATOM      4  C   LIG d   1       4.746  -0.085  -4.214  0.00  0.00    -0.021 C 
ATOM      5  C   LIG d   1       4.028  -0.332  -2.885  0.00  0.00     0.064 C 
ATOM      6  H   LIG d   1       4.345   0.812  -4.684  0.00  0.00     0.030 H 
ATOM      7  H   LIG d   1       5.813   0.044  -4.033  0.00  0.00     0.030 H 
ATOM      8  O   LIG d   1       4.515  -1.541  -2.298  0.00  0.00    -0.374 OA
ATOM      9  C   LIG d   1       4.293  -2.706  -3.095  0.00  0.00     0.049 C 
ATOM     10  C   LIG d   1       5.022  -2.555  -4.432  0.00  0.00    -0.026 C 
ATOM     11  H   LIG d   1       3.224  -2.825  -3.274  0.00  0.00     0.056 H 
ATOM     12  H   LIG d   1       4.673  -3.582  -2.570  0.00  0.00     0.056 H 
ATOM     13  H   LIG d   1       4.817  -3.423  -5.058  0.00  0.00     0.029 H 
ATOM     14  H   LIG d   1       6.095  -2.476  -4.256  0.00  0.00     0.029 H 
ATOM     15  H   LIG d   1       3.462  -1.388  -5.357  0.00  0.00     0.031 H 
BRANCH   5  16
ATOM     16  C   LIG d   1       2.523  -0.455  -3.134  0.00  0.00    -0.036 C 
ATOM     17  H   LIG d   1       2.292  -1.465  -3.475  0.00  0.00     0.026 H 
ATOM     18  H   LIG d   1       1.983  -0.254  -2.208  0.00  0.00     0.026 H 
ATOM     19  H   LIG d   1       2.220   0.264  -3.895  0.00  0.00     0.026 H 
ENDBRANCH   5  16
BRANCH   5  20
ATOM     20  C   LIG d   1       4.293   0.840  -1.937  0.00  0.00    -0.036 C 
ATOM     21  H   LIG d   1       3.343   1.254  -1.597  0.00  0.00     0.026 H 
ATOM     22  H   LIG d   1       4.865   0.489  -1.078  0.00  0.00     0.026 H 
ATOM     23  H   LIG d   1       4.859   1.610  -2.460  0.00  0.00     0.026 H 
ENDBRANCH   5  20
ENDBRANCH   1   3
BRANCH   1  24
ATOM     24  C   LIG d   1       5.677  -2.447  -7.026  0.00  0.00     0.014 C 
ATOM     25  H   LIG d   1       5.526  -3.222  -6.274  0.00  0.00     0.033 H 
ATOM     26  H   LIG d   1       5.049  -2.654  -7.892  0.00  0.00     0.033 H 
BRANCH  24  27
ATOM     27  C   LIG d   1       7.146  -2.431  -7.453  0.00  0.00     0.144 C 
ATOM     28  H   LIG d   1       7.249  -2.927  -8.418  0.00  0.00     0.102 H 
ATOM     29  H   LIG d   1       7.489  -1.399  -7.535  0.00  0.00     0.102 H 
BRANCH  27  30
ATOM     30  N   LIG d   1       7.953  -3.136  -6.453  0.00  0.00    -0.247 N 
ATOM     31  C   LIG d   1       8.987  -2.558  -5.932  0.00  0.00     0.172 C 
ATOM     32  H   LIG d   1       9.787  -3.153  -5.518  0.00  0.00     0.138 H 
ATOM     33  H   LIG d   1       7.712  -4.035  -6.181  0.00  0.00     0.445 HD
BRANCH  31  34
ATOM     34  C   LIG d   1       9.074  -1.087  -5.906  0.00  0.00     0.038 A 
ATOM     35  C   LIG d   1       9.863  -0.414  -6.845  0.00  0.00    -0.047 A 
ATOM     36  C   LIG d   1       9.937   0.960  -6.821  0.00  0.00    -0.040 A 
ATOM     37  H   LIG d   1      10.407  -0.972  -7.592  0.00  0.00     0.063 H 
ATOM     38  C   LIG d   1       9.240   1.679  -5.854  0.00  0.00     0.029 A 
ATOM     39  H   LIG d   1      10.541   1.480  -7.549  0.00  0.00     0.064 H 
ATOM     40  C   LIG d   1       8.461   1.013  -4.914  0.00  0.00    -0.040 A 
ATOM     41  C   LIG d   1       8.376  -0.361  -4.937  0.00  0.00    -0.047 A 
ATOM     42  H   LIG d   1       7.921   1.574  -4.165  0.00  0.00     0.064 H 
ATOM     43  H   LIG d   1       7.770  -0.877  -4.207  0.00  0.00     0.063 H 
BRANCH  38  44
ATOM     44  N   LIG d   1       9.324   3.068  -5.829  0.00  0.00    -0.336 N 
BRANCH  44  45
ATOM     45  C   LIG d   1       9.168   3.789  -4.562  0.00  0.00     0.000 C 
ATOM     46  H   LIG d   1       8.203   4.294  -4.549  0.00  0.00     0.043 H 
ATOM     47  H   LIG d   1       9.221   3.082  -3.734  0.00  0.00     0.043 H 
ATOM     48  H   LIG d   1       9.966   4.526  -4.463  0.00  0.00     0.043 H 
ENDBRANCH  44  45
BRANCH  44  49
ATOM     49  C   LIG d   1       9.566   3.810  -7.068  0.00  0.00     0.000 C 
ATOM     50  H   LIG d   1      10.570   4.234  -7.048  0.00  0.00     0.043 H 
ATOM     51  H   LIG d   1       9.474   3.134  -7.919  0.00  0.00     0.043 H 
ATOM     52  H   LIG d   1       8.835   4.612  -7.161  0.00  0.00     0.043 H 
ENDBRANCH  44  49
ENDBRANCH  38  44
ENDBRANCH  31  34
ENDBRANCH  27  30
ENDBRANCH  24  27
ENDBRANCH   1  24
BRANCH   1  53
ATOM     53  C   LIG d   1       4.445  -0.332  -7.423  0.00  0.00    -0.002 A 
ATOM     54  C   LIG d   1       4.936   0.809  -8.039  0.00  0.00     0.123 A 
ATOM     55  C   LIG d   1       4.146   1.498  -8.950  0.00  0.00    -0.020 A 
ATOM     56  C   LIG d   1       2.871   1.051  -9.232  0.00  0.00    -0.058 A 
ATOM     57  H   LIG d   1       4.528   2.383  -9.434  0.00  0.00     0.065 H 
ATOM     58  C   LIG d   1       2.382  -0.085  -8.612  0.00  0.00    -0.061 A 
ATOM     59  H   LIG d   1       2.254   1.588  -9.937  0.00  0.00     0.062 H 
ATOM     60  C   LIG d   1       3.168  -0.775  -7.708  0.00  0.00    -0.055 A 
ATOM     61  H   LIG d   1       1.384  -0.432  -8.834  0.00  0.00     0.062 H 
ATOM     62  H   LIG d   1       2.784  -1.661  -7.225  0.00  0.00     0.062 H 
BRANCH  54  63
ATOM     63  O   LIG d   1       6.189   1.250  -7.756  0.00  0.00    -0.495 OA
BRANCH  63  64
ATOM     64  C   LIG d   1       6.949   1.790  -8.840  0.00  0.00     0.079 C 
ATOM     65  H   LIG d   1       7.321   0.976  -9.463  0.00  0.00     0.066 H 
ATOM     66  H   LIG d   1       6.314   2.443  -9.438  0.00  0.00     0.066 H 
ATOM     67  H   LIG d   1       7.791   2.359  -8.446  0.00  0.00     0.066 H 
ENDBRANCH  63  64
ENDBRANCH  54  63
ENDBRANCH   1  53
TORSDOF 13
ENDMDL
MODEL 7
REMARK VINA RESULT:      -5.9      2.847      7.548
REMARK  13 active torsions:
REMARK  status: ('A' for Active; 'I' for Inactive)
REMARK    1  A    between atoms: C_1  and  C_2 
REMARK    2  A    between atoms: C_2  and  C_32 
REMARK    3  A    between atoms: C_4  and  C_9 
REMARK    4  A    between atoms: C_9  and  C_11 
REMARK    5  A    between atoms: C_9  and  C_24 
REMARK    6  A    between atoms: C_11  and  C_12 
REMARK    7  A    between atoms: C_12  and  N_13 
REMARK    8  A    between atoms: C_14  and  C_15 
REMARK    9  A    between atoms: C_18  and  N_21 
REMARK   10  A    between atoms: N_21  and  C_22 
REMARK   11  A    between atoms: N_21  and  C_23 
REMARK   12  A    between atoms: C_29  and  O_30 
REMARK   13  A    between atoms: O_30  and  C_31 
ROOT
ATOM      1  C   LIG d   1       5.311  -0.886  -6.382  0.00  0.00    -0.004 C 
ATOM      2  H   LIG d   1       6.173  -0.243  -6.197  0.00  0.00     0.035 H 
ENDROOT
BRANCH   1   3
ATOM      3  C   LIG d   1       4.538  -1.091  -5.078  0.00  0.00    -0.029 C 
ATOM      4  C   LIG d   1       4.927  -0.001  -4.074  0.00  0.00    -0.021 C 
ATOM      5  C   LIG d   1       4.208  -0.259  -2.749  0.00  0.00     0.064 C 
ATOM      6  H   LIG d   1       4.636   0.974  -4.464  0.00  0.00     0.030 H 
ATOM      7  H   LIG d   1       6.006  -0.022  -3.913  0.00  0.00     0.030 H 
ATOM      8  O   LIG d   1       4.547  -1.561  -2.268  0.00  0.00    -0.374 OA
ATOM      9  C   LIG d   1       4.165  -2.623  -3.144  0.00  0.00     0.049 C 
ATOM     10  C   LIG d   1       4.882  -2.462  -4.485  0.00  0.00    -0.026 C 
ATOM     11  H   LIG d   1       3.086  -2.593  -3.302  0.00  0.00     0.056 H 
ATOM     12  H   LIG d   1       4.439  -3.579  -2.697  0.00  0.00     0.056 H 
ATOM     13  H   LIG d   1       4.558  -3.245  -5.169  0.00  0.00     0.029 H 
ATOM     14  H   LIG d   1       5.960  -2.531  -4.334  0.00  0.00     0.029 H 
ATOM     15  H   LIG d   1       3.467  -1.038  -5.276  0.00  0.00     0.031 H 
BRANCH   5  16
ATOM     16  C   LIG d   1       2.696  -0.172  -2.964  0.00  0.00    -0.036 C 
ATOM     17  H   LIG d   1       2.392   0.875  -2.997  0.00  0.00     0.026 H 
ATOM     18  H   LIG d   1       2.434  -0.655  -3.906  0.00  0.00     0.026 H 
ATOM     19  H   LIG d   1       2.182  -0.673  -2.144  0.00  0.00     0.026 H 
ENDBRANCH   5  16
BRANCH   5  20
ATOM     20  C   LIG d   1       4.637   0.792  -1.722  0.00  0.00    -0.036 C 
ATOM     21  H   LIG d   1       5.665   1.097  -1.923  0.00  0.00     0.026 H 
ATOM     22  H   LIG d   1       3.980   1.660  -1.794  0.00  0.00     0.026 H 
ATOM     23  H   LIG d   1       4.573   0.370  -0.719  0.00  0.00     0.026 H 
ENDBRANCH   5  20
ENDBRANCH   1   3
BRANCH   1  24
ATOM     24  C   LIG d   1       5.790  -2.240  -6.910  0.00  0.00     0.014 C 
ATOM     25  H   LIG d   1       5.551  -3.018  -6.185  0.00  0.00     0.033 H 
ATOM     26  H   LIG d   1       5.291  -2.458  -7.854  0.00  0.00     0.033 H 
BRANCH  24  27
ATOM     27  C   LIG d   1       7.302  -2.196  -7.130  0.00  0.00     0.144 C 
ATOM     28  H   LIG d   1       7.779  -2.977  -6.538  0.00  0.00     0.102 H 
ATOM     29  H   LIG d   1       7.521  -2.356  -8.186  0.00  0.00     0.102 H 
BRANCH  27  30
ATOM     30  N   LIG d   1       7.819  -0.887  -6.719  0.00  0.00    -0.247 N 
ATOM     31  C   LIG d   1       8.387  -0.749  -5.564  0.00  0.00     0.172 C 
ATOM     32  H   LIG d   1       8.418   0.220  -5.090  0.00  0.00     0.138 H 
ATOM     33  H   LIG d   1       7.735  -0.125  -7.312  0.00  0.00     0.445 HD
BRANCH  31  34
ATOM     34  C   LIG d   1       8.991  -1.916  -4.896  0.00  0.00     0.038 A 
ATOM     35  C   LIG d   1       8.247  -2.657  -3.972  0.00  0.00    -0.047 A 
ATOM     36  C   LIG d   1       8.813  -3.749  -3.354  0.00  0.00    -0.040 A 
ATOM     37  H   LIG d   1       7.229  -2.377  -3.749  0.00  0.00     0.063 H 
ATOM     38  C   LIG d   1      10.128  -4.108  -3.638  0.00  0.00     0.029 A 
ATOM     39  H   LIG d   1       8.238  -4.325  -2.645  0.00  0.00     0.064 H 
ATOM     40  C   LIG d   1      10.872  -3.369  -4.552  0.00  0.00    -0.040 A 
ATOM     41  C   LIG d   1      10.311  -2.279  -5.179  0.00  0.00    -0.047 A 
ATOM     42  H   LIG d   1      11.892  -3.650  -4.770  0.00  0.00     0.064 H 
ATOM     43  H   LIG d   1      10.889  -1.707  -5.888  0.00  0.00     0.063 H 
BRANCH  38  44
ATOM     44  N   LIG d   1      10.698  -5.209  -3.006  0.00  0.00    -0.336 N 
BRANCH  44  45
ATOM     45  C   LIG d   1      12.013  -5.698  -3.431  0.00  0.00     0.000 C 
ATOM     46  H   LIG d   1      12.276  -5.246  -4.387  0.00  0.00     0.043 H 
ATOM     47  H   LIG d   1      12.759  -5.431  -2.683  0.00  0.00     0.043 H 
ATOM     48  H   LIG d   1      11.979  -6.783  -3.540  0.00  0.00     0.043 H 
ENDBRANCH  44  45
BRANCH  44  49
ATOM     49  C   LIG d   1       9.984  -5.880  -1.917  0.00  0.00     0.000 C 
ATOM     50  H   LIG d   1       8.914  -5.704  -2.021  0.00  0.00     0.043 H 
ATOM     51  H   LIG d   1      10.182  -6.952  -1.959  0.00  0.00     0.043 H 
ATOM     52  H   LIG d   1      10.327  -5.485  -0.961  0.00  0.00     0.043 H 
ENDBRANCH  44  49
ENDBRANCH  38  44
ENDBRANCH  31  34
ENDBRANCH  27  30
ENDBRANCH  24  27
ENDBRANCH   1  24
BRANCH   1  53
ATOM     53  C   LIG d   1       4.412  -0.238  -7.403  0.00  0.00    -0.002 A 
ATOM     54  C   LIG d   1       4.847   0.879  -8.101  0.00  0.00     0.123 A 
ATOM     55  C   LIG d   1       4.018   1.471  -9.044  0.00  0.00    -0.020 A 
ATOM     56  C   LIG d   1       2.760   0.953  -9.279  0.00  0.00    -0.058 A 
ATOM     57  H   LIG d   1       4.356   2.338  -9.592  0.00  0.00     0.065 H 
ATOM     58  C   LIG d   1       2.328  -0.159  -8.577  0.00  0.00    -0.061 A 
ATOM     59  H   LIG d   1       2.113   1.414 -10.009  0.00  0.00     0.062 H 
ATOM     60  C   LIG d   1       3.153  -0.752  -7.640  0.00  0.00    -0.055 A 
ATOM     61  H   LIG d   1       1.343  -0.562  -8.762  0.00  0.00     0.062 H 
ATOM     62  H   LIG d   1       2.812  -1.619  -7.094  0.00  0.00     0.062 H 
BRANCH  54  63
ATOM     63  O   LIG d   1       6.083   1.392  -7.864  0.00  0.00    -0.495 OA
BRANCH  63  64
ATOM     64  C   LIG d   1       6.859   1.768  -9.004  0.00  0.00     0.079 C 
ATOM     65  H   LIG d   1       7.792   1.204  -9.010  0.00  0.00     0.066 H 
ATOM     66  H   LIG d   1       6.298   1.552  -9.913  0.00  0.00     0.066 H 
ATOM     67  H   LIG d   1       7.080   2.834  -8.957  0.00  0.00     0.066 H 
ENDBRANCH  63  64
ENDBRANCH  54  63
ENDBRANCH   1  53
TORSDOF 13
ENDMDL
MODEL 8
REMARK VINA RESULT:      -5.7      2.407      3.995
REMARK  13 active torsions:
REMARK  status: ('A' for Active; 'I' for Inactive)
REMARK    1  A    between atoms: C_1  and  C_2 
REMARK    2  A    between atoms: C_2  and  C_32 
REMARK    3  A    between atoms: C_4  and  C_9 
REMARK    4  A    between atoms: C_9  and  C_11 
REMARK    5  A    between atoms: C_9  and  C_24 
REMARK    6  A    between atoms: C_11  and  C_12 
REMARK    7  A    between atoms: C_12  and  N_13 
REMARK    8  A    between atoms: C_14  and  C_15 
REMARK    9  A    between atoms: C_18  and  N_21 
REMARK   10  A    between atoms: N_21  and  C_22 
REMARK   11  A    between atoms: N_21  and  C_23 
REMARK   12  A    between atoms: C_29  and  O_30 
REMARK   13  A    between atoms: O_30  and  C_31 
ROOT
ATOM      1  C   LIG d   1       5.724  -1.837  -3.872  0.00  0.00    -0.004 C 
ATOM      2  H   LIG d   1       5.360  -2.326  -2.968  0.00  0.00     0.035 H 
ENDROOT
BRANCH   1   3
ATOM      3  C   LIG d   1       6.160  -2.898  -4.885  0.00  0.00    -0.029 C 
ATOM      4  C   LIG d   1       5.179  -4.074  -4.851  0.00  0.00    -0.021 C 
ATOM      5  C   LIG d   1       5.665  -5.162  -5.811  0.00  0.00     0.064 C 
ATOM      6  H   LIG d   1       4.190  -3.732  -5.157  0.00  0.00     0.030 H 
ATOM      7  H   LIG d   1       5.128  -4.477  -3.839  0.00  0.00     0.030 H 
ATOM      8  O   LIG d   1       6.984  -5.568  -5.441  0.00  0.00    -0.374 OA
ATOM      9  C   LIG d   1       7.954  -4.521  -5.500  0.00  0.00     0.049 C 
ATOM     10  C   LIG d   1       7.561  -3.407  -4.528  0.00  0.00    -0.026 C 
ATOM     11  H   LIG d   1       7.996  -4.121  -6.514  0.00  0.00     0.056 H 
ATOM     12  H   LIG d   1       8.932  -4.915  -5.225  0.00  0.00     0.056 H 
ATOM     13  H   LIG d   1       8.276  -2.587  -4.604  0.00  0.00     0.029 H 
ATOM     14  H   LIG d   1       7.558  -3.795  -3.509  0.00  0.00     0.029 H 
ATOM     15  H   LIG d   1       6.174  -2.464  -5.885  0.00  0.00     0.031 H 
BRANCH   5  16
ATOM     16  C   LIG d   1       5.681  -4.612  -7.239  0.00  0.00    -0.036 C 
ATOM     17  H   LIG d   1       5.052  -5.236  -7.876  0.00  0.00     0.026 H 
ATOM     18  H   LIG d   1       5.298  -3.591  -7.240  0.00  0.00     0.026 H 
ATOM     19  H   LIG d   1       6.702  -4.618  -7.619  0.00  0.00     0.026 H 
ENDBRANCH   5  16
BRANCH   5  20
ATOM     20  C   LIG d   1       4.721  -6.365  -5.738  0.00  0.00    -0.036 C 
ATOM     21  H   LIG d   1       4.260  -6.405  -4.751  0.00  0.00     0.026 H 
ATOM     22  H   LIG d   1       3.945  -6.264  -6.498  0.00  0.00     0.026 H 
ATOM     23  H   LIG d   1       5.285  -7.281  -5.914  0.00  0.00     0.026 H 
ENDBRANCH   5  20
ENDBRANCH   1   3
BRANCH   1  24
ATOM     24  C   LIG d   1       6.917  -0.945  -3.523  0.00  0.00     0.014 C 
ATOM     25  H   LIG d   1       6.760  -0.494  -2.543  0.00  0.00     0.033 H 
ATOM     26  H   LIG d   1       7.827  -1.546  -3.505  0.00  0.00     0.033 H 
BRANCH  24  27
ATOM     27  C   LIG d   1       7.054   0.157  -4.575  0.00  0.00     0.144 C 
ATOM     28  H   LIG d   1       6.413  -0.071  -5.426  0.00  0.00     0.102 H 
ATOM     29  H   LIG d   1       6.758   1.112  -4.141  0.00  0.00     0.102 H 
BRANCH  27  30
ATOM     30  N   LIG d   1       8.448   0.236  -5.021  0.00  0.00    -0.247 N 
ATOM     31  C   LIG d   1       8.763  -0.121  -6.225  0.00  0.00     0.172 C 
ATOM     32  H   LIG d   1       9.771  -0.437  -6.448  0.00  0.00     0.138 H 
ATOM     33  H   LIG d   1       9.134   0.556  -4.415  0.00  0.00     0.445 HD
BRANCH  31  34
ATOM     34  C   LIG d   1       7.746  -0.098  -7.291  0.00  0.00     0.038 A 
ATOM     35  C   LIG d   1       7.151   1.112  -7.666  0.00  0.00    -0.047 A 
ATOM     36  C   LIG d   1       6.205   1.130  -8.666  0.00  0.00    -0.040 A 
ATOM     37  H   LIG d   1       7.438   2.030  -7.176  0.00  0.00     0.063 H 
ATOM     38  C   LIG d   1       5.831  -0.054  -9.293  0.00  0.00     0.029 A 
ATOM     39  H   LIG d   1       5.750   2.064  -8.959  0.00  0.00     0.064 H 
ATOM     40  C   LIG d   1       6.415  -1.259  -8.919  0.00  0.00    -0.040 A 
ATOM     41  C   LIG d   1       7.368  -1.285  -7.924  0.00  0.00    -0.047 A 
ATOM     42  H   LIG d   1       6.123  -2.177  -9.408  0.00  0.00     0.064 H 
ATOM     43  H   LIG d   1       7.821  -2.221  -7.634  0.00  0.00     0.063 H 
BRANCH  38  44
ATOM     44  N   LIG d   1       4.869  -0.032 -10.300  0.00  0.00    -0.336 N 
BRANCH  44  45
ATOM     45  C   LIG d   1       4.193   1.224 -10.639  0.00  0.00     0.000 C 
ATOM     46  H   LIG d   1       3.140   1.026 -10.837  0.00  0.00     0.043 H 
ATOM     47  H   LIG d   1       4.283   1.921  -9.805  0.00  0.00     0.043 H 
ATOM     48  H   LIG d   1       4.656   1.657 -11.527  0.00  0.00     0.043 H 
ENDBRANCH  44  45
BRANCH  44  49
ATOM     49  C   LIG d   1       4.533  -1.262 -11.019  0.00  0.00     0.000 C 
ATOM     50  H   LIG d   1       3.462  -1.285 -11.221  0.00  0.00     0.043 H 
ATOM     51  H   LIG d   1       5.080  -1.292 -11.962  0.00  0.00     0.043 H 
ATOM     52  H   LIG d   1       4.808  -2.125 -10.413  0.00  0.00     0.043 H 
ENDBRANCH  44  49
ENDBRANCH  38  44
ENDBRANCH  31  34
ENDBRANCH  27  30
ENDBRANCH  24  27
ENDBRANCH   1  24
BRANCH   1  53
ATOM     53  C   LIG d   1       4.625  -0.997  -4.467  0.00  0.00    -0.002 A 
ATOM     54  C   LIG d   1       3.786  -0.265  -3.639  0.00  0.00     0.123 A 
ATOM     55  C   LIG d   1       2.777   0.513  -4.189  0.00  0.00    -0.020 A 
ATOM     56  C   LIG d   1       2.604   0.549  -5.559  0.00  0.00    -0.058 A 
ATOM     57  H   LIG d   1       2.126   1.086  -3.547  0.00  0.00     0.065 H 
ATOM     58  C   LIG d   1       3.440  -0.186  -6.382  0.00  0.00    -0.061 A 
ATOM     59  H   LIG d   1       1.818   1.151  -5.988  0.00  0.00     0.062 H 
ATOM     60  C   LIG d   1       4.448  -0.958  -5.836  0.00  0.00    -0.055 A 
ATOM     61  H   LIG d   1       3.303  -0.156  -7.452  0.00  0.00     0.062 H 
ATOM     62  H   LIG d   1       5.098  -1.530  -6.480  0.00  0.00     0.062 H 
BRANCH  54  63
ATOM     63  O   LIG d   1       3.953  -0.307  -2.291  0.00  0.00    -0.495 OA
BRANCH  63  64
ATOM     64  C   LIG d   1       4.445   0.877  -1.660  0.00  0.00     0.079 C 
ATOM     65  H   LIG d   1       4.886   1.533  -2.413  0.00  0.00     0.066 H 
ATOM     66  H   LIG d   1       3.624   1.393  -1.165  0.00  0.00     0.066 H 
ATOM     67  H   LIG d   1       5.204   0.609  -0.925  0.00  0.00     0.066 H 
ENDBRANCH  63  64
ENDBRANCH  54  63
ENDBRANCH   1  53
TORSDOF 13
ENDMDL
MODEL 9
REMARK VINA RESULT:      -5.7      2.645      4.629
REMARK  13 active torsions:
REMARK  status: ('A' for Active; 'I' for Inactive)
REMARK    1  A    between atoms: C_1  and  C_2 
REMARK    2  A    between atoms: C_2  and  C_32 
REMARK    3  A    between atoms: C_4  and  C_9 
REMARK    4  A    between atoms: C_9  and  C_11 
REMARK    5  A    between atoms: C_9  and  C_24 
REMARK    6  A    between atoms: C_11  and  C_12 
REMARK    7  A    between atoms: C_12  and  N_13 
REMARK    8  A    between atoms: C_14  and  C_15 
REMARK    9  A    between atoms: C_18  and  N_21 
REMARK   10  A    between atoms: N_21  and  C_22 
REMARK   11  A    between atoms: N_21  and  C_23 
REMARK   12  A    between atoms: C_29  and  O_30 
REMARK   13  A    between atoms: O_30  and  C_31 
ROOT
ATOM      1  C   LIG d   1       4.370  -0.661  -6.257  0.00  0.00    -0.004 C 
ATOM      2  H   LIG d   1       5.273  -0.230  -6.691  0.00  0.00     0.035 H 
ENDROOT
BRANCH   1   3
ATOM      3  C   LIG d   1       4.426  -2.186  -6.377  0.00  0.00    -0.029 C 
ATOM      4  C   LIG d   1       5.849  -2.671  -6.083  0.00  0.00    -0.021 C 
ATOM      5  C   LIG d   1       5.914  -4.187  -6.280  0.00  0.00     0.064 C 
ATOM      6  H   LIG d   1       6.113  -2.425  -5.055  0.00  0.00     0.030 H 
ATOM      7  H   LIG d   1       6.548  -2.186  -6.765  0.00  0.00     0.030 H 
ATOM      8  O   LIG d   1       5.512  -4.512  -7.613  0.00  0.00    -0.374 OA
ATOM      9  C   LIG d   1       4.174  -4.124  -7.929  0.00  0.00     0.049 C 
ATOM     10  C   LIG d   1       4.039  -2.605  -7.799  0.00  0.00    -0.026 C 
ATOM     11  H   LIG d   1       3.482  -4.611  -7.241  0.00  0.00     0.056 H 
ATOM     12  H   LIG d   1       3.941  -4.424  -8.950  0.00  0.00     0.056 H 
ATOM     13  H   LIG d   1       3.008  -2.313  -7.996  0.00  0.00     0.029 H 
ATOM     14  H   LIG d   1       4.701  -2.117  -8.515  0.00  0.00     0.029 H 
ATOM     15  H   LIG d   1       3.734  -2.634  -5.664  0.00  0.00     0.031 H 
BRANCH   5  16
ATOM     16  C   LIG d   1       4.976  -4.871  -5.284  0.00  0.00    -0.036 C 
ATOM     17  H   LIG d   1       4.298  -5.537  -5.819  0.00  0.00     0.026 H 
ATOM     18  H   LIG d   1       5.562  -5.449  -4.569  0.00  0.00     0.026 H 
ATOM     19  H   LIG d   1       4.397  -4.116  -4.752  0.00  0.00     0.026 H 
ENDBRANCH   5  16
BRANCH   5  20
ATOM     20  C   LIG d   1       7.347  -4.672  -6.046  0.00  0.00    -0.036 C 
ATOM     21  H   LIG d   1       8.011  -4.205  -6.774  0.00  0.00     0.026 H 
ATOM     22  H   LIG d   1       7.662  -4.399  -5.039  0.00  0.00     0.026 H 
ATOM     23  H   LIG d   1       7.387  -5.755  -6.159  0.00  0.00     0.026 H 
ENDBRANCH   5  20
ENDBRANCH   1   3
BRANCH   1  24
ATOM     24  C   LIG d   1       3.144  -0.136  -7.006  0.00  0.00     0.014 C 
ATOM     25  H   LIG d   1       2.732  -0.928  -7.632  0.00  0.00     0.033 H 
ATOM     26  H   LIG d   1       2.391   0.187  -6.287  0.00  0.00     0.033 H 
BRANCH  24  27
ATOM     27  C   LIG d   1       3.551   1.047  -7.885  0.00  0.00     0.144 C 
ATOM     28  H   LIG d   1       2.828   1.855  -7.766  0.00  0.00     0.102 H 
ATOM     29  H   LIG d   1       4.540   1.398  -7.588  0.00  0.00     0.102 H 
BRANCH  27  30
ATOM     30  N   LIG d   1       3.585   0.625  -9.288  0.00  0.00    -0.247 N 
ATOM     31  C   LIG d   1       4.679   0.734  -9.971  0.00  0.00     0.172 C 
ATOM     32  H   LIG d   1       4.639   0.805 -11.047  0.00  0.00     0.138 H 
ATOM     33  H   LIG d   1       2.787   0.264  -9.705  0.00  0.00     0.445 HD
BRANCH  31  34
ATOM     34  C   LIG d   1       5.980   0.763  -9.278  0.00  0.00     0.038 A 
ATOM     35  C   LIG d   1       6.668  -0.429  -9.028  0.00  0.00    -0.047 A 
ATOM     36  C   LIG d   1       7.885  -0.397  -8.385  0.00  0.00    -0.040 A 
ATOM     37  H   LIG d   1       6.247  -1.371  -9.343  0.00  0.00     0.063 H 
ATOM     38  C   LIG d   1       8.424   0.819  -7.974  0.00  0.00     0.029 A 
ATOM     39  H   LIG d   1       8.419  -1.316  -8.196  0.00  0.00     0.064 H 
ATOM     40  C   LIG d   1       7.740   2.005  -8.216  0.00  0.00    -0.040 A 
ATOM     41  C   LIG d   1       6.525   1.982  -8.864  0.00  0.00    -0.047 A 
ATOM     42  H   LIG d   1       8.162   2.946  -7.895  0.00  0.00     0.064 H 
ATOM     43  H   LIG d   1       5.996   2.903  -9.051  0.00  0.00     0.063 H 
BRANCH  38  44
ATOM     44  N   LIG d   1       9.653   0.846  -7.319  0.00  0.00    -0.336 N 
BRANCH  44  45
ATOM     45  C   LIG d   1      10.561  -0.300  -7.418  0.00  0.00     0.000 C 
ATOM     46  H   LIG d   1      11.238  -0.154  -8.259  0.00  0.00     0.043 H 
ATOM     47  H   LIG d   1      11.137  -0.388  -6.497  0.00  0.00     0.043 H 
ATOM     48  H   LIG d   1       9.981  -1.211  -7.573  0.00  0.00     0.043 H 
ENDBRANCH  44  45
BRANCH  44  49
ATOM     49  C   LIG d   1      10.037   2.019  -6.531  0.00  0.00     0.000 C 
ATOM     50  H   LIG d   1       9.526   1.994  -5.568  0.00  0.00     0.043 H 
ATOM     51  H   LIG d   1      11.116   2.011  -6.370  0.00  0.00     0.043 H 
ATOM     52  H   LIG d   1       9.757   2.925  -7.067  0.00  0.00     0.043 H 
ENDBRANCH  44  49
ENDBRANCH  38  44
ENDBRANCH  31  34
ENDBRANCH  27  30
ENDBRANCH  24  27
ENDBRANCH   1  24
BRANCH   1  53
ATOM     53  C   LIG d   1       4.276  -0.275  -4.804  0.00  0.00    -0.002 A 
ATOM     54  C   LIG d   1       5.348   0.347  -4.181  0.00  0.00     0.123 A 
ATOM     55  C   LIG d   1       5.256   0.707  -2.843  0.00  0.00    -0.020 A 
ATOM     56  C   LIG d   1       4.103   0.437  -2.135  0.00  0.00    -0.058 A 
ATOM     57  H   LIG d   1       6.087   1.195  -2.357  0.00  0.00     0.065 H 
ATOM     58  C   LIG d   1       3.037  -0.188  -2.758  0.00  0.00    -0.061 A 
ATOM     59  H   LIG d   1       4.032   0.713  -1.093  0.00  0.00     0.062 H 
ATOM     60  C   LIG d   1       3.125  -0.543  -4.091  0.00  0.00    -0.055 A 
ATOM     61  H   LIG d   1       2.136  -0.398  -2.201  0.00  0.00     0.062 H 
ATOM     62  H   LIG d   1       2.292  -1.031  -4.574  0.00  0.00     0.062 H 
BRANCH  54  63
ATOM     63  O   LIG d   1       6.485   0.606  -4.879  0.00  0.00    -0.495 OA
BRANCH  63  64
ATOM     64  C   LIG d   1       7.715   0.162  -4.304  0.00  0.00     0.079 C 
ATOM     65  H   LIG d   1       8.100   0.930  -3.631  0.00  0.00     0.066 H 
ATOM     66  H   LIG d   1       7.544  -0.757  -3.744  0.00  0.00     0.066 H 
ATOM     67  H   LIG d   1       8.441  -0.023  -5.096  0.00  0.00     0.066 H 
ENDBRANCH  63  64
ENDBRANCH  54  63
ENDBRANCH   1  53
TORSDOF 13
ENDMDL
