MODEL 1
REMARK VINA RESULT:      -7.8      0.000      0.000
REMARK  2 active torsions:
REMARK  status: ('A' for Active; 'I' for Inactive)
REMARK    1  A    between atoms: C_1  and  C_2 
REMARK    2  A    between atoms: C_9  and  C_13 
ROOT
ATOM      1  C   LIG d   1       4.553  -1.886  -7.749  0.00  0.00     0.034 A 
ATOM      2  C   LIG d   1       4.678  -1.589  -6.400  0.00  0.00     0.146 A 
ATOM      3  C   LIG d   1       3.952  -0.513  -5.868  0.00  0.00     0.026 A 
ATOM      4  C   LIG d   1       3.119   0.241  -6.691  0.00  0.00    -0.044 A 
ATOM      5  C   LIG d   1       3.004  -0.067  -8.032  0.00  0.00    -0.004 A 
ATOM      6  C   LIG d   1       3.719  -1.132  -8.563  0.00  0.00     0.131 A 
ATOM      7  O   LIG d   1       3.626  -1.468  -9.877  0.00  0.00    -0.484 OA
ATOM      8  C   LIG d   1       3.083  -0.502 -10.778  0.00  0.00     0.126 C 
ATOM      9  H   LIG d   1       3.787   0.321 -10.902  0.00  0.00     0.078 H 
ATOM     10  C   LIG d   1       1.770   0.027 -10.186  0.00  0.00    -0.007 C 
ATOM     11  C   LIG d   1       2.094   0.776  -8.891  0.00  0.00    -0.021 C 
ATOM     12  C   LIG d   1       4.083  -0.198  -4.433  0.00  0.00    -0.000 A 
ATOM     13  C   LIG d   1       3.392   0.854  -3.842  0.00  0.00    -0.053 A 
ATOM     14  C   LIG d   1       3.553   1.103  -2.494  0.00  0.00    -0.061 A 
ATOM     15  C   LIG d   1       4.398   0.316  -1.726  0.00  0.00    -0.061 A 
ATOM     16  C   LIG d   1       5.092  -0.732  -2.294  0.00  0.00    -0.047 A 
ATOM     17  C   LIG d   1       4.943  -1.000  -3.653  0.00  0.00     0.067 A 
ATOM     18  C   LIG d   1       5.661  -2.103  -4.309  0.00  0.00     0.345 A 
ATOM     19  O   LIG d   1       6.408  -2.808  -3.660  0.00  0.00    -0.244 OA
ATOM     20  O   LIG d   1       5.494  -2.333  -5.620  0.00  0.00    -0.421 OA
ATOM     21  H   LIG d   1       2.560   1.069  -6.279  0.00  0.00     0.063 H 
ATOM     22  H   LIG d   1       1.102  -0.807  -9.972  0.00  0.00     0.031 H 
ATOM     23  H   LIG d   1       1.295   0.706 -10.894  0.00  0.00     0.031 H 
ATOM     24  H   LIG d   1       2.588   1.717  -9.129  0.00  0.00     0.032 H 
ATOM     25  H   LIG d   1       1.170   0.977  -8.348  0.00  0.00     0.032 H 
ATOM     26  H   LIG d   1       2.732   1.471  -4.435  0.00  0.00     0.062 H 
ATOM     27  H   LIG d   1       3.017   1.920  -2.034  0.00  0.00     0.062 H 
ATOM     28  H   LIG d   1       4.512   0.524  -0.673  0.00  0.00     0.062 H 
ATOM     29  H   LIG d   1       5.748  -1.340  -1.688  0.00  0.00     0.063 H 
ENDROOT
BRANCH   8  30
ATOM     30  C   LIG d   1       2.815  -1.146 -12.113  0.00  0.00    -0.007 A 
ATOM     31  C   LIG d   1       1.595  -1.750 -12.357  0.00  0.00    -0.055 A 
ATOM     32  C   LIG d   1       1.349  -2.341 -13.583  0.00  0.00    -0.061 A 
ATOM     33  H   LIG d   1       0.835  -1.759 -11.591  0.00  0.00     0.062 H 
ATOM     34  C   LIG d   1       2.324  -2.330 -14.564  0.00  0.00    -0.062 A 
ATOM     35  H   LIG d   1       0.397  -2.812 -13.773  0.00  0.00     0.062 H 
ATOM     36  C   LIG d   1       3.542  -1.725 -14.320  0.00  0.00    -0.061 A 
ATOM     37  H   LIG d   1       2.131  -2.791 -15.521  0.00  0.00     0.062 H 
ATOM     38  C   LIG d   1       3.786  -1.130 -13.096  0.00  0.00    -0.055 A 
ATOM     39  H   LIG d   1       4.303  -1.715 -15.086  0.00  0.00     0.062 H 
ATOM     40  H   LIG d   1       4.738  -0.654 -12.907  0.00  0.00     0.062 H 
ENDBRANCH   8  30
BRANCH   1  41
ATOM     41  C   LIG d   1       5.328  -3.038  -8.335  0.00  0.00    -0.033 C 
ATOM     42  H   LIG d   1       6.093  -3.358  -7.628  0.00  0.00     0.028 H 
ATOM     43  H   LIG d   1       4.650  -3.867  -8.536  0.00  0.00     0.028 H 
ATOM     44  H   LIG d   1       5.802  -2.722  -9.264  0.00  0.00     0.028 H 
ENDBRANCH   1  41
TORSDOF 2
ENDMDL
MODEL 2
REMARK VINA RESULT:      -7.5      1.767      2.882
REMARK  2 active torsions:
REMARK  status: ('A' for Active; 'I' for Inactive)
REMARK    1  A    between atoms: C_1  and  C_2 
REMARK    2  A    between atoms: C_9  and  C_13 
ROOT
ATOM      1  C   LIG d   1       3.148   0.227  -8.195  0.00  0.00     0.034 A 
ATOM      2  C   LIG d   1       3.282   0.179  -6.816  0.00  0.00     0.146 A 
ATOM      3  C   LIG d   1       3.808  -0.978  -6.222  0.00  0.00     0.026 A 
ATOM      4  C   LIG d   1       4.186  -2.059  -7.015  0.00  0.00    -0.044 A 
ATOM      5  C   LIG d   1       4.047  -1.996  -8.387  0.00  0.00    -0.004 A 
ATOM      6  C   LIG d   1       3.529  -0.852  -8.980  0.00  0.00     0.131 A 
ATOM      7  O   LIG d   1       3.383  -0.752 -10.328  0.00  0.00    -0.484 OA
ATOM      8  C   LIG d   1       3.417  -1.957 -11.096  0.00  0.00     0.126 C 
ATOM      9  H   LIG d   1       2.513  -2.537 -10.908  0.00  0.00     0.078 H 
ATOM     10  C   LIG d   1       4.647  -2.767 -10.671  0.00  0.00    -0.007 C 
ATOM     11  C   LIG d   1       4.465  -3.189  -9.211  0.00  0.00    -0.021 C 
ATOM     12  C   LIG d   1       3.953  -1.030  -4.755  0.00  0.00    -0.000 A 
ATOM     13  C   LIG d   1       4.467  -2.145  -4.103  0.00  0.00    -0.053 A 
ATOM     14  C   LIG d   1       4.580  -2.137  -2.727  0.00  0.00    -0.061 A 
ATOM     15  C   LIG d   1       4.185  -1.030  -1.991  0.00  0.00    -0.061 A 
ATOM     16  C   LIG d   1       3.674   0.086  -2.620  0.00  0.00    -0.047 A 
ATOM     17  C   LIG d   1       3.552   0.098  -4.008  0.00  0.00     0.067 A 
ATOM     18  C   LIG d   1       3.011   1.261  -4.728  0.00  0.00     0.345 A 
ATOM     19  O   LIG d   1       2.657   2.244  -4.109  0.00  0.00    -0.244 OA
ATOM     20  O   LIG d   1       2.907   1.239  -6.066  0.00  0.00    -0.421 OA
ATOM     21  H   LIG d   1       4.591  -2.949  -6.555  0.00  0.00     0.063 H 
ATOM     22  H   LIG d   1       5.543  -2.153 -10.768  0.00  0.00     0.031 H 
ATOM     23  H   LIG d   1       4.740  -3.652 -11.300  0.00  0.00     0.031 H 
ATOM     24  H   LIG d   1       3.699  -3.960  -9.148  0.00  0.00     0.032 H 
ATOM     25  H   LIG d   1       5.407  -3.581  -8.826  0.00  0.00     0.032 H 
ATOM     26  H   LIG d   1       4.775  -3.011  -4.670  0.00  0.00     0.062 H 
ATOM     27  H   LIG d   1       4.979  -3.003  -2.219  0.00  0.00     0.062 H 
ATOM     28  H   LIG d   1       4.282  -1.040  -0.916  0.00  0.00     0.062 H 
ATOM     29  H   LIG d   1       3.369   0.945  -2.040  0.00  0.00     0.063 H 
ENDROOT
BRANCH   8  30
ATOM     30  C   LIG d   1       3.510  -1.623 -12.562  0.00  0.00    -0.007 A 
ATOM     31  C   LIG d   1       2.639  -2.210 -13.462  0.00  0.00    -0.055 A 
ATOM     32  C   LIG d   1       2.724  -1.903 -14.807  0.00  0.00    -0.061 A 
ATOM     33  H   LIG d   1       1.893  -2.907 -13.113  0.00  0.00     0.062 H 
ATOM     34  C   LIG d   1       3.681  -1.010 -15.253  0.00  0.00    -0.062 A 
ATOM     35  H   LIG d   1       2.045  -2.361 -15.509  0.00  0.00     0.062 H 
ATOM     36  C   LIG d   1       4.550  -0.422 -14.353  0.00  0.00    -0.061 A 
ATOM     37  H   LIG d   1       3.747  -0.770 -16.304  0.00  0.00     0.062 H 
ATOM     38  C   LIG d   1       4.462  -0.725 -13.007  0.00  0.00    -0.055 A 
ATOM     39  H   LIG d   1       5.297   0.276 -14.701  0.00  0.00     0.062 H 
ATOM     40  H   LIG d   1       5.139  -0.263 -12.304  0.00  0.00     0.062 H 
ENDBRANCH   8  30
BRANCH   1  41
ATOM     41  C   LIG d   1       2.583   1.463  -8.848  0.00  0.00    -0.033 C 
ATOM     42  H   LIG d   1       2.100   2.084  -8.094  0.00  0.00     0.028 H 
ATOM     43  H   LIG d   1       3.390   2.026  -9.318  0.00  0.00     0.028 H 
ATOM     44  H   LIG d   1       1.852   1.174  -9.603  0.00  0.00     0.028 H 
ENDBRANCH   1  41
TORSDOF 2
ENDMDL
MODEL 3
REMARK VINA RESULT:      -6.9      2.260      8.076
REMARK  2 active torsions:
REMARK  status: ('A' for Active; 'I' for Inactive)
REMARK    1  A    between atoms: C_1  and  C_2 
REMARK    2  A    between atoms: C_9  and  C_13 
ROOT
ATOM      1  C   LIG d   1       6.353  -0.725  -8.394  0.00  0.00     0.034 A 
ATOM      2  C   LIG d   1       6.416  -0.776  -9.779  0.00  0.00     0.146 A 
ATOM      3  C   LIG d   1       5.236  -0.617 -10.521  0.00  0.00     0.026 A 
ATOM      4  C   LIG d   1       4.023  -0.413  -9.868  0.00  0.00    -0.044 A 
ATOM      5  C   LIG d   1       3.976  -0.365  -8.489  0.00  0.00    -0.004 A 
ATOM      6  C   LIG d   1       5.141  -0.519  -7.750  0.00  0.00     0.131 A 
ATOM      7  O   LIG d   1       5.134  -0.471  -6.391  0.00  0.00    -0.484 OA
ATOM      8  C   LIG d   1       3.882  -0.632  -5.722  0.00  0.00     0.126 C 
ATOM      9  H   LIG d   1       3.544  -1.664  -5.820  0.00  0.00     0.078 H 
ATOM     10  C   LIG d   1       2.861   0.309  -6.374  0.00  0.00    -0.007 C 
ATOM     11  C   LIG d   1       2.642  -0.145  -7.819  0.00  0.00    -0.021 C 
ATOM     12  C   LIG d   1       5.303  -0.669 -11.994  0.00  0.00    -0.000 A 
ATOM     13  C   LIG d   1       4.172  -0.520 -12.789  0.00  0.00    -0.053 A 
ATOM     14  C   LIG d   1       4.294  -0.578 -14.163  0.00  0.00    -0.061 A 
ATOM     15  C   LIG d   1       5.531  -0.783 -14.755  0.00  0.00    -0.061 A 
ATOM     16  C   LIG d   1       6.664  -0.933 -13.983  0.00  0.00    -0.047 A 
ATOM     17  C   LIG d   1       6.562  -0.879 -12.595  0.00  0.00     0.067 A 
ATOM     18  C   LIG d   1       7.737  -1.034 -11.725  0.00  0.00     0.345 A 
ATOM     19  O   LIG d   1       8.833  -1.217 -12.217  0.00  0.00    -0.244 OA
ATOM     20  O   LIG d   1       7.604  -0.976 -10.391  0.00  0.00    -0.421 OA
ATOM     21  H   LIG d   1       3.116  -0.292 -10.442  0.00  0.00     0.063 H 
ATOM     22  H   LIG d   1       3.243   1.330  -6.363  0.00  0.00     0.031 H 
ATOM     23  H   LIG d   1       1.919   0.264  -5.829  0.00  0.00     0.031 H 
ATOM     24  H   LIG d   1       2.075  -1.076  -7.826  0.00  0.00     0.032 H 
ATOM     25  H   LIG d   1       2.088   0.622  -8.361  0.00  0.00     0.032 H 
ATOM     26  H   LIG d   1       3.205  -0.360 -12.334  0.00  0.00     0.062 H 
ATOM     27  H   LIG d   1       3.416  -0.462 -14.782  0.00  0.00     0.062 H 
ATOM     28  H   LIG d   1       5.608  -0.825 -15.832  0.00  0.00     0.062 H 
ATOM     29  H   LIG d   1       7.623  -1.093 -14.453  0.00  0.00     0.063 H 
ENDROOT
BRANCH   8  30
ATOM     30  C   LIG d   1       4.036  -0.283  -4.265  0.00  0.00    -0.007 A 
ATOM     31  C   LIG d   1       4.656  -1.169  -3.403  0.00  0.00    -0.055 A 
ATOM     32  C   LIG d   1       4.797  -0.849  -2.066  0.00  0.00    -0.061 A 
ATOM     33  H   LIG d   1       5.031  -2.110  -3.776  0.00  0.00     0.062 H 
ATOM     34  C   LIG d   1       4.317   0.356  -1.589  0.00  0.00    -0.062 A 
ATOM     35  H   LIG d   1       5.282  -1.541  -1.394  0.00  0.00     0.062 H 
ATOM     36  C   LIG d   1       3.697   1.242  -2.450  0.00  0.00    -0.061 A 
ATOM     37  H   LIG d   1       4.427   0.606  -0.544  0.00  0.00     0.062 H 
ATOM     38  C   LIG d   1       3.560   0.924  -3.789  0.00  0.00    -0.055 A 
ATOM     39  H   LIG d   1       3.322   2.184  -2.078  0.00  0.00     0.062 H 
ATOM     40  H   LIG d   1       3.079   1.618  -4.462  0.00  0.00     0.062 H 
ENDBRANCH   8  30
BRANCH   1  41
ATOM     41  C   LIG d   1       7.612  -0.894  -7.583  0.00  0.00    -0.033 C 
ATOM     42  H   LIG d   1       7.727  -1.942  -7.305  0.00  0.00     0.028 H 
ATOM     43  H   LIG d   1       8.471  -0.579  -8.175  0.00  0.00     0.028 H 
ATOM     44  H   LIG d   1       7.549  -0.285  -6.681  0.00  0.00     0.028 H 
ENDBRANCH   1  41
TORSDOF 2
ENDMDL
MODEL 4
REMARK VINA RESULT:      -6.8      5.763      7.679
REMARK  2 active torsions:
REMARK  status: ('A' for Active; 'I' for Inactive)
REMARK    1  A    between atoms: C_1  and  C_2 
REMARK    2  A    between atoms: C_9  and  C_13 
ROOT
ATOM      1  C   LIG d   1       7.722   0.875  -6.508  0.00  0.00     0.034 A 
ATOM      2  C   LIG d   1       6.826   0.081  -5.808  0.00  0.00     0.146 A 
ATOM      3  C   LIG d   1       6.596   0.346  -4.450  0.00  0.00     0.026 A 
ATOM      4  C   LIG d   1       7.264   1.395  -3.821  0.00  0.00    -0.044 A 
ATOM      5  C   LIG d   1       8.153   2.177  -4.531  0.00  0.00    -0.004 A 
ATOM      6  C   LIG d   1       8.382   1.920  -5.876  0.00  0.00     0.131 A 
ATOM      7  O   LIG d   1       9.245   2.672  -6.608  0.00  0.00    -0.484 OA
ATOM      8  C   LIG d   1      10.185   3.487  -5.905  0.00  0.00     0.126 C 
ATOM      9  H   LIG d   1      10.934   2.853  -5.428  0.00  0.00     0.078 H 
ATOM     10  C   LIG d   1       9.429   4.286  -4.837  0.00  0.00    -0.007 C 
ATOM     11  C   LIG d   1       8.858   3.301  -3.814  0.00  0.00    -0.021 C 
ATOM     12  C   LIG d   1       5.642  -0.497  -3.705  0.00  0.00    -0.000 A 
ATOM     13  C   LIG d   1       5.368  -0.288  -2.358  0.00  0.00    -0.053 A 
ATOM     14  C   LIG d   1       4.466  -1.109  -1.712  0.00  0.00    -0.061 A 
ATOM     15  C   LIG d   1       3.832  -2.138  -2.392  0.00  0.00    -0.061 A 
ATOM     16  C   LIG d   1       4.091  -2.360  -3.729  0.00  0.00    -0.047 A 
ATOM     17  C   LIG d   1       4.998  -1.543  -4.399  0.00  0.00     0.067 A 
ATOM     18  C   LIG d   1       5.311  -1.738  -5.822  0.00  0.00     0.345 A 
ATOM     19  O   LIG d   1       4.772  -2.632  -6.443  0.00  0.00    -0.244 OA
ATOM     20  O   LIG d   1       6.191  -0.933  -6.438  0.00  0.00    -0.421 OA
ATOM     21  H   LIG d   1       7.085   1.597  -2.775  0.00  0.00     0.063 H 
ATOM     22  H   LIG d   1       8.617   4.845  -5.302  0.00  0.00     0.031 H 
ATOM     23  H   LIG d   1      10.112   4.975  -4.341  0.00  0.00     0.031 H 
ATOM     24  H   LIG d   1       9.668   2.894  -3.209  0.00  0.00     0.032 H 
ATOM     25  H   LIG d   1       8.148   3.819  -3.168  0.00  0.00     0.032 H 
ATOM     26  H   LIG d   1       5.858   0.511  -1.822  0.00  0.00     0.062 H 
ATOM     27  H   LIG d   1       4.252  -0.947  -0.665  0.00  0.00     0.062 H 
ATOM     28  H   LIG d   1       3.128  -2.769  -1.871  0.00  0.00     0.062 H 
ATOM     29  H   LIG d   1       3.592  -3.164  -4.251  0.00  0.00     0.063 H 
ENDROOT
BRANCH   8  30
ATOM     30  C   LIG d   1      10.858   4.432  -6.866  0.00  0.00    -0.007 A 
ATOM     31  C   LIG d   1      12.189   4.254  -7.194  0.00  0.00    -0.055 A 
ATOM     32  C   LIG d   1      12.806   5.122  -8.076  0.00  0.00    -0.061 A 
ATOM     33  H   LIG d   1      12.746   3.436  -6.763  0.00  0.00     0.062 H 
ATOM     34  C   LIG d   1      12.092   6.169  -8.629  0.00  0.00    -0.062 A 
ATOM     35  H   LIG d   1      13.845   4.982  -8.333  0.00  0.00     0.062 H 
ATOM     36  C   LIG d   1      10.761   6.347  -8.301  0.00  0.00    -0.061 A 
ATOM     37  H   LIG d   1      12.574   6.846  -9.318  0.00  0.00     0.062 H 
ATOM     38  C   LIG d   1      10.143   5.476  -7.423  0.00  0.00    -0.055 A 
ATOM     39  H   LIG d   1      10.203   7.164  -8.733  0.00  0.00     0.062 H 
ATOM     40  H   LIG d   1       9.102   5.613  -7.170  0.00  0.00     0.062 H 
ENDBRANCH   8  30
BRANCH   1  41
ATOM     41  C   LIG d   1       7.980   0.601  -7.967  0.00  0.00    -0.033 C 
ATOM     42  H   LIG d   1       7.140   0.049  -8.388  0.00  0.00     0.028 H 
ATOM     43  H   LIG d   1       8.097   1.545  -8.499  0.00  0.00     0.028 H 
ATOM     44  H   LIG d   1       8.891   0.011  -8.071  0.00  0.00     0.028 H 
ENDBRANCH   1  41
TORSDOF 2
ENDMDL
MODEL 5
REMARK VINA RESULT:      -6.7      6.333      8.225
REMARK  2 active torsions:
REMARK  status: ('A' for Active; 'I' for Inactive)
REMARK    1  A    between atoms: C_1  and  C_2 
REMARK    2  A    between atoms: C_9  and  C_13 
ROOT
ATOM      1  C   LIG d   1       9.418   0.338  -5.409  0.00  0.00     0.034 A 
ATOM      2  C   LIG d   1       8.318  -0.161  -4.729  0.00  0.00     0.146 A 
ATOM      3  C   LIG d   1       7.505   0.725  -4.005  0.00  0.00     0.026 A 
ATOM      4  C   LIG d   1       7.808   2.084  -3.976  0.00  0.00    -0.044 A 
ATOM      5  C   LIG d   1       8.907   2.566  -4.659  0.00  0.00    -0.004 A 
ATOM      6  C   LIG d   1       9.713   1.694  -5.378  0.00  0.00     0.131 A 
ATOM      7  O   LIG d   1      10.799   2.132  -6.067  0.00  0.00    -0.484 OA
ATOM      8  C   LIG d   1      11.318   3.425  -5.748  0.00  0.00     0.126 C 
ATOM      9  H   LIG d   1      11.787   3.399  -4.764  0.00  0.00     0.078 H 
ATOM     10  C   LIG d   1      10.154   4.423  -5.738  0.00  0.00    -0.007 C 
ATOM     11  C   LIG d   1       9.203   4.044  -4.599  0.00  0.00    -0.021 C 
ATOM     12  C   LIG d   1       6.333   0.196  -3.282  0.00  0.00    -0.000 A 
ATOM     13  C   LIG d   1       5.487   1.018  -2.547  0.00  0.00    -0.053 A 
ATOM     14  C   LIG d   1       4.404   0.468  -1.890  0.00  0.00    -0.061 A 
ATOM     15  C   LIG d   1       4.154  -0.895  -1.957  0.00  0.00    -0.061 A 
ATOM     16  C   LIG d   1       4.982  -1.726  -2.682  0.00  0.00    -0.047 A 
ATOM     17  C   LIG d   1       6.080  -1.191  -3.352  0.00  0.00     0.067 A 
ATOM     18  C   LIG d   1       6.995  -2.032  -4.137  0.00  0.00     0.345 A 
ATOM     19  O   LIG d   1       6.801  -3.230  -4.212  0.00  0.00    -0.244 OA
ATOM     20  O   LIG d   1       8.044  -1.484  -4.770  0.00  0.00    -0.421 OA
ATOM     21  H   LIG d   1       7.181   2.764  -3.418  0.00  0.00     0.063 H 
ATOM     22  H   LIG d   1       9.624   4.380  -6.689  0.00  0.00     0.031 H 
ATOM     23  H   LIG d   1      10.535   5.431  -5.576  0.00  0.00     0.031 H 
ATOM     24  H   LIG d   1       9.668   4.283  -3.643  0.00  0.00     0.032 H 
ATOM     25  H   LIG d   1       8.273   4.603  -4.702  0.00  0.00     0.032 H 
ATOM     26  H   LIG d   1       5.676   2.080  -2.490  0.00  0.00     0.062 H 
ATOM     27  H   LIG d   1       3.746   1.106  -1.318  0.00  0.00     0.062 H 
ATOM     28  H   LIG d   1       3.302  -1.308  -1.438  0.00  0.00     0.062 H 
ATOM     29  H   LIG d   1       4.780  -2.787  -2.729  0.00  0.00     0.063 H 
ENDROOT
BRANCH   8  30
ATOM     30  C   LIG d   1      12.331   3.837  -6.783  0.00  0.00    -0.007 A 
ATOM     31  C   LIG d   1      13.080   4.985  -6.600  0.00  0.00    -0.055 A 
ATOM     32  C   LIG d   1      14.010   5.363  -7.550  0.00  0.00    -0.061 A 
ATOM     33  H   LIG d   1      12.938   5.586  -5.714  0.00  0.00     0.062 H 
ATOM     34  C   LIG d   1      14.191   4.593  -8.684  0.00  0.00    -0.062 A 
ATOM     35  H   LIG d   1      14.595   6.259  -7.407  0.00  0.00     0.062 H 
ATOM     36  C   LIG d   1      13.444   3.445  -8.867  0.00  0.00    -0.061 A 
ATOM     37  H   LIG d   1      14.918   4.889  -9.426  0.00  0.00     0.062 H 
ATOM     38  C   LIG d   1      12.517   3.065  -7.914  0.00  0.00    -0.055 A 
ATOM     39  H   LIG d   1      13.586   2.843  -9.752  0.00  0.00     0.062 H 
ATOM     40  H   LIG d   1      11.935   2.166  -8.055  0.00  0.00     0.062 H 
ENDBRANCH   8  30
BRANCH   1  41
ATOM     41  C   LIG d   1      10.301  -0.602  -6.190  0.00  0.00    -0.033 C 
ATOM     42  H   LIG d   1       9.882  -1.607  -6.157  0.00  0.00     0.028 H 
ATOM     43  H   LIG d   1      10.361  -0.267  -7.226  0.00  0.00     0.028 H 
ATOM     44  H   LIG d   1      11.300  -0.610  -5.753  0.00  0.00     0.028 H 
ENDBRANCH   1  41
TORSDOF 2
ENDMDL
MODEL 6
REMARK VINA RESULT:      -6.6      6.838      9.496
REMARK  2 active torsions:
REMARK  status: ('A' for Active; 'I' for Inactive)
REMARK    1  A    between atoms: C_1  and  C_2 
REMARK    2  A    between atoms: C_9  and  C_13 
ROOT
ATOM      1  C   LIG d   1       9.173   3.331  -5.109  0.00  0.00     0.034 A 
ATOM      2  C   LIG d   1       9.940   3.977  -6.066  0.00  0.00     0.146 A 
ATOM      3  C   LIG d   1       9.911   3.514  -7.390  0.00  0.00     0.026 A 
ATOM      4  C   LIG d   1       9.121   2.417  -7.728  0.00  0.00    -0.044 A 
ATOM      5  C   LIG d   1       8.363   1.784  -6.764  0.00  0.00    -0.004 A 
ATOM      6  C   LIG d   1       8.385   2.240  -5.453  0.00  0.00     0.131 A 
ATOM      7  O   LIG d   1       7.647   1.646  -4.479  0.00  0.00    -0.484 OA
ATOM      8  C   LIG d   1       7.141   0.333  -4.730  0.00  0.00     0.126 C 
ATOM      9  H   LIG d   1       7.963  -0.383  -4.728  0.00  0.00     0.078 H 
ATOM     10  C   LIG d   1       6.458   0.333  -6.103  0.00  0.00    -0.007 C 
ATOM     11  C   LIG d   1       7.523   0.598  -7.170  0.00  0.00    -0.021 C 
ATOM     12  C   LIG d   1      10.725   4.202  -8.409  0.00  0.00    -0.000 A 
ATOM     13  C   LIG d   1      10.743   3.794  -9.738  0.00  0.00    -0.053 A 
ATOM     14  C   LIG d   1      11.524   4.476 -10.650  0.00  0.00    -0.061 A 
ATOM     15  C   LIG d   1      12.290   5.561 -10.252  0.00  0.00    -0.061 A 
ATOM     16  C   LIG d   1      12.286   5.981  -8.938  0.00  0.00    -0.047 A 
ATOM     17  C   LIG d   1      11.504   5.306  -8.003  0.00  0.00     0.067 A 
ATOM     18  C   LIG d   1      11.464   5.711  -6.590  0.00  0.00     0.345 A 
ATOM     19  O   LIG d   1      12.126   6.657  -6.213  0.00  0.00    -0.244 OA
ATOM     20  O   LIG d   1      10.700   5.038  -5.715  0.00  0.00    -0.421 OA
ATOM     21  H   LIG d   1       9.101   2.062  -8.748  0.00  0.00     0.063 H 
ATOM     22  H   LIG d   1       5.700   1.116  -6.136  0.00  0.00     0.031 H 
ATOM     23  H   LIG d   1       5.993  -0.636  -6.281  0.00  0.00     0.031 H 
ATOM     24  H   LIG d   1       8.160  -0.280  -7.274  0.00  0.00     0.032 H 
ATOM     25  H   LIG d   1       7.037   0.809  -8.123  0.00  0.00     0.032 H 
ATOM     26  H   LIG d   1      10.149   2.949 -10.055  0.00  0.00     0.062 H 
ATOM     27  H   LIG d   1      11.539   4.160 -11.683  0.00  0.00     0.062 H 
ATOM     28  H   LIG d   1      12.895   6.084 -10.978  0.00  0.00     0.062 H 
ATOM     29  H   LIG d   1      12.885   6.828  -8.637  0.00  0.00     0.063 H 
ENDROOT
BRANCH   8  30
ATOM     30  C   LIG d   1       6.142  -0.038  -3.665  0.00  0.00    -0.007 A 
ATOM     31  C   LIG d   1       5.784  -1.362  -3.484  0.00  0.00    -0.055 A 
ATOM     32  C   LIG d   1       4.867  -1.702  -2.507  0.00  0.00    -0.061 A 
ATOM     33  H   LIG d   1       6.221  -2.128  -4.105  0.00  0.00     0.062 H 
ATOM     34  C   LIG d   1       4.307  -0.720  -1.712  0.00  0.00    -0.062 A 
ATOM     35  H   LIG d   1       4.588  -2.735  -2.365  0.00  0.00     0.062 H 
ATOM     36  C   LIG d   1       4.666   0.603  -1.892  0.00  0.00    -0.061 A 
ATOM     37  H   LIG d   1       3.591  -0.986  -0.948  0.00  0.00     0.062 H 
ATOM     38  C   LIG d   1       5.586   0.943  -2.866  0.00  0.00    -0.055 A 
ATOM     39  H   LIG d   1       4.229   1.371  -1.270  0.00  0.00     0.062 H 
ATOM     40  H   LIG d   1       5.869   1.976  -3.004  0.00  0.00     0.062 H 
ENDBRANCH   8  30
BRANCH   1  41
ATOM     41  C   LIG d   1       9.194   3.817  -3.682  0.00  0.00    -0.033 C 
ATOM     42  H   LIG d   1       9.095   2.967  -3.007  0.00  0.00     0.028 H 
ATOM     43  H   LIG d   1      10.136   4.328  -3.487  0.00  0.00     0.028 H 
ATOM     44  H   LIG d   1       8.366   4.507  -3.521  0.00  0.00     0.028 H 
ENDBRANCH   1  41
TORSDOF 2
ENDMDL
MODEL 7
REMARK VINA RESULT:      -6.6      9.958     11.643
REMARK  2 active torsions:
REMARK  status: ('A' for Active; 'I' for Inactive)
REMARK    1  A    between atoms: C_1  and  C_2 
REMARK    2  A    between atoms: C_9  and  C_13 
ROOT
ATOM      1  C   LIG d   1      10.471   6.029  -2.662  0.00  0.00     0.034 A 
ATOM      2  C   LIG d   1      10.744   6.662  -1.459  0.00  0.00     0.146 A 
ATOM      3  C   LIG d   1      10.971   8.047  -1.453  0.00  0.00     0.026 A 
ATOM      4  C   LIG d   1      10.923   8.767  -2.645  0.00  0.00    -0.044 A 
ATOM      5  C   LIG d   1      10.650   8.122  -3.835  0.00  0.00    -0.004 A 
ATOM      6  C   LIG d   1      10.422   6.753  -3.845  0.00  0.00     0.131 A 
ATOM      7  O   LIG d   1      10.144   6.086  -4.997  0.00  0.00    -0.484 OA
ATOM      8  C   LIG d   1      10.452   6.730  -6.234  0.00  0.00     0.126 C 
ATOM      9  H   LIG d   1      11.534   6.775  -6.365  0.00  0.00     0.078 H 
ATOM     10  C   LIG d   1       9.878   8.151  -6.196  0.00  0.00    -0.007 C 
ATOM     11  C   LIG d   1      10.609   8.936  -5.104  0.00  0.00    -0.021 C 
ATOM     12  C   LIG d   1      11.259   8.721  -0.174  0.00  0.00    -0.000 A 
ATOM     13  C   LIG d   1      11.494  10.090  -0.097  0.00  0.00    -0.053 A 
ATOM     14  C   LIG d   1      11.759  10.668   1.128  0.00  0.00    -0.061 A 
ATOM     15  C   LIG d   1      11.794   9.898   2.281  0.00  0.00    -0.061 A 
ATOM     16  C   LIG d   1      11.563   8.539   2.225  0.00  0.00    -0.047 A 
ATOM     17  C   LIG d   1      11.294   7.936   0.998  0.00  0.00     0.067 A 
ATOM     18  C   LIG d   1      11.043   6.492   0.883  0.00  0.00     0.345 A 
ATOM     19  O   LIG d   1      11.069   5.793   1.876  0.00  0.00    -0.244 OA
ATOM     20  O   LIG d   1      10.787   5.943  -0.315  0.00  0.00    -0.421 OA
ATOM     21  H   LIG d   1      11.098   9.833  -2.638  0.00  0.00     0.063 H 
ATOM     22  H   LIG d   1       8.813   8.111  -5.969  0.00  0.00     0.031 H 
ATOM     23  H   LIG d   1      10.030   8.636  -7.160  0.00  0.00     0.031 H 
ATOM     24  H   LIG d   1      11.626   9.151  -5.431  0.00  0.00     0.032 H 
ATOM     25  H   LIG d   1      10.083   9.873  -4.916  0.00  0.00     0.032 H 
ATOM     26  H   LIG d   1      11.469  10.696  -0.991  0.00  0.00     0.062 H 
ATOM     27  H   LIG d   1      11.941  11.731   1.188  0.00  0.00     0.062 H 
ATOM     28  H   LIG d   1      12.001  10.367   3.231  0.00  0.00     0.062 H 
ATOM     29  H   LIG d   1      11.592   7.946   3.128  0.00  0.00     0.063 H 
ENDROOT
BRANCH   8  30
ATOM     30  C   LIG d   1       9.834   5.963  -7.374  0.00  0.00    -0.007 A 
ATOM     31  C   LIG d   1       9.360   6.637  -8.485  0.00  0.00    -0.055 A 
ATOM     32  C   LIG d   1       8.793   5.934  -9.531  0.00  0.00    -0.061 A 
ATOM     33  H   LIG d   1       9.433   7.713  -8.535  0.00  0.00     0.062 H 
ATOM     34  C   LIG d   1       8.699   4.556  -9.467  0.00  0.00    -0.062 A 
ATOM     35  H   LIG d   1       8.423   6.460 -10.398  0.00  0.00     0.062 H 
ATOM     36  C   LIG d   1       9.174   3.882  -8.357  0.00  0.00    -0.061 A 
ATOM     37  H   LIG d   1       8.257   4.006 -10.284  0.00  0.00     0.062 H 
ATOM     38  C   LIG d   1       9.746   4.585  -7.313  0.00  0.00    -0.055 A 
ATOM     39  H   LIG d   1       9.102   2.805  -8.307  0.00  0.00     0.062 H 
ATOM     40  H   LIG d   1      10.120   4.058  -6.448  0.00  0.00     0.062 H 
ENDBRANCH   8  30
BRANCH   1  41
ATOM     41  C   LIG d   1      10.226   4.542  -2.684  0.00  0.00    -0.033 C 
ATOM     42  H   LIG d   1      11.127   4.020  -2.363  0.00  0.00     0.028 H 
ATOM     43  H   LIG d   1       9.405   4.299  -2.008  0.00  0.00     0.028 H 
ATOM     44  H   LIG d   1       9.967   4.231  -3.696  0.00  0.00     0.028 H 
ENDBRANCH   1  41
TORSDOF 2
ENDMDL
MODEL 8
REMARK VINA RESULT:      -6.5      8.561     10.412
REMARK  2 active torsions:
REMARK  status: ('A' for Active; 'I' for Inactive)
REMARK    1  A    between atoms: C_1  and  C_2 
REMARK    2  A    between atoms: C_9  and  C_13 
ROOT
ATOM      1  C   LIG d   1       9.616   6.449  -4.177  0.00  0.00     0.034 A 
ATOM      2  C   LIG d   1       9.956   7.092  -2.996  0.00  0.00     0.146 A 
ATOM      3  C   LIG d   1      10.312   6.324  -1.878  0.00  0.00     0.026 A 
ATOM      4  C   LIG d   1      10.319   4.933  -1.962  0.00  0.00    -0.044 A 
ATOM      5  C   LIG d   1       9.979   4.306  -3.144  0.00  0.00    -0.004 A 
ATOM      6  C   LIG d   1       9.628   5.063  -4.254  0.00  0.00     0.131 A 
ATOM      7  O   LIG d   1       9.293   4.481  -5.436  0.00  0.00    -0.484 OA
ATOM      8  C   LIG d   1       8.945   3.095  -5.424  0.00  0.00     0.126 C 
ATOM      9  H   LIG d   1       7.981   2.963  -4.934  0.00  0.00     0.078 H 
ATOM     10  C   LIG d   1      10.027   2.332  -4.650  0.00  0.00    -0.007 C 
ATOM     11  C   LIG d   1       9.996   2.799  -3.193  0.00  0.00    -0.021 C 
ATOM     12  C   LIG d   1      10.676   7.007  -0.623  0.00  0.00    -0.000 A 
ATOM     13  C   LIG d   1      11.038   6.306   0.522  0.00  0.00    -0.053 A 
ATOM     14  C   LIG d   1      11.369   6.998   1.669  0.00  0.00    -0.061 A 
ATOM     15  C   LIG d   1      11.343   8.384   1.690  0.00  0.00    -0.061 A 
ATOM     16  C   LIG d   1      10.986   9.098   0.565  0.00  0.00    -0.047 A 
ATOM     17  C   LIG d   1      10.649   8.418  -0.603  0.00  0.00     0.067 A 
ATOM     18  C   LIG d   1      10.260   9.129  -1.830  0.00  0.00     0.345 A 
ATOM     19  O   LIG d   1      10.227  10.344  -1.840  0.00  0.00    -0.244 OA
ATOM     20  O   LIG d   1       9.941   8.443  -2.938  0.00  0.00    -0.421 OA
ATOM     21  H   LIG d   1      10.593   4.343  -1.099  0.00  0.00     0.063 H 
ATOM     22  H   LIG d   1      11.005   2.542  -5.083  0.00  0.00     0.031 H 
ATOM     23  H   LIG d   1       9.827   1.262  -4.697  0.00  0.00     0.031 H 
ATOM     24  H   LIG d   1       9.102   2.409  -2.706  0.00  0.00     0.032 H 
ATOM     25  H   LIG d   1      10.882   2.431  -2.675  0.00  0.00     0.032 H 
ATOM     26  H   LIG d   1      11.060   5.225   0.512  0.00  0.00     0.062 H 
ATOM     27  H   LIG d   1      11.650   6.454   2.559  0.00  0.00     0.062 H 
ATOM     28  H   LIG d   1      11.605   8.911   2.596  0.00  0.00     0.062 H 
ATOM     29  H   LIG d   1      10.969  10.178   0.590  0.00  0.00     0.063 H 
ENDROOT
BRANCH   8  30
ATOM     30  C   LIG d   1       8.871   2.578  -6.838  0.00  0.00    -0.007 A 
ATOM     31  C   LIG d   1       9.351   3.348  -7.882  0.00  0.00    -0.055 A 
ATOM     32  C   LIG d   1       9.283   2.873  -9.179  0.00  0.00    -0.061 A 
ATOM     33  H   LIG d   1       9.780   4.318  -7.684  0.00  0.00     0.062 H 
ATOM     34  C   LIG d   1       8.734   1.630  -9.431  0.00  0.00    -0.062 A 
ATOM     35  H   LIG d   1       9.659   3.473  -9.993  0.00  0.00     0.062 H 
ATOM     36  C   LIG d   1       8.255   0.860  -8.388  0.00  0.00    -0.061 A 
ATOM     37  H   LIG d   1       8.682   1.259 -10.444  0.00  0.00     0.062 H 
ATOM     38  C   LIG d   1       8.328   1.333  -7.090  0.00  0.00    -0.055 A 
ATOM     39  H   LIG d   1       7.827  -0.111  -8.585  0.00  0.00     0.062 H 
ATOM     40  H   LIG d   1       7.957   0.730  -6.275  0.00  0.00     0.062 H 
ENDBRANCH   8  30
BRANCH   1  41
ATOM     41  C   LIG d   1       9.231   7.262  -5.386  0.00  0.00    -0.033 C 
ATOM     42  H   LIG d   1       8.565   8.070  -5.084  0.00  0.00     0.028 H 
ATOM     43  H   LIG d   1      10.128   7.682  -5.842  0.00  0.00     0.028 H 
ATOM     44  H   LIG d   1       8.722   6.622  -6.107  0.00  0.00     0.028 H 
ENDBRANCH   1  41
TORSDOF 2
ENDMDL
MODEL 9
REMARK VINA RESULT:      -6.5      2.067      8.474
REMARK  2 active torsions:
REMARK  status: ('A' for Active; 'I' for Inactive)
REMARK    1  A    between atoms: C_1  and  C_2 
REMARK    2  A    between atoms: C_9  and  C_13 
ROOT
ATOM      1  C   LIG d   1       3.250  -1.263  -8.342  0.00  0.00     0.034 A 
ATOM      2  C   LIG d   1       3.022  -1.973  -9.511  0.00  0.00     0.146 A 
ATOM      3  C   LIG d   1       3.467  -3.300  -9.602  0.00  0.00     0.026 A 
ATOM      4  C   LIG d   1       4.130  -3.888  -8.527  0.00  0.00    -0.044 A 
ATOM      5  C   LIG d   1       4.350  -3.169  -7.369  0.00  0.00    -0.004 A 
ATOM      6  C   LIG d   1       3.909  -1.856  -7.273  0.00  0.00     0.131 A 
ATOM      7  O   LIG d   1       4.102  -1.120  -6.147  0.00  0.00    -0.484 OA
ATOM      8  C   LIG d   1       5.079  -1.575  -5.209  0.00  0.00     0.126 C 
ATOM      9  H   LIG d   1       6.077  -1.443  -5.626  0.00  0.00     0.078 H 
ATOM     10  C   LIG d   1       4.827  -3.063  -4.933  0.00  0.00    -0.007 C 
ATOM     11  C   LIG d   1       5.073  -3.841  -6.228  0.00  0.00    -0.021 C 
ATOM     12  C   LIG d   1       3.223  -4.056 -10.844  0.00  0.00    -0.000 A 
ATOM     13  C   LIG d   1       3.638  -5.374 -11.000  0.00  0.00    -0.053 A 
ATOM     14  C   LIG d   1       3.382  -6.033 -12.186  0.00  0.00    -0.061 A 
ATOM     15  C   LIG d   1       2.717  -5.393 -13.221  0.00  0.00    -0.061 A 
ATOM     16  C   LIG d   1       2.298  -4.086 -13.085  0.00  0.00    -0.047 A 
ATOM     17  C   LIG d   1       2.546  -3.403 -11.896  0.00  0.00     0.067 A 
ATOM     18  C   LIG d   1       2.123  -2.009 -11.700  0.00  0.00     0.345 A 
ATOM     19  O   LIG d   1       1.539  -1.423 -12.591  0.00  0.00    -0.244 OA
ATOM     20  O   LIG d   1       2.378  -1.381 -10.542  0.00  0.00    -0.421 OA
ATOM     21  H   LIG d   1       4.472  -4.910  -8.599  0.00  0.00     0.063 H 
ATOM     22  H   LIG d   1       3.797  -3.207  -4.608  0.00  0.00     0.031 H 
ATOM     23  H   LIG d   1       5.509  -3.414  -4.159  0.00  0.00     0.031 H 
ATOM     24  H   LIG d   1       6.142  -3.865  -6.440  0.00  0.00     0.032 H 
ATOM     25  H   LIG d   1       4.703  -4.860  -6.116  0.00  0.00     0.032 H 
ATOM     26  H   LIG d   1       4.156  -5.878 -10.198  0.00  0.00     0.062 H 
ATOM     27  H   LIG d   1       3.703  -7.057 -12.308  0.00  0.00     0.062 H 
ATOM     28  H   LIG d   1       2.524  -5.923 -14.141  0.00  0.00     0.062 H 
ATOM     29  H   LIG d   1       1.780  -3.595 -13.897  0.00  0.00     0.063 H 
ENDROOT
BRANCH   8  30
ATOM     30  C   LIG d   1       4.956  -0.793  -3.927  0.00  0.00    -0.007 A 
ATOM     31  C   LIG d   1       5.308   0.544  -3.897  0.00  0.00    -0.055 A 
ATOM     32  C   LIG d   1       5.196   1.262  -2.721  0.00  0.00    -0.061 A 
ATOM     33  H   LIG d   1       5.669   1.027  -4.792  0.00  0.00     0.062 H 
ATOM     34  C   LIG d   1       4.733   0.642  -1.575  0.00  0.00    -0.062 A 
ATOM     35  H   LIG d   1       5.470   2.305  -2.697  0.00  0.00     0.062 H 
ATOM     36  C   LIG d   1       4.381  -0.694  -1.605  0.00  0.00    -0.061 A 
ATOM     37  H   LIG d   1       4.645   1.203  -0.656  0.00  0.00     0.062 H 
ATOM     38  C   LIG d   1       4.488  -1.411  -2.783  0.00  0.00    -0.055 A 
ATOM     39  H   LIG d   1       4.018  -1.178  -0.710  0.00  0.00     0.062 H 
ATOM     40  H   LIG d   1       4.210  -2.454  -2.808  0.00  0.00     0.062 H 
ENDBRANCH   8  30
BRANCH   1  41
ATOM     41  C   LIG d   1       2.779   0.164  -8.230  0.00  0.00    -0.033 C 
ATOM     42  H   LIG d   1       3.631   0.837  -8.319  0.00  0.00     0.028 H 
ATOM     43  H   LIG d   1       2.066   0.375  -9.028  0.00  0.00     0.028 H 
ATOM     44  H   LIG d   1       2.297   0.314  -7.264  0.00  0.00     0.028 H 
ENDBRANCH   1  41
TORSDOF 2
ENDMDL
MODEL 10
REMARK VINA RESULT:      -6.4      5.054      6.999
REMARK  2 active torsions:
REMARK  status: ('A' for Active; 'I' for Inactive)
REMARK    1  A    between atoms: C_1  and  C_2 
REMARK    2  A    between atoms: C_9  and  C_13 
ROOT
ATOM      1  C   LIG d   1       7.632   0.894  -6.634  0.00  0.00     0.034 A 
ATOM      2  C   LIG d   1       8.376   2.003  -6.260  0.00  0.00     0.146 A 
ATOM      3  C   LIG d   1       8.546   2.282  -4.896  0.00  0.00     0.026 A 
ATOM      4  C   LIG d   1       7.969   1.451  -3.937  0.00  0.00    -0.044 A 
ATOM      5  C   LIG d   1       7.231   0.350  -4.325  0.00  0.00    -0.004 A 
ATOM      6  C   LIG d   1       7.063   0.069  -5.674  0.00  0.00     0.131 A 
ATOM      7  O   LIG d   1       6.348  -1.009  -6.093  0.00  0.00    -0.484 OA
ATOM      8  C   LIG d   1       5.468  -1.633  -5.156  0.00  0.00     0.126 C 
ATOM      9  H   LIG d   1       4.618  -0.980  -4.959  0.00  0.00     0.078 H 
ATOM     10  C   LIG d   1       6.243  -1.879  -3.856  0.00  0.00    -0.007 C 
ATOM     11  C   LIG d   1       6.621  -0.523  -3.257  0.00  0.00    -0.021 C 
ATOM     12  C   LIG d   1       9.338   3.460  -4.497  0.00  0.00    -0.000 A 
ATOM     13  C   LIG d   1       9.545   3.793  -3.163  0.00  0.00    -0.053 A 
ATOM     14  C   LIG d   1      10.296   4.907  -2.848  0.00  0.00    -0.061 A 
ATOM     15  C   LIG d   1      10.845   5.696  -3.848  0.00  0.00    -0.061 A 
ATOM     16  C   LIG d   1      10.651   5.382  -5.177  0.00  0.00    -0.047 A 
ATOM     17  C   LIG d   1       9.896   4.261  -5.516  0.00  0.00     0.067 A 
ATOM     18  C   LIG d   1       9.657   3.882  -6.916  0.00  0.00     0.345 A 
ATOM     19  O   LIG d   1      10.124   4.556  -7.813  0.00  0.00    -0.244 OA
ATOM     20  O   LIG d   1       8.924   2.796  -7.208  0.00  0.00    -0.421 OA
ATOM     21  H   LIG d   1       8.101   1.668  -2.887  0.00  0.00     0.063 H 
ATOM     22  H   LIG d   1       7.146  -2.452  -4.068  0.00  0.00     0.031 H 
ATOM     23  H   LIG d   1       5.617  -2.429  -3.153  0.00  0.00     0.031 H 
ATOM     24  H   LIG d   1       5.729  -0.040  -2.859  0.00  0.00     0.032 H 
ATOM     25  H   LIG d   1       7.344  -0.669  -2.454  0.00  0.00     0.032 H 
ATOM     26  H   LIG d   1       9.120   3.183  -2.379  0.00  0.00     0.062 H 
ATOM     27  H   LIG d   1      10.457   5.167  -1.811  0.00  0.00     0.062 H 
ATOM     28  H   LIG d   1      11.430   6.564  -3.584  0.00  0.00     0.062 H 
ATOM     29  H   LIG d   1      11.082   6.001  -5.950  0.00  0.00     0.063 H 
ENDROOT
BRANCH   8  30
ATOM     30  C   LIG d   1       4.981  -2.946  -5.714  0.00  0.00    -0.007 A 
ATOM     31  C   LIG d   1       4.477  -3.006  -7.000  0.00  0.00    -0.055 A 
ATOM     32  C   LIG d   1       4.031  -4.211  -7.511  0.00  0.00    -0.061 A 
ATOM     33  H   LIG d   1       4.434  -2.114  -7.605  0.00  0.00     0.062 H 
ATOM     34  C   LIG d   1       4.086  -5.354  -6.736  0.00  0.00    -0.062 A 
ATOM     35  H   LIG d   1       3.638  -4.258  -8.516  0.00  0.00     0.062 H 
ATOM     36  C   LIG d   1       4.591  -5.293  -5.451  0.00  0.00    -0.061 A 
ATOM     37  H   LIG d   1       3.737  -6.295  -7.136  0.00  0.00     0.062 H 
ATOM     38  C   LIG d   1       5.042  -4.090  -4.941  0.00  0.00    -0.055 A 
ATOM     39  H   LIG d   1       4.635  -6.187  -4.845  0.00  0.00     0.062 H 
ATOM     40  H   LIG d   1       5.440  -4.043  -3.938  0.00  0.00     0.062 H 
ENDBRANCH   8  30
BRANCH   1  41
ATOM     41  C   LIG d   1       7.440   0.583  -8.096  0.00  0.00    -0.033 C 
ATOM     42  H   LIG d   1       8.234   1.054  -8.676  0.00  0.00     0.028 H 
ATOM     43  H   LIG d   1       7.475  -0.497  -8.245  0.00  0.00     0.028 H 
ATOM     44  H   LIG d   1       6.474   0.964  -8.426  0.00  0.00     0.028 H 
ENDBRANCH   1  41
TORSDOF 2
ENDMDL
