MODEL 1
REMARK VINA RESULT:      -5.8      0.000      0.000
REMARK  1 active torsions:
REMARK  status: ('A' for Active; 'I' for Inactive)
REMARK    1  A    between atoms: C_9  and  C_12 
ROOT
ATOM      1  C   LIG d   1       3.902  -0.534  -1.885  0.00  0.00    -0.061 A 
ATOM      2  C   LIG d   1       4.605  -1.708  -2.113  0.00  0.00    -0.058 A 
ATOM      3  C   LIG d   1       4.826  -2.160  -3.396  0.00  0.00    -0.019 A 
ATOM      4  C   LIG d   1       4.344  -1.436  -4.481  0.00  0.00     0.138 A 
ATOM      5  C   LIG d   1       3.634  -0.247  -4.249  0.00  0.00     0.065 A 
ATOM      6  C   LIG d   1       3.416   0.199  -2.946  0.00  0.00    -0.047 A 
ATOM      7  C   LIG d   1       3.129   0.511  -5.411  0.00  0.00     0.201 A 
ATOM      8  O   LIG d   1       2.505   1.549  -5.275  0.00  0.00    -0.286 OA
ATOM      9  C   LIG d   1       3.414  -0.051  -6.744  0.00  0.00     0.079 A 
ATOM     10  C   LIG d   1       4.123  -1.227  -6.822  0.00  0.00     0.105 A 
ATOM     11  O   LIG d   1       4.556  -1.870  -5.740  0.00  0.00    -0.462 OA
ATOM     12  H   LIG d   1       3.736  -0.193  -0.875  0.00  0.00     0.062 H 
ATOM     13  H   LIG d   1       4.983  -2.275  -1.275  0.00  0.00     0.062 H 
ATOM     14  H   LIG d   1       5.375  -3.075  -3.560  0.00  0.00     0.065 H 
ATOM     15  H   LIG d   1       2.873   1.117  -2.769  0.00  0.00     0.063 H 
ATOM     16  H   LIG d   1       4.336  -1.645  -7.796  0.00  0.00     0.104 H 
ENDROOT
BRANCH   9  17
ATOM     17  C   LIG d   1       2.951   0.630  -7.964  0.00  0.00     0.078 C 
ATOM     18  O   LIG d   1       2.162   0.078  -8.705  0.00  0.00    -0.544 OA
ATOM     19  O   LIG d   1       3.401   1.866  -8.258  0.00  0.00    -0.544 OA
ENDBRANCH   9  17
TORSDOF 1
ENDMDL
MODEL 2
REMARK VINA RESULT:      -5.7      3.601      4.749
REMARK  1 active torsions:
REMARK  status: ('A' for Active; 'I' for Inactive)
REMARK    1  A    between atoms: C_9  and  C_12 
ROOT
ATOM      1  C   LIG d   1       2.963  -0.119  -2.627  0.00  0.00    -0.061 A 
ATOM      2  C   LIG d   1       3.883   0.858  -2.275  0.00  0.00    -0.058 A 
ATOM      3  C   LIG d   1       5.229   0.677  -2.510  0.00  0.00    -0.019 A 
ATOM      4  C   LIG d   1       5.679  -0.495  -3.108  0.00  0.00     0.138 A 
ATOM      5  C   LIG d   1       4.747  -1.482  -3.465  0.00  0.00     0.065 A 
ATOM      6  C   LIG d   1       3.388  -1.288  -3.221  0.00  0.00    -0.047 A 
ATOM      7  C   LIG d   1       5.240  -2.720  -4.099  0.00  0.00     0.201 A 
ATOM      8  O   LIG d   1       4.482  -3.614  -4.432  0.00  0.00    -0.286 OA
ATOM      9  C   LIG d   1       6.697  -2.824  -4.310  0.00  0.00     0.079 A 
ATOM     10  C   LIG d   1       7.493  -1.776  -3.909  0.00  0.00     0.105 A 
ATOM     11  O   LIG d   1       6.994  -0.680  -3.341  0.00  0.00    -0.462 OA
ATOM     12  H   LIG d   1       1.913   0.037  -2.437  0.00  0.00     0.062 H 
ATOM     13  H   LIG d   1       3.540   1.771  -1.811  0.00  0.00     0.062 H 
ATOM     14  H   LIG d   1       5.934   1.446  -2.231  0.00  0.00     0.065 H 
ATOM     15  H   LIG d   1       2.672  -2.047  -3.501  0.00  0.00     0.063 H 
ATOM     16  H   LIG d   1       8.560  -1.844  -4.060  0.00  0.00     0.104 H 
ENDROOT
BRANCH   9  17
ATOM     17  C   LIG d   1       7.285  -4.019  -4.934  0.00  0.00     0.078 C 
ATOM     18  O   LIG d   1       8.070  -4.706  -4.309  0.00  0.00    -0.544 OA
ATOM     19  O   LIG d   1       6.953  -4.354  -6.196  0.00  0.00    -0.544 OA
ENDBRANCH   9  17
TORSDOF 1
ENDMDL
MODEL 3
REMARK VINA RESULT:      -5.6      3.944      5.064
REMARK  1 active torsions:
REMARK  status: ('A' for Active; 'I' for Inactive)
REMARK    1  A    between atoms: C_9  and  C_12 
ROOT
ATOM      1  C   LIG d   1       4.502  -1.515  -2.239  0.00  0.00    -0.061 A 
ATOM      2  C   LIG d   1       4.113  -0.252  -1.816  0.00  0.00    -0.058 A 
ATOM      3  C   LIG d   1       4.833   0.865  -2.180  0.00  0.00    -0.019 A 
ATOM      4  C   LIG d   1       5.962   0.735  -2.982  0.00  0.00     0.138 A 
ATOM      5  C   LIG d   1       6.352  -0.543  -3.410  0.00  0.00     0.065 A 
ATOM      6  C   LIG d   1       5.617  -1.667  -3.035  0.00  0.00    -0.047 A 
ATOM      7  C   LIG d   1       7.553  -0.666  -4.261  0.00  0.00     0.201 A 
ATOM      8  O   LIG d   1       7.943  -1.747  -4.664  0.00  0.00    -0.286 OA
ATOM      9  C   LIG d   1       8.257   0.586  -4.598  0.00  0.00     0.079 A 
ATOM     10  C   LIG d   1       7.760   1.771  -4.108  0.00  0.00     0.105 A 
ATOM     11  O   LIG d   1       6.671   1.823  -3.343  0.00  0.00    -0.462 OA
ATOM     12  H   LIG d   1       3.929  -2.381  -1.946  0.00  0.00     0.062 H 
ATOM     13  H   LIG d   1       3.238  -0.144  -1.194  0.00  0.00     0.062 H 
ATOM     14  H   LIG d   1       4.520   1.843  -1.845  0.00  0.00     0.065 H 
ATOM     15  H   LIG d   1       5.917  -2.649  -3.369  0.00  0.00     0.063 H 
ATOM     16  H   LIG d   1       8.271   2.691  -4.350  0.00  0.00     0.104 H 
ENDROOT
BRANCH   9  17
ATOM     17  C   LIG d   1       9.464   0.568  -5.440  0.00  0.00     0.078 C 
ATOM     18  O   LIG d   1      10.564   0.595  -4.924  0.00  0.00    -0.544 OA
ATOM     19  O   LIG d   1       9.350   0.520  -6.782  0.00  0.00    -0.544 OA
ENDBRANCH   9  17
TORSDOF 1
ENDMDL
MODEL 4
REMARK VINA RESULT:      -5.5      0.937      2.082
REMARK  1 active torsions:
REMARK  status: ('A' for Active; 'I' for Inactive)
REMARK    1  A    between atoms: C_9  and  C_12 
ROOT
ATOM      1  C   LIG d   1       5.442  -1.984  -2.872  0.00  0.00    -0.061 A 
ATOM      2  C   LIG d   1       4.377  -1.651  -2.048  0.00  0.00    -0.058 A 
ATOM      3  C   LIG d   1       3.303  -0.939  -2.538  0.00  0.00    -0.019 A 
ATOM      4  C   LIG d   1       3.278  -0.547  -3.872  0.00  0.00     0.138 A 
ATOM      5  C   LIG d   1       4.356  -0.886  -4.704  0.00  0.00     0.065 A 
ATOM      6  C   LIG d   1       5.437  -1.605  -4.197  0.00  0.00    -0.047 A 
ATOM      7  C   LIG d   1       4.315  -0.463  -6.118  0.00  0.00     0.201 A 
ATOM      8  O   LIG d   1       5.221  -0.725  -6.890  0.00  0.00    -0.286 OA
ATOM      9  C   LIG d   1       3.126   0.295  -6.550  0.00  0.00     0.079 A 
ATOM     10  C   LIG d   1       2.143   0.556  -5.623  0.00  0.00     0.105 A 
ATOM     11  O   LIG d   1       2.231   0.150  -4.359  0.00  0.00    -0.462 OA
ATOM     12  H   LIG d   1       6.276  -2.541  -2.475  0.00  0.00     0.062 H 
ATOM     13  H   LIG d   1       4.389  -1.953  -1.012  0.00  0.00     0.062 H 
ATOM     14  H   LIG d   1       2.479  -0.686  -1.886  0.00  0.00     0.065 H 
ATOM     15  H   LIG d   1       6.264  -1.869  -4.841  0.00  0.00     0.063 H 
ATOM     16  H   LIG d   1       1.269   1.110  -5.932  0.00  0.00     0.104 H 
ENDROOT
BRANCH   9  17
ATOM     17  C   LIG d   1       2.993   0.761  -7.939  0.00  0.00     0.078 C 
ATOM     18  O   LIG d   1       2.439   0.061  -8.764  0.00  0.00    -0.544 OA
ATOM     19  O   LIG d   1       3.483   1.964  -8.297  0.00  0.00    -0.544 OA
ENDBRANCH   9  17
TORSDOF 1
ENDMDL
MODEL 5
REMARK VINA RESULT:      -5.5      3.475      4.541
REMARK  1 active torsions:
REMARK  status: ('A' for Active; 'I' for Inactive)
REMARK    1  A    between atoms: C_9  and  C_12 
ROOT
ATOM      1  C   LIG d   1       4.823   1.415  -2.484  0.00  0.00    -0.061 A 
ATOM      2  C   LIG d   1       3.543   0.909  -2.312  0.00  0.00    -0.058 A 
ATOM      3  C   LIG d   1       3.235  -0.376  -2.703  0.00  0.00    -0.019 A 
ATOM      4  C   LIG d   1       4.212  -1.182  -3.277  0.00  0.00     0.138 A 
ATOM      5  C   LIG d   1       5.507  -0.669  -3.449  0.00  0.00     0.065 A 
ATOM      6  C   LIG d   1       5.807   0.633  -3.050  0.00  0.00    -0.047 A 
ATOM      7  C   LIG d   1       6.534  -1.537  -4.059  0.00  0.00     0.201 A 
ATOM      8  O   LIG d   1       7.675  -1.149  -4.236  0.00  0.00    -0.286 OA
ATOM      9  C   LIG d   1       6.110  -2.896  -4.446  0.00  0.00     0.079 A 
ATOM     10  C   LIG d   1       4.804  -3.265  -4.217  0.00  0.00     0.105 A 
ATOM     11  O   LIG d   1       3.918  -2.441  -3.662  0.00  0.00    -0.462 OA
ATOM     12  H   LIG d   1       5.050   2.423  -2.174  0.00  0.00     0.062 H 
ATOM     13  H   LIG d   1       2.780   1.529  -1.866  0.00  0.00     0.062 H 
ATOM     14  H   LIG d   1       2.234  -0.758  -2.563  0.00  0.00     0.065 H 
ATOM     15  H   LIG d   1       6.805   1.025  -3.180  0.00  0.00     0.063 H 
ATOM     16  H   LIG d   1       4.486  -4.259  -4.497  0.00  0.00     0.104 H 
ENDROOT
BRANCH   9  17
ATOM     17  C   LIG d   1       7.060  -3.835  -5.062  0.00  0.00     0.078 C 
ATOM     18  O   LIG d   1       6.945  -4.131  -6.235  0.00  0.00    -0.544 OA
ATOM     19  O   LIG d   1       8.057  -4.365  -4.327  0.00  0.00    -0.544 OA
ENDBRANCH   9  17
TORSDOF 1
ENDMDL
MODEL 6
REMARK VINA RESULT:      -5.4      3.157      4.604
REMARK  1 active torsions:
REMARK  status: ('A' for Active; 'I' for Inactive)
REMARK    1  A    between atoms: C_9  and  C_12 
ROOT
ATOM      1  C   LIG d   1       7.277  -3.977  -5.090  0.00  0.00    -0.061 A 
ATOM      2  C   LIG d   1       6.092  -4.683  -5.238  0.00  0.00    -0.058 A 
ATOM      3  C   LIG d   1       4.895  -4.146  -4.814  0.00  0.00    -0.019 A 
ATOM      4  C   LIG d   1       4.866  -2.883  -4.231  0.00  0.00     0.138 A 
ATOM      5  C   LIG d   1       6.066  -2.171  -4.084  0.00  0.00     0.065 A 
ATOM      6  C   LIG d   1       7.271  -2.724  -4.516  0.00  0.00    -0.047 A 
ATOM      7  C   LIG d   1       6.020  -0.831  -3.464  0.00  0.00     0.201 A 
ATOM      8  O   LIG d   1       7.027  -0.164  -3.308  0.00  0.00    -0.286 OA
ATOM      9  C   LIG d   1       4.694  -0.342  -3.042  0.00  0.00     0.079 A 
ATOM     10  C   LIG d   1       3.600  -1.150  -3.249  0.00  0.00     0.105 A 
ATOM     11  O   LIG d   1       3.699  -2.351  -3.814  0.00  0.00    -0.462 OA
ATOM     12  H   LIG d   1       8.207  -4.410  -5.426  0.00  0.00     0.062 H 
ATOM     13  H   LIG d   1       6.107  -5.663  -5.689  0.00  0.00     0.062 H 
ATOM     14  H   LIG d   1       3.979  -4.705  -4.935  0.00  0.00     0.065 H 
ATOM     15  H   LIG d   1       8.193  -2.172  -4.406  0.00  0.00     0.063 H 
ATOM     16  H   LIG d   1       2.626  -0.798  -2.943  0.00  0.00     0.104 H 
ENDROOT
BRANCH   9  17
ATOM     17  C   LIG d   1       4.544   0.980  -2.414  0.00  0.00     0.078 C 
ATOM     18  O   LIG d   1       4.837   1.133  -1.244  0.00  0.00    -0.544 OA
ATOM     19  O   LIG d   1       4.084   2.021  -3.134  0.00  0.00    -0.544 OA
ENDBRANCH   9  17
TORSDOF 1
ENDMDL
MODEL 7
REMARK VINA RESULT:      -5.2      3.169      4.549
REMARK  1 active torsions:
REMARK  status: ('A' for Active; 'I' for Inactive)
REMARK    1  A    between atoms: C_9  and  C_12 
ROOT
ATOM      1  C   LIG d   1       5.432  -4.580  -5.222  0.00  0.00    -0.061 A 
ATOM      2  C   LIG d   1       6.812  -4.479  -5.321  0.00  0.00    -0.058 A 
ATOM      3  C   LIG d   1       7.472  -3.360  -4.859  0.00  0.00    -0.019 A 
ATOM      4  C   LIG d   1       6.754  -2.317  -4.285  0.00  0.00     0.138 A 
ATOM      5  C   LIG d   1       5.358  -2.421  -4.184  0.00  0.00     0.065 A 
ATOM      6  C   LIG d   1       4.702  -3.557  -4.656  0.00  0.00    -0.047 A 
ATOM      7  C   LIG d   1       4.610  -1.305  -3.572  0.00  0.00     0.201 A 
ATOM      8  O   LIG d   1       3.397  -1.336  -3.457  0.00  0.00    -0.286 OA
ATOM      9  C   LIG d   1       5.402  -0.151  -3.108  0.00  0.00     0.079 A 
ATOM     10  C   LIG d   1       6.768  -0.185  -3.271  0.00  0.00     0.105 A 
ATOM     11  O   LIG d   1       7.392  -1.219  -3.830  0.00  0.00    -0.462 OA
ATOM     12  H   LIG d   1       4.929  -5.461  -5.588  0.00  0.00     0.062 H 
ATOM     13  H   LIG d   1       7.375  -5.286  -5.765  0.00  0.00     0.062 H 
ATOM     14  H   LIG d   1       8.547  -3.294  -4.942  0.00  0.00     0.065 H 
ATOM     15  H   LIG d   1       3.627  -3.638  -4.574  0.00  0.00     0.063 H 
ATOM     16  H   LIG d   1       7.355   0.657  -2.933  0.00  0.00     0.104 H 
ENDROOT
BRANCH   9  17
ATOM     17  C   LIG d   1       4.748   1.010  -2.485  0.00  0.00     0.078 C 
ATOM     18  O   LIG d   1       4.771   1.145  -1.277  0.00  0.00    -0.544 OA
ATOM     19  O   LIG d   1       4.124   1.925  -3.253  0.00  0.00    -0.544 OA
ENDBRANCH   9  17
TORSDOF 1
ENDMDL
MODEL 8
REMARK VINA RESULT:      -5.0      2.042      4.966
REMARK  1 active torsions:
REMARK  status: ('A' for Active; 'I' for Inactive)
REMARK    1  A    between atoms: C_9  and  C_12 
ROOT
ATOM      1  C   LIG d   1       4.887  -0.788  -8.390  0.00  0.00    -0.061 A 
ATOM      2  C   LIG d   1       3.577  -0.400  -8.630  0.00  0.00    -0.058 A 
ATOM      3  C   LIG d   1       2.751  -0.029  -7.590  0.00  0.00    -0.019 A 
ATOM      4  C   LIG d   1       3.228  -0.040  -6.284  0.00  0.00     0.138 A 
ATOM      5  C   LIG d   1       4.554  -0.432  -6.044  0.00  0.00     0.065 A 
ATOM      6  C   LIG d   1       5.380  -0.806  -7.103  0.00  0.00    -0.047 A 
ATOM      7  C   LIG d   1       5.047  -0.438  -4.652  0.00  0.00     0.201 A 
ATOM      8  O   LIG d   1       6.187  -0.769  -4.379  0.00  0.00    -0.286 OA
ATOM      9  C   LIG d   1       4.090  -0.026  -3.608  0.00  0.00     0.079 A 
ATOM     10  C   LIG d   1       2.818   0.334  -3.990  0.00  0.00     0.105 A 
ATOM     11  O   LIG d   1       2.426   0.322  -5.262  0.00  0.00    -0.462 OA
ATOM     12  H   LIG d   1       5.522  -1.076  -9.214  0.00  0.00     0.062 H 
ATOM     13  H   LIG d   1       3.200  -0.388  -9.641  0.00  0.00     0.062 H 
ATOM     14  H   LIG d   1       1.733   0.272  -7.790  0.00  0.00     0.065 H 
ATOM     15  H   LIG d   1       6.402  -1.103  -6.917  0.00  0.00     0.063 H 
ATOM     16  H   LIG d   1       2.112   0.637  -3.231  0.00  0.00     0.104 H 
ENDROOT
BRANCH   9  17
ATOM     17  C   LIG d   1       4.486  -0.000  -2.191  0.00  0.00     0.078 C 
ATOM     18  O   LIG d   1       4.396  -1.008  -1.518  0.00  0.00    -0.544 OA
ATOM     19  O   LIG d   1       4.948   1.139  -1.641  0.00  0.00    -0.544 OA
ENDBRANCH   9  17
TORSDOF 1
ENDMDL
MODEL 9
REMARK VINA RESULT:      -4.9      3.475      5.083
REMARK  1 active torsions:
REMARK  status: ('A' for Active; 'I' for Inactive)
REMARK    1  A    between atoms: C_9  and  C_12 
ROOT
ATOM      1  C   LIG d   1       8.881   0.466  -5.518  0.00  0.00    -0.061 A 
ATOM      2  C   LIG d   1       9.011   1.610  -4.743  0.00  0.00    -0.058 A 
ATOM      3  C   LIG d   1       8.063   1.930  -3.796  0.00  0.00    -0.019 A 
ATOM      4  C   LIG d   1       6.960   1.104  -3.607  0.00  0.00     0.138 A 
ATOM      5  C   LIG d   1       6.831  -0.052  -4.391  0.00  0.00     0.065 A 
ATOM      6  C   LIG d   1       7.796  -0.366  -5.347  0.00  0.00    -0.047 A 
ATOM      7  C   LIG d   1       5.655  -0.920  -4.179  0.00  0.00     0.201 A 
ATOM      8  O   LIG d   1       5.485  -1.937  -4.829  0.00  0.00    -0.286 OA
ATOM      9  C   LIG d   1       4.694  -0.494  -3.144  0.00  0.00     0.079 A 
ATOM     10  C   LIG d   1       4.950   0.666  -2.450  0.00  0.00     0.105 A 
ATOM     11  O   LIG d   1       6.028   1.411  -2.682  0.00  0.00    -0.462 OA
ATOM     12  H   LIG d   1       9.631   0.228  -6.256  0.00  0.00     0.062 H 
ATOM     13  H   LIG d   1       9.865   2.255  -4.883  0.00  0.00     0.062 H 
ATOM     14  H   LIG d   1       8.176   2.823  -3.198  0.00  0.00     0.065 H 
ATOM     15  H   LIG d   1       7.697  -1.260  -5.947  0.00  0.00     0.063 H 
ATOM     16  H   LIG d   1       4.251   0.984  -1.690  0.00  0.00     0.104 H 
ENDROOT
BRANCH   9  17
ATOM     17  C   LIG d   1       3.491  -1.291  -2.860  0.00  0.00     0.078 C 
ATOM     18  O   LIG d   1       2.390  -0.831  -3.091  0.00  0.00    -0.544 OA
ATOM     19  O   LIG d   1       3.609  -2.531  -2.344  0.00  0.00    -0.544 OA
ENDBRANCH   9  17
TORSDOF 1
ENDMDL
MODEL 10
REMARK VINA RESULT:      -4.9      2.776      3.971
REMARK  1 active torsions:
REMARK  status: ('A' for Active; 'I' for Inactive)
REMARK    1  A    between atoms: C_9  and  C_12 
ROOT
ATOM      1  C   LIG d   1       2.573  -0.368  -3.809  0.00  0.00    -0.061 A 
ATOM      2  C   LIG d   1       2.791  -1.154  -2.687  0.00  0.00    -0.058 A 
ATOM      3  C   LIG d   1       4.036  -1.688  -2.432  0.00  0.00    -0.019 A 
ATOM      4  C   LIG d   1       5.091  -1.441  -3.304  0.00  0.00     0.138 A 
ATOM      5  C   LIG d   1       4.868  -0.645  -4.439  0.00  0.00     0.065 A 
ATOM      6  C   LIG d   1       3.604  -0.111  -4.686  0.00  0.00    -0.047 A 
ATOM      7  C   LIG d   1       5.998  -0.392  -5.355  0.00  0.00     0.201 A 
ATOM      8  O   LIG d   1       5.868   0.290  -6.356  0.00  0.00    -0.286 OA
ATOM      9  C   LIG d   1       7.291  -1.006  -5.000  0.00  0.00     0.079 A 
ATOM     10  C   LIG d   1       7.364  -1.764  -3.854  0.00  0.00     0.105 A 
ATOM     11  O   LIG d   1       6.311  -1.960  -3.062  0.00  0.00    -0.462 OA
ATOM     12  H   LIG d   1       1.593   0.043  -3.996  0.00  0.00     0.062 H 
ATOM     13  H   LIG d   1       1.977  -1.348  -2.005  0.00  0.00     0.062 H 
ATOM     14  H   LIG d   1       4.193  -2.297  -1.555  0.00  0.00     0.065 H 
ATOM     15  H   LIG d   1       3.436   0.505  -5.558  0.00  0.00     0.063 H 
ATOM     16  H   LIG d   1       8.307  -2.217  -3.587  0.00  0.00     0.104 H 
ENDROOT
BRANCH   9  17
ATOM     17  C   LIG d   1       8.476  -0.813  -5.850  0.00  0.00     0.078 C 
ATOM     18  O   LIG d   1       8.761  -1.643  -6.691  0.00  0.00    -0.544 OA
ATOM     19  O   LIG d   1       9.243   0.284  -5.698  0.00  0.00    -0.544 OA
ENDBRANCH   9  17
TORSDOF 1
ENDMDL
