MODEL 1
REMARK VINA RESULT:      -6.6      0.000      0.000
REMARK  4 active torsions:
REMARK  status: ('A' for Active; 'I' for Inactive)
REMARK    1  A    between atoms: C_4  and  C_7 
REMARK    2  A    between atoms: C_7  and  O_8 
REMARK    3  A    between atoms: O_8  and  C_9 
REMARK    4  A    between atoms: C_14  and  C_15 
ROOT
ATOM      1  C   LIG d   1       2.343   0.530  -4.961  0.00  0.00     0.115 C 
ATOM      2  H   LIG d   1       1.692  -0.265  -5.322  0.00  0.00     0.075 H 
ATOM      3  H   LIG d   1       1.740   1.393  -4.679  0.00  0.00     0.075 H 
ENDROOT
BRANCH   1   4
ATOM      4  C   LIG d   1       3.114   0.043  -3.761  0.00  0.00    -0.010 A 
ATOM      5  C   LIG d   1       3.785   0.945  -2.957  0.00  0.00    -0.055 A 
ATOM      6  C   LIG d   1       4.492   0.498  -1.857  0.00  0.00    -0.061 A 
ATOM      7  H   LIG d   1       3.757   1.999  -3.189  0.00  0.00     0.062 H 
ATOM      8  C   LIG d   1       4.529  -0.852  -1.560  0.00  0.00    -0.062 A 
ATOM      9  H   LIG d   1       5.016   1.203  -1.229  0.00  0.00     0.062 H 
ATOM     10  C   LIG d   1       3.858  -1.754  -2.364  0.00  0.00    -0.061 A 
ATOM     11  H   LIG d   1       5.077  -1.201  -0.698  0.00  0.00     0.062 H 
ATOM     12  C   LIG d   1       3.151  -1.307  -3.465  0.00  0.00    -0.055 A 
ATOM     13  H   LIG d   1       3.886  -2.809  -2.133  0.00  0.00     0.062 H 
ATOM     14  H   LIG d   1       2.627  -2.012  -4.093  0.00  0.00     0.062 H 
ENDBRANCH   1   4
BRANCH   1  15
ATOM     15  O   LIG d   1       3.257   0.904  -5.993  0.00  0.00    -0.487 OA
BRANCH  15  16
ATOM     16  C   LIG d   1       3.434   0.020  -7.008  0.00  0.00     0.130 A 
ATOM     17  C   LIG d   1       4.652  -0.661  -7.143  0.00  0.00     0.039 A 
ATOM     18  C   LIG d   1       4.823  -1.569  -8.193  0.00  0.00    -0.049 A 
ATOM     19  C   LIG d   1       3.796  -1.789  -9.083  0.00  0.00    -0.061 A 
ATOM     20  H   LIG d   1       5.758  -2.097  -8.303  0.00  0.00     0.062 H 
ATOM     21  C   LIG d   1       2.593  -1.116  -8.945  0.00  0.00    -0.058 A 
ATOM     22  H   LIG d   1       3.929  -2.491  -9.893  0.00  0.00     0.062 H 
ATOM     23  C   LIG d   1       2.409  -0.220  -7.911  0.00  0.00    -0.019 A 
ATOM     24  H   LIG d   1       1.793  -1.295  -9.649  0.00  0.00     0.062 H 
ATOM     25  H   LIG d   1       1.468   0.299  -7.808  0.00  0.00     0.065 H 
BRANCH  17  26
ATOM     26  C   LIG d   1       5.748  -0.420  -6.186  0.00  0.00     0.075 C 
ATOM     27  O   LIG d   1       5.992  -1.241  -5.325  0.00  0.00    -0.544 OA
ATOM     28  O   LIG d   1       6.477   0.709  -6.268  0.00  0.00    -0.544 OA
ENDBRANCH  17  26
ENDBRANCH  15  16
ENDBRANCH   1  15
TORSDOF 4
ENDMDL
MODEL 2
REMARK VINA RESULT:      -6.4      1.998      5.446
REMARK  4 active torsions:
REMARK  status: ('A' for Active; 'I' for Inactive)
REMARK    1  A    between atoms: C_4  and  C_7 
REMARK    2  A    between atoms: C_7  and  O_8 
REMARK    3  A    between atoms: O_8  and  C_9 
REMARK    4  A    between atoms: C_14  and  C_15 
ROOT
ATOM      1  C   LIG d   1       4.501  -0.681  -7.001  0.00  0.00     0.115 C 
ATOM      2  H   LIG d   1       3.588  -1.256  -6.838  0.00  0.00     0.075 H 
ATOM      3  H   LIG d   1       5.259  -1.325  -7.447  0.00  0.00     0.075 H 
ENDROOT
BRANCH   1   4
ATOM      4  C   LIG d   1       4.211   0.472  -7.927  0.00  0.00    -0.010 A 
ATOM      5  C   LIG d   1       5.251   1.137  -8.549  0.00  0.00    -0.055 A 
ATOM      6  C   LIG d   1       4.985   2.195  -9.398  0.00  0.00    -0.061 A 
ATOM      7  H   LIG d   1       6.270   0.830  -8.371  0.00  0.00     0.062 H 
ATOM      8  C   LIG d   1       3.678   2.588  -9.624  0.00  0.00    -0.062 A 
ATOM      9  H   LIG d   1       5.796   2.714  -9.884  0.00  0.00     0.062 H 
ATOM     10  C   LIG d   1       2.639   1.923  -9.002  0.00  0.00    -0.061 A 
ATOM     11  H   LIG d   1       3.471   3.411 -10.291  0.00  0.00     0.062 H 
ATOM     12  C   LIG d   1       2.905   0.865  -8.153  0.00  0.00    -0.055 A 
ATOM     13  H   LIG d   1       1.618   2.230  -9.179  0.00  0.00     0.062 H 
ATOM     14  H   LIG d   1       2.092   0.345  -7.666  0.00  0.00     0.062 H 
ENDBRANCH   1   4
BRANCH   1  15
ATOM     15  O   LIG d   1       4.977  -0.180  -5.751  0.00  0.00    -0.487 OA
BRANCH  15  16
ATOM     16  C   LIG d   1       4.568  -0.829  -4.631  0.00  0.00     0.130 A 
ATOM     17  C   LIG d   1       3.785  -0.162  -3.677  0.00  0.00     0.039 A 
ATOM     18  C   LIG d   1       3.370  -0.841  -2.528  0.00  0.00    -0.049 A 
ATOM     19  C   LIG d   1       3.731  -2.158  -2.341  0.00  0.00    -0.061 A 
ATOM     20  H   LIG d   1       2.768  -0.335  -1.790  0.00  0.00     0.062 H 
ATOM     21  C   LIG d   1       4.502  -2.813  -3.286  0.00  0.00    -0.058 A 
ATOM     22  H   LIG d   1       3.409  -2.681  -1.452  0.00  0.00     0.062 H 
ATOM     23  C   LIG d   1       4.916  -2.156  -4.428  0.00  0.00    -0.019 A 
ATOM     24  H   LIG d   1       4.780  -3.846  -3.131  0.00  0.00     0.062 H 
ATOM     25  H   LIG d   1       5.514  -2.674  -5.162  0.00  0.00     0.065 H 
BRANCH  17  26
ATOM     26  C   LIG d   1       3.404   1.247  -3.884  0.00  0.00     0.075 C 
ATOM     27  O   LIG d   1       3.918   2.119  -3.213  0.00  0.00    -0.544 OA
ATOM     28  O   LIG d   1       2.486   1.566  -4.817  0.00  0.00    -0.544 OA
ENDBRANCH  17  26
ENDBRANCH  15  16
ENDBRANCH   1  15
TORSDOF 4
ENDMDL
MODEL 3
REMARK VINA RESULT:      -6.4      1.825      2.514
REMARK  4 active torsions:
REMARK  status: ('A' for Active; 'I' for Inactive)
REMARK    1  A    between atoms: C_4  and  C_7 
REMARK    2  A    between atoms: C_7  and  O_8 
REMARK    3  A    between atoms: O_8  and  C_9 
REMARK    4  A    between atoms: C_14  and  C_15 
ROOT
ATOM      1  C   LIG d   1       2.500   0.850  -5.194  0.00  0.00     0.115 C 
ATOM      2  H   LIG d   1       1.426   0.926  -5.024  0.00  0.00     0.075 H 
ATOM      3  H   LIG d   1       2.893   1.829  -5.468  0.00  0.00     0.075 H 
ENDROOT
BRANCH   1   4
ATOM      4  C   LIG d   1       3.175   0.370  -3.935  0.00  0.00    -0.010 A 
ATOM      5  C   LIG d   1       3.243  -0.982  -3.659  0.00  0.00    -0.055 A 
ATOM      6  C   LIG d   1       3.862  -1.422  -2.504  0.00  0.00    -0.061 A 
ATOM      7  H   LIG d   1       2.810  -1.695  -4.345  0.00  0.00     0.062 H 
ATOM      8  C   LIG d   1       4.414  -0.509  -1.625  0.00  0.00    -0.062 A 
ATOM      9  H   LIG d   1       3.915  -2.478  -2.288  0.00  0.00     0.062 H 
ATOM     10  C   LIG d   1       4.346   0.844  -1.901  0.00  0.00    -0.061 A 
ATOM     11  H   LIG d   1       4.902  -0.852  -0.726  0.00  0.00     0.062 H 
ATOM     12  C   LIG d   1       3.727   1.284  -3.056  0.00  0.00    -0.055 A 
ATOM     13  H   LIG d   1       4.778   1.558  -1.215  0.00  0.00     0.062 H 
ATOM     14  H   LIG d   1       3.674   2.341  -3.272  0.00  0.00     0.062 H 
ENDBRANCH   1   4
BRANCH   1  15
ATOM     15  O   LIG d   1       2.750  -0.077  -6.252  0.00  0.00    -0.487 OA
BRANCH  15  16
ATOM     16  C   LIG d   1       3.030   0.443  -7.473  0.00  0.00     0.130 A 
ATOM     17  C   LIG d   1       3.554  -0.375  -8.484  0.00  0.00     0.039 A 
ATOM     18  C   LIG d   1       3.838   0.173  -9.738  0.00  0.00    -0.049 A 
ATOM     19  C   LIG d   1       3.602   1.509  -9.972  0.00  0.00    -0.061 A 
ATOM     20  H   LIG d   1       4.241  -0.452 -10.522  0.00  0.00     0.062 H 
ATOM     21  C   LIG d   1       3.084   2.315  -8.972  0.00  0.00    -0.058 A 
ATOM     22  H   LIG d   1       3.823   1.932 -10.942  0.00  0.00     0.062 H 
ATOM     23  C   LIG d   1       2.795   1.786  -7.730  0.00  0.00    -0.019 A 
ATOM     24  H   LIG d   1       2.903   3.362  -9.165  0.00  0.00     0.062 H 
ATOM     25  H   LIG d   1       2.388   2.419  -6.955  0.00  0.00     0.065 H 
BRANCH  17  26
ATOM     26  C   LIG d   1       3.803  -1.805  -8.226  0.00  0.00     0.075 C 
ATOM     27  O   LIG d   1       3.091  -2.647  -8.736  0.00  0.00    -0.544 OA
ATOM     28  O   LIG d   1       4.821  -2.178  -7.427  0.00  0.00    -0.544 OA
ENDBRANCH  17  26
ENDBRANCH  15  16
ENDBRANCH   1  15
TORSDOF 4
ENDMDL
MODEL 4
REMARK VINA RESULT:      -6.3      1.868      5.360
REMARK  4 active torsions:
REMARK  status: ('A' for Active; 'I' for Inactive)
REMARK    1  A    between atoms: C_4  and  C_7 
REMARK    2  A    between atoms: C_7  and  O_8 
REMARK    3  A    between atoms: O_8  and  C_9 
REMARK    4  A    between atoms: C_14  and  C_15 
ROOT
ATOM      1  C   LIG d   1       2.754   0.308  -6.314  0.00  0.00     0.115 C 
ATOM      2  H   LIG d   1       2.509   1.168  -5.691  0.00  0.00     0.075 H 
ATOM      3  H   LIG d   1       1.841  -0.239  -6.551  0.00  0.00     0.075 H 
ENDROOT
BRANCH   1   4
ATOM      4  C   LIG d   1       3.403   0.780  -7.590  0.00  0.00    -0.010 A 
ATOM      5  C   LIG d   1       2.825   1.798  -8.324  0.00  0.00    -0.055 A 
ATOM      6  C   LIG d   1       3.420   2.230  -9.495  0.00  0.00    -0.061 A 
ATOM      7  H   LIG d   1       1.907   2.255  -7.984  0.00  0.00     0.062 H 
ATOM      8  C   LIG d   1       4.594   1.644  -9.930  0.00  0.00    -0.062 A 
ATOM      9  H   LIG d   1       2.969   3.026 -10.068  0.00  0.00     0.062 H 
ATOM     10  C   LIG d   1       5.172   0.625  -9.196  0.00  0.00    -0.061 A 
ATOM     11  H   LIG d   1       5.062   1.985 -10.841  0.00  0.00     0.062 H 
ATOM     12  C   LIG d   1       4.577   0.193  -8.026  0.00  0.00    -0.055 A 
ATOM     13  H   LIG d   1       6.089   0.167  -9.536  0.00  0.00     0.062 H 
ATOM     14  H   LIG d   1       5.028  -0.603  -7.452  0.00  0.00     0.062 H 
ENDBRANCH   1   4
BRANCH   1  15
ATOM     15  O   LIG d   1       3.654  -0.549  -5.611  0.00  0.00    -0.487 OA
BRANCH  15  16
ATOM     16  C   LIG d   1       3.881  -0.265  -4.304  0.00  0.00     0.130 A 
ATOM     17  C   LIG d   1       4.535  -1.195  -3.484  0.00  0.00     0.039 A 
ATOM     18  C   LIG d   1       4.763  -0.890  -2.138  0.00  0.00    -0.049 A 
ATOM     19  C   LIG d   1       4.344   0.319  -1.629  0.00  0.00    -0.061 A 
ATOM     20  H   LIG d   1       5.267  -1.601  -1.501  0.00  0.00     0.062 H 
ATOM     21  C   LIG d   1       3.698   1.236  -2.442  0.00  0.00    -0.058 A 
ATOM     22  H   LIG d   1       4.520   0.553  -0.589  0.00  0.00     0.062 H 
ATOM     23  C   LIG d   1       3.471   0.950  -3.773  0.00  0.00    -0.019 A 
ATOM     24  H   LIG d   1       3.373   2.182  -2.033  0.00  0.00     0.062 H 
ATOM     25  H   LIG d   1       2.970   1.671  -4.402  0.00  0.00     0.065 H 
BRANCH  17  26
ATOM     26  C   LIG d   1       4.981  -2.487  -4.036  0.00  0.00     0.075 C 
ATOM     27  O   LIG d   1       4.251  -3.456  -3.977  0.00  0.00    -0.544 OA
ATOM     28  O   LIG d   1       6.196  -2.592  -4.608  0.00  0.00    -0.544 OA
ENDBRANCH  17  26
ENDBRANCH  15  16
ENDBRANCH   1  15
TORSDOF 4
ENDMDL
MODEL 5
REMARK VINA RESULT:      -6.2      1.713      5.301
REMARK  4 active torsions:
REMARK  status: ('A' for Active; 'I' for Inactive)
REMARK    1  A    between atoms: C_4  and  C_7 
REMARK    2  A    between atoms: C_7  and  O_8 
REMARK    3  A    between atoms: O_8  and  C_9 
REMARK    4  A    between atoms: C_14  and  C_15 
ROOT
ATOM      1  C   LIG d   1       2.784  -0.086  -6.871  0.00  0.00     0.115 C 
ATOM      2  H   LIG d   1       1.711   0.015  -6.708  0.00  0.00     0.075 H 
ATOM      3  H   LIG d   1       3.053  -1.143  -6.863  0.00  0.00     0.075 H 
ENDROOT
BRANCH   1   4
ATOM      4  C   LIG d   1       3.149   0.516  -8.204  0.00  0.00    -0.010 A 
ATOM      5  C   LIG d   1       3.466  -0.305  -9.270  0.00  0.00    -0.055 A 
ATOM      6  C   LIG d   1       3.801   0.247 -10.492  0.00  0.00    -0.061 A 
ATOM      7  H   LIG d   1       3.454  -1.378  -9.147  0.00  0.00     0.062 H 
ATOM      8  C   LIG d   1       3.819   1.621 -10.647  0.00  0.00    -0.062 A 
ATOM      9  H   LIG d   1       4.049  -0.393 -11.324  0.00  0.00     0.062 H 
ATOM     10  C   LIG d   1       3.502   2.442  -9.581  0.00  0.00    -0.061 A 
ATOM     11  H   LIG d   1       4.075   2.053 -11.603  0.00  0.00     0.062 H 
ATOM     12  C   LIG d   1       3.166   1.890  -8.359  0.00  0.00    -0.055 A 
ATOM     13  H   LIG d   1       3.515   3.515  -9.703  0.00  0.00     0.062 H 
ATOM     14  H   LIG d   1       2.918   2.531  -7.526  0.00  0.00     0.062 H 
ENDBRANCH   1   4
BRANCH   1  15
ATOM     15  O   LIG d   1       3.490   0.593  -5.832  0.00  0.00    -0.487 OA
BRANCH  15  16
ATOM     16  C   LIG d   1       3.731  -0.104  -4.693  0.00  0.00     0.130 A 
ATOM     17  C   LIG d   1       5.029  -0.544  -4.398  0.00  0.00     0.039 A 
ATOM     18  C   LIG d   1       5.265  -1.261  -3.222  0.00  0.00    -0.049 A 
ATOM     19  C   LIG d   1       4.223  -1.529  -2.362  0.00  0.00    -0.061 A 
ATOM     20  H   LIG d   1       6.262  -1.602  -2.988  0.00  0.00     0.062 H 
ATOM     21  C   LIG d   1       2.942  -1.092  -2.656  0.00  0.00    -0.058 A 
ATOM     22  H   LIG d   1       4.406  -2.084  -1.453  0.00  0.00     0.062 H 
ATOM     23  C   LIG d   1       2.696  -0.379  -3.812  0.00  0.00    -0.019 A 
ATOM     24  H   LIG d   1       2.131  -1.307  -1.975  0.00  0.00     0.062 H 
ATOM     25  H   LIG d   1       1.695  -0.038  -4.033  0.00  0.00     0.065 H 
BRANCH  17  26
ATOM     26  C   LIG d   1       6.140  -0.252  -5.324  0.00  0.00     0.075 C 
ATOM     27  O   LIG d   1       6.370  -1.004  -6.250  0.00  0.00    -0.544 OA
ATOM     28  O   LIG d   1       6.897   0.846  -5.143  0.00  0.00    -0.544 OA
ENDBRANCH  17  26
ENDBRANCH  15  16
ENDBRANCH   1  15
TORSDOF 4
ENDMDL
MODEL 6
REMARK VINA RESULT:      -6.1      1.134      1.468
REMARK  4 active torsions:
REMARK  status: ('A' for Active; 'I' for Inactive)
REMARK    1  A    between atoms: C_4  and  C_7 
REMARK    2  A    between atoms: C_7  and  O_8 
REMARK    3  A    between atoms: O_8  and  C_9 
REMARK    4  A    between atoms: C_14  and  C_15 
ROOT
ATOM      1  C   LIG d   1       2.788   0.478  -5.323  0.00  0.00     0.115 C 
ATOM      2  H   LIG d   1       1.900  -0.120  -5.526  0.00  0.00     0.075 H 
ATOM      3  H   LIG d   1       2.516   1.534  -5.302  0.00  0.00     0.075 H 
ENDROOT
BRANCH   1   4
ATOM      4  C   LIG d   1       3.368   0.082  -3.990  0.00  0.00    -0.010 A 
ATOM      5  C   LIG d   1       3.890   1.046  -3.149  0.00  0.00    -0.055 A 
ATOM      6  C   LIG d   1       4.422   0.682  -1.926  0.00  0.00    -0.061 A 
ATOM      7  H   LIG d   1       3.883   2.084  -3.447  0.00  0.00     0.062 H 
ATOM      8  C   LIG d   1       4.433  -0.647  -1.545  0.00  0.00    -0.062 A 
ATOM      9  H   LIG d   1       4.830   1.435  -1.269  0.00  0.00     0.062 H 
ATOM     10  C   LIG d   1       3.911  -1.612  -2.387  0.00  0.00    -0.061 A 
ATOM     11  H   LIG d   1       4.844  -0.931  -0.588  0.00  0.00     0.062 H 
ATOM     12  C   LIG d   1       3.378  -1.248  -3.609  0.00  0.00    -0.055 A 
ATOM     13  H   LIG d   1       3.919  -2.650  -2.089  0.00  0.00     0.062 H 
ATOM     14  H   LIG d   1       2.971  -2.001  -4.267  0.00  0.00     0.062 H 
ENDBRANCH   1   4
BRANCH   1  15
ATOM     15  O   LIG d   1       3.757   0.256  -6.349  0.00  0.00    -0.487 OA
BRANCH  15  16
ATOM     16  C   LIG d   1       3.341  -0.411  -7.455  0.00  0.00     0.130 A 
ATOM     17  C   LIG d   1       3.901  -1.655  -7.779  0.00  0.00     0.039 A 
ATOM     18  C   LIG d   1       3.464  -2.333  -8.921  0.00  0.00    -0.049 A 
ATOM     19  C   LIG d   1       2.488  -1.776  -9.718  0.00  0.00    -0.061 A 
ATOM     20  H   LIG d   1       3.891  -3.291  -9.177  0.00  0.00     0.062 H 
ATOM     21  C   LIG d   1       1.935  -0.548  -9.393  0.00  0.00    -0.058 A 
ATOM     22  H   LIG d   1       2.151  -2.301 -10.600  0.00  0.00     0.062 H 
ATOM     23  C   LIG d   1       2.354   0.130  -8.266  0.00  0.00    -0.019 A 
ATOM     24  H   LIG d   1       1.170  -0.120 -10.024  0.00  0.00     0.062 H 
ATOM     25  H   LIG d   1       1.917   1.086  -8.018  0.00  0.00     0.065 H 
BRANCH  17  26
ATOM     26  C   LIG d   1       4.946  -2.244  -6.922  0.00  0.00     0.075 C 
ATOM     27  O   LIG d   1       6.102  -1.891  -7.044  0.00  0.00    -0.544 OA
ATOM     28  O   LIG d   1       4.619  -3.173  -6.004  0.00  0.00    -0.544 OA
ENDBRANCH  17  26
ENDBRANCH  15  16
ENDBRANCH   1  15
TORSDOF 4
ENDMDL
MODEL 7
REMARK VINA RESULT:      -6.0      2.043      2.782
REMARK  4 active torsions:
REMARK  status: ('A' for Active; 'I' for Inactive)
REMARK    1  A    between atoms: C_4  and  C_7 
REMARK    2  A    between atoms: C_7  and  O_8 
REMARK    3  A    between atoms: O_8  and  C_9 
REMARK    4  A    between atoms: C_14  and  C_15 
ROOT
ATOM      1  C   LIG d   1       4.736  -0.388  -6.524  0.00  0.00     0.115 C 
ATOM      2  H   LIG d   1       5.708   0.094  -6.417  0.00  0.00     0.075 H 
ATOM      3  H   LIG d   1       4.837  -1.273  -7.154  0.00  0.00     0.075 H 
ENDROOT
BRANCH   1   4
ATOM      4  C   LIG d   1       4.224  -0.794  -5.166  0.00  0.00    -0.010 A 
ATOM      5  C   LIG d   1       3.198  -0.083  -4.573  0.00  0.00    -0.055 A 
ATOM      6  C   LIG d   1       2.728  -0.455  -3.327  0.00  0.00    -0.061 A 
ATOM      7  H   LIG d   1       2.764   0.764  -5.083  0.00  0.00     0.062 H 
ATOM      8  C   LIG d   1       3.285  -1.539  -2.674  0.00  0.00    -0.062 A 
ATOM      9  H   LIG d   1       1.927   0.101  -2.864  0.00  0.00     0.062 H 
ATOM     10  C   LIG d   1       4.312  -2.250  -3.267  0.00  0.00    -0.061 A 
ATOM     11  H   LIG d   1       2.915  -1.833  -1.704  0.00  0.00     0.062 H 
ATOM     12  C   LIG d   1       4.781  -1.878  -4.513  0.00  0.00    -0.055 A 
ATOM     13  H   LIG d   1       4.747  -3.097  -2.757  0.00  0.00     0.062 H 
ATOM     14  H   LIG d   1       5.583  -2.434  -4.976  0.00  0.00     0.062 H 
ENDBRANCH   1   4
BRANCH   1  15
ATOM     15  O   LIG d   1       3.816   0.523  -7.127  0.00  0.00    -0.487 OA
BRANCH  15  16
ATOM     16  C   LIG d   1       3.379   0.220  -8.376  0.00  0.00     0.130 A 
ATOM     17  C   LIG d   1       3.807   0.979  -9.474  0.00  0.00     0.039 A 
ATOM     18  C   LIG d   1       3.350   0.658 -10.756  0.00  0.00    -0.049 A 
ATOM     19  C   LIG d   1       2.484  -0.400 -10.930  0.00  0.00    -0.061 A 
ATOM     20  H   LIG d   1       3.676   1.237 -11.606  0.00  0.00     0.062 H 
ATOM     21  C   LIG d   1       2.064  -1.147  -9.842  0.00  0.00    -0.058 A 
ATOM     22  H   LIG d   1       2.132  -0.647 -11.921  0.00  0.00     0.062 H 
ATOM     23  C   LIG d   1       2.511  -0.844  -8.572  0.00  0.00    -0.019 A 
ATOM     24  H   LIG d   1       1.385  -1.975  -9.989  0.00  0.00     0.062 H 
ATOM     25  H   LIG d   1       2.182  -1.433  -7.729  0.00  0.00     0.065 H 
BRANCH  17  26
ATOM     26  C   LIG d   1       4.734   2.109  -9.280  0.00  0.00     0.075 C 
ATOM     27  O   LIG d   1       4.300   3.209  -9.002  0.00  0.00    -0.544 OA
ATOM     28  O   LIG d   1       6.062   1.921  -9.409  0.00  0.00    -0.544 OA
ENDBRANCH  17  26
ENDBRANCH  15  16
ENDBRANCH   1  15
TORSDOF 4
ENDMDL
MODEL 8
REMARK VINA RESULT:      -5.9      3.391      4.710
REMARK  4 active torsions:
REMARK  status: ('A' for Active; 'I' for Inactive)
REMARK    1  A    between atoms: C_4  and  C_7 
REMARK    2  A    between atoms: C_7  and  O_8 
REMARK    3  A    between atoms: O_8  and  C_9 
REMARK    4  A    between atoms: C_14  and  C_15 
ROOT
ATOM      1  C   LIG d   1       4.171  -2.711  -3.335  0.00  0.00     0.115 C 
ATOM      2  H   LIG d   1       4.852  -3.171  -2.618  0.00  0.00     0.075 H 
ATOM      3  H   LIG d   1       3.199  -3.202  -3.278  0.00  0.00     0.075 H 
ENDROOT
BRANCH   1   4
ATOM      4  C   LIG d   1       4.015  -1.248  -3.011  0.00  0.00    -0.010 A 
ATOM      5  C   LIG d   1       3.245  -0.438  -3.825  0.00  0.00    -0.055 A 
ATOM      6  C   LIG d   1       3.102   0.904  -3.529  0.00  0.00    -0.061 A 
ATOM      7  H   LIG d   1       2.757  -0.855  -4.693  0.00  0.00     0.062 H 
ATOM      8  C   LIG d   1       3.729   1.437  -2.418  0.00  0.00    -0.062 A 
ATOM      9  H   LIG d   1       2.501   1.537  -4.164  0.00  0.00     0.062 H 
ATOM     10  C   LIG d   1       4.499   0.628  -1.604  0.00  0.00    -0.061 A 
ATOM     11  H   LIG d   1       3.613   2.485  -2.183  0.00  0.00     0.062 H 
ATOM     12  C   LIG d   1       4.642  -0.715  -1.900  0.00  0.00    -0.055 A 
ATOM     13  H   LIG d   1       4.989   1.044  -0.735  0.00  0.00     0.062 H 
ATOM     14  H   LIG d   1       5.243  -1.348  -1.264  0.00  0.00     0.062 H 
ENDBRANCH   1   4
BRANCH   1  15
ATOM     15  O   LIG d   1       4.700  -2.854  -4.654  0.00  0.00    -0.487 OA
BRANCH  15  16
ATOM     16  C   LIG d   1       5.886  -3.501  -4.775  0.00  0.00     0.130 A 
ATOM     17  C   LIG d   1       5.938  -4.771  -5.367  0.00  0.00     0.039 A 
ATOM     18  C   LIG d   1       7.166  -5.428  -5.486  0.00  0.00    -0.049 A 
ATOM     19  C   LIG d   1       8.315  -4.825  -5.022  0.00  0.00    -0.061 A 
ATOM     20  H   LIG d   1       7.214  -6.405  -5.942  0.00  0.00     0.062 H 
ATOM     21  C   LIG d   1       8.260  -3.570  -4.439  0.00  0.00    -0.058 A 
ATOM     22  H   LIG d   1       9.263  -5.334  -5.115  0.00  0.00     0.062 H 
ATOM     23  C   LIG d   1       7.054  -2.908  -4.319  0.00  0.00    -0.019 A 
ATOM     24  H   LIG d   1       9.166  -3.105  -4.078  0.00  0.00     0.062 H 
ATOM     25  H   LIG d   1       7.019  -1.928  -3.866  0.00  0.00     0.065 H 
BRANCH  17  26
ATOM     26  C   LIG d   1       4.705  -5.410  -5.862  0.00  0.00     0.075 C 
ATOM     27  O   LIG d   1       4.016  -6.066  -5.105  0.00  0.00    -0.544 OA
ATOM     28  O   LIG d   1       4.341  -5.266  -7.150  0.00  0.00    -0.544 OA
ENDBRANCH  17  26
ENDBRANCH  15  16
ENDBRANCH   1  15
TORSDOF 4
ENDMDL
MODEL 9
REMARK VINA RESULT:      -5.7      2.780      5.309
REMARK  4 active torsions:
REMARK  status: ('A' for Active; 'I' for Inactive)
REMARK    1  A    between atoms: C_4  and  C_7 
REMARK    2  A    between atoms: C_7  and  O_8 
REMARK    3  A    between atoms: O_8  and  C_9 
REMARK    4  A    between atoms: C_14  and  C_15 
ROOT
ATOM      1  C   LIG d   1       7.018  -0.098  -5.459  0.00  0.00     0.115 C 
ATOM      2  H   LIG d   1       7.224  -0.474  -6.462  0.00  0.00     0.075 H 
ATOM      3  H   LIG d   1       7.253  -0.871  -4.727  0.00  0.00     0.075 H 
ENDROOT
BRANCH   1   4
ATOM      4  C   LIG d   1       7.865   1.120  -5.194  0.00  0.00    -0.010 A 
ATOM      5  C   LIG d   1       8.155   1.491  -3.895  0.00  0.00    -0.055 A 
ATOM      6  C   LIG d   1       8.931   2.609  -3.652  0.00  0.00    -0.061 A 
ATOM      7  H   LIG d   1       7.773   0.909  -3.070  0.00  0.00     0.062 H 
ATOM      8  C   LIG d   1       9.418   3.355  -4.710  0.00  0.00    -0.062 A 
ATOM      9  H   LIG d   1       9.158   2.899  -2.638  0.00  0.00     0.062 H 
ATOM     10  C   LIG d   1       9.128   2.984  -6.009  0.00  0.00    -0.061 A 
ATOM     11  H   LIG d   1      10.029   4.225  -4.520  0.00  0.00     0.062 H 
ATOM     12  C   LIG d   1       8.351   1.867  -6.252  0.00  0.00    -0.055 A 
ATOM     13  H   LIG d   1       9.508   3.567  -6.835  0.00  0.00     0.062 H 
ATOM     14  H   LIG d   1       8.124   1.576  -7.267  0.00  0.00     0.062 H 
ENDBRANCH   1   4
BRANCH   1  15
ATOM     15  O   LIG d   1       5.637   0.251  -5.356  0.00  0.00    -0.487 OA
BRANCH  15  16
ATOM     16  C   LIG d   1       4.916  -0.368  -4.388  0.00  0.00     0.130 A 
ATOM     17  C   LIG d   1       3.521  -0.225  -4.348  0.00  0.00     0.039 A 
ATOM     18  C   LIG d   1       2.789  -0.867  -3.345  0.00  0.00    -0.049 A 
ATOM     19  C   LIG d   1       3.441  -1.635  -2.405  0.00  0.00    -0.061 A 
ATOM     20  H   LIG d   1       1.716  -0.763  -3.308  0.00  0.00     0.062 H 
ATOM     21  C   LIG d   1       4.819  -1.775  -2.448  0.00  0.00    -0.058 A 
ATOM     22  H   LIG d   1       2.875  -2.131  -1.630  0.00  0.00     0.062 H 
ATOM     23  C   LIG d   1       5.553  -1.149  -3.435  0.00  0.00    -0.019 A 
ATOM     24  H   LIG d   1       5.321  -2.378  -1.706  0.00  0.00     0.062 H 
ATOM     25  H   LIG d   1       6.627  -1.265  -3.465  0.00  0.00     0.065 H 
BRANCH  17  26
ATOM     26  C   LIG d   1       2.831   0.598  -5.358  0.00  0.00     0.075 C 
ATOM     27  O   LIG d   1       2.482   1.729  -5.083  0.00  0.00    -0.544 OA
ATOM     28  O   LIG d   1       2.587   0.096  -6.584  0.00  0.00    -0.544 OA
ENDBRANCH  17  26
ENDBRANCH  15  16
ENDBRANCH   1  15
TORSDOF 4
ENDMDL
