MODEL 1
REMARK VINA RESULT:      -7.6      0.000      0.000
REMARK  13 active torsions:
REMARK  status: ('A' for Active; 'I' for Inactive)
REMARK    1  A    between atoms: C_1  and  C_2 
REMARK    2  A    between atoms: N_6  and  O_7 
REMARK    3  A    between atoms: O_7  and  C_8 
REMARK    4  A    between atoms: C_8  and  C_9 
REMARK       I    between atoms: C_9  and  N_11 
REMARK    5  A    between atoms: N_11  and  C_12 
REMARK    6  A    between atoms: C_12  and  C_14 
REMARK    7  A    between atoms: C_12  and  C_18 
REMARK    8  A    between atoms: C_14  and  C_15 
REMARK    9  A    between atoms: C_23  and  C_25 
REMARK   10  A    between atoms: C_23  and  C_26 
REMARK   11  A    between atoms: C_37  and  C_46 
REMARK   12  A    between atoms: C_42  and  C_43 
REMARK   13  A    between atoms: C_42  and  O_45 
ROOT
ATOM      1  C   LIG d   1       4.331   0.453  -2.395  0.00  0.00    -0.070 C 
ATOM      2  C   LIG d   1       4.670   1.210  -1.563  0.00  0.00    -0.116 C 
ATOM      3  H   LIG d   1       4.972   1.886  -0.820  0.00  0.00     0.123 H 
ENDROOT
BRANCH   1   4
ATOM      4  C   LIG d   1       3.907  -0.495  -3.437  0.00  0.00     0.132 C 
ATOM      5  C   LIG d   1       5.133  -0.949  -4.275  0.00  0.00     0.011 C 
ATOM      6  C   LIG d   1       6.350  -0.867  -3.350  0.00  0.00    -0.043 C 
ATOM      7  C   LIG d   1       4.804  -2.416  -4.603  0.00  0.00    -0.029 C 
ATOM      8  C   LIG d   1       7.535  -1.614  -3.954  0.00  0.00    -0.049 C 
ATOM      9  H   LIG d   1       6.099  -1.309  -2.386  0.00  0.00     0.027 H 
ATOM     10  H   LIG d   1       6.621   0.179  -3.205  0.00  0.00     0.027 H 
ATOM     11  C   LIG d   1       7.169  -3.097  -4.086  0.00  0.00    -0.029 C 
ATOM     12  H   LIG d   1       8.403  -1.508  -3.303  0.00  0.00     0.027 H 
ATOM     13  H   LIG d   1       7.763  -1.205  -4.937  0.00  0.00     0.027 H 
ATOM     14  C   LIG d   1       8.373  -3.853  -4.652  0.00  0.00    -0.007 C 
ATOM     15  C   LIG d   1       5.996  -3.221  -5.059  0.00  0.00    -0.034 C 
ATOM     16  H   LIG d   1       6.892  -3.509  -3.116  0.00  0.00     0.031 H 
ATOM     17  C   LIG d   1       7.979  -5.266  -4.952  0.00  0.00    -0.062 C 
ATOM     18  C   LIG d   1       9.587  -3.691  -3.770  0.00  0.00    -0.038 C 
ATOM     19  C   LIG d   1       8.610  -6.328  -4.472  0.00  0.00    -0.037 C 
ATOM     20  C   LIG d   1       6.767  -5.477  -5.844  0.00  0.00    -0.031 C 
ATOM     21  C   LIG d   1       9.724  -6.132  -3.525  0.00  0.00     0.080 C 
ATOM     22  H   LIG d   1       8.305  -7.323  -4.760  0.00  0.00     0.064 H 
ATOM     23  C   LIG d   1       9.722  -4.826  -2.754  0.00  0.00    -0.006 C 
ATOM     24  N   LIG d   1      10.650  -7.023  -3.360  0.00  0.00    -0.089 NA
ATOM     25  H   LIG d   1      10.657  -4.719  -2.203  0.00  0.00     0.033 H 
ATOM     26  H   LIG d   1       8.880  -4.804  -2.062  0.00  0.00     0.033 H 
ATOM     27  C   LIG d   1       5.603  -4.689  -5.235  0.00  0.00    -0.046 C 
ATOM     28  H   LIG d   1       6.978  -5.108  -6.848  0.00  0.00     0.031 H 
ATOM     29  H   LIG d   1       6.517  -6.536  -5.883  0.00  0.00     0.031 H 
ATOM     30  H   LIG d   1       4.737  -4.755  -5.893  0.00  0.00     0.027 H 
ATOM     31  H   LIG d   1       5.348  -5.113  -4.263  0.00  0.00     0.027 H 
ATOM     32  H   LIG d   1      10.479  -3.670  -4.396  0.00  0.00     0.028 H 
ATOM     33  H   LIG d   1       9.510  -2.745  -3.234  0.00  0.00     0.028 H 
ATOM     34  H   LIG d   1       6.321  -2.836  -6.027  0.00  0.00     0.031 H 
ATOM     35  H   LIG d   1       4.035  -2.445  -5.377  0.00  0.00     0.031 H 
ATOM     36  C   LIG d   1       4.195  -2.949  -3.293  0.00  0.00    -0.046 C 
ATOM     37  C   LIG d   1       3.331  -1.770  -2.790  0.00  0.00    -0.012 C 
ATOM     38  H   LIG d   1       3.576  -3.825  -3.485  0.00  0.00     0.027 H 
ATOM     39  H   LIG d   1       4.980  -3.184  -2.574  0.00  0.00     0.027 H 
ATOM     40  H   LIG d   1       2.295  -1.909  -3.099  0.00  0.00     0.030 H 
ATOM     41  H   LIG d   1       3.392  -1.698  -1.704  0.00  0.00     0.030 H 
BRANCH   5  42
ATOM     42  C   LIG d   1       5.315  -0.097  -5.533  0.00  0.00    -0.056 C 
ATOM     43  H   LIG d   1       6.339  -0.197  -5.894  0.00  0.00     0.024 H 
ATOM     44  H   LIG d   1       4.623  -0.437  -6.304  0.00  0.00     0.024 H 
ATOM     45  H   LIG d   1       5.113   0.947  -5.296  0.00  0.00     0.024 H 
ENDBRANCH   5  42
BRANCH  14  46
ATOM     46  C   LIG d   1       8.710  -3.197  -5.992  0.00  0.00    -0.056 C 
ATOM     47  H   LIG d   1       9.449  -2.410  -5.835  0.00  0.00     0.024 H 
ATOM     48  H   LIG d   1       9.115  -3.946  -6.672  0.00  0.00     0.024 H 
ATOM     49  H   LIG d   1       7.807  -2.765  -6.422  0.00  0.00     0.024 H 
ENDBRANCH  14  46
BRANCH  24  50
ATOM     50  O   LIG d   1      11.700  -6.793  -2.439  0.00  0.00    -0.384 OA
BRANCH  50  51
ATOM     51  C   LIG d   1      12.271  -7.985  -1.896  0.00  0.00     0.193 C 
ATOM     52  H   LIG d   1      12.164  -8.798  -2.615  0.00  0.00     0.082 H 
ATOM     53  H   LIG d   1      13.329  -7.819  -1.689  0.00  0.00     0.082 H 
BRANCH  51  54
ATOM     54  C   LIG d   1      11.560  -8.347  -0.618  0.00  0.00     0.254 C 
ATOM     55  O   LIG d   1      10.983  -7.492   0.017  0.00  0.00    -0.272 OA
ATOM     56  N   LIG d   1      11.566  -9.622  -0.182  0.00  0.00    -0.309 N 
ATOM     57  H   LIG d   1      12.088 -10.293  -0.650  0.00  0.00     0.149 HD
BRANCH  56  58
ATOM     58  C   LIG d   1      10.785  -9.996   1.000  0.00  0.00     0.031 C 
ATOM     59  H   LIG d   1      10.208  -9.136   1.340  0.00  0.00     0.050 H 
BRANCH  58  60
ATOM     60  C   LIG d   1       9.833 -11.139   0.641  0.00  0.00     0.005 C 
ATOM     61  H   LIG d   1      10.395 -12.071   0.572  0.00  0.00     0.034 H 
ATOM     62  H   LIG d   1       9.069 -11.232   1.413  0.00  0.00     0.034 H 
BRANCH  60  63
ATOM     63  C   LIG d   1       9.177 -10.849  -0.685  0.00  0.00     0.043 C 
ATOM     64  O   LIG d   1       9.492 -11.488  -1.674  0.00  0.00    -0.550 OA
ATOM     65  O   LIG d   1       8.331  -9.974  -0.767  0.00  0.00    -0.550 OA
ENDBRANCH  60  63
ENDBRANCH  58  60
BRANCH  58  66
ATOM     66  C   LIG d   1      11.730 -10.449   2.114  0.00  0.00    -0.018 C 
ATOM     67  H   LIG d   1      12.537 -11.046   1.688  0.00  0.00     0.032 H 
ATOM     68  C   LIG d   1      10.954 -11.288   3.133  0.00  0.00    -0.020 C 
ATOM     69  C   LIG d   1      11.888 -11.669   4.286  0.00  0.00     0.064 C 
ATOM     70  H   LIG d   1      10.117 -10.708   3.522  0.00  0.00     0.030 H 
ATOM     71  H   LIG d   1      10.580 -12.192   2.653  0.00  0.00     0.030 H 
ATOM     72  O   LIG d   1      12.423 -10.483   4.876  0.00  0.00    -0.374 OA
ATOM     73  C   LIG d   1      13.198  -9.684   3.982  0.00  0.00     0.049 C 
ATOM     74  C   LIG d   1      12.317  -9.222   2.818  0.00  0.00    -0.025 C 
ATOM     75  H   LIG d   1      14.030 -10.273   3.595  0.00  0.00     0.056 H 
ATOM     76  H   LIG d   1      13.586  -8.814   4.513  0.00  0.00     0.056 H 
ATOM     77  H   LIG d   1      12.918  -8.649   2.111  0.00  0.00     0.029 H 
ATOM     78  H   LIG d   1      11.508  -8.598   3.199  0.00  0.00     0.029 H 
BRANCH  69  79
ATOM     79  C   LIG d   1      11.105 -12.455   5.339  0.00  0.00    -0.036 C 
ATOM     80  H   LIG d   1      10.138 -12.748   4.929  0.00  0.00     0.026 H 
ATOM     81  H   LIG d   1      11.666 -13.346   5.619  0.00  0.00     0.026 H 
ATOM     82  H   LIG d   1      10.952 -11.831   6.219  0.00  0.00     0.026 H 
ENDBRANCH  69  79
BRANCH  69  83
ATOM     83  C   LIG d   1      13.031 -12.533   3.749  0.00  0.00    -0.036 C 
ATOM     84  H   LIG d   1      13.962 -11.966   3.785  0.00  0.00     0.026 H 
ATOM     85  H   LIG d   1      13.128 -13.429   4.362  0.00  0.00     0.026 H 
ATOM     86  H   LIG d   1      12.818 -12.819   2.719  0.00  0.00     0.026 H 
ENDBRANCH  69  83
ENDBRANCH  58  66
ENDBRANCH  56  58
ENDBRANCH  51  54
ENDBRANCH  50  51
ENDBRANCH  24  50
BRANCH   4  87
ATOM     87  O   LIG d   1       2.929   0.109  -4.285  0.00  0.00    -0.376 OA
ATOM     88  H   LIG d   1       2.540  -0.496  -4.930  0.00  0.00     0.211 HD
ENDBRANCH   4  87
ENDBRANCH   1   4
TORSDOF 13
ENDMDL
MODEL 2
REMARK VINA RESULT:      -7.6      2.253      4.482
REMARK  13 active torsions:
REMARK  status: ('A' for Active; 'I' for Inactive)
REMARK    1  A    between atoms: C_1  and  C_2 
REMARK    2  A    between atoms: N_6  and  O_7 
REMARK    3  A    between atoms: O_7  and  C_8 
REMARK    4  A    between atoms: C_8  and  C_9 
REMARK       I    between atoms: C_9  and  N_11 
REMARK    5  A    between atoms: N_11  and  C_12 
REMARK    6  A    between atoms: C_12  and  C_14 
REMARK    7  A    between atoms: C_12  and  C_18 
REMARK    8  A    between atoms: C_14  and  C_15 
REMARK    9  A    between atoms: C_23  and  C_25 
REMARK   10  A    between atoms: C_23  and  C_26 
REMARK   11  A    between atoms: C_37  and  C_46 
REMARK   12  A    between atoms: C_42  and  C_43 
REMARK   13  A    between atoms: C_42  and  O_45 
ROOT
ATOM      1  C   LIG d   1       4.326   0.482  -2.380  0.00  0.00    -0.070 C 
ATOM      2  C   LIG d   1       4.665   1.229  -1.540  0.00  0.00    -0.116 C 
ATOM      3  H   LIG d   1       4.969   1.897  -0.788  0.00  0.00     0.123 H 
ENDROOT
BRANCH   1   4
ATOM      4  C   LIG d   1       3.900  -0.453  -3.433  0.00  0.00     0.132 C 
ATOM      5  C   LIG d   1       5.127  -0.915  -4.264  0.00  0.00     0.011 C 
ATOM      6  C   LIG d   1       6.337  -0.855  -3.327  0.00  0.00    -0.043 C 
ATOM      7  C   LIG d   1       4.784  -2.376  -4.606  0.00  0.00    -0.029 C 
ATOM      8  C   LIG d   1       7.519  -1.612  -3.926  0.00  0.00    -0.049 C 
ATOM      9  H   LIG d   1       6.072  -1.301  -2.369  0.00  0.00     0.027 H 
ATOM     10  H   LIG d   1       6.619   0.187  -3.171  0.00  0.00     0.027 H 
ATOM     11  C   LIG d   1       7.135  -3.090  -4.073  0.00  0.00    -0.029 C 
ATOM     12  H   LIG d   1       8.382  -1.522  -3.267  0.00  0.00     0.027 H 
ATOM     13  H   LIG d   1       7.760  -1.198  -4.904  0.00  0.00     0.027 H 
ATOM     14  C   LIG d   1       8.336  -3.856  -4.633  0.00  0.00    -0.007 C 
ATOM     15  C   LIG d   1       5.970  -3.192  -5.057  0.00  0.00    -0.034 C 
ATOM     16  H   LIG d   1       6.845  -3.505  -3.108  0.00  0.00     0.031 H 
ATOM     17  C   LIG d   1       7.928  -5.262  -4.947  0.00  0.00    -0.062 C 
ATOM     18  C   LIG d   1       9.544  -3.715  -3.739  0.00  0.00    -0.038 C 
ATOM     19  C   LIG d   1       8.541  -6.335  -4.470  0.00  0.00    -0.037 C 
ATOM     20  C   LIG d   1       6.721  -5.451  -5.852  0.00  0.00    -0.031 C 
ATOM     21  C   LIG d   1       9.649  -6.160  -3.511  0.00  0.00     0.080 C 
ATOM     22  H   LIG d   1       8.226  -7.324  -4.768  0.00  0.00     0.064 H 
ATOM     23  C   LIG d   1       9.655  -4.859  -2.731  0.00  0.00    -0.006 C 
ATOM     24  N   LIG d   1      10.562  -7.063  -3.345  0.00  0.00    -0.089 NA
ATOM     25  H   LIG d   1      10.587  -4.768  -2.170  0.00  0.00     0.033 H 
ATOM     26  H   LIG d   1       8.807  -4.832  -2.046  0.00  0.00     0.033 H 
ATOM     27  C   LIG d   1       5.561  -4.654  -5.247  0.00  0.00    -0.046 C 
ATOM     28  H   LIG d   1       6.946  -5.077  -6.851  0.00  0.00     0.031 H 
ATOM     29  H   LIG d   1       6.458  -6.507  -5.901  0.00  0.00     0.031 H 
ATOM     30  H   LIG d   1       4.700  -4.704  -5.914  0.00  0.00     0.027 H 
ATOM     31  H   LIG d   1       5.292  -5.082  -4.281  0.00  0.00     0.027 H 
ATOM     32  H   LIG d   1      10.441  -3.700  -4.357  0.00  0.00     0.028 H 
ATOM     33  H   LIG d   1       9.473  -2.772  -3.197  0.00  0.00     0.028 H 
ATOM     34  H   LIG d   1       6.309  -2.804  -6.019  0.00  0.00     0.031 H 
ATOM     35  H   LIG d   1       4.022  -2.389  -5.386  0.00  0.00     0.031 H 
ATOM     36  C   LIG d   1       4.157  -2.911  -3.305  0.00  0.00    -0.046 C 
ATOM     37  C   LIG d   1       3.303  -1.725  -2.801  0.00  0.00    -0.012 C 
ATOM     38  H   LIG d   1       3.529  -3.778  -3.510  0.00  0.00     0.027 H 
ATOM     39  H   LIG d   1       4.932  -3.161  -2.581  0.00  0.00     0.027 H 
ATOM     40  H   LIG d   1       2.268  -1.849  -3.120  0.00  0.00     0.030 H 
ATOM     41  H   LIG d   1       3.355  -1.662  -1.714  0.00  0.00     0.030 H 
BRANCH   5  42
ATOM     42  C   LIG d   1       5.332  -0.057  -5.514  0.00  0.00    -0.056 C 
ATOM     43  H   LIG d   1       5.981  -0.583  -6.214  0.00  0.00     0.024 H 
ATOM     44  H   LIG d   1       4.367   0.133  -5.985  0.00  0.00     0.024 H 
ATOM     45  H   LIG d   1       5.792   0.890  -5.232  0.00  0.00     0.024 H 
ENDBRANCH   5  42
BRANCH  14  46
ATOM     46  C   LIG d   1       8.693  -3.194  -5.965  0.00  0.00    -0.056 C 
ATOM     47  H   LIG d   1       8.710  -2.111  -5.839  0.00  0.00     0.024 H 
ATOM     48  H   LIG d   1       9.674  -3.538  -6.290  0.00  0.00     0.024 H 
ATOM     49  H   LIG d   1       7.947  -3.459  -6.714  0.00  0.00     0.024 H 
ENDBRANCH  14  46
BRANCH  24  50
ATOM     50  O   LIG d   1      11.606  -6.852  -2.413  0.00  0.00    -0.384 OA
BRANCH  50  51
ATOM     51  C   LIG d   1      11.573  -7.736  -1.290  0.00  0.00     0.193 C 
ATOM     52  H   LIG d   1      12.585  -7.878  -0.910  0.00  0.00     0.082 H 
ATOM     53  H   LIG d   1      10.948  -7.305  -0.507  0.00  0.00     0.082 H 
BRANCH  51  54
ATOM     54  C   LIG d   1      11.003  -9.065  -1.713  0.00  0.00     0.254 C 
ATOM     55  O   LIG d   1      11.740  -9.937  -2.122  0.00  0.00    -0.272 OA
ATOM     56  N   LIG d   1       9.677  -9.286  -1.636  0.00  0.00    -0.309 N 
ATOM     57  H   LIG d   1       9.079  -8.566  -1.378  0.00  0.00     0.149 HD
BRANCH  56  58
ATOM     58  C   LIG d   1       9.135 -10.612  -1.942  0.00  0.00     0.031 C 
ATOM     59  H   LIG d   1       9.944 -11.271  -2.258  0.00  0.00     0.050 H 
BRANCH  58  60
ATOM     60  C   LIG d   1       8.464 -11.190  -0.694  0.00  0.00     0.005 C 
ATOM     61  H   LIG d   1       7.985 -10.387  -0.135  0.00  0.00     0.034 H 
ATOM     62  H   LIG d   1       7.715 -11.923  -0.991  0.00  0.00     0.034 H 
BRANCH  60  63
ATOM     63  C   LIG d   1       9.503 -11.854   0.172  0.00  0.00     0.043 C 
ATOM     64  O   LIG d   1      10.133 -11.197   0.982  0.00  0.00    -0.550 OA
ATOM     65  O   LIG d   1       9.714 -13.051   0.061  0.00  0.00    -0.550 OA
ENDBRANCH  60  63
ENDBRANCH  58  60
BRANCH  58  66
ATOM     66  C   LIG d   1       8.105 -10.496  -3.068  0.00  0.00    -0.018 C 
ATOM     67  H   LIG d   1       8.332  -9.623  -3.681  0.00  0.00     0.032 H 
ATOM     68  C   LIG d   1       6.704 -10.351  -2.467  0.00  0.00    -0.020 C 
ATOM     69  C   LIG d   1       5.673 -10.317  -3.598  0.00  0.00     0.064 C 
ATOM     70  H   LIG d   1       6.498 -11.199  -1.813  0.00  0.00     0.030 H 
ATOM     71  H   LIG d   1       6.647  -9.426  -1.893  0.00  0.00     0.030 H 
ATOM     72  O   LIG d   1       5.790 -11.505  -4.384  0.00  0.00    -0.374 OA
ATOM     73  C   LIG d   1       7.063 -11.668  -5.010  0.00  0.00     0.049 C 
ATOM     74  C   LIG d   1       8.150 -11.757  -3.935  0.00  0.00    -0.025 C 
ATOM     75  H   LIG d   1       7.263 -10.813  -5.657  0.00  0.00     0.056 H 
ATOM     76  H   LIG d   1       7.063 -12.582  -5.604  0.00  0.00     0.056 H 
ATOM     77  H   LIG d   1       9.128 -11.837  -4.412  0.00  0.00     0.029 H 
ATOM     78  H   LIG d   1       7.975 -12.635  -3.312  0.00  0.00     0.029 H 
BRANCH  69  79
ATOM     79  C   LIG d   1       4.266 -10.235  -3.004  0.00  0.00    -0.036 C 
ATOM     80  H   LIG d   1       3.534 -10.512  -3.763  0.00  0.00     0.026 H 
ATOM     81  H   LIG d   1       4.188 -10.918  -2.157  0.00  0.00     0.026 H 
ATOM     82  H   LIG d   1       4.072  -9.217  -2.667  0.00  0.00     0.026 H 
ENDBRANCH  69  79
BRANCH  69  83
ATOM     83  C   LIG d   1       5.927  -9.093  -4.481  0.00  0.00    -0.036 C 
ATOM     84  H   LIG d   1       5.398  -8.233  -4.070  0.00  0.00     0.026 H 
ATOM     85  H   LIG d   1       6.996  -8.883  -4.512  0.00  0.00     0.026 H 
ATOM     86  H   LIG d   1       5.567  -9.293  -5.490  0.00  0.00     0.026 H 
ENDBRANCH  69  83
ENDBRANCH  58  66
ENDBRANCH  56  58
ENDBRANCH  51  54
ENDBRANCH  50  51
ENDBRANCH  24  50
BRANCH   4  87
ATOM     87  O   LIG d   1       2.937   0.170  -4.285  0.00  0.00    -0.376 OA
ATOM     88  H   LIG d   1       2.471   0.911  -3.876  0.00  0.00     0.211 HD
ENDBRANCH   4  87
ENDBRANCH   1   4
TORSDOF 13
ENDMDL
MODEL 3
REMARK VINA RESULT:      -7.4      7.745     12.056
REMARK  13 active torsions:
REMARK  status: ('A' for Active; 'I' for Inactive)
REMARK    1  A    between atoms: C_1  and  C_2 
REMARK    2  A    between atoms: N_6  and  O_7 
REMARK    3  A    between atoms: O_7  and  C_8 
REMARK    4  A    between atoms: C_8  and  C_9 
REMARK       I    between atoms: C_9  and  N_11 
REMARK    5  A    between atoms: N_11  and  C_12 
REMARK    6  A    between atoms: C_12  and  C_14 
REMARK    7  A    between atoms: C_12  and  C_18 
REMARK    8  A    between atoms: C_14  and  C_15 
REMARK    9  A    between atoms: C_23  and  C_25 
REMARK   10  A    between atoms: C_23  and  C_26 
REMARK   11  A    between atoms: C_37  and  C_46 
REMARK   12  A    between atoms: C_42  and  C_43 
REMARK   13  A    between atoms: C_42  and  O_45 
ROOT
ATOM      1  C   LIG d   1       9.537   8.007  -7.835  0.00  0.00    -0.070 C 
ATOM      2  C   LIG d   1       9.165   8.822  -7.076  0.00  0.00    -0.116 C 
ATOM      3  H   LIG d   1       8.833   9.551  -6.397  0.00  0.00     0.123 H 
ENDROOT
BRANCH   1   4
ATOM      4  C   LIG d   1      10.003   6.986  -8.786  0.00  0.00     0.132 C 
ATOM      5  C   LIG d   1      10.668   5.809  -8.023  0.00  0.00     0.011 C 
ATOM      6  C   LIG d   1      10.000   5.747  -6.647  0.00  0.00    -0.043 C 
ATOM      7  C   LIG d   1      10.277   4.584  -8.867  0.00  0.00    -0.029 C 
ATOM      8  C   LIG d   1      10.322   4.428  -5.951  0.00  0.00    -0.049 C 
ATOM      9  H   LIG d   1       8.920   5.836  -6.768  0.00  0.00     0.027 H 
ATOM     10  H   LIG d   1      10.361   6.574  -6.034  0.00  0.00     0.027 H 
ATOM     11  C   LIG d   1       9.745   3.277  -6.785  0.00  0.00    -0.029 C 
ATOM     12  H   LIG d   1       9.874   4.420  -4.958  0.00  0.00     0.027 H 
ATOM     13  H   LIG d   1      11.402   4.313  -5.868  0.00  0.00     0.027 H 
ATOM     14  C   LIG d   1      10.031   1.957  -6.065  0.00  0.00    -0.007 C 
ATOM     15  C   LIG d   1      10.442   3.268  -8.146  0.00  0.00    -0.034 C 
ATOM     16  H   LIG d   1       8.671   3.404  -6.918  0.00  0.00     0.031 H 
ATOM     17  C   LIG d   1       9.632   0.813  -6.944  0.00  0.00    -0.062 C 
ATOM     18  C   LIG d   1       9.437   1.947  -4.678  0.00  0.00    -0.038 C 
ATOM     19  C   LIG d   1       8.795  -0.146  -6.577  0.00  0.00    -0.037 C 
ATOM     20  C   LIG d   1      10.215   0.777  -8.348  0.00  0.00    -0.031 C 
ATOM     21  C   LIG d   1       8.147  -0.064  -5.254  0.00  0.00     0.080 C 
ATOM     22  H   LIG d   1       8.580  -0.971  -7.242  0.00  0.00     0.064 H 
ATOM     23  C   LIG d   1       8.041   1.323  -4.649  0.00  0.00    -0.006 C 
ATOM     24  N   LIG d   1       7.695  -1.114  -4.644  0.00  0.00    -0.089 NA
ATOM     25  H   LIG d   1       7.689   1.252  -3.620  0.00  0.00     0.033 H 
ATOM     26  H   LIG d   1       7.352   1.932  -5.235  0.00  0.00     0.033 H 
ATOM     27  C   LIG d   1       9.908   2.124  -9.010  0.00  0.00    -0.046 C 
ATOM     28  H   LIG d   1      11.293   0.627  -8.297  0.00  0.00     0.031 H 
ATOM     29  H   LIG d   1       9.755  -0.029  -8.919  0.00  0.00     0.031 H 
ATOM     30  H   LIG d   1      10.381   2.162  -9.991  0.00  0.00     0.027 H 
ATOM     31  H   LIG d   1       8.829   2.233  -9.126  0.00  0.00     0.027 H 
ATOM     32  H   LIG d   1      10.090   1.380  -4.017  0.00  0.00     0.028 H 
ATOM     33  H   LIG d   1       9.372   2.973  -4.315  0.00  0.00     0.028 H 
ATOM     34  H   LIG d   1      11.506   3.100  -7.976  0.00  0.00     0.031 H 
ATOM     35  H   LIG d   1      10.878   4.571  -9.777  0.00  0.00     0.031 H 
ATOM     36  C   LIG d   1       8.813   4.867  -9.254  0.00  0.00    -0.046 C 
ATOM     37  C   LIG d   1       8.805   6.385  -9.546  0.00  0.00    -0.012 C 
ATOM     38  H   LIG d   1       8.535   4.302 -10.144  0.00  0.00     0.027 H 
ATOM     39  H   LIG d   1       8.145   4.631  -8.426  0.00  0.00     0.027 H 
ATOM     40  H   LIG d   1       8.916   6.560 -10.616  0.00  0.00     0.030 H 
ATOM     41  H   LIG d   1       7.876   6.829  -9.189  0.00  0.00     0.030 H 
BRANCH   5  42
ATOM     42  C   LIG d   1      12.185   5.980  -7.912  0.00  0.00    -0.056 C 
ATOM     43  H   LIG d   1      12.656   5.000  -7.838  0.00  0.00     0.024 H 
ATOM     44  H   LIG d   1      12.557   6.497  -8.797  0.00  0.00     0.024 H 
ATOM     45  H   LIG d   1      12.419   6.565  -7.022  0.00  0.00     0.024 H 
ENDBRANCH   5  42
BRANCH  14  46
ATOM     46  C   LIG d   1      11.549   1.873  -5.895  0.00  0.00    -0.056 C 
ATOM     47  H   LIG d   1      11.900   2.738  -5.332  0.00  0.00     0.024 H 
ATOM     48  H   LIG d   1      11.804   0.960  -5.357  0.00  0.00     0.024 H 
ATOM     49  H   LIG d   1      12.024   1.862  -6.876  0.00  0.00     0.024 H 
ENDBRANCH  14  46
BRANCH  24  50
ATOM     50  O   LIG d   1       7.080  -0.987  -3.376  0.00  0.00    -0.384 OA
BRANCH  50  51
ATOM     51  C   LIG d   1       6.142  -2.022  -3.077  0.00  0.00     0.193 C 
ATOM     52  H   LIG d   1       6.578  -2.990  -3.327  0.00  0.00     0.082 H 
ATOM     53  H   LIG d   1       5.898  -1.996  -2.014  0.00  0.00     0.082 H 
BRANCH  51  54
ATOM     54  C   LIG d   1       4.888  -1.813  -3.885  0.00  0.00     0.254 C 
ATOM     55  O   LIG d   1       4.070  -2.704  -3.976  0.00  0.00    -0.272 OA
ATOM     56  N   LIG d   1       4.674  -0.637  -4.507  0.00  0.00    -0.309 N 
ATOM     57  H   LIG d   1       5.359   0.049  -4.496  0.00  0.00     0.149 HD
BRANCH  56  58
ATOM     58  C   LIG d   1       3.407  -0.395  -5.201  0.00  0.00     0.031 C 
ATOM     59  H   LIG d   1       2.876  -1.338  -5.329  0.00  0.00     0.050 H 
BRANCH  58  60
ATOM     60  C   LIG d   1       2.549   0.566  -4.376  0.00  0.00     0.005 C 
ATOM     61  H   LIG d   1       2.219   1.392  -5.006  0.00  0.00     0.034 H 
ATOM     62  H   LIG d   1       1.680   0.036  -3.988  0.00  0.00     0.034 H 
BRANCH  60  63
ATOM     63  C   LIG d   1       3.363   1.106  -3.228  0.00  0.00     0.043 C 
ATOM     64  O   LIG d   1       3.319   0.560  -2.139  0.00  0.00    -0.550 OA
ATOM     65  O   LIG d   1       4.065   2.090  -3.389  0.00  0.00    -0.550 OA
ENDBRANCH  60  63
ENDBRANCH  58  60
BRANCH  58  66
ATOM     66  C   LIG d   1       3.686   0.222  -6.574  0.00  0.00    -0.018 C 
ATOM     67  H   LIG d   1       3.697   1.309  -6.490  0.00  0.00     0.032 H 
ATOM     68  C   LIG d   1       2.594  -0.206  -7.559  0.00  0.00    -0.020 C 
ATOM     69  C   LIG d   1       2.926   0.348  -8.947  0.00  0.00     0.064 C 
ATOM     70  H   LIG d   1       2.550  -1.294  -7.604  0.00  0.00     0.030 H 
ATOM     71  H   LIG d   1       1.632   0.185  -7.229  0.00  0.00     0.030 H 
ATOM     72  O   LIG d   1       4.214  -0.119  -9.352  0.00  0.00    -0.374 OA
ATOM     73  C   LIG d   1       5.279   0.291  -8.494  0.00  0.00     0.049 C 
ATOM     74  C   LIG d   1       5.044  -0.266  -7.087  0.00  0.00    -0.025 C 
ATOM     75  H   LIG d   1       5.314   1.380  -8.451  0.00  0.00     0.056 H 
ATOM     76  H   LIG d   1       6.226  -0.087  -8.882  0.00  0.00     0.056 H 
ATOM     77  H   LIG d   1       5.833   0.083  -6.420  0.00  0.00     0.029 H 
ATOM     78  H   LIG d   1       5.051  -1.356  -7.122  0.00  0.00     0.029 H 
BRANCH  69  79
ATOM     79  C   LIG d   1       1.872  -0.127  -9.950  0.00  0.00    -0.036 C 
ATOM     80  H   LIG d   1       1.051  -0.605  -9.416  0.00  0.00     0.026 H 
ATOM     81  H   LIG d   1       1.494   0.728 -10.511  0.00  0.00     0.026 H 
ATOM     82  H   LIG d   1       2.322  -0.842 -10.639  0.00  0.00     0.026 H 
ENDBRANCH  69  79
BRANCH  69  83
ATOM     83  C   LIG d   1       2.930   1.877  -8.897  0.00  0.00    -0.036 C 
ATOM     84  H   LIG d   1       2.875   2.206  -7.859  0.00  0.00     0.026 H 
ATOM     85  H   LIG d   1       3.847   2.253  -9.350  0.00  0.00     0.026 H 
ATOM     86  H   LIG d   1       2.070   2.261  -9.446  0.00  0.00     0.026 H 
ENDBRANCH  69  83
ENDBRANCH  58  66
ENDBRANCH  56  58
ENDBRANCH  51  54
ENDBRANCH  50  51
ENDBRANCH  24  50
BRANCH   4  87
ATOM     87  O   LIG d   1      10.931   7.559  -9.709  0.00  0.00    -0.376 OA
ATOM     88  H   LIG d   1      10.702   7.417 -10.637  0.00  0.00     0.211 HD
ENDBRANCH   4  87
ENDBRANCH   1   4
TORSDOF 13
ENDMDL
MODEL 4
REMARK VINA RESULT:      -7.4      1.772      3.583
REMARK  13 active torsions:
REMARK  status: ('A' for Active; 'I' for Inactive)
REMARK    1  A    between atoms: C_1  and  C_2 
REMARK    2  A    between atoms: N_6  and  O_7 
REMARK    3  A    between atoms: O_7  and  C_8 
REMARK    4  A    between atoms: C_8  and  C_9 
REMARK       I    between atoms: C_9  and  N_11 
REMARK    5  A    between atoms: N_11  and  C_12 
REMARK    6  A    between atoms: C_12  and  C_14 
REMARK    7  A    between atoms: C_12  and  C_18 
REMARK    8  A    between atoms: C_14  and  C_15 
REMARK    9  A    between atoms: C_23  and  C_25 
REMARK   10  A    between atoms: C_23  and  C_26 
REMARK   11  A    between atoms: C_37  and  C_46 
REMARK   12  A    between atoms: C_42  and  C_43 
REMARK   13  A    between atoms: C_42  and  O_45 
ROOT
ATOM      1  C   LIG d   1       4.258   0.468  -2.381  0.00  0.00    -0.070 C 
ATOM      2  C   LIG d   1       4.598   1.250  -1.575  0.00  0.00    -0.116 C 
ATOM      3  H   LIG d   1       4.903   1.950  -0.854  0.00  0.00     0.123 H 
ENDROOT
BRANCH   1   4
ATOM      4  C   LIG d   1       3.830  -0.513  -3.392  0.00  0.00     0.132 C 
ATOM      5  C   LIG d   1       5.041  -0.942  -4.263  0.00  0.00     0.011 C 
ATOM      6  C   LIG d   1       6.285  -0.804  -3.382  0.00  0.00    -0.043 C 
ATOM      7  C   LIG d   1       4.749  -2.425  -4.554  0.00  0.00    -0.029 C 
ATOM      8  C   LIG d   1       7.473  -1.523  -4.013  0.00  0.00    -0.049 C 
ATOM      9  H   LIG d   1       6.082  -1.236  -2.403  0.00  0.00     0.027 H 
ATOM     10  H   LIG d   1       6.526   0.253  -3.264  0.00  0.00     0.027 H 
ATOM     11  C   LIG d   1       7.152  -3.020  -4.107  0.00  0.00    -0.029 C 
ATOM     12  H   LIG d   1       8.359  -1.378  -3.395  0.00  0.00     0.027 H 
ATOM     13  H   LIG d   1       7.654  -1.126  -5.011  0.00  0.00     0.027 H 
ATOM     14  C   LIG d   1       8.361  -3.747  -4.701  0.00  0.00    -0.007 C 
ATOM     15  C   LIG d   1       5.951  -3.200  -5.037  0.00  0.00    -0.034 C 
ATOM     16  H   LIG d   1       6.922  -3.423  -3.121  0.00  0.00     0.031 H 
ATOM     17  C   LIG d   1       8.004  -5.177  -4.962  0.00  0.00    -0.062 C 
ATOM     18  C   LIG d   1       9.598  -3.529  -3.865  0.00  0.00    -0.038 C 
ATOM     19  C   LIG d   1       8.685  -6.209  -4.486  0.00  0.00    -0.037 C 
ATOM     20  C   LIG d   1       6.770  -5.443  -5.809  0.00  0.00    -0.031 C 
ATOM     21  C   LIG d   1       9.824  -5.960  -3.581  0.00  0.00     0.080 C 
ATOM     22  H   LIG d   1       8.403  -7.219  -4.747  0.00  0.00     0.064 H 
ATOM     23  C   LIG d   1       9.804  -4.640  -2.834  0.00  0.00    -0.006 C 
ATOM     24  N   LIG d   1      10.783  -6.817  -3.433  0.00  0.00    -0.089 NA
ATOM     25  H   LIG d   1      10.754  -4.493  -2.317  0.00  0.00     0.033 H 
ATOM     26  H   LIG d   1       8.986  -4.633  -2.114  0.00  0.00     0.033 H 
ATOM     27  C   LIG d   1       5.601  -4.682  -5.173  0.00  0.00    -0.046 C 
ATOM     28  H   LIG d   1       6.934  -5.086  -6.825  0.00  0.00     0.031 H 
ATOM     29  H   LIG d   1       6.553  -6.511  -5.821  0.00  0.00     0.031 H 
ATOM     30  H   LIG d   1       4.716  -4.789  -5.800  0.00  0.00     0.027 H 
ATOM     31  H   LIG d   1       5.394  -5.096  -4.186  0.00  0.00     0.027 H 
ATOM     32  H   LIG d   1      10.466  -3.491  -4.521  0.00  0.00     0.028 H 
ATOM     33  H   LIG d   1       9.508  -2.576  -3.343  0.00  0.00     0.028 H 
ATOM     34  H   LIG d   1       6.231  -2.823  -6.022  0.00  0.00     0.031 H 
ATOM     35  H   LIG d   1       3.956  -2.493  -5.300  0.00  0.00     0.031 H 
ATOM     36  C   LIG d   1       4.204  -2.954  -3.214  0.00  0.00    -0.046 C 
ATOM     37  C   LIG d   1       3.319  -1.794  -2.703  0.00  0.00    -0.012 C 
ATOM     38  H   LIG d   1       3.607  -3.852  -3.370  0.00  0.00     0.027 H 
ATOM     39  H   LIG d   1       5.020  -3.150  -2.519  0.00  0.00     0.027 H 
ATOM     40  H   LIG d   1       2.278  -1.971  -2.973  0.00  0.00     0.030 H 
ATOM     41  H   LIG d   1       3.414  -1.700  -1.622  0.00  0.00     0.030 H 
BRANCH   5  42
ATOM     42  C   LIG d   1       5.153  -0.109  -5.542  0.00  0.00    -0.056 C 
ATOM     43  H   LIG d   1       5.693  -0.676  -6.300  0.00  0.00     0.024 H 
ATOM     44  H   LIG d   1       4.153   0.128  -5.908  0.00  0.00     0.024 H 
ATOM     45  H   LIG d   1       5.690   0.815  -5.326  0.00  0.00     0.024 H 
ENDBRANCH   5  42
BRANCH  14  46
ATOM     46  C   LIG d   1       8.630  -3.105  -6.063  0.00  0.00    -0.056 C 
ATOM     47  H   LIG d   1       7.701  -3.052  -6.630  0.00  0.00     0.024 H 
ATOM     48  H   LIG d   1       9.026  -2.100  -5.919  0.00  0.00     0.024 H 
ATOM     49  H   LIG d   1       9.355  -3.707  -6.611  0.00  0.00     0.024 H 
ENDBRANCH  14  46
BRANCH  24  50
ATOM     50  O   LIG d   1      11.856  -6.536  -2.553  0.00  0.00    -0.384 OA
BRANCH  50  51
ATOM     51  C   LIG d   1      12.856  -7.555  -2.509  0.00  0.00     0.193 C 
ATOM     52  H   LIG d   1      13.316  -7.655  -3.492  0.00  0.00     0.082 H 
ATOM     53  H   LIG d   1      13.618  -7.285  -1.777  0.00  0.00     0.082 H 
BRANCH  51  54
ATOM     54  C   LIG d   1      12.223  -8.865  -2.115  0.00  0.00     0.254 C 
ATOM     55  O   LIG d   1      12.708  -9.910  -2.494  0.00  0.00    -0.272 OA
ATOM     56  N   LIG d   1      11.119  -8.875  -1.343  0.00  0.00    -0.309 N 
ATOM     57  H   LIG d   1      10.689  -8.040  -1.100  0.00  0.00     0.149 HD
BRANCH  56  58
ATOM     58  C   LIG d   1      10.567 -10.147  -0.870  0.00  0.00     0.031 C 
ATOM     59  H   LIG d   1      11.262 -10.954  -1.104  0.00  0.00     0.050 H 
BRANCH  58  60
ATOM     60  C   LIG d   1      10.356 -10.080   0.645  0.00  0.00     0.005 C 
ATOM     61  H   LIG d   1       9.369  -9.671   0.856  0.00  0.00     0.034 H 
ATOM     62  H   LIG d   1      10.433 -11.081   1.067  0.00  0.00     0.034 H 
BRANCH  60  63
ATOM     63  C   LIG d   1      11.409  -9.193   1.259  0.00  0.00     0.043 C 
ATOM     64  O   LIG d   1      12.565  -9.572   1.323  0.00  0.00    -0.550 OA
ATOM     65  O   LIG d   1      11.102  -8.094   1.693  0.00  0.00    -0.550 OA
ENDBRANCH  60  63
ENDBRANCH  58  60
BRANCH  58  66
ATOM     66  C   LIG d   1       9.228 -10.411  -1.560  0.00  0.00    -0.018 C 
ATOM     67  H   LIG d   1       8.747  -9.462  -1.799  0.00  0.00     0.032 H 
ATOM     68  C   LIG d   1       8.324 -11.225  -0.629  0.00  0.00    -0.020 C 
ATOM     69  C   LIG d   1       7.019 -11.554  -1.359  0.00  0.00     0.064 C 
ATOM     70  H   LIG d   1       8.827 -12.151  -0.351  0.00  0.00     0.030 H 
ATOM     71  H   LIG d   1       8.106 -10.644   0.266  0.00  0.00     0.030 H 
ATOM     72  O   LIG d   1       7.312 -12.264  -2.563  0.00  0.00    -0.374 OA
ATOM     73  C   LIG d   1       8.114 -11.533  -3.491  0.00  0.00     0.049 C 
ATOM     74  C   LIG d   1       9.464 -11.204  -2.849  0.00  0.00    -0.025 C 
ATOM     75  H   LIG d   1       7.606 -10.606  -3.761  0.00  0.00     0.056 H 
ATOM     76  H   LIG d   1       8.274 -12.133  -4.388  0.00  0.00     0.056 H 
ATOM     77  H   LIG d   1      10.061 -10.608  -3.540  0.00  0.00     0.029 H 
ATOM     78  H   LIG d   1       9.992 -12.130  -2.617  0.00  0.00     0.029 H 
BRANCH  69  79
ATOM     79  C   LIG d   1       6.135 -12.419  -0.458  0.00  0.00    -0.036 C 
ATOM     80  H   LIG d   1       6.735 -12.829   0.355  0.00  0.00     0.026 H 
ATOM     81  H   LIG d   1       5.331 -11.811  -0.045  0.00  0.00     0.026 H 
ATOM     82  H   LIG d   1       5.710 -13.235  -1.042  0.00  0.00     0.026 H 
ENDBRANCH  69  79
BRANCH  69  83
ATOM     83  C   LIG d   1       6.284 -10.255  -1.698  0.00  0.00    -0.036 C 
ATOM     84  H   LIG d   1       5.342 -10.217  -1.150  0.00  0.00     0.026 H 
ATOM     85  H   LIG d   1       6.904  -9.403  -1.416  0.00  0.00     0.026 H 
ATOM     86  H   LIG d   1       6.085 -10.220  -2.769  0.00  0.00     0.026 H 
ENDBRANCH  69  83
ENDBRANCH  58  66
ENDBRANCH  56  58
ENDBRANCH  51  54
ENDBRANCH  50  51
ENDBRANCH  24  50
BRANCH   4  87
ATOM     87  O   LIG d   1       2.805   0.044  -4.216  0.00  0.00    -0.376 OA
ATOM     88  H   LIG d   1       2.740  -0.362  -5.091  0.00  0.00     0.211 HD
ENDBRANCH   4  87
ENDBRANCH   1   4
TORSDOF 13
ENDMDL
MODEL 5
REMARK VINA RESULT:      -7.4      8.140     12.662
REMARK  13 active torsions:
REMARK  status: ('A' for Active; 'I' for Inactive)
REMARK    1  A    between atoms: C_1  and  C_2 
REMARK    2  A    between atoms: N_6  and  O_7 
REMARK    3  A    between atoms: O_7  and  C_8 
REMARK    4  A    between atoms: C_8  and  C_9 
REMARK       I    between atoms: C_9  and  N_11 
REMARK    5  A    between atoms: N_11  and  C_12 
REMARK    6  A    between atoms: C_12  and  C_14 
REMARK    7  A    between atoms: C_12  and  C_18 
REMARK    8  A    between atoms: C_14  and  C_15 
REMARK    9  A    between atoms: C_23  and  C_25 
REMARK   10  A    between atoms: C_23  and  C_26 
REMARK   11  A    between atoms: C_37  and  C_46 
REMARK   12  A    between atoms: C_42  and  C_43 
REMARK   13  A    between atoms: C_42  and  O_45 
ROOT
ATOM      1  C   LIG d   1       9.793   9.827  -6.398  0.00  0.00    -0.070 C 
ATOM      2  C   LIG d   1       9.548  10.461  -5.441  0.00  0.00    -0.116 C 
ATOM      3  H   LIG d   1       9.329  11.029  -4.585  0.00  0.00     0.123 H 
ENDROOT
BRANCH   1   4
ATOM      4  C   LIG d   1      10.099   9.031  -7.598  0.00  0.00     0.132 C 
ATOM      5  C   LIG d   1      10.795   7.704  -7.194  0.00  0.00     0.011 C 
ATOM      6  C   LIG d   1      10.289   7.353  -5.793  0.00  0.00    -0.043 C 
ATOM      7  C   LIG d   1      10.254   6.701  -8.228  0.00  0.00    -0.029 C 
ATOM      8  C   LIG d   1      10.631   5.908  -5.443  0.00  0.00    -0.049 C 
ATOM      9  H   LIG d   1       9.208   7.486  -5.757  0.00  0.00     0.027 H 
ATOM     10  H   LIG d   1      10.756   8.018  -5.065  0.00  0.00     0.027 H 
ATOM     11  C   LIG d   1       9.910   4.979  -6.428  0.00  0.00    -0.029 C 
ATOM     12  H   LIG d   1      10.301   5.690  -4.428  0.00  0.00     0.027 H 
ATOM     13  H   LIG d   1      11.707   5.757  -5.520  0.00  0.00     0.027 H 
ATOM     14  C   LIG d   1      10.218   3.528  -6.051  0.00  0.00    -0.007 C 
ATOM     15  C   LIG d   1      10.443   5.257  -7.834  0.00  0.00    -0.034 C 
ATOM     16  H   LIG d   1       8.834   5.151  -6.397  0.00  0.00     0.031 H 
ATOM     17  C   LIG d   1       9.670   2.612  -7.101  0.00  0.00    -0.062 C 
ATOM     18  C   LIG d   1       9.790   3.224  -4.636  0.00  0.00    -0.038 C 
ATOM     19  C   LIG d   1       8.838   1.611  -6.849  0.00  0.00    -0.037 C 
ATOM     20  C   LIG d   1      10.083   2.875  -8.540  0.00  0.00    -0.031 C 
ATOM     21  C   LIG d   1       8.354   1.413  -5.470  0.00  0.00     0.080 C 
ATOM     22  H   LIG d   1       8.511   0.957  -7.644  0.00  0.00     0.064 H 
ATOM     23  C   LIG d   1       8.380   2.635  -4.571  0.00  0.00    -0.006 C 
ATOM     24  N   LIG d   1       7.929   0.263  -5.050  0.00  0.00    -0.089 NA
ATOM     25  H   LIG d   1       8.147   2.346  -3.546  0.00  0.00     0.033 H 
ATOM     26  H   LIG d   1       7.656   3.370  -4.923  0.00  0.00     0.033 H 
ATOM     27  C   LIG d   1       9.762   4.340  -8.852  0.00  0.00    -0.046 C 
ATOM     28  H   LIG d   1      11.152   2.698  -8.655  0.00  0.00     0.031 H 
ATOM     29  H   LIG d   1       9.524   2.223  -9.210  0.00  0.00     0.031 H 
ATOM     30  H   LIG d   1      10.118   4.584  -9.853  0.00  0.00     0.027 H 
ATOM     31  H   LIG d   1       8.682   4.492  -8.808  0.00  0.00     0.027 H 
ATOM     32  H   LIG d   1      10.490   2.514  -4.199  0.00  0.00     0.028 H 
ATOM     33  H   LIG d   1       9.814   4.146  -4.055  0.00  0.00     0.028 H 
ATOM     34  H   LIG d   1      11.511   5.036  -7.837  0.00  0.00     0.031 H 
ATOM     35  H   LIG d   1      10.744   6.878  -9.187  0.00  0.00     0.031 H 
ATOM     36  C   LIG d   1       8.769   7.089  -8.362  0.00  0.00    -0.046 C 
ATOM     37  C   LIG d   1       8.795   8.634  -8.316  0.00  0.00    -0.012 C 
ATOM     38  H   LIG d   1       8.365   6.739  -9.312  0.00  0.00     0.027 H 
ATOM     39  H   LIG d   1       8.192   6.689  -7.528  0.00  0.00     0.027 H 
ATOM     40  H   LIG d   1       8.789   9.037  -9.329  0.00  0.00     0.030 H 
ATOM     41  H   LIG d   1       7.934   9.005  -7.760  0.00  0.00     0.030 H 
BRANCH   5  42
ATOM     42  C   LIG d   1      12.320   7.819  -7.237  0.00  0.00    -0.056 C 
ATOM     43  H   LIG d   1      12.758   7.104  -6.540  0.00  0.00     0.024 H 
ATOM     44  H   LIG d   1      12.672   7.605  -8.247  0.00  0.00     0.024 H 
ATOM     45  H   LIG d   1      12.615   8.829  -6.955  0.00  0.00     0.024 H 
ENDBRANCH   5  42
BRANCH  14  46
ATOM     46  C   LIG d   1      11.741   3.381  -6.092  0.00  0.00    -0.056 C 
ATOM     47  H   LIG d   1      12.181   4.281  -6.523  0.00  0.00     0.024 H 
ATOM     48  H   LIG d   1      12.119   3.239  -5.080  0.00  0.00     0.024 H 
ATOM     49  H   LIG d   1      12.006   2.519  -6.704  0.00  0.00     0.024 H 
ENDBRANCH  14  46
BRANCH  24  50
ATOM     50  O   LIG d   1       7.472   0.120  -3.718  0.00  0.00    -0.384 OA
BRANCH  50  51
ATOM     51  C   LIG d   1       6.863  -1.144  -3.444  0.00  0.00     0.193 C 
ATOM     52  H   LIG d   1       7.560  -1.944  -3.695  0.00  0.00     0.082 H 
ATOM     53  H   LIG d   1       6.609  -1.203  -2.385  0.00  0.00     0.082 H 
BRANCH  51  54
ATOM     54  C   LIG d   1       5.612  -1.290  -4.270  0.00  0.00     0.254 C 
ATOM     55  O   LIG d   1       5.187  -2.394  -4.536  0.00  0.00    -0.272 OA
ATOM     56  N   LIG d   1       4.966  -0.194  -4.714  0.00  0.00    -0.309 N 
ATOM     57  H   LIG d   1       5.344   0.686  -4.564  0.00  0.00     0.149 HD
BRANCH  56  58
ATOM     58  C   LIG d   1       3.691  -0.332  -5.423  0.00  0.00     0.031 C 
ATOM     59  H   LIG d   1       3.444  -1.389  -5.523  0.00  0.00     0.050 H 
BRANCH  58  60
ATOM     60  C   LIG d   1       2.588   0.377  -4.634  0.00  0.00     0.005 C 
ATOM     61  H   LIG d   1       2.133   1.146  -5.258  0.00  0.00     0.034 H 
ATOM     62  H   LIG d   1       1.830  -0.347  -4.337  0.00  0.00     0.034 H 
BRANCH  60  63
ATOM     63  C   LIG d   1       3.183   1.016  -3.405  0.00  0.00     0.043 C 
ATOM     64  O   LIG d   1       3.644   2.142  -3.464  0.00  0.00    -0.550 OA
ATOM     65  O   LIG d   1       3.203   0.403  -2.350  0.00  0.00    -0.550 OA
ENDBRANCH  60  63
ENDBRANCH  58  60
BRANCH  58  66
ATOM     66  C   LIG d   1       3.809   0.297  -6.813  0.00  0.00    -0.018 C 
ATOM     67  H   LIG d   1       3.726   1.381  -6.731  0.00  0.00     0.032 H 
ATOM     68  C   LIG d   1       2.690  -0.236  -7.713  0.00  0.00    -0.020 C 
ATOM     69  C   LIG d   1       2.864   0.335  -9.122  0.00  0.00     0.064 C 
ATOM     70  H   LIG d   1       2.742  -1.324  -7.754  0.00  0.00     0.030 H 
ATOM     71  H   LIG d   1       1.724   0.068  -7.312  0.00  0.00     0.030 H 
ATOM     72  O   LIG d   1       4.156  -0.015  -9.622  0.00  0.00    -0.374 OA
ATOM     73  C   LIG d   1       5.241   0.497  -8.847  0.00  0.00     0.049 C 
ATOM     74  C   LIG d   1       5.164  -0.069  -7.427  0.00  0.00    -0.025 C 
ATOM     75  H   LIG d   1       5.178   1.585  -8.808  0.00  0.00     0.056 H 
ATOM     76  H   LIG d   1       6.186   0.204  -9.305  0.00  0.00     0.056 H 
ATOM     77  H   LIG d   1       5.965   0.356  -6.821  0.00  0.00     0.029 H 
ATOM     78  H   LIG d   1       5.268  -1.154  -7.461  0.00  0.00     0.029 H 
BRANCH  69  79
ATOM     79  C   LIG d   1       1.787  -0.241 -10.043  0.00  0.00    -0.036 C 
ATOM     80  H   LIG d   1       1.876  -1.327 -10.071  0.00  0.00     0.026 H 
ATOM     81  H   LIG d   1       0.802   0.034  -9.666  0.00  0.00     0.026 H 
ATOM     82  H   LIG d   1       1.916   0.160 -11.048  0.00  0.00     0.026 H 
ENDBRANCH  69  79
BRANCH  69  83
ATOM     83  C   LIG d   1       2.732   1.859  -9.073  0.00  0.00    -0.036 C 
ATOM     84  H   LIG d   1       1.824   2.127  -8.534  0.00  0.00     0.026 H 
ATOM     85  H   LIG d   1       3.597   2.282  -8.562  0.00  0.00     0.026 H 
ATOM     86  H   LIG d   1       2.682   2.252 -10.088  0.00  0.00     0.026 H 
ENDBRANCH  69  83
ENDBRANCH  58  66
ENDBRANCH  56  58
ENDBRANCH  51  54
ENDBRANCH  50  51
ENDBRANCH  24  50
BRANCH   4  87
ATOM     87  O   LIG d   1      10.938   9.776  -8.482  0.00  0.00    -0.376 OA
ATOM     88  H   LIG d   1      10.456  10.363  -9.081  0.00  0.00     0.211 HD
ENDBRANCH   4  87
ENDBRANCH   1   4
TORSDOF 13
ENDMDL
MODEL 6
REMARK VINA RESULT:      -7.3      8.763     12.859
REMARK  13 active torsions:
REMARK  status: ('A' for Active; 'I' for Inactive)
REMARK    1  A    between atoms: C_1  and  C_2 
REMARK    2  A    between atoms: N_6  and  O_7 
REMARK    3  A    between atoms: O_7  and  C_8 
REMARK    4  A    between atoms: C_8  and  C_9 
REMARK       I    between atoms: C_9  and  N_11 
REMARK    5  A    between atoms: N_11  and  C_12 
REMARK    6  A    between atoms: C_12  and  C_14 
REMARK    7  A    between atoms: C_12  and  C_18 
REMARK    8  A    between atoms: C_14  and  C_15 
REMARK    9  A    between atoms: C_23  and  C_25 
REMARK   10  A    between atoms: C_23  and  C_26 
REMARK   11  A    between atoms: C_37  and  C_46 
REMARK   12  A    between atoms: C_42  and  C_43 
REMARK   13  A    between atoms: C_42  and  O_45 
ROOT
ATOM      1  C   LIG d   1      11.043   7.268   0.964  0.00  0.00    -0.070 C 
ATOM      2  C   LIG d   1      11.043   6.821   2.049  0.00  0.00    -0.116 C 
ATOM      3  H   LIG d   1      11.043   6.421   3.020  0.00  0.00     0.123 H 
ENDROOT
BRANCH   1   4
ATOM      4  C   LIG d   1      11.042   7.828  -0.398  0.00  0.00     0.132 C 
ATOM      5  C   LIG d   1      11.501   6.751  -1.417  0.00  0.00     0.011 C 
ATOM      6  C   LIG d   1      11.101   5.395  -0.831  0.00  0.00    -0.043 C 
ATOM      7  C   LIG d   1      10.653   7.070  -2.661  0.00  0.00    -0.029 C 
ATOM      8  C   LIG d   1      11.185   4.304  -1.893  0.00  0.00    -0.049 C 
ATOM      9  H   LIG d   1      10.080   5.453  -0.454  0.00  0.00     0.027 H 
ATOM     10  H   LIG d   1      11.772   5.147  -0.008  0.00  0.00     0.027 H 
ATOM     11  C   LIG d   1      10.183   4.624  -3.010  0.00  0.00    -0.029 C 
ATOM     12  H   LIG d   1      10.939   3.340  -1.448  0.00  0.00     0.027 H 
ATOM     13  H   LIG d   1      12.192   4.271  -2.305  0.00  0.00     0.027 H 
ATOM     14  C   LIG d   1      10.237   3.507  -4.055  0.00  0.00    -0.007 C 
ATOM     15  C   LIG d   1      10.594   5.944  -3.664  0.00  0.00    -0.034 C 
ATOM     16  H   LIG d   1       9.175   4.708  -2.605  0.00  0.00     0.031 H 
ATOM     17  C   LIG d   1       9.398   3.887  -5.235  0.00  0.00    -0.062 C 
ATOM     18  C   LIG d   1       9.923   2.165  -3.441  0.00  0.00    -0.038 C 
ATOM     19  C   LIG d   1       8.418   3.137  -5.719  0.00  0.00    -0.037 C 
ATOM     20  C   LIG d   1       9.685   5.228  -5.891  0.00  0.00    -0.031 C 
ATOM     21  C   LIG d   1       8.067   1.883  -5.026  0.00  0.00     0.080 C 
ATOM     22  H   LIG d   1       7.877   3.446  -6.601  0.00  0.00     0.064 H 
ATOM     23  C   LIG d   1       8.442   1.805  -3.558  0.00  0.00    -0.006 C 
ATOM     24  N   LIG d   1       7.473   0.906  -5.634  0.00  0.00    -0.089 NA
ATOM     25  H   LIG d   1       8.276   0.793  -3.187  0.00  0.00     0.033 H 
ATOM     26  H   LIG d   1       7.843   2.512  -2.984  0.00  0.00     0.033 H 
ATOM     27  C   LIG d   1       9.629   6.299  -4.797  0.00  0.00    -0.046 C 
ATOM     28  H   LIG d   1      10.676   5.212  -6.344  0.00  0.00     0.031 H 
ATOM     29  H   LIG d   1       8.933   5.436  -6.652  0.00  0.00     0.031 H 
ATOM     30  H   LIG d   1       9.909   7.264  -5.221  0.00  0.00     0.027 H 
ATOM     31  H   LIG d   1       8.615   6.360  -4.402  0.00  0.00     0.027 H 
ATOM     32  H   LIG d   1      10.513   1.399  -3.943  0.00  0.00     0.028 H 
ATOM     33  H   LIG d   1      10.198   2.186  -2.386  0.00  0.00     0.028 H 
ATOM     34  H   LIG d   1      11.589   5.811  -4.091  0.00  0.00     0.031 H 
ATOM     35  H   LIG d   1      11.054   7.961  -3.147  0.00  0.00     0.031 H 
ATOM     36  C   LIG d   1       9.271   7.415  -2.076  0.00  0.00    -0.046 C 
ATOM     37  C   LIG d   1       9.610   8.226  -0.805  0.00  0.00    -0.012 C 
ATOM     38  H   LIG d   1       8.697   8.021  -2.777  0.00  0.00     0.027 H 
ATOM     39  H   LIG d   1       8.727   6.507  -1.818  0.00  0.00     0.027 H 
ATOM     40  H   LIG d   1       9.568   9.294  -1.021  0.00  0.00     0.030 H 
ATOM     41  H   LIG d   1       8.912   7.978  -0.006  0.00  0.00     0.030 H 
BRANCH   5  42
ATOM     42  C   LIG d   1      13.002   6.830  -1.699  0.00  0.00    -0.056 C 
ATOM     43  H   LIG d   1      13.191   6.562  -2.739  0.00  0.00     0.024 H 
ATOM     44  H   LIG d   1      13.353   7.846  -1.516  0.00  0.00     0.024 H 
ATOM     45  H   LIG d   1      13.531   6.137  -1.044  0.00  0.00     0.024 H 
ENDBRANCH   5  42
BRANCH  14  46
ATOM     46  C   LIG d   1      11.683   3.440  -4.547  0.00  0.00    -0.056 C 
ATOM     47  H   LIG d   1      11.760   3.934  -5.516  0.00  0.00     0.024 H 
ATOM     48  H   LIG d   1      12.335   3.939  -3.831  0.00  0.00     0.024 H 
ATOM     49  H   LIG d   1      11.985   2.397  -4.648  0.00  0.00     0.024 H 
ENDBRANCH  14  46
BRANCH  24  50
ATOM     50  O   LIG d   1       7.154  -0.279  -4.928  0.00  0.00    -0.384 OA
BRANCH  50  51
ATOM     51  C   LIG d   1       6.798  -1.379  -5.768  0.00  0.00     0.193 C 
ATOM     52  H   LIG d   1       7.265  -1.256  -6.745  0.00  0.00     0.082 H 
ATOM     53  H   LIG d   1       7.142  -2.309  -5.315  0.00  0.00     0.082 H 
BRANCH  51  54
ATOM     54  C   LIG d   1       5.300  -1.424  -5.930  0.00  0.00     0.254 C 
ATOM     55  O   LIG d   1       4.712  -2.479  -5.827  0.00  0.00    -0.272 OA
ATOM     56  N   LIG d   1       4.616  -0.294  -6.190  0.00  0.00    -0.309 N 
ATOM     57  H   LIG d   1       5.092   0.537  -6.344  0.00  0.00     0.149 HD
BRANCH  56  58
ATOM     58  C   LIG d   1       3.152  -0.318  -6.239  0.00  0.00     0.031 C 
ATOM     59  H   LIG d   1       2.798  -1.324  -6.012  0.00  0.00     0.050 H 
BRANCH  58  60
ATOM     60  C   LIG d   1       2.590   0.665  -5.209  0.00  0.00     0.005 C 
ATOM     61  H   LIG d   1       2.800   1.685  -5.529  0.00  0.00     0.034 H 
ATOM     62  H   LIG d   1       1.513   0.525  -5.123  0.00  0.00     0.034 H 
BRANCH  60  63
ATOM     63  C   LIG d   1       3.238   0.415  -3.871  0.00  0.00     0.043 C 
ATOM     64  O   LIG d   1       2.781  -0.430  -3.121  0.00  0.00    -0.550 OA
ATOM     65  O   LIG d   1       4.219   1.059  -3.540  0.00  0.00    -0.550 OA
ENDBRANCH  60  63
ENDBRANCH  58  60
BRANCH  58  66
ATOM     66  C   LIG d   1       2.681   0.084  -7.638  0.00  0.00    -0.018 C 
ATOM     67  H   LIG d   1       1.591   0.083  -7.671  0.00  0.00     0.032 H 
ATOM     68  C   LIG d   1       3.227  -0.909  -8.668  0.00  0.00    -0.020 C 
ATOM     69  C   LIG d   1       2.819  -0.453 -10.071  0.00  0.00     0.064 C 
ATOM     70  H   LIG d   1       4.314  -0.944  -8.600  0.00  0.00     0.030 H 
ATOM     71  H   LIG d   1       2.816  -1.899  -8.472  0.00  0.00     0.030 H 
ATOM     72  O   LIG d   1       3.308   0.870 -10.303  0.00  0.00    -0.374 OA
ATOM     73  C   LIG d   1       2.793   1.849  -9.400  0.00  0.00     0.049 C 
ATOM     74  C   LIG d   1       3.201   1.487  -7.969  0.00  0.00    -0.025 C 
ATOM     75  H   LIG d   1       1.705   1.874  -9.471  0.00  0.00     0.056 H 
ATOM     76  H   LIG d   1       3.196   2.829  -9.656  0.00  0.00     0.056 H 
ATOM     77  H   LIG d   1       2.772   2.209  -7.274  0.00  0.00     0.029 H 
ATOM     78  H   LIG d   1       4.288   1.502  -7.886  0.00  0.00     0.029 H 
BRANCH  69  79
ATOM     79  C   LIG d   1       3.413  -1.406 -11.110  0.00  0.00    -0.036 C 
ATOM     80  H   LIG d   1       4.019  -2.160 -10.607  0.00  0.00     0.026 H 
ATOM     81  H   LIG d   1       2.607  -1.895 -11.658  0.00  0.00     0.026 H 
ATOM     82  H   LIG d   1       4.036  -0.844 -11.805  0.00  0.00     0.026 H 
ENDBRANCH  69  79
BRANCH  69  83
ATOM     83  C   LIG d   1       1.293  -0.460 -10.185  0.00  0.00    -0.036 C 
ATOM     84  H   LIG d   1       0.885   0.395  -9.645  0.00  0.00     0.026 H 
ATOM     85  H   LIG d   1       1.006  -0.398 -11.235  0.00  0.00     0.026 H 
ATOM     86  H   LIG d   1       0.901  -1.382  -9.756  0.00  0.00     0.026 H 
ENDBRANCH  69  83
ENDBRANCH  58  66
ENDBRANCH  56  58
ENDBRANCH  51  54
ENDBRANCH  50  51
ENDBRANCH  24  50
BRANCH   4  87
ATOM     87  O   LIG d   1      11.905   8.965  -0.463  0.00  0.00    -0.376 OA
ATOM     88  H   LIG d   1      12.330   9.087  -1.323  0.00  0.00     0.211 HD
ENDBRANCH   4  87
ENDBRANCH   1   4
TORSDOF 13
ENDMDL
MODEL 7
REMARK VINA RESULT:      -7.2      7.480     11.616
REMARK  13 active torsions:
REMARK  status: ('A' for Active; 'I' for Inactive)
REMARK    1  A    between atoms: C_1  and  C_2 
REMARK    2  A    between atoms: N_6  and  O_7 
REMARK    3  A    between atoms: O_7  and  C_8 
REMARK    4  A    between atoms: C_8  and  C_9 
REMARK       I    between atoms: C_9  and  N_11 
REMARK    5  A    between atoms: N_11  and  C_12 
REMARK    6  A    between atoms: C_12  and  C_14 
REMARK    7  A    between atoms: C_12  and  C_18 
REMARK    8  A    between atoms: C_14  and  C_15 
REMARK    9  A    between atoms: C_23  and  C_25 
REMARK   10  A    between atoms: C_23  and  C_26 
REMARK   11  A    between atoms: C_37  and  C_46 
REMARK   12  A    between atoms: C_42  and  C_43 
REMARK   13  A    between atoms: C_42  and  O_45 
ROOT
ATOM      1  C   LIG d   1       3.809   1.667  -3.065  0.00  0.00    -0.070 C 
ATOM      2  C   LIG d   1       2.898   2.287  -3.469  0.00  0.00    -0.116 C 
ATOM      3  H   LIG d   1       2.083   2.842  -3.830  0.00  0.00     0.123 H 
ENDROOT
BRANCH   1   4
ATOM      4  C   LIG d   1       4.952   0.889  -2.559  0.00  0.00     0.132 C 
ATOM      5  C   LIG d   1       4.796  -0.604  -2.954  0.00  0.00     0.011 C 
ATOM      6  C   LIG d   1       3.990  -0.632  -4.255  0.00  0.00    -0.043 C 
ATOM      7  C   LIG d   1       6.248  -1.047  -3.210  0.00  0.00    -0.029 C 
ATOM      8  C   LIG d   1       4.078  -2.005  -4.912  0.00  0.00    -0.049 C 
ATOM      9  H   LIG d   1       4.385   0.120  -4.938  0.00  0.00     0.027 H 
ATOM     10  H   LIG d   1       2.947  -0.404  -4.036  0.00  0.00     0.027 H 
ATOM     11  C   LIG d   1       5.540  -2.284  -5.282  0.00  0.00    -0.029 C 
ATOM     12  H   LIG d   1       3.464  -2.019  -5.813  0.00  0.00     0.027 H 
ATOM     13  H   LIG d   1       3.726  -2.767  -4.218  0.00  0.00     0.027 H 
ATOM     14  C   LIG d   1       5.621  -3.643  -5.981  0.00  0.00    -0.007 C 
ATOM     15  C   LIG d   1       6.364  -2.331  -3.995  0.00  0.00    -0.034 C 
ATOM     16  H   LIG d   1       5.921  -1.503  -5.941  0.00  0.00     0.031 H 
ATOM     17  C   LIG d   1       7.057  -4.011  -6.192  0.00  0.00    -0.062 C 
ATOM     18  C   LIG d   1       4.753  -3.679  -7.215  0.00  0.00    -0.038 C 
ATOM     19  C   LIG d   1       7.575  -4.324  -7.371  0.00  0.00    -0.037 C 
ATOM     20  C   LIG d   1       7.965  -3.997  -4.974  0.00  0.00    -0.031 C 
ATOM     21  C   LIG d   1       6.723  -4.242  -8.573  0.00  0.00     0.080 C 
ATOM     22  H   LIG d   1       8.609  -4.624  -7.452  0.00  0.00     0.064 H 
ATOM     23  C   LIG d   1       5.529  -3.311  -8.480  0.00  0.00    -0.006 C 
ATOM     24  N   LIG d   1       6.979  -4.923  -9.644  0.00  0.00    -0.089 NA
ATOM     25  H   LIG d   1       4.890  -3.439  -9.355  0.00  0.00     0.033 H 
ATOM     26  H   LIG d   1       5.868  -2.277  -8.418  0.00  0.00     0.033 H 
ATOM     27  C   LIG d   1       7.832  -2.621  -4.314  0.00  0.00    -0.046 C 
ATOM     28  H   LIG d   1       7.658  -4.774  -4.275  0.00  0.00     0.031 H 
ATOM     29  H   LIG d   1       8.998  -4.161  -5.281  0.00  0.00     0.031 H 
ATOM     30  H   LIG d   1       8.412  -2.604  -3.391  0.00  0.00     0.027 H 
ATOM     31  H   LIG d   1       8.212  -1.855  -4.992  0.00  0.00     0.027 H 
ATOM     32  H   LIG d   1       4.345  -4.682  -7.331  0.00  0.00     0.028 H 
ATOM     33  H   LIG d   1       3.930  -2.976  -7.088  0.00  0.00     0.028 H 
ATOM     34  H   LIG d   1       5.980  -3.146  -3.381  0.00  0.00     0.031 H 
ATOM     35  H   LIG d   1       6.759  -1.165  -2.254  0.00  0.00     0.031 H 
ATOM     36  C   LIG d   1       6.865   0.156  -3.947  0.00  0.00    -0.046 C 
ATOM     37  C   LIG d   1       6.256   1.376  -3.219  0.00  0.00    -0.012 C 
ATOM     38  H   LIG d   1       7.951   0.152  -3.848  0.00  0.00     0.027 H 
ATOM     39  H   LIG d   1       6.575   0.152  -4.998  0.00  0.00     0.027 H 
ATOM     40  H   LIG d   1       6.946   1.739  -2.457  0.00  0.00     0.030 H 
ATOM     41  H   LIG d   1       6.040   2.169  -3.935  0.00  0.00     0.030 H 
BRANCH   5  42
ATOM     42  C   LIG d   1       4.124  -1.423  -1.850  0.00  0.00    -0.056 C 
ATOM     43  H   LIG d   1       4.781  -2.241  -1.553  0.00  0.00     0.024 H 
ATOM     44  H   LIG d   1       3.930  -0.781  -0.989  0.00  0.00     0.024 H 
ATOM     45  H   LIG d   1       3.183  -1.829  -2.221  0.00  0.00     0.024 H 
ENDBRANCH   5  42
BRANCH  14  46
ATOM     46  C   LIG d   1       5.043  -4.670  -5.005  0.00  0.00    -0.056 C 
ATOM     47  H   LIG d   1       5.854  -5.259  -4.576  0.00  0.00     0.024 H 
ATOM     48  H   LIG d   1       4.508  -4.153  -4.209  0.00  0.00     0.024 H 
ATOM     49  H   LIG d   1       4.357  -5.330  -5.536  0.00  0.00     0.024 H 
ENDBRANCH  14  46
BRANCH  24  50
ATOM     50  O   LIG d   1       6.134  -4.811 -10.774  0.00  0.00    -0.384 OA
BRANCH  50  51
ATOM     51  C   LIG d   1       6.747  -4.181 -11.900  0.00  0.00     0.193 C 
ATOM     52  H   LIG d   1       7.805  -4.016 -11.692  0.00  0.00     0.082 H 
ATOM     53  H   LIG d   1       6.645  -4.821 -12.776  0.00  0.00     0.082 H 
BRANCH  51  54
ATOM     54  C   LIG d   1       6.076  -2.858 -12.164  0.00  0.00     0.254 C 
ATOM     55  O   LIG d   1       6.625  -2.027 -12.856  0.00  0.00    -0.272 OA
ATOM     56  N   LIG d   1       4.866  -2.598 -11.632  0.00  0.00    -0.309 N 
ATOM     57  H   LIG d   1       4.459  -3.231 -11.020  0.00  0.00     0.149 HD
BRANCH  56  58
ATOM     58  C   LIG d   1       4.165  -1.358 -11.976  0.00  0.00     0.031 C 
ATOM     59  H   LIG d   1       4.607  -0.929 -12.875  0.00  0.00     0.050 H 
BRANCH  58  60
ATOM     60  C   LIG d   1       2.687  -1.662 -12.230  0.00  0.00     0.005 C 
ATOM     61  H   LIG d   1       2.091  -1.285 -11.399  0.00  0.00     0.034 H 
ATOM     62  H   LIG d   1       2.369  -1.178 -13.153  0.00  0.00     0.034 H 
BRANCH  60  63
ATOM     63  C   LIG d   1       2.494  -3.152 -12.350  0.00  0.00     0.043 C 
ATOM     64  O   LIG d   1       2.679  -3.707 -13.420  0.00  0.00    -0.550 OA
ATOM     65  O   LIG d   1       2.151  -3.803 -11.377  0.00  0.00    -0.550 OA
ENDBRANCH  60  63
ENDBRANCH  58  60
BRANCH  58  66
ATOM     66  C   LIG d   1       4.290  -0.363 -10.821  0.00  0.00    -0.018 C 
ATOM     67  H   LIG d   1       5.316  -0.360 -10.452  0.00  0.00     0.032 H 
ATOM     68  C   LIG d   1       3.339  -0.767  -9.691  0.00  0.00    -0.020 C 
ATOM     69  C   LIG d   1       3.411   0.279  -8.575  0.00  0.00     0.064 C 
ATOM     70  H   LIG d   1       2.319  -0.819 -10.073  0.00  0.00     0.030 H 
ATOM     71  H   LIG d   1       3.632  -1.741  -9.299  0.00  0.00     0.030 H 
ATOM     72  O   LIG d   1       3.084   1.565  -9.106  0.00  0.00    -0.374 OA
ATOM     73  C   LIG d   1       3.969   2.015 -10.132  0.00  0.00     0.049 C 
ATOM     74  C   LIG d   1       3.918   1.040 -11.312  0.00  0.00    -0.025 C 
ATOM     75  H   LIG d   1       4.986   2.059  -9.743  0.00  0.00     0.056 H 
ATOM     76  H   LIG d   1       3.664   3.007 -10.467  0.00  0.00     0.056 H 
ATOM     77  H   LIG d   1       4.626   1.358 -12.078  0.00  0.00     0.029 H 
ATOM     78  H   LIG d   1       2.911   1.025 -11.729  0.00  0.00     0.029 H 
BRANCH  69  79
ATOM     79  C   LIG d   1       2.418  -0.085  -7.470  0.00  0.00    -0.036 C 
ATOM     80  H   LIG d   1       2.431  -1.164  -7.310  0.00  0.00     0.026 H 
ATOM     81  H   LIG d   1       2.700   0.422  -6.547  0.00  0.00     0.026 H 
ATOM     82  H   LIG d   1       1.416   0.226  -7.764  0.00  0.00     0.026 H 
ENDBRANCH  69  79
BRANCH  69  83
ATOM     83  C   LIG d   1       4.828   0.310  -7.999  0.00  0.00    -0.036 C 
ATOM     84  H   LIG d   1       5.041   1.307  -7.612  0.00  0.00     0.026 H 
ATOM     85  H   LIG d   1       4.908  -0.418  -7.191  0.00  0.00     0.026 H 
ATOM     86  H   LIG d   1       5.545   0.063  -8.782  0.00  0.00     0.026 H 
ENDBRANCH  69  83
ENDBRANCH  58  66
ENDBRANCH  56  58
ENDBRANCH  51  54
ENDBRANCH  50  51
ENDBRANCH  24  50
BRANCH   4  87
ATOM     87  O   LIG d   1       5.043   1.015  -1.139  0.00  0.00    -0.376 OA
ATOM     88  H   LIG d   1       4.703   1.852  -0.796  0.00  0.00     0.211 HD
ENDBRANCH   4  87
ENDBRANCH   1   4
TORSDOF 13
ENDMDL
MODEL 8
REMARK VINA RESULT:      -7.0      8.285     13.314
REMARK  13 active torsions:
REMARK  status: ('A' for Active; 'I' for Inactive)
REMARK    1  A    between atoms: C_1  and  C_2 
REMARK    2  A    between atoms: N_6  and  O_7 
REMARK    3  A    between atoms: O_7  and  C_8 
REMARK    4  A    between atoms: C_8  and  C_9 
REMARK       I    between atoms: C_9  and  N_11 
REMARK    5  A    between atoms: N_11  and  C_12 
REMARK    6  A    between atoms: C_12  and  C_14 
REMARK    7  A    between atoms: C_12  and  C_18 
REMARK    8  A    between atoms: C_14  and  C_15 
REMARK    9  A    between atoms: C_23  and  C_25 
REMARK   10  A    between atoms: C_23  and  C_26 
REMARK   11  A    between atoms: C_37  and  C_46 
REMARK   12  A    between atoms: C_42  and  C_43 
REMARK   13  A    between atoms: C_42  and  O_45 
ROOT
ATOM      1  C   LIG d   1       3.069  -0.539  -3.355  0.00  0.00    -0.070 C 
ATOM      2  C   LIG d   1       2.001  -0.531  -3.843  0.00  0.00    -0.116 C 
ATOM      3  H   LIG d   1       1.046  -0.523  -4.279  0.00  0.00     0.123 H 
ENDROOT
BRANCH   1   4
ATOM      4  C   LIG d   1       4.408  -0.549  -2.744  0.00  0.00     0.132 C 
ATOM      5  C   LIG d   1       5.477  -0.912  -3.810  0.00  0.00     0.011 C 
ATOM      6  C   LIG d   1       4.932  -0.433  -5.157  0.00  0.00    -0.043 C 
ATOM      7  C   LIG d   1       6.689  -0.063  -3.387  0.00  0.00    -0.029 C 
ATOM      8  C   LIG d   1       6.036  -0.420  -6.210  0.00  0.00    -0.049 C 
ATOM      9  H   LIG d   1       4.530   0.574  -5.045  0.00  0.00     0.027 H 
ATOM     10  H   LIG d   1       4.135  -1.102  -5.481  0.00  0.00     0.027 H 
ATOM     11  C   LIG d   1       7.117   0.579  -5.780  0.00  0.00    -0.029 C 
ATOM     12  H   LIG d   1       5.621  -0.118  -7.171  0.00  0.00     0.027 H 
ATOM     13  H   LIG d   1       6.472  -1.415  -6.295  0.00  0.00     0.027 H 
ATOM     14  C   LIG d   1       8.204   0.623  -6.857  0.00  0.00    -0.007 C 
ATOM     15  C   LIG d   1       7.731   0.093  -4.467  0.00  0.00    -0.034 C 
ATOM     16  H   LIG d   1       6.686   1.571  -5.645  0.00  0.00     0.031 H 
ATOM     17  C   LIG d   1       9.349   1.458  -6.376  0.00  0.00    -0.062 C 
ATOM     18  C   LIG d   1       7.633   1.015  -8.198  0.00  0.00    -0.038 C 
ATOM     19  C   LIG d   1       9.838   2.496  -7.039  0.00  0.00    -0.037 C 
ATOM     20  C   LIG d   1       9.962   1.093  -5.034  0.00  0.00    -0.031 C 
ATOM     21  C   LIG d   1       9.185   2.918  -8.293  0.00  0.00     0.080 C 
ATOM     22  H   LIG d   1      10.696   3.033  -6.661  0.00  0.00     0.064 H 
ATOM     23  C   LIG d   1       7.730   2.520  -8.452  0.00  0.00    -0.006 C 
ATOM     24  N   LIG d   1       9.815   3.589  -9.204  0.00  0.00    -0.089 NA
ATOM     25  H   LIG d   1       7.392   2.746  -9.465  0.00  0.00     0.033 H 
ATOM     26  H   LIG d   1       7.116   3.057  -7.729  0.00  0.00     0.033 H 
ATOM     27  C   LIG d   1       8.828   1.054  -4.004  0.00  0.00    -0.046 C 
ATOM     28  H   LIG d   1      10.437   0.115  -5.098  0.00  0.00     0.031 H 
ATOM     29  H   LIG d   1      10.696   1.845  -4.746  0.00  0.00     0.031 H 
ATOM     30  H   LIG d   1       9.221   0.718  -3.045  0.00  0.00     0.027 H 
ATOM     31  H   LIG d   1       8.407   2.053  -3.890  0.00  0.00     0.027 H 
ATOM     32  H   LIG d   1       8.176   0.489  -8.982  0.00  0.00     0.028 H 
ATOM     33  H   LIG d   1       6.585   0.717  -8.236  0.00  0.00     0.028 H 
ATOM     34  H   LIG d   1       8.185  -0.882  -4.650  0.00  0.00     0.031 H 
ATOM     35  H   LIG d   1       7.150  -0.514  -2.507  0.00  0.00     0.031 H 
ATOM     36  C   LIG d   1       6.059   1.280  -2.972  0.00  0.00    -0.046 C 
ATOM     37  C   LIG d   1       4.767   0.861  -2.235  0.00  0.00    -0.012 C 
ATOM     38  H   LIG d   1       6.724   1.825  -2.302  0.00  0.00     0.027 H 
ATOM     39  H   LIG d   1       5.823   1.880  -3.851  0.00  0.00     0.027 H 
ATOM     40  H   LIG d   1       4.942   0.835  -1.160  0.00  0.00     0.030 H 
ATOM     41  H   LIG d   1       3.962   1.558  -2.467  0.00  0.00     0.030 H 
BRANCH   5  42
ATOM     42  C   LIG d   1       5.790  -2.410  -3.822  0.00  0.00    -0.056 C 
ATOM     43  H   LIG d   1       6.636  -2.609  -3.164  0.00  0.00     0.024 H 
ATOM     44  H   LIG d   1       4.919  -2.965  -3.473  0.00  0.00     0.024 H 
ATOM     45  H   LIG d   1       6.037  -2.720  -4.837  0.00  0.00     0.024 H 
ENDBRANCH   5  42
BRANCH  14  46
ATOM     46  C   LIG d   1       8.731  -0.805  -7.003  0.00  0.00    -0.056 C 
ATOM     47  H   LIG d   1       8.665  -1.112  -8.047  0.00  0.00     0.024 H 
ATOM     48  H   LIG d   1       9.770  -0.844  -6.677  0.00  0.00     0.024 H 
ATOM     49  H   LIG d   1       8.132  -1.478  -6.389  0.00  0.00     0.024 H 
ENDBRANCH  14  46
BRANCH  24  50
ATOM     50  O   LIG d   1       9.146   3.974 -10.391  0.00  0.00    -0.384 OA
BRANCH  50  51
ATOM     51  C   LIG d   1       9.319   5.349 -10.737  0.00  0.00     0.193 C 
ATOM     52  H   LIG d   1       9.870   5.421 -11.675  0.00  0.00     0.082 H 
ATOM     53  H   LIG d   1       8.342   5.820 -10.852  0.00  0.00     0.082 H 
BRANCH  51  54
ATOM     54  C   LIG d   1      10.089   6.050  -9.648  0.00  0.00     0.254 C 
ATOM     55  O   LIG d   1      11.263   6.308  -9.806  0.00  0.00    -0.272 OA
ATOM     56  N   LIG d   1       9.474   6.390  -8.499  0.00  0.00    -0.309 N 
ATOM     57  H   LIG d   1       8.555   6.121  -8.342  0.00  0.00     0.149 HD
BRANCH  56  58
ATOM     58  C   LIG d   1      10.191   7.168  -7.485  0.00  0.00     0.031 C 
ATOM     59  H   LIG d   1      11.145   7.504  -7.893  0.00  0.00     0.050 H 
BRANCH  58  60
ATOM     60  C   LIG d   1       9.351   8.382  -7.084  0.00  0.00     0.005 C 
ATOM     61  H   LIG d   1       8.449   8.417  -7.694  0.00  0.00     0.034 H 
ATOM     62  H   LIG d   1       9.076   8.303  -6.033  0.00  0.00     0.034 H 
BRANCH  60  63
ATOM     63  C   LIG d   1      10.153   9.640  -7.301  0.00  0.00     0.043 C 
ATOM     64  O   LIG d   1      11.251   9.760  -6.786  0.00  0.00    -0.550 OA
ATOM     65  O   LIG d   1       9.701  10.539  -7.991  0.00  0.00    -0.550 OA
ENDBRANCH  60  63
ENDBRANCH  58  60
BRANCH  58  66
ATOM     66  C   LIG d   1      10.444   6.293  -6.255  0.00  0.00    -0.018 C 
ATOM     67  H   LIG d   1      10.042   5.295  -6.429  0.00  0.00     0.032 H 
ATOM     68  C   LIG d   1       9.760   6.917  -5.035  0.00  0.00    -0.020 C 
ATOM     69  C   LIG d   1      10.086   6.080  -3.795  0.00  0.00     0.064 C 
ATOM     70  H   LIG d   1      10.125   7.934  -4.892  0.00  0.00     0.030 H 
ATOM     71  H   LIG d   1       8.682   6.934  -5.191  0.00  0.00     0.030 H 
ATOM     72  O   LIG d   1      11.503   6.009  -3.627  0.00  0.00    -0.374 OA
ATOM     73  C   LIG d   1      12.190   5.392  -4.717  0.00  0.00     0.049 C 
ATOM     74  C   LIG d   1      11.950   6.202  -5.994  0.00  0.00    -0.025 C 
ATOM     75  H   LIG d   1      11.815   4.377  -4.855  0.00  0.00     0.056 H 
ATOM     76  H   LIG d   1      13.258   5.358  -4.502  0.00  0.00     0.056 H 
ATOM     77  H   LIG d   1      12.438   5.707  -6.835  0.00  0.00     0.029 H 
ATOM     78  H   LIG d   1      12.361   7.204  -5.872  0.00  0.00     0.029 H 
BRANCH  69  79
ATOM     79  C   LIG d   1       9.457   6.730  -2.561  0.00  0.00    -0.036 C 
ATOM     80  H   LIG d   1       9.591   7.811  -2.612  0.00  0.00     0.026 H 
ATOM     81  H   LIG d   1       8.393   6.496  -2.529  0.00  0.00     0.026 H 
ATOM     82  H   LIG d   1       9.941   6.347  -1.662  0.00  0.00     0.026 H 
ENDBRANCH  69  79
BRANCH  69  83
ATOM     83  C   LIG d   1       9.522   4.668  -3.971  0.00  0.00    -0.036 C 
ATOM     84  H   LIG d   1       9.687   4.095  -3.059  0.00  0.00     0.026 H 
ATOM     85  H   LIG d   1       8.452   4.727  -4.175  0.00  0.00     0.026 H 
ATOM     86  H   LIG d   1      10.024   4.178  -4.805  0.00  0.00     0.026 H 
ENDBRANCH  69  83
ENDBRANCH  58  66
ENDBRANCH  56  58
ENDBRANCH  51  54
ENDBRANCH  50  51
ENDBRANCH  24  50
BRANCH   4  87
ATOM     87  O   LIG d   1       4.450  -1.486  -1.667  0.00  0.00    -0.376 OA
ATOM     88  H   LIG d   1       3.614  -1.575  -1.190  0.00  0.00     0.211 HD
ENDBRANCH   4  87
ENDBRANCH   1   4
TORSDOF 13
ENDMDL
MODEL 9
REMARK VINA RESULT:      -6.9      9.092     15.749
REMARK  13 active torsions:
REMARK  status: ('A' for Active; 'I' for Inactive)
REMARK    1  A    between atoms: C_1  and  C_2 
REMARK    2  A    between atoms: N_6  and  O_7 
REMARK    3  A    between atoms: O_7  and  C_8 
REMARK    4  A    between atoms: C_8  and  C_9 
REMARK       I    between atoms: C_9  and  N_11 
REMARK    5  A    between atoms: N_11  and  C_12 
REMARK    6  A    between atoms: C_12  and  C_14 
REMARK    7  A    between atoms: C_12  and  C_18 
REMARK    8  A    between atoms: C_14  and  C_15 
REMARK    9  A    between atoms: C_23  and  C_25 
REMARK   10  A    between atoms: C_23  and  C_26 
REMARK   11  A    between atoms: C_37  and  C_46 
REMARK   12  A    between atoms: C_42  and  C_43 
REMARK   13  A    between atoms: C_42  and  O_45 
ROOT
ATOM      1  C   LIG d   1       4.214  -1.369  -3.498  0.00  0.00    -0.070 C 
ATOM      2  C   LIG d   1       4.254  -2.319  -2.810  0.00  0.00    -0.116 C 
ATOM      3  H   LIG d   1       4.291  -3.170  -2.195  0.00  0.00     0.123 H 
ENDROOT
BRANCH   1   4
ATOM      4  C   LIG d   1       4.163  -0.178  -4.361  0.00  0.00     0.132 C 
ATOM      5  C   LIG d   1       4.641  -0.536  -5.794  0.00  0.00     0.011 C 
ATOM      6  C   LIG d   1       4.306  -2.014  -6.010  0.00  0.00    -0.043 C 
ATOM      7  C   LIG d   1       3.756   0.353  -6.685  0.00  0.00    -0.029 C 
ATOM      8  C   LIG d   1       4.409  -2.378  -7.488  0.00  0.00    -0.049 C 
ATOM      9  H   LIG d   1       3.291  -2.207  -5.661  0.00  0.00     0.027 H 
ATOM     10  H   LIG d   1       5.003  -2.628  -5.439  0.00  0.00     0.027 H 
ATOM     11  C   LIG d   1       3.373  -1.561  -8.271  0.00  0.00    -0.029 C 
ATOM     12  H   LIG d   1       4.209  -3.441  -7.616  0.00  0.00     0.027 H 
ATOM     13  H   LIG d   1       5.408  -2.145  -7.853  0.00  0.00     0.027 H 
ATOM     14  C   LIG d   1       3.447  -1.958  -9.747  0.00  0.00    -0.007 C 
ATOM     15  C   LIG d   1       3.719  -0.079  -8.131  0.00  0.00    -0.034 C 
ATOM     16  H   LIG d   1       2.371  -1.748  -7.885  0.00  0.00     0.031 H 
ATOM     17  C   LIG d   1       2.569  -1.051 -10.552  0.00  0.00    -0.062 C 
ATOM     18  C   LIG d   1       3.198  -3.435  -9.932  0.00  0.00    -0.038 C 
ATOM     19  C   LIG d   1       1.609  -1.476 -11.361  0.00  0.00    -0.037 C 
ATOM     20  C   LIG d   1       2.792   0.445 -10.404  0.00  0.00    -0.031 C 
ATOM     21  C   LIG d   1       1.321  -2.921 -11.433  0.00  0.00     0.080 C 
ATOM     22  H   LIG d   1       1.038  -0.773 -11.950  0.00  0.00     0.064 H 
ATOM     23  C   LIG d   1       1.729  -3.743 -10.225  0.00  0.00    -0.006 C 
ATOM     24  N   LIG d   1       0.752  -3.457 -12.466  0.00  0.00    -0.089 NA
ATOM     25  H   LIG d   1       1.610  -4.805 -10.443  0.00  0.00     0.033 H 
ATOM     26  H   LIG d   1       1.116  -3.470  -9.366  0.00  0.00     0.033 H 
ATOM     27  C   LIG d   1       2.718   0.777  -8.910  0.00  0.00    -0.046 C 
ATOM     28  H   LIG d   1       3.773   0.713 -10.794  0.00  0.00     0.031 H 
ATOM     29  H   LIG d   1       2.017   0.989 -10.942  0.00  0.00     0.031 H 
ATOM     30  H   LIG d   1       2.952   1.831  -8.761  0.00  0.00     0.027 H 
ATOM     31  H   LIG d   1       1.711   0.577  -8.543  0.00  0.00     0.027 H 
ATOM     32  H   LIG d   1       3.806  -3.795 -10.761  0.00  0.00     0.028 H 
ATOM     33  H   LIG d   1       3.494  -3.960  -9.024  0.00  0.00     0.028 H 
ATOM     34  H   LIG d   1       4.709   0.076  -8.562  0.00  0.00     0.031 H 
ATOM     35  H   LIG d   1       4.112   1.382  -6.628  0.00  0.00     0.031 H 
ATOM     36  C   LIG d   1       2.374   0.278  -6.009  0.00  0.00    -0.046 C 
ATOM     37  C   LIG d   1       2.709   0.313  -4.500  0.00  0.00    -0.012 C 
ATOM     38  H   LIG d   1       1.763   1.136  -6.288  0.00  0.00     0.027 H 
ATOM     39  H   LIG d   1       1.871  -0.653  -6.270  0.00  0.00     0.027 H 
ATOM     40  H   LIG d   1       2.621   1.331  -4.122  0.00  0.00     0.030 H 
ATOM     41  H   LIG d   1       2.037  -0.349  -3.954  0.00  0.00     0.030 H 
BRANCH   5  42
ATOM     42  C   LIG d   1       6.132  -0.256  -5.988  0.00  0.00    -0.056 C 
ATOM     43  H   LIG d   1       6.715  -1.074  -5.564  0.00  0.00     0.024 H 
ATOM     44  H   LIG d   1       6.349  -0.170  -7.054  0.00  0.00     0.024 H 
ATOM     45  H   LIG d   1       6.395   0.676  -5.487  0.00  0.00     0.024 H 
ENDBRANCH   5  42
BRANCH  14  46
ATOM     46  C   LIG d   1       4.885  -1.694 -10.198  0.00  0.00    -0.056 C 
ATOM     47  H   LIG d   1       5.379  -1.046  -9.473  0.00  0.00     0.024 H 
ATOM     48  H   LIG d   1       5.423  -2.638 -10.268  0.00  0.00     0.024 H 
ATOM     49  H   LIG d   1       4.876  -1.206 -11.173  0.00  0.00     0.024 H 
ENDBRANCH  14  46
BRANCH  24  50
ATOM     50  O   LIG d   1       0.493  -4.848 -12.490  0.00  0.00    -0.384 OA
BRANCH  50  51
ATOM     51  C   LIG d   1      -0.758  -5.218 -11.909  0.00  0.00     0.193 C 
ATOM     52  H   LIG d   1      -0.873  -6.302 -11.954  0.00  0.00     0.082 H 
ATOM     53  H   LIG d   1      -0.786  -4.893 -10.869  0.00  0.00     0.082 H 
BRANCH  51  54
ATOM     54  C   LIG d   1      -1.881  -4.563 -12.671  0.00  0.00     0.254 C 
ATOM     55  O   LIG d   1      -2.174  -4.960 -13.778  0.00  0.00    -0.272 OA
ATOM     56  N   LIG d   1      -2.558  -3.536 -12.122  0.00  0.00    -0.309 N 
ATOM     57  H   LIG d   1      -2.278  -3.170 -11.269  0.00  0.00     0.149 HD
BRANCH  56  58
ATOM     58  C   LIG d   1      -3.719  -2.970 -12.815  0.00  0.00     0.031 C 
ATOM     59  H   LIG d   1      -4.046  -3.656 -13.596  0.00  0.00     0.050 H 
BRANCH  58  60
ATOM     60  C   LIG d   1      -4.857  -2.758 -11.814  0.00  0.00     0.005 C 
ATOM     61  H   LIG d   1      -4.696  -1.826 -11.273  0.00  0.00     0.034 H 
ATOM     62  H   LIG d   1      -5.806  -2.711 -12.347  0.00  0.00     0.034 H 
BRANCH  60  63
ATOM     63  C   LIG d   1      -4.886  -3.906 -10.837  0.00  0.00     0.043 C 
ATOM     64  O   LIG d   1      -4.644  -3.711  -9.658  0.00  0.00    -0.550 OA
ATOM     65  O   LIG d   1      -5.151  -5.031 -11.227  0.00  0.00    -0.550 OA
ENDBRANCH  60  63
ENDBRANCH  58  60
BRANCH  58  66
ATOM     66  C   LIG d   1      -3.336  -1.628 -13.442  0.00  0.00    -0.018 C 
ATOM     67  H   LIG d   1      -2.367  -1.309 -13.057  0.00  0.00     0.032 H 
ATOM     68  C   LIG d   1      -4.396  -0.580 -13.096  0.00  0.00    -0.020 C 
ATOM     69  C   LIG d   1      -4.047   0.737 -13.794  0.00  0.00     0.064 C 
ATOM     70  H   LIG d   1      -5.373  -0.923 -13.437  0.00  0.00     0.030 H 
ATOM     71  H   LIG d   1      -4.419  -0.426 -12.017  0.00  0.00     0.030 H 
ATOM     72  O   LIG d   1      -3.959   0.520 -15.204  0.00  0.00    -0.374 OA
ATOM     73  C   LIG d   1      -2.951  -0.415 -15.589  0.00  0.00     0.049 C 
ATOM     74  C   LIG d   1      -3.257  -1.779 -14.964  0.00  0.00    -0.025 C 
ATOM     75  H   LIG d   1      -1.979  -0.066 -15.240  0.00  0.00     0.056 H 
ATOM     76  H   LIG d   1      -2.936  -0.508 -16.675  0.00  0.00     0.056 H 
ATOM     77  H   LIG d   1      -2.465  -2.483 -15.221  0.00  0.00     0.029 H 
ATOM     78  H   LIG d   1      -4.210  -2.148 -15.344  0.00  0.00     0.029 H 
BRANCH  69  79
ATOM     79  C   LIG d   1      -5.135   1.773 -13.504  0.00  0.00    -0.036 C 
ATOM     80  H   LIG d   1      -5.768   1.892 -14.384  0.00  0.00     0.026 H 
ATOM     81  H   LIG d   1      -5.741   1.437 -12.663  0.00  0.00     0.026 H 
ATOM     82  H   LIG d   1      -4.671   2.728 -13.259  0.00  0.00     0.026 H 
ENDBRANCH  69  79
BRANCH  69  83
ATOM     83  C   LIG d   1      -2.703   1.249 -13.273  0.00  0.00    -0.036 C 
ATOM     84  H   LIG d   1      -2.265   1.930 -14.003  0.00  0.00     0.026 H 
ATOM     85  H   LIG d   1      -2.855   1.776 -12.330  0.00  0.00     0.026 H 
ATOM     86  H   LIG d   1      -2.031   0.406 -13.112  0.00  0.00     0.026 H 
ENDBRANCH  69  83
ENDBRANCH  58  66
ENDBRANCH  56  58
ENDBRANCH  51  54
ENDBRANCH  50  51
ENDBRANCH  24  50
BRANCH   4  87
ATOM     87  O   LIG d   1       4.980   0.859  -3.816  0.00  0.00    -0.376 OA
ATOM     88  H   LIG d   1       5.898   0.837  -4.119  0.00  0.00     0.211 HD
ENDBRANCH   4  87
ENDBRANCH   1   4
TORSDOF 13
ENDMDL
