MODEL 1
REMARK VINA RESULT:      -6.4      0.000      0.000
REMARK  12 active torsions:
REMARK  status: ('A' for Active; 'I' for Inactive)
REMARK    1  A    between atoms: C_1  and  C_2 
REMARK    2  A    between atoms: C_2  and  C_33 
REMARK    3  A    between atoms: C_3  and  C_6 
REMARK    4  A    between atoms: C_6  and  C_7 
REMARK    5  A    between atoms: C_9  and  C_14 
REMARK    6  A    between atoms: C_12  and  O_13 
REMARK    7  A    between atoms: C_14  and  C_15 
REMARK    8  A    between atoms: C_15  and  C_29 
REMARK    9  A    between atoms: C_16  and  C_22 
REMARK   10  A    between atoms: C_25  and  O_28 
REMARK   11  A    between atoms: C_29  and  O_31 
REMARK   12  A    between atoms: O_31  and  C_32 
ROOT
ATOM      1  C   LIG d   1       4.671  -4.130  -5.384  0.00  0.00     0.028 C 
ATOM      2  H   LIG d   1       3.873  -3.416  -5.587  0.00  0.00     0.036 H 
ATOM      3  H   LIG d   1       4.631  -4.432  -4.337  0.00  0.00     0.036 H 
ENDROOT
BRANCH   1   4
ATOM      4  C   LIG d   1       4.496  -5.342  -6.263  0.00  0.00    -0.042 A 
ATOM      5  C   LIG d   1       4.816  -6.597  -5.780  0.00  0.00    -0.052 A 
ATOM      6  C   LIG d   1       4.655  -7.710  -6.583  0.00  0.00    -0.003 A 
ATOM      7  H   LIG d   1       5.192  -6.708  -4.773  0.00  0.00     0.062 H 
ATOM      8  C   LIG d   1       4.178  -7.566  -7.877  0.00  0.00     0.120 A 
ATOM      9  C   LIG d   1       3.852  -6.306  -8.358  0.00  0.00    -0.020 A 
ATOM     10  C   LIG d   1       4.015  -5.196  -7.551  0.00  0.00    -0.055 A 
ATOM     11  H   LIG d   1       3.476  -6.192  -9.364  0.00  0.00     0.065 H 
ATOM     12  H   LIG d   1       3.764  -4.215  -7.926  0.00  0.00     0.062 H 
BRANCH   6  13
ATOM     13  C   LIG d   1       5.005  -9.078  -6.056  0.00  0.00     0.005 C 
ATOM     14  H   LIG d   1       6.032  -9.321  -6.329  0.00  0.00     0.034 H 
ATOM     15  H   LIG d   1       4.329  -9.817  -6.485  0.00  0.00     0.034 H 
BRANCH  13  16
ATOM     16  C   LIG d   1       4.868  -9.087  -4.532  0.00  0.00     0.092 A 
ATOM     17  C   LIG d   1       4.669 -10.438  -3.842  0.00  0.00     0.091 A 
ATOM     18  O   LIG d   1       3.613  -9.485  -3.977  0.00  0.00    -0.365 OA
ATOM     19  H   LIG d   1       5.438  -8.324  -4.001  0.00  0.00     0.063 H 
BRANCH  17  20
ATOM     20  C   LIG d   1       5.285 -10.627  -2.454  0.00  0.00    -0.034 C 
ATOM     21  H   LIG d   1       5.951 -11.490  -2.467  0.00  0.00     0.026 H 
ATOM     22  H   LIG d   1       5.849  -9.736  -2.182  0.00  0.00     0.026 H 
ATOM     23  H   LIG d   1       4.492 -10.792  -1.724  0.00  0.00     0.026 H 
ENDBRANCH  17  20
BRANCH  17  24
ATOM     24  C   LIG d   1       4.619 -11.689  -4.722  0.00  0.00    -0.034 C 
ATOM     25  H   LIG d   1       5.423 -11.649  -5.455  0.00  0.00     0.026 H 
ATOM     26  H   LIG d   1       4.738 -12.575  -4.098  0.00  0.00     0.026 H 
ATOM     27  H   LIG d   1       3.660 -11.733  -5.236  0.00  0.00     0.026 H 
ENDBRANCH  17  24
ENDBRANCH  13  16
ENDBRANCH   6  13
BRANCH   8  28
ATOM     28  O   LIG d   1       4.025  -8.659  -8.672  0.00  0.00    -0.506 OA
ATOM     29  H   LIG d   1       3.128  -8.775  -9.010  0.00  0.00     0.292 HD
ENDBRANCH   8  28
ENDBRANCH   1   4
BRANCH   1  30
ATOM     30  C   LIG d   1       6.025  -3.481  -5.676  0.00  0.00     0.238 A 
ATOM     31  O   LIG d   1       6.969  -4.475  -6.082  0.00  0.00    -0.439 OA
ATOM     32  C   LIG d   1       7.988  -4.480  -5.203  0.00  0.00     0.326 A 
ATOM     33  C   LIG d   1       7.755  -3.476  -4.165  0.00  0.00    -0.013 A 
ATOM     34  O   LIG d   1       8.958  -5.211  -5.262  0.00  0.00    -0.246 OA
ATOM     35  C   LIG d   1       6.580  -2.853  -4.418  0.00  0.00     0.013 A 
ATOM     36  O   LIG d   1       8.584  -3.211  -3.119  0.00  0.00    -0.869 OA
BRANCH  35  37
ATOM     37  C   LIG d   1       5.965  -1.779  -3.626  0.00  0.00    -0.018 A 
ATOM     38  C   LIG d   1       6.471  -0.476  -3.697  0.00  0.00    -0.051 A 
ATOM     39  C   LIG d   1       5.888   0.528  -2.957  0.00  0.00    -0.020 A 
ATOM     40  H   LIG d   1       7.315  -0.258  -4.335  0.00  0.00     0.062 H 
ATOM     41  C   LIG d   1       4.806   0.247  -2.131  0.00  0.00     0.117 A 
ATOM     42  H   LIG d   1       6.274   1.536  -3.016  0.00  0.00     0.065 H 
ATOM     43  C   LIG d   1       4.303  -1.046  -2.052  0.00  0.00    -0.020 A 
ATOM     44  C   LIG d   1       4.875  -2.056  -2.793  0.00  0.00    -0.051 A 
ATOM     45  H   LIG d   1       3.462  -1.259  -1.409  0.00  0.00     0.065 H 
ATOM     46  H   LIG d   1       4.484  -3.061  -2.730  0.00  0.00     0.062 H 
BRANCH  41  47
ATOM     47  O   LIG d   1       4.237   1.240  -1.400  0.00  0.00    -0.507 OA
ATOM     48  H   LIG d   1       3.335   1.460  -1.671  0.00  0.00     0.292 HD
ENDBRANCH  41  47
ENDBRANCH  35  37
BRANCH  30  49
ATOM     49  C   LIG d   1       5.876  -2.438  -6.753  0.00  0.00     0.356 C 
ATOM     50  O   LIG d   1       6.823  -2.141  -7.441  0.00  0.00    -0.246 OA
BRANCH  49  51
ATOM     51  O   LIG d   1       4.691  -1.838  -6.948  0.00  0.00    -0.465 OA
BRANCH  51  52
ATOM     52  C   LIG d   1       4.673  -0.410  -6.916  0.00  0.00     0.082 C 
ATOM     53  H   LIG d   1       5.548  -0.048  -6.375  0.00  0.00     0.066 H 
ATOM     54  H   LIG d   1       4.689  -0.022  -7.933  0.00  0.00     0.066 H 
ATOM     55  H   LIG d   1       3.768  -0.070  -6.411  0.00  0.00     0.066 H 
ENDBRANCH  51  52
ENDBRANCH  49  51
ENDBRANCH  30  49
ENDBRANCH   1  30
TORSDOF 12
ENDMDL
MODEL 2
REMARK VINA RESULT:      -5.8      3.859      5.498
REMARK  12 active torsions:
REMARK  status: ('A' for Active; 'I' for Inactive)
REMARK    1  A    between atoms: C_1  and  C_2 
REMARK    2  A    between atoms: C_2  and  C_33 
REMARK    3  A    between atoms: C_3  and  C_6 
REMARK    4  A    between atoms: C_6  and  C_7 
REMARK    5  A    between atoms: C_9  and  C_14 
REMARK    6  A    between atoms: C_12  and  O_13 
REMARK    7  A    between atoms: C_14  and  C_15 
REMARK    8  A    between atoms: C_15  and  C_29 
REMARK    9  A    between atoms: C_16  and  C_22 
REMARK   10  A    between atoms: C_25  and  O_28 
REMARK   11  A    between atoms: C_29  and  O_31 
REMARK   12  A    between atoms: O_31  and  C_32 
ROOT
ATOM      1  C   LIG d   1       3.493  -0.445  -7.489  0.00  0.00     0.028 C 
ATOM      2  H   LIG d   1       3.738   0.612  -7.380  0.00  0.00     0.036 H 
ATOM      3  H   LIG d   1       2.687  -0.704  -6.802  0.00  0.00     0.036 H 
ENDROOT
BRANCH   1   4
ATOM      4  C   LIG d   1       3.052  -0.715  -8.906  0.00  0.00    -0.042 A 
ATOM      5  C   LIG d   1       2.238  -1.798  -9.180  0.00  0.00    -0.052 A 
ATOM      6  C   LIG d   1       1.832  -2.047 -10.477  0.00  0.00    -0.003 A 
ATOM      7  H   LIG d   1       1.919  -2.450  -8.379  0.00  0.00     0.062 H 
ATOM      8  C   LIG d   1       2.247  -1.213 -11.505  0.00  0.00     0.120 A 
ATOM      9  C   LIG d   1       3.059  -0.124 -11.226  0.00  0.00    -0.020 A 
ATOM     10  C   LIG d   1       3.463   0.121  -9.927  0.00  0.00    -0.055 A 
ATOM     11  H   LIG d   1       3.379   0.530 -12.023  0.00  0.00     0.065 H 
ATOM     12  H   LIG d   1       4.097   0.967  -9.710  0.00  0.00     0.062 H 
BRANCH   6  13
ATOM     13  C   LIG d   1       0.944  -3.228 -10.775  0.00  0.00     0.005 C 
ATOM     14  H   LIG d   1       0.395  -3.045 -11.700  0.00  0.00     0.034 H 
ATOM     15  H   LIG d   1       0.240  -3.370  -9.956  0.00  0.00     0.034 H 
BRANCH  13  16
ATOM     16  C   LIG d   1       1.803  -4.484 -10.933  0.00  0.00     0.092 A 
ATOM     17  C   LIG d   1       1.149  -5.837 -10.641  0.00  0.00     0.091 A 
ATOM     18  O   LIG d   1       2.101  -5.241  -9.757  0.00  0.00    -0.365 OA
ATOM     19  H   LIG d   1       2.560  -4.445 -11.716  0.00  0.00     0.063 H 
BRANCH  17  20
ATOM     20  C   LIG d   1       1.602  -7.041 -11.469  0.00  0.00    -0.034 C 
ATOM     21  H   LIG d   1       2.656  -6.931 -11.724  0.00  0.00     0.026 H 
ATOM     22  H   LIG d   1       1.460  -7.954 -10.890  0.00  0.00     0.026 H 
ATOM     23  H   LIG d   1       1.011  -7.095 -12.384  0.00  0.00     0.026 H 
ENDBRANCH  17  20
BRANCH  17  24
ATOM     24  C   LIG d   1      -0.319  -5.842 -10.210  0.00  0.00    -0.034 C 
ATOM     25  H   LIG d   1      -0.852  -5.044 -10.726  0.00  0.00     0.026 H 
ATOM     26  H   LIG d   1      -0.768  -6.802 -10.463  0.00  0.00     0.026 H 
ATOM     27  H   LIG d   1      -0.382  -5.683  -9.134  0.00  0.00     0.026 H 
ENDBRANCH  17  24
ENDBRANCH  13  16
ENDBRANCH   6  13
BRANCH   8  28
ATOM     28  O   LIG d   1       1.853  -1.460 -12.782  0.00  0.00    -0.506 OA
ATOM     29  H   LIG d   1       2.035  -2.361 -13.082  0.00  0.00     0.292 HD
ENDBRANCH   8  28
ENDBRANCH   1   4
BRANCH   1  30
ATOM     30  C   LIG d   1       4.726  -1.291  -7.170  0.00  0.00     0.238 A 
ATOM     31  O   LIG d   1       4.740  -2.467  -7.985  0.00  0.00    -0.439 OA
ATOM     32  C   LIG d   1       4.699  -3.544  -7.179  0.00  0.00     0.326 A 
ATOM     33  C   LIG d   1       4.656  -3.119  -5.779  0.00  0.00    -0.013 A 
ATOM     34  O   LIG d   1       4.698  -4.700  -7.557  0.00  0.00    -0.246 OA
ATOM     35  C   LIG d   1       4.671  -1.766  -5.736  0.00  0.00     0.013 A 
ATOM     36  O   LIG d   1       4.609  -3.947  -4.701  0.00  0.00    -0.869 OA
BRANCH  35  37
ATOM     37  C   LIG d   1       4.640  -0.924  -4.531  0.00  0.00    -0.018 A 
ATOM     38  C   LIG d   1       5.818  -0.342  -4.051  0.00  0.00    -0.051 A 
ATOM     39  C   LIG d   1       5.782   0.450  -2.925  0.00  0.00    -0.020 A 
ATOM     40  H   LIG d   1       6.753  -0.510  -4.564  0.00  0.00     0.062 H 
ATOM     41  C   LIG d   1       4.581   0.662  -2.259  0.00  0.00     0.117 A 
ATOM     42  H   LIG d   1       6.690   0.904  -2.556  0.00  0.00     0.065 H 
ATOM     43  C   LIG d   1       3.409   0.081  -2.729  0.00  0.00    -0.020 A 
ATOM     44  C   LIG d   1       3.433  -0.707  -3.858  0.00  0.00    -0.051 A 
ATOM     45  H   LIG d   1       2.478   0.250  -2.209  0.00  0.00     0.065 H 
ATOM     46  H   LIG d   1       2.521  -1.158  -4.222  0.00  0.00     0.062 H 
BRANCH  41  47
ATOM     47  O   LIG d   1       4.551   1.440  -1.147  0.00  0.00    -0.507 OA
ATOM     48  H   LIG d   1       4.912   1.012  -0.358  0.00  0.00     0.292 HD
ENDBRANCH  41  47
ENDBRANCH  35  37
BRANCH  30  49
ATOM     49  C   LIG d   1       5.979  -0.487  -7.401  0.00  0.00     0.356 C 
ATOM     50  O   LIG d   1       7.039  -1.048  -7.547  0.00  0.00    -0.246 OA
BRANCH  49  51
ATOM     51  O   LIG d   1       5.919   0.854  -7.447  0.00  0.00    -0.465 OA
BRANCH  51  52
ATOM     52  C   LIG d   1       6.608   1.499  -8.518  0.00  0.00     0.082 C 
ATOM     53  H   LIG d   1       6.451   2.575  -8.455  0.00  0.00     0.066 H 
ATOM     54  H   LIG d   1       7.673   1.282  -8.450  0.00  0.00     0.066 H 
ATOM     55  H   LIG d   1       6.223   1.131  -9.470  0.00  0.00     0.066 H 
ENDBRANCH  51  52
ENDBRANCH  49  51
ENDBRANCH  30  49
ENDBRANCH   1  30
TORSDOF 12
ENDMDL
MODEL 3
REMARK VINA RESULT:      -5.8      9.439     15.026
REMARK  12 active torsions:
REMARK  status: ('A' for Active; 'I' for Inactive)
REMARK    1  A    between atoms: C_1  and  C_2 
REMARK    2  A    between atoms: C_2  and  C_33 
REMARK    3  A    between atoms: C_3  and  C_6 
REMARK    4  A    between atoms: C_6  and  C_7 
REMARK    5  A    between atoms: C_9  and  C_14 
REMARK    6  A    between atoms: C_12  and  O_13 
REMARK    7  A    between atoms: C_14  and  C_15 
REMARK    8  A    between atoms: C_15  and  C_29 
REMARK    9  A    between atoms: C_16  and  C_22 
REMARK   10  A    between atoms: C_25  and  O_28 
REMARK   11  A    between atoms: C_29  and  O_31 
REMARK   12  A    between atoms: O_31  and  C_32 
ROOT
ATOM      1  C   LIG d   1       9.760   5.973  -2.669  0.00  0.00     0.028 C 
ATOM      2  H   LIG d   1       9.110   5.153  -2.365  0.00  0.00     0.036 H 
ATOM      3  H   LIG d   1       9.185   6.695  -3.252  0.00  0.00     0.036 H 
ENDROOT
BRANCH   1   4
ATOM      4  C   LIG d   1      10.323   6.650  -1.446  0.00  0.00    -0.042 A 
ATOM      5  C   LIG d   1      10.559   8.012  -1.458  0.00  0.00    -0.052 A 
ATOM      6  C   LIG d   1      11.073   8.636  -0.337  0.00  0.00    -0.003 A 
ATOM      7  H   LIG d   1      10.340   8.590  -2.344  0.00  0.00     0.062 H 
ATOM      8  C   LIG d   1      11.359   7.892   0.798  0.00  0.00     0.120 A 
ATOM      9  C   LIG d   1      11.116   6.525   0.810  0.00  0.00    -0.020 A 
ATOM     10  C   LIG d   1      10.601   5.907  -0.313  0.00  0.00    -0.055 A 
ATOM     11  H   LIG d   1      11.333   5.945   1.694  0.00  0.00     0.065 H 
ATOM     12  H   LIG d   1      10.415   4.844  -0.306  0.00  0.00     0.062 H 
BRANCH   6  13
ATOM     13  C   LIG d   1      11.331  10.120  -0.351  0.00  0.00     0.005 C 
ATOM     14  H   LIG d   1      12.159  10.340  -1.026  0.00  0.00     0.034 H 
ATOM     15  H   LIG d   1      11.583  10.455   0.655  0.00  0.00     0.034 H 
BRANCH  13  16
ATOM     16  C   LIG d   1      10.075  10.851  -0.831  0.00  0.00     0.092 A 
ATOM     17  C   LIG d   1      10.108  11.488  -2.222  0.00  0.00     0.091 A 
ATOM     18  O   LIG d   1      10.157  12.264  -1.023  0.00  0.00    -0.365 OA
ATOM     19  H   LIG d   1       9.127  10.441  -0.482  0.00  0.00     0.063 H 
BRANCH  17  20
ATOM     20  C   LIG d   1       8.809  11.505  -3.029  0.00  0.00    -0.034 C 
ATOM     21  H   LIG d   1       8.094  12.176  -2.553  0.00  0.00     0.026 H 
ATOM     22  H   LIG d   1       9.014  11.852  -4.042  0.00  0.00     0.026 H 
ATOM     23  H   LIG d   1       8.392  10.499  -3.067  0.00  0.00     0.026 H 
ENDBRANCH  17  20
BRANCH  17  24
ATOM     24  C   LIG d   1      11.395  11.353  -3.038  0.00  0.00    -0.034 C 
ATOM     25  H   LIG d   1      11.921  10.447  -2.740  0.00  0.00     0.026 H 
ATOM     26  H   LIG d   1      11.148  11.298  -4.098  0.00  0.00     0.026 H 
ATOM     27  H   LIG d   1      12.032  12.218  -2.858  0.00  0.00     0.026 H 
ENDBRANCH  17  24
ENDBRANCH  13  16
ENDBRANCH   6  13
BRANCH   8  28
ATOM     28  O   LIG d   1      11.872   8.502   1.900  0.00  0.00    -0.506 OA
ATOM     29  H   LIG d   1      11.328   9.227   2.236  0.00  0.00     0.292 HD
ENDBRANCH   8  28
ENDBRANCH   1   4
BRANCH   1  30
ATOM     30  C   LIG d   1      10.906   5.428  -3.522  0.00  0.00     0.238 A 
ATOM     31  O   LIG d   1      12.022   5.094  -2.690  0.00  0.00    -0.439 OA
ATOM     32  C   LIG d   1      13.074   5.843  -3.068  0.00  0.00     0.326 A 
ATOM     33  C   LIG d   1      12.692   6.715  -4.180  0.00  0.00    -0.013 A 
ATOM     34  O   LIG d   1      14.178   5.803  -2.561  0.00  0.00    -0.246 OA
ATOM     35  C   LIG d   1      11.391   6.491  -4.480  0.00  0.00     0.013 A 
ATOM     36  O   LIG d   1      13.510   7.603  -4.807  0.00  0.00    -0.869 OA
BRANCH  35  37
ATOM     37  C   LIG d   1      10.605   7.152  -5.532  0.00  0.00    -0.018 A 
ATOM     38  C   LIG d   1      10.045   8.413  -5.303  0.00  0.00    -0.051 A 
ATOM     39  C   LIG d   1       9.314   9.030  -6.294  0.00  0.00    -0.020 A 
ATOM     40  H   LIG d   1      10.188   8.904  -4.352  0.00  0.00     0.062 H 
ATOM     41  C   LIG d   1       9.124   8.396  -7.516  0.00  0.00     0.117 A 
ATOM     42  H   LIG d   1       8.886  10.006  -6.121  0.00  0.00     0.065 H 
ATOM     43  C   LIG d   1       9.674   7.141  -7.747  0.00  0.00    -0.020 A 
ATOM     44  C   LIG d   1      10.411   6.519  -6.765  0.00  0.00    -0.051 A 
ATOM     45  H   LIG d   1       9.523   6.654  -8.699  0.00  0.00     0.065 H 
ATOM     46  H   LIG d   1      10.837   5.543  -6.945  0.00  0.00     0.062 H 
BRANCH  41  47
ATOM     47  O   LIG d   1       8.399   9.007  -8.489  0.00  0.00    -0.507 OA
ATOM     48  H   LIG d   1       8.929   9.325  -9.233  0.00  0.00     0.292 HD
ENDBRANCH  41  47
ENDBRANCH  35  37
BRANCH  30  49
ATOM     49  C   LIG d   1      10.449   4.212  -4.286  0.00  0.00     0.356 C 
ATOM     50  O   LIG d   1      11.236   3.590  -4.959  0.00  0.00    -0.246 OA
BRANCH  49  51
ATOM     51  O   LIG d   1       9.166   3.819  -4.219  0.00  0.00    -0.465 OA
BRANCH  51  52
ATOM     52  C   LIG d   1       8.917   2.497  -3.740  0.00  0.00     0.082 C 
ATOM     53  H   LIG d   1       9.500   1.784  -4.322  0.00  0.00     0.066 H 
ATOM     54  H   LIG d   1       9.203   2.430  -2.691  0.00  0.00     0.066 H 
ATOM     55  H   LIG d   1       7.855   2.268  -3.842  0.00  0.00     0.066 H 
ENDBRANCH  51  52
ENDBRANCH  49  51
ENDBRANCH  30  49
ENDBRANCH   1  30
TORSDOF 12
ENDMDL
MODEL 4
REMARK VINA RESULT:      -5.7      7.156     10.414
REMARK  12 active torsions:
REMARK  status: ('A' for Active; 'I' for Inactive)
REMARK    1  A    between atoms: C_1  and  C_2 
REMARK    2  A    between atoms: C_2  and  C_33 
REMARK    3  A    between atoms: C_3  and  C_6 
REMARK    4  A    between atoms: C_6  and  C_7 
REMARK    5  A    between atoms: C_9  and  C_14 
REMARK    6  A    between atoms: C_12  and  O_13 
REMARK    7  A    between atoms: C_14  and  C_15 
REMARK    8  A    between atoms: C_15  and  C_29 
REMARK    9  A    between atoms: C_16  and  C_22 
REMARK   10  A    between atoms: C_25  and  O_28 
REMARK   11  A    between atoms: C_29  and  O_31 
REMARK   12  A    between atoms: O_31  and  C_32 
ROOT
ATOM      1  C   LIG d   1       9.395   5.399  -4.614  0.00  0.00     0.028 C 
ATOM      2  H   LIG d   1       9.001   6.128  -5.322  0.00  0.00     0.036 H 
ATOM      3  H   LIG d   1       8.873   5.499  -3.661  0.00  0.00     0.036 H 
ENDROOT
BRANCH   1   4
ATOM      4  C   LIG d   1       9.188   4.008  -5.156  0.00  0.00    -0.042 A 
ATOM      5  C   LIG d   1       8.625   3.032  -4.355  0.00  0.00    -0.052 A 
ATOM      6  C   LIG d   1       8.433   1.756  -4.850  0.00  0.00    -0.003 A 
ATOM      7  H   LIG d   1       8.335   3.267  -3.341  0.00  0.00     0.062 H 
ATOM      8  C   LIG d   1       8.811   1.454  -6.150  0.00  0.00     0.120 A 
ATOM      9  C   LIG d   1       9.371   2.438  -6.954  0.00  0.00    -0.020 A 
ATOM     10  C   LIG d   1       9.561   3.711  -6.454  0.00  0.00    -0.055 A 
ATOM     11  H   LIG d   1       9.662   2.206  -7.968  0.00  0.00     0.065 H 
ATOM     12  H   LIG d   1       9.999   4.476  -7.078  0.00  0.00     0.062 H 
BRANCH   6  13
ATOM     13  C   LIG d   1       7.820   0.692  -3.977  0.00  0.00     0.005 C 
ATOM     14  H   LIG d   1       8.493   0.469  -3.149  0.00  0.00     0.034 H 
ATOM     15  H   LIG d   1       7.655  -0.210  -4.565  0.00  0.00     0.034 H 
BRANCH  13  16
ATOM     16  C   LIG d   1       6.483   1.194  -3.426  0.00  0.00     0.092 A 
ATOM     17  C   LIG d   1       5.478   0.150  -2.935  0.00  0.00     0.091 A 
ATOM     18  O   LIG d   1       5.297   0.870  -4.155  0.00  0.00    -0.365 OA
ATOM     19  H   LIG d   1       6.515   2.152  -2.908  0.00  0.00     0.063 H 
BRANCH  17  20
ATOM     20  C   LIG d   1       4.586   0.522  -1.748  0.00  0.00    -0.034 C 
ATOM     21  H   LIG d   1       4.024  -0.355  -1.427  0.00  0.00     0.026 H 
ATOM     22  H   LIG d   1       5.205   0.879  -0.926  0.00  0.00     0.026 H 
ATOM     23  H   LIG d   1       3.892   1.307  -2.049  0.00  0.00     0.026 H 
ENDBRANCH  17  20
BRANCH  17  24
ATOM     24  C   LIG d   1       5.876  -1.325  -3.028  0.00  0.00    -0.034 C 
ATOM     25  H   LIG d   1       6.869  -1.461  -2.600  0.00  0.00     0.026 H 
ATOM     26  H   LIG d   1       5.156  -1.930  -2.478  0.00  0.00     0.026 H 
ATOM     27  H   LIG d   1       5.887  -1.633  -4.073  0.00  0.00     0.026 H 
ENDBRANCH  17  24
ENDBRANCH  13  16
ENDBRANCH   6  13
BRANCH   8  28
ATOM     28  O   LIG d   1       8.629   0.198  -6.638  0.00  0.00    -0.506 OA
ATOM     29  H   LIG d   1       8.017   0.152  -7.384  0.00  0.00     0.292 HD
ENDBRANCH   8  28
ENDBRANCH   1   4
BRANCH   1  30
ATOM     30  C   LIG d   1      10.890   5.647  -4.404  0.00  0.00     0.238 A 
ATOM     31  O   LIG d   1      11.620   4.431  -4.592  0.00  0.00    -0.439 OA
ATOM     32  C   LIG d   1      12.257   4.135  -3.444  0.00  0.00     0.326 A 
ATOM     33  C   LIG d   1      11.970   5.156  -2.436  0.00  0.00    -0.013 A 
ATOM     34  O   LIG d   1      12.966   3.163  -3.269  0.00  0.00    -0.246 OA
ATOM     35  C   LIG d   1      11.148   6.085  -2.981  0.00  0.00     0.013 A 
ATOM     36  O   LIG d   1      12.450   5.171  -1.164  0.00  0.00    -0.869 OA
BRANCH  35  37
ATOM     37  C   LIG d   1      10.612   7.282  -2.318  0.00  0.00    -0.018 A 
ATOM     38  C   LIG d   1      11.294   8.501  -2.411  0.00  0.00    -0.051 A 
ATOM     39  C   LIG d   1      10.784   9.620  -1.793  0.00  0.00    -0.020 A 
ATOM     40  H   LIG d   1      12.216   8.563  -2.971  0.00  0.00     0.062 H 
ATOM     41  C   LIG d   1       9.602   9.540  -1.067  0.00  0.00     0.117 A 
ATOM     42  H   LIG d   1      11.307  10.563  -1.869  0.00  0.00     0.065 H 
ATOM     43  C   LIG d   1       8.924   8.331  -0.967  0.00  0.00    -0.020 A 
ATOM     44  C   LIG d   1       9.421   7.206  -1.587  0.00  0.00    -0.051 A 
ATOM     45  H   LIG d   1       8.004   8.274  -0.403  0.00  0.00     0.065 H 
ATOM     46  H   LIG d   1       8.894   6.267  -1.508  0.00  0.00     0.062 H 
BRANCH  41  47
ATOM     47  O   LIG d   1       9.106  10.646  -0.456  0.00  0.00    -0.507 OA
ATOM     48  H   LIG d   1       9.784  11.268  -0.159  0.00  0.00     0.292 HD
ENDBRANCH  41  47
ENDBRANCH  35  37
BRANCH  30  49
ATOM     49  C   LIG d   1      11.380   6.698  -5.366  0.00  0.00     0.356 C 
ATOM     50  O   LIG d   1      12.565   6.885  -5.505  0.00  0.00    -0.246 OA
BRANCH  49  51
ATOM     51  O   LIG d   1      10.499   7.427  -6.070  0.00  0.00    -0.465 OA
BRANCH  51  52
ATOM     52  C   LIG d   1      10.733   8.834  -6.142  0.00  0.00     0.082 C 
ATOM     53  H   LIG d   1      11.777   9.041  -5.909  0.00  0.00     0.066 H 
ATOM     54  H   LIG d   1      10.507   9.191  -7.146  0.00  0.00     0.066 H 
ATOM     55  H   LIG d   1      10.092   9.346  -5.423  0.00  0.00     0.066 H 
ENDBRANCH  51  52
ENDBRANCH  49  51
ENDBRANCH  30  49
ENDBRANCH   1  30
TORSDOF 12
ENDMDL
MODEL 5
REMARK VINA RESULT:      -5.6      4.184      7.082
REMARK  12 active torsions:
REMARK  status: ('A' for Active; 'I' for Inactive)
REMARK    1  A    between atoms: C_1  and  C_2 
REMARK    2  A    between atoms: C_2  and  C_33 
REMARK    3  A    between atoms: C_3  and  C_6 
REMARK    4  A    between atoms: C_6  and  C_7 
REMARK    5  A    between atoms: C_9  and  C_14 
REMARK    6  A    between atoms: C_12  and  O_13 
REMARK    7  A    between atoms: C_14  and  C_15 
REMARK    8  A    between atoms: C_15  and  C_29 
REMARK    9  A    between atoms: C_16  and  C_22 
REMARK   10  A    between atoms: C_25  and  O_28 
REMARK   11  A    between atoms: C_29  and  O_31 
REMARK   12  A    between atoms: O_31  and  C_32 
ROOT
ATOM      1  C   LIG d   1       3.991   0.229  -7.723  0.00  0.00     0.028 C 
ATOM      2  H   LIG d   1       4.455   1.207  -7.851  0.00  0.00     0.036 H 
ATOM      3  H   LIG d   1       3.259   0.276  -6.916  0.00  0.00     0.036 H 
ENDROOT
BRANCH   1   4
ATOM      4  C   LIG d   1       3.302  -0.173  -9.003  0.00  0.00    -0.042 A 
ATOM      5  C   LIG d   1       3.943   0.002 -10.215  0.00  0.00    -0.052 A 
ATOM      6  C   LIG d   1       3.315  -0.366 -11.389  0.00  0.00    -0.003 A 
ATOM      7  H   LIG d   1       4.937   0.427 -10.244  0.00  0.00     0.062 H 
ATOM      8  C   LIG d   1       2.038  -0.905 -11.351  0.00  0.00     0.120 A 
ATOM      9  C   LIG d   1       1.399  -1.084 -10.132  0.00  0.00    -0.020 A 
ATOM     10  C   LIG d   1       2.032  -0.715  -8.961  0.00  0.00    -0.055 A 
ATOM     11  H   LIG d   1       0.407  -1.509 -10.100  0.00  0.00     0.065 H 
ATOM     12  H   LIG d   1       1.534  -0.852  -8.013  0.00  0.00     0.062 H 
BRANCH   6  13
ATOM     13  C   LIG d   1       4.014  -0.175 -12.711  0.00  0.00     0.005 C 
ATOM     14  H   LIG d   1       4.689   0.679 -12.645  0.00  0.00     0.034 H 
ATOM     15  H   LIG d   1       3.275   0.005 -13.491  0.00  0.00     0.034 H 
BRANCH  13  16
ATOM     16  C   LIG d   1       4.817  -1.433 -13.049  0.00  0.00     0.092 A 
ATOM     17  C   LIG d   1       4.623  -2.051 -14.435  0.00  0.00     0.091 A 
ATOM     18  O   LIG d   1       4.096  -2.650 -13.250  0.00  0.00    -0.365 OA
ATOM     19  H   LIG d   1       5.807  -1.498 -12.597  0.00  0.00     0.063 H 
BRANCH  17  20
ATOM     20  C   LIG d   1       5.833  -2.718 -15.094  0.00  0.00    -0.034 C 
ATOM     21  H   LIG d   1       5.503  -3.300 -15.954  0.00  0.00     0.026 H 
ATOM     22  H   LIG d   1       6.537  -1.952 -15.421  0.00  0.00     0.026 H 
ATOM     23  H   LIG d   1       6.320  -3.376 -14.375  0.00  0.00     0.026 H 
ENDBRANCH  17  20
BRANCH  17  24
ATOM     24  C   LIG d   1       3.640  -1.370 -15.390  0.00  0.00    -0.034 C 
ATOM     25  H   LIG d   1       2.911  -2.099 -15.741  0.00  0.00     0.026 H 
ATOM     26  H   LIG d   1       3.125  -0.564 -14.866  0.00  0.00     0.026 H 
ATOM     27  H   LIG d   1       4.183  -0.961 -16.241  0.00  0.00     0.026 H 
ENDBRANCH  17  24
ENDBRANCH  13  16
ENDBRANCH   6  13
BRANCH   8  28
ATOM     28  O   LIG d   1       1.415  -1.262 -12.506  0.00  0.00    -0.506 OA
ATOM     29  H   LIG d   1       0.451  -1.291 -12.439  0.00  0.00     0.292 HD
ENDBRANCH   8  28
ENDBRANCH   1   4
BRANCH   1  30
ATOM     30  C   LIG d   1       5.064  -0.805  -7.377  0.00  0.00     0.238 A 
ATOM     31  O   LIG d   1       4.996  -1.907  -8.286  0.00  0.00    -0.439 OA
ATOM     32  C   LIG d   1       4.737  -3.024  -7.582  0.00  0.00     0.326 A 
ATOM     33  C   LIG d   1       4.621  -2.702  -6.159  0.00  0.00    -0.013 A 
ATOM     34  O   LIG d   1       4.616  -4.137  -8.057  0.00  0.00    -0.246 OA
ATOM     35  C   LIG d   1       4.812  -1.371  -5.998  0.00  0.00     0.013 A 
ATOM     36  O   LIG d   1       4.363  -3.592  -5.163  0.00  0.00    -0.869 OA
BRANCH  35  37
ATOM     37  C   LIG d   1       4.783  -0.625  -4.733  0.00  0.00    -0.018 A 
ATOM     38  C   LIG d   1       3.570  -0.141  -4.230  0.00  0.00    -0.051 A 
ATOM     39  C   LIG d   1       3.548   0.553  -3.041  0.00  0.00    -0.020 A 
ATOM     40  H   LIG d   1       2.652  -0.314  -4.773  0.00  0.00     0.062 H 
ATOM     41  C   LIG d   1       4.729   0.782  -2.345  0.00  0.00     0.117 A 
ATOM     42  H   LIG d   1       2.611   0.923  -2.649  0.00  0.00     0.065 H 
ATOM     43  C   LIG d   1       5.937   0.308  -2.842  0.00  0.00    -0.020 A 
ATOM     44  C   LIG d   1       5.969  -0.392  -4.027  0.00  0.00    -0.051 A 
ATOM     45  H   LIG d   1       6.852   0.488  -2.297  0.00  0.00     0.065 H 
ATOM     46  H   LIG d   1       6.909  -0.759  -4.413  0.00  0.00     0.062 H 
BRANCH  41  47
ATOM     47  O   LIG d   1       4.702   1.470  -1.175  0.00  0.00    -0.507 OA
ATOM     48  H   LIG d   1       4.723   0.909  -0.388  0.00  0.00     0.292 HD
ENDBRANCH  41  47
ENDBRANCH  35  37
BRANCH  30  49
ATOM     49  C   LIG d   1       6.430  -0.170  -7.435  0.00  0.00     0.356 C 
ATOM     50  O   LIG d   1       6.556   1.013  -7.226  0.00  0.00    -0.246 OA
BRANCH  49  51
ATOM     51  O   LIG d   1       7.508  -0.920  -7.717  0.00  0.00    -0.465 OA
BRANCH  51  52
ATOM     52  C   LIG d   1       8.452  -1.122  -6.665  0.00  0.00     0.082 C 
ATOM     53  H   LIG d   1       9.461  -0.975  -7.049  0.00  0.00     0.066 H 
ATOM     54  H   LIG d   1       8.261  -0.410  -5.863  0.00  0.00     0.066 H 
ATOM     55  H   LIG d   1       8.354  -2.138  -6.280  0.00  0.00     0.066 H 
ENDBRANCH  51  52
ENDBRANCH  49  51
ENDBRANCH  30  49
ENDBRANCH   1  30
TORSDOF 12
ENDMDL
MODEL 6
REMARK VINA RESULT:      -5.5      1.638      3.914
REMARK  12 active torsions:
REMARK  status: ('A' for Active; 'I' for Inactive)
REMARK    1  A    between atoms: C_1  and  C_2 
REMARK    2  A    between atoms: C_2  and  C_33 
REMARK    3  A    between atoms: C_3  and  C_6 
REMARK    4  A    between atoms: C_6  and  C_7 
REMARK    5  A    between atoms: C_9  and  C_14 
REMARK    6  A    between atoms: C_12  and  O_13 
REMARK    7  A    between atoms: C_14  and  C_15 
REMARK    8  A    between atoms: C_15  and  C_29 
REMARK    9  A    between atoms: C_16  and  C_22 
REMARK   10  A    between atoms: C_25  and  O_28 
REMARK   11  A    between atoms: C_29  and  O_31 
REMARK   12  A    between atoms: O_31  and  C_32 
ROOT
ATOM      1  C   LIG d   1       4.650  -4.191  -5.338  0.00  0.00     0.028 C 
ATOM      2  H   LIG d   1       3.838  -3.521  -5.622  0.00  0.00     0.036 H 
ATOM      3  H   LIG d   1       4.591  -4.401  -4.269  0.00  0.00     0.036 H 
ENDROOT
BRANCH   1   4
ATOM      4  C   LIG d   1       4.531  -5.479  -6.111  0.00  0.00    -0.042 A 
ATOM      5  C   LIG d   1       4.025  -5.468  -7.398  0.00  0.00    -0.052 A 
ATOM      6  C   LIG d   1       3.917  -6.647  -8.109  0.00  0.00    -0.003 A 
ATOM      7  H   LIG d   1       3.715  -4.535  -7.848  0.00  0.00     0.062 H 
ATOM      8  C   LIG d   1       4.310  -7.844  -7.529  0.00  0.00     0.120 A 
ATOM      9  C   LIG d   1       4.823  -7.852  -6.240  0.00  0.00    -0.020 A 
ATOM     10  C   LIG d   1       4.929  -6.670  -5.533  0.00  0.00    -0.055 A 
ATOM     11  H   LIG d   1       5.134  -8.782  -5.788  0.00  0.00     0.065 H 
ATOM     12  H   LIG d   1       5.325  -6.676  -4.528  0.00  0.00     0.062 H 
BRANCH   6  13
ATOM     13  C   LIG d   1       3.365  -6.634  -9.512  0.00  0.00     0.005 C 
ATOM     14  H   LIG d   1       2.724  -7.503  -9.658  0.00  0.00     0.034 H 
ATOM     15  H   LIG d   1       4.188  -6.664 -10.226  0.00  0.00     0.034 H 
BRANCH  13  16
ATOM     16  C   LIG d   1       2.550  -5.357  -9.727  0.00  0.00     0.092 A 
ATOM     17  C   LIG d   1       1.504  -5.359 -10.844  0.00  0.00     0.091 A 
ATOM     18  O   LIG d   1       2.737  -4.644 -10.951  0.00  0.00    -0.365 OA
ATOM     19  H   LIG d   1       2.334  -4.777  -8.830  0.00  0.00     0.063 H 
BRANCH  17  20
ATOM     20  C   LIG d   1       0.226  -4.547 -10.626  0.00  0.00    -0.034 C 
ATOM     21  H   LIG d   1      -0.572  -4.950 -11.250  0.00  0.00     0.026 H 
ATOM     22  H   LIG d   1      -0.068  -4.606  -9.578  0.00  0.00     0.026 H 
ATOM     23  H   LIG d   1       0.407  -3.506 -10.895  0.00  0.00     0.026 H 
ENDBRANCH  17  20
BRANCH  17  24
ATOM     24  C   LIG d   1       1.346  -6.636 -11.672  0.00  0.00    -0.034 C 
ATOM     25  H   LIG d   1       0.708  -6.434 -12.532  0.00  0.00     0.026 H 
ATOM     26  H   LIG d   1       2.325  -6.969 -12.015  0.00  0.00     0.026 H 
ATOM     27  H   LIG d   1       0.892  -7.413 -11.058  0.00  0.00     0.026 H 
ENDBRANCH  17  24
ENDBRANCH  13  16
ENDBRANCH   6  13
BRANCH   8  28
ATOM     28  O   LIG d   1       4.198  -9.006  -8.225  0.00  0.00    -0.506 OA
ATOM     29  H   LIG d   1       4.739  -9.039  -9.025  0.00  0.00     0.292 HD
ENDBRANCH   8  28
ENDBRANCH   1   4
BRANCH   1  30
ATOM     30  C   LIG d   1       5.992  -3.529  -5.654  0.00  0.00     0.238 A 
ATOM     31  O   LIG d   1       6.944  -4.517  -6.058  0.00  0.00    -0.439 OA
ATOM     32  C   LIG d   1       7.973  -4.498  -5.190  0.00  0.00     0.326 A 
ATOM     33  C   LIG d   1       7.740  -3.483  -4.162  0.00  0.00    -0.013 A 
ATOM     34  O   LIG d   1       8.951  -5.218  -5.250  0.00  0.00    -0.246 OA
ATOM     35  C   LIG d   1       6.553  -2.878  -4.410  0.00  0.00     0.013 A 
ATOM     36  O   LIG d   1       8.576  -3.194  -3.130  0.00  0.00    -0.869 OA
BRANCH  35  37
ATOM     37  C   LIG d   1       5.935  -1.800  -3.626  0.00  0.00    -0.018 A 
ATOM     38  C   LIG d   1       4.845  -2.074  -2.792  0.00  0.00    -0.051 A 
ATOM     39  C   LIG d   1       4.274  -1.061  -2.055  0.00  0.00    -0.020 A 
ATOM     40  H   LIG d   1       4.456  -3.079  -2.724  0.00  0.00     0.062 H 
ATOM     41  C   LIG d   1       4.770   0.234  -2.147  0.00  0.00     0.117 A 
ATOM     42  H   LIG d   1       3.435  -1.272  -1.407  0.00  0.00     0.065 H 
ATOM     43  C   LIG d   1       5.849   0.512  -2.977  0.00  0.00    -0.020 A 
ATOM     44  C   LIG d   1       6.432  -0.494  -3.714  0.00  0.00    -0.051 A 
ATOM     45  H   LIG d   1       6.232   1.520  -3.044  0.00  0.00     0.065 H 
ATOM     46  H   LIG d   1       7.270  -0.277  -4.360  0.00  0.00     0.062 H 
BRANCH  41  47
ATOM     47  O   LIG d   1       4.200   1.230  -1.421  0.00  0.00    -0.507 OA
ATOM     48  H   LIG d   1       4.719   2.046  -1.399  0.00  0.00     0.292 HD
ENDBRANCH  41  47
ENDBRANCH  35  37
BRANCH  30  49
ATOM     49  C   LIG d   1       5.819  -2.502  -6.743  0.00  0.00     0.356 C 
ATOM     50  O   LIG d   1       6.750  -2.215  -7.457  0.00  0.00    -0.246 OA
BRANCH  49  51
ATOM     51  O   LIG d   1       4.629  -1.906  -6.921  0.00  0.00    -0.465 OA
BRANCH  51  52
ATOM     52  C   LIG d   1       4.112  -1.874  -8.252  0.00  0.00     0.082 C 
ATOM     53  H   LIG d   1       4.935  -1.940  -8.963  0.00  0.00     0.066 H 
ATOM     54  H   LIG d   1       3.435  -2.714  -8.400  0.00  0.00     0.066 H 
ATOM     55  H   LIG d   1       3.571  -0.940  -8.409  0.00  0.00     0.066 H 
ENDBRANCH  51  52
ENDBRANCH  49  51
ENDBRANCH  30  49
ENDBRANCH   1  30
TORSDOF 12
ENDMDL
MODEL 7
REMARK VINA RESULT:      -5.5      4.524     10.120
REMARK  12 active torsions:
REMARK  status: ('A' for Active; 'I' for Inactive)
REMARK    1  A    between atoms: C_1  and  C_2 
REMARK    2  A    between atoms: C_2  and  C_33 
REMARK    3  A    between atoms: C_3  and  C_6 
REMARK    4  A    between atoms: C_6  and  C_7 
REMARK    5  A    between atoms: C_9  and  C_14 
REMARK    6  A    between atoms: C_12  and  O_13 
REMARK    7  A    between atoms: C_14  and  C_15 
REMARK    8  A    between atoms: C_15  and  C_29 
REMARK    9  A    between atoms: C_16  and  C_22 
REMARK   10  A    between atoms: C_25  and  O_28 
REMARK   11  A    between atoms: C_29  and  O_31 
REMARK   12  A    between atoms: O_31  and  C_32 
ROOT
ATOM      1  C   LIG d   1       8.671   0.218  -4.890  0.00  0.00     0.028 C 
ATOM      2  H   LIG d   1       9.090  -0.319  -5.741  0.00  0.00     0.036 H 
ATOM      3  H   LIG d   1       9.066  -0.203  -3.964  0.00  0.00     0.036 H 
ENDROOT
BRANCH   1   4
ATOM      4  C   LIG d   1       9.049   1.675  -4.979  0.00  0.00    -0.042 A 
ATOM      5  C   LIG d   1       9.270   2.403  -3.825  0.00  0.00    -0.052 A 
ATOM      6  C   LIG d   1       9.617   3.737  -3.903  0.00  0.00    -0.003 A 
ATOM      7  H   LIG d   1       9.172   1.926  -2.859  0.00  0.00     0.062 H 
ATOM      8  C   LIG d   1       9.738   4.349  -5.143  0.00  0.00     0.120 A 
ATOM      9  C   LIG d   1       9.520   3.615  -6.300  0.00  0.00    -0.020 A 
ATOM     10  C   LIG d   1       9.174   2.280  -6.216  0.00  0.00    -0.055 A 
ATOM     11  H   LIG d   1       9.619   4.088  -7.266  0.00  0.00     0.065 H 
ATOM     12  H   LIG d   1       9.002   1.710  -7.116  0.00  0.00     0.062 H 
BRANCH   6  13
ATOM     13  C   LIG d   1       9.858   4.530  -2.645  0.00  0.00     0.005 C 
ATOM     14  H   LIG d   1       9.390   4.023  -1.800  0.00  0.00     0.034 H 
ATOM     15  H   LIG d   1       9.429   5.526  -2.754  0.00  0.00     0.034 H 
BRANCH  13  16
ATOM     16  C   LIG d   1      11.363   4.648  -2.397  0.00  0.00     0.092 A 
ATOM     17  C   LIG d   1      11.858   5.833  -1.564  0.00  0.00     0.091 A 
ATOM     18  O   LIG d   1      12.050   5.759  -2.978  0.00  0.00    -0.365 OA
ATOM     19  H   LIG d   1      11.904   3.706  -2.312  0.00  0.00     0.063 H 
BRANCH  17  20
ATOM     20  C   LIG d   1      13.078   5.613  -0.667  0.00  0.00    -0.034 C 
ATOM     21  H   LIG d   1      12.937   4.706  -0.078  0.00  0.00     0.026 H 
ATOM     22  H   LIG d   1      13.970   5.511  -1.285  0.00  0.00     0.026 H 
ATOM     23  H   LIG d   1      13.194   6.466   0.002  0.00  0.00     0.026 H 
ENDBRANCH  17  20
BRANCH  17  24
ATOM     24  C   LIG d   1      10.815   6.820  -1.036  0.00  0.00    -0.034 C 
ATOM     25  H   LIG d   1       9.839   6.575  -1.454  0.00  0.00     0.026 H 
ATOM     26  H   LIG d   1      10.772   6.754   0.051  0.00  0.00     0.026 H 
ATOM     27  H   LIG d   1      11.091   7.832  -1.329  0.00  0.00     0.026 H 
ENDBRANCH  17  24
ENDBRANCH  13  16
ENDBRANCH   6  13
BRANCH   8  28
ATOM     28  O   LIG d   1      10.073   5.664  -5.223  0.00  0.00    -0.506 OA
ATOM     29  H   LIG d   1      11.017   5.836  -5.106  0.00  0.00     0.292 HD
ENDBRANCH   8  28
ENDBRANCH   1   4
BRANCH   1  30
ATOM     30  C   LIG d   1       7.148   0.085  -4.902  0.00  0.00     0.238 A 
ATOM     31  O   LIG d   1       6.551   1.211  -4.251  0.00  0.00    -0.439 OA
ATOM     32  C   LIG d   1       5.847   0.768  -3.193  0.00  0.00     0.326 A 
ATOM     33  C   LIG d   1       5.951  -0.688  -3.099  0.00  0.00    -0.013 A 
ATOM     34  O   LIG d   1       5.218   1.474  -2.428  0.00  0.00    -0.246 OA
ATOM     35  C   LIG d   1       6.728  -1.135  -4.114  0.00  0.00     0.013 A 
ATOM     36  O   LIG d   1       5.363  -1.465  -2.150  0.00  0.00    -0.869 OA
BRANCH  35  37
ATOM     37  C   LIG d   1       7.092  -2.531  -4.395  0.00  0.00    -0.018 A 
ATOM     38  C   LIG d   1       6.261  -3.327  -5.191  0.00  0.00    -0.051 A 
ATOM     39  C   LIG d   1       6.609  -4.632  -5.455  0.00  0.00    -0.020 A 
ATOM     40  H   LIG d   1       5.350  -2.916  -5.601  0.00  0.00     0.062 H 
ATOM     41  C   LIG d   1       7.778  -5.163  -4.923  0.00  0.00     0.117 A 
ATOM     42  H   LIG d   1       5.971  -5.247  -6.074  0.00  0.00     0.065 H 
ATOM     43  C   LIG d   1       8.604  -4.379  -4.128  0.00  0.00    -0.020 A 
ATOM     44  C   LIG d   1       8.268  -3.070  -3.862  0.00  0.00    -0.051 A 
ATOM     45  H   LIG d   1       9.512  -4.796  -3.717  0.00  0.00     0.065 H 
ATOM     46  H   LIG d   1       8.911  -2.462  -3.243  0.00  0.00     0.062 H 
BRANCH  41  47
ATOM     47  O   LIG d   1       8.115  -6.453  -5.183  0.00  0.00    -0.507 OA
ATOM     48  H   LIG d   1       8.704  -6.846  -4.524  0.00  0.00     0.292 HD
ENDBRANCH  41  47
ENDBRANCH  35  37
BRANCH  30  49
ATOM     49  C   LIG d   1       6.649  -0.017  -6.320  0.00  0.00     0.356 C 
ATOM     50  O   LIG d   1       5.551   0.397  -6.605  0.00  0.00    -0.246 OA
BRANCH  49  51
ATOM     51  O   LIG d   1       7.425  -0.568  -7.267  0.00  0.00    -0.465 OA
BRANCH  51  52
ATOM     52  C   LIG d   1       7.312  -0.037  -8.588  0.00  0.00     0.082 C 
ATOM     53  H   LIG d   1       7.779   0.947  -8.626  0.00  0.00     0.066 H 
ATOM     54  H   LIG d   1       7.810  -0.702  -9.292  0.00  0.00     0.066 H 
ATOM     55  H   LIG d   1       6.258   0.051  -8.855  0.00  0.00     0.066 H 
ENDBRANCH  51  52
ENDBRANCH  49  51
ENDBRANCH  30  49
ENDBRANCH   1  30
TORSDOF 12
ENDMDL
MODEL 8
REMARK VINA RESULT:      -5.5      4.031      9.472
REMARK  12 active torsions:
REMARK  status: ('A' for Active; 'I' for Inactive)
REMARK    1  A    between atoms: C_1  and  C_2 
REMARK    2  A    between atoms: C_2  and  C_33 
REMARK    3  A    between atoms: C_3  and  C_6 
REMARK    4  A    between atoms: C_6  and  C_7 
REMARK    5  A    between atoms: C_9  and  C_14 
REMARK    6  A    between atoms: C_12  and  O_13 
REMARK    7  A    between atoms: C_14  and  C_15 
REMARK    8  A    between atoms: C_15  and  C_29 
REMARK    9  A    between atoms: C_16  and  C_22 
REMARK   10  A    between atoms: C_25  and  O_28 
REMARK   11  A    between atoms: C_29  and  O_31 
REMARK   12  A    between atoms: O_31  and  C_32 
ROOT
ATOM      1  C   LIG d   1       8.010  -0.141  -5.116  0.00  0.00     0.028 C 
ATOM      2  H   LIG d   1       8.233  -0.547  -6.102  0.00  0.00     0.036 H 
ATOM      3  H   LIG d   1       8.464  -0.773  -4.351  0.00  0.00     0.036 H 
ENDROOT
BRANCH   1   4
ATOM      4  C   LIG d   1       8.566   1.256  -5.009  0.00  0.00    -0.042 A 
ATOM      5  C   LIG d   1       8.806   1.992  -6.154  0.00  0.00    -0.052 A 
ATOM      6  C   LIG d   1       9.314   3.273  -6.060  0.00  0.00    -0.003 A 
ATOM      7  H   LIG d   1       8.594   1.566  -7.125  0.00  0.00     0.062 H 
ATOM      8  C   LIG d   1       9.591   3.818  -4.814  0.00  0.00     0.120 A 
ATOM      9  C   LIG d   1       9.344   3.078  -3.666  0.00  0.00    -0.020 A 
ATOM     10  C   LIG d   1       8.835   1.798  -3.766  0.00  0.00    -0.055 A 
ATOM     11  H   LIG d   1       9.553   3.502  -2.695  0.00  0.00     0.065 H 
ATOM     12  H   LIG d   1       8.646   1.221  -2.873  0.00  0.00     0.062 H 
BRANCH   6  13
ATOM     13  C   LIG d   1       9.575   4.076  -7.308  0.00  0.00     0.005 C 
ATOM     14  H   LIG d   1      10.595   4.462  -7.285  0.00  0.00     0.034 H 
ATOM     15  H   LIG d   1       8.873   4.907  -7.360  0.00  0.00     0.034 H 
BRANCH  13  16
ATOM     16  C   LIG d   1       9.397   3.180  -8.536  0.00  0.00     0.092 A 
ATOM     17  C   LIG d   1       9.536   3.826  -9.916  0.00  0.00     0.091 A 
ATOM     18  O   LIG d   1       8.273   3.425  -9.383  0.00  0.00    -0.365 OA
ATOM     19  H   LIG d   1       9.731   2.149  -8.422  0.00  0.00     0.063 H 
BRANCH  17  20
ATOM     20  C   LIG d   1      10.136   2.981 -11.042  0.00  0.00    -0.034 C 
ATOM     21  H   LIG d   1      11.222   2.974 -10.951  0.00  0.00     0.026 H 
ATOM     22  H   LIG d   1       9.758   1.961 -10.971  0.00  0.00     0.026 H 
ATOM     23  H   LIG d   1       9.855   3.408 -12.004  0.00  0.00     0.026 H 
ENDBRANCH  17  20
BRANCH  17  24
ATOM     24  C   LIG d   1       9.843   5.325  -9.975  0.00  0.00    -0.034 C 
ATOM     25  H   LIG d   1      10.652   5.557  -9.284  0.00  0.00     0.026 H 
ATOM     26  H   LIG d   1      10.141   5.593 -10.989  0.00  0.00     0.026 H 
ATOM     27  H   LIG d   1       8.954   5.889  -9.696  0.00  0.00     0.026 H 
ENDBRANCH  17  24
ENDBRANCH  13  16
ENDBRANCH   6  13
BRANCH   8  28
ATOM     28  O   LIG d   1      10.097   5.075  -4.718  0.00  0.00    -0.506 OA
ATOM     29  H   LIG d   1      10.326   5.473  -5.570  0.00  0.00     0.292 HD
ENDBRANCH   8  28
ENDBRANCH   1   4
BRANCH   1  30
ATOM     30  C   LIG d   1       6.494  -0.103  -4.910  0.00  0.00     0.238 A 
ATOM     31  O   LIG d   1       6.136   1.024  -4.105  0.00  0.00    -0.439 OA
ATOM     32  C   LIG d   1       5.538   0.575  -2.986  0.00  0.00     0.326 A 
ATOM     33  C   LIG d   1       5.475  -0.887  -3.006  0.00  0.00    -0.013 A 
ATOM     34  O   LIG d   1       5.112   1.279  -2.091  0.00  0.00    -0.246 OA
ATOM     35  C   LIG d   1       6.044  -1.330  -4.152  0.00  0.00     0.013 A 
ATOM     36  O   LIG d   1       4.935  -1.670  -2.034  0.00  0.00    -0.869 OA
BRANCH  35  37
ATOM     37  C   LIG d   1       6.191  -2.730  -4.576  0.00  0.00    -0.018 A 
ATOM     38  C   LIG d   1       5.093  -3.429  -5.089  0.00  0.00    -0.051 A 
ATOM     39  C   LIG d   1       5.239  -4.738  -5.489  0.00  0.00    -0.020 A 
ATOM     40  H   LIG d   1       4.133  -2.941  -5.174  0.00  0.00     0.062 H 
ATOM     41  C   LIG d   1       6.472  -5.369  -5.374  0.00  0.00     0.117 A 
ATOM     42  H   LIG d   1       4.393  -5.277  -5.890  0.00  0.00     0.065 H 
ATOM     43  C   LIG d   1       7.565  -4.681  -4.861  0.00  0.00    -0.020 A 
ATOM     44  C   LIG d   1       7.431  -3.370  -4.463  0.00  0.00    -0.051 A 
ATOM     45  H   LIG d   1       8.521  -5.176  -4.775  0.00  0.00     0.065 H 
ATOM     46  H   LIG d   1       8.281  -2.836  -4.064  0.00  0.00     0.062 H 
BRANCH  41  47
ATOM     47  O   LIG d   1       6.610  -6.662  -5.767  0.00  0.00    -0.507 OA
ATOM     48  H   LIG d   1       6.626  -7.295  -5.036  0.00  0.00     0.292 HD
ENDBRANCH  41  47
ENDBRANCH  35  37
BRANCH  30  49
ATOM     49  C   LIG d   1       5.794  -0.031  -6.243  0.00  0.00     0.356 C 
ATOM     50  O   LIG d   1       6.398  -0.285  -7.258  0.00  0.00    -0.246 OA
BRANCH  49  51
ATOM     51  O   LIG d   1       4.499   0.317  -6.303  0.00  0.00    -0.465 OA
BRANCH  51  52
ATOM     52  C   LIG d   1       3.656  -0.466  -7.150  0.00  0.00     0.082 C 
ATOM     53  H   LIG d   1       4.266  -1.157  -7.731  0.00  0.00     0.066 H 
ATOM     54  H   LIG d   1       2.949  -1.029  -6.541  0.00  0.00     0.066 H 
ATOM     55  H   LIG d   1       3.109   0.192  -7.826  0.00  0.00     0.066 H 
ENDBRANCH  51  52
ENDBRANCH  49  51
ENDBRANCH  30  49
ENDBRANCH   1  30
TORSDOF 12
ENDMDL
MODEL 9
REMARK VINA RESULT:      -5.4      2.202      7.723
REMARK  12 active torsions:
REMARK  status: ('A' for Active; 'I' for Inactive)
REMARK    1  A    between atoms: C_1  and  C_2 
REMARK    2  A    between atoms: C_2  and  C_33 
REMARK    3  A    between atoms: C_3  and  C_6 
REMARK    4  A    between atoms: C_6  and  C_7 
REMARK    5  A    between atoms: C_9  and  C_14 
REMARK    6  A    between atoms: C_12  and  O_13 
REMARK    7  A    between atoms: C_14  and  C_15 
REMARK    8  A    between atoms: C_15  and  C_29 
REMARK    9  A    between atoms: C_16  and  C_22 
REMARK   10  A    between atoms: C_25  and  O_28 
REMARK   11  A    between atoms: C_29  and  O_31 
REMARK   12  A    between atoms: O_31  and  C_32 
ROOT
ATOM      1  C   LIG d   1       6.058  -2.540  -3.631  0.00  0.00     0.028 C 
ATOM      2  H   LIG d   1       6.518  -2.693  -2.655  0.00  0.00     0.036 H 
ATOM      3  H   LIG d   1       5.372  -3.361  -3.842  0.00  0.00     0.036 H 
ENDROOT
BRANCH   1   4
ATOM      4  C   LIG d   1       5.299  -1.238  -3.631  0.00  0.00    -0.042 A 
ATOM      5  C   LIG d   1       4.386  -0.972  -4.635  0.00  0.00    -0.052 A 
ATOM      6  C   LIG d   1       3.687   0.219  -4.636  0.00  0.00    -0.003 A 
ATOM      7  H   LIG d   1       4.218  -1.698  -5.418  0.00  0.00     0.062 H 
ATOM      8  C   LIG d   1       3.907   1.152  -3.634  0.00  0.00     0.120 A 
ATOM      9  C   LIG d   1       4.820   0.881  -2.625  0.00  0.00    -0.020 A 
ATOM     10  C   LIG d   1       5.516  -0.313  -2.627  0.00  0.00    -0.055 A 
ATOM     11  H   LIG d   1       4.990   1.603  -1.840  0.00  0.00     0.065 H 
ATOM     12  H   LIG d   1       6.229  -0.523  -1.844  0.00  0.00     0.062 H 
BRANCH   6  13
ATOM     13  C   LIG d   1       2.692   0.509  -5.730  0.00  0.00     0.005 C 
ATOM     14  H   LIG d   1       2.660   1.583  -5.918  0.00  0.00     0.034 H 
ATOM     15  H   LIG d   1       1.704   0.164  -5.425  0.00  0.00     0.034 H 
BRANCH  13  16
ATOM     16  C   LIG d   1       3.113  -0.219  -7.008  0.00  0.00     0.092 A 
ATOM     17  C   LIG d   1       3.188   0.596  -8.301  0.00  0.00     0.091 A 
ATOM     18  O   LIG d   1       2.146  -0.349  -8.052  0.00  0.00    -0.365 OA
ATOM     19  H   LIG d   1       3.830  -1.030  -6.877  0.00  0.00     0.063 H 
BRANCH  17  20
ATOM     20  C   LIG d   1       4.264   0.218  -9.321  0.00  0.00    -0.034 C 
ATOM     21  H   LIG d   1       4.261   0.941 -10.137  0.00  0.00     0.026 H 
ATOM     22  H   LIG d   1       5.241   0.221  -8.837  0.00  0.00     0.026 H 
ATOM     23  H   LIG d   1       4.056  -0.776  -9.716  0.00  0.00     0.026 H 
ENDBRANCH  17  20
BRANCH  17  24
ATOM     24  C   LIG d   1       2.835   2.083  -8.230  0.00  0.00    -0.034 C 
ATOM     25  H   LIG d   1       2.598   2.449  -9.228  0.00  0.00     0.026 H 
ATOM     26  H   LIG d   1       1.971   2.220  -7.578  0.00  0.00     0.026 H 
ATOM     27  H   LIG d   1       3.683   2.639  -7.831  0.00  0.00     0.026 H 
ENDBRANCH  17  24
ENDBRANCH  13  16
ENDBRANCH   6  13
BRANCH   8  28
ATOM     28  O   LIG d   1       3.226   2.329  -3.637  0.00  0.00    -0.506 OA
ATOM     29  H   LIG d   1       3.758   3.092  -3.375  0.00  0.00     0.292 HD
ENDBRANCH   8  28
ENDBRANCH   1   4
BRANCH   1  30
ATOM     30  C   LIG d   1       7.145  -2.496  -4.706  0.00  0.00     0.238 A 
ATOM     31  O   LIG d   1       7.265  -1.169  -5.229  0.00  0.00    -0.439 OA
ATOM     32  C   LIG d   1       6.993  -1.205  -6.547  0.00  0.00     0.326 A 
ATOM     33  C   LIG d   1       6.678  -2.574  -6.954  0.00  0.00    -0.013 A 
ATOM     34  O   LIG d   1       7.007  -0.242  -7.289  0.00  0.00    -0.246 OA
ATOM     35  C   LIG d   1       6.760  -3.380  -5.869  0.00  0.00     0.013 A 
ATOM     36  O   LIG d   1       6.357  -2.972  -8.215  0.00  0.00    -0.869 OA
BRANCH  35  37
ATOM     37  C   LIG d   1       6.522  -4.830  -5.831  0.00  0.00    -0.018 A 
ATOM     38  C   LIG d   1       7.581  -5.722  -6.032  0.00  0.00    -0.051 A 
ATOM     39  C   LIG d   1       7.353  -7.079  -5.990  0.00  0.00    -0.020 A 
ATOM     40  H   LIG d   1       8.577  -5.346  -6.217  0.00  0.00     0.062 H 
ATOM     41  C   LIG d   1       6.072  -7.564  -5.758  0.00  0.00     0.117 A 
ATOM     42  H   LIG d   1       8.172  -7.769  -6.140  0.00  0.00     0.065 H 
ATOM     43  C   LIG d   1       5.015  -6.683  -5.563  0.00  0.00    -0.020 A 
ATOM     44  C   LIG d   1       5.233  -5.324  -5.597  0.00  0.00    -0.051 A 
ATOM     45  H   LIG d   1       4.021  -7.065  -5.382  0.00  0.00     0.065 H 
ATOM     46  H   LIG d   1       4.411  -4.640  -5.446  0.00  0.00     0.062 H 
BRANCH  41  47
ATOM     47  O   LIG d   1       5.851  -8.903  -5.722  0.00  0.00    -0.507 OA
ATOM     48  H   LIG d   1       4.920  -9.151  -5.801  0.00  0.00     0.292 HD
ENDBRANCH  41  47
ENDBRANCH  35  37
BRANCH  30  49
ATOM     49  C   LIG d   1       8.463  -2.944  -4.128  0.00  0.00     0.356 C 
ATOM     50  O   LIG d   1       8.483  -3.682  -3.171  0.00  0.00    -0.246 OA
BRANCH  49  51
ATOM     51  O   LIG d   1       9.615  -2.525  -4.675  0.00  0.00    -0.465 OA
BRANCH  51  52
ATOM     52  C   LIG d   1      10.405  -3.503  -5.352  0.00  0.00     0.082 C 
ATOM     53  H   LIG d   1      10.891  -3.044  -6.213  0.00  0.00     0.066 H 
ATOM     54  H   LIG d   1      11.163  -3.893  -4.673  0.00  0.00     0.066 H 
ATOM     55  H   LIG d   1       9.765  -4.318  -5.689  0.00  0.00     0.066 H 
ENDBRANCH  51  52
ENDBRANCH  49  51
ENDBRANCH  30  49
ENDBRANCH   1  30
TORSDOF 12
ENDMDL
