MODEL 1
REMARK VINA RESULT:      -6.1      0.000      0.000
REMARK  5 active torsions:
REMARK  status: ('A' for Active; 'I' for Inactive)
REMARK    1  A    between atoms: C_1  and  C_2 
REMARK    2  A    between atoms: C_2  and  C_3 
REMARK    3  A    between atoms: C_3  and  C_18 
REMARK    4  A    between atoms: N_8  and  C_11 
REMARK    5  A    between atoms: C_18  and  C_19 
ROOT
ATOM      1  C   LIG d   1       4.701  -0.195  -3.867  0.00  0.00     0.073 A 
ATOM      2  C   LIG d   1       6.176  -0.428  -4.131  0.00  0.00    -0.027 A 
ATOM      3  O   LIG d   1       7.054  -0.521  -3.120  0.00  0.00    -0.864 OA
ATOM      4  N   LIG d   1       6.566  -0.535  -5.375  0.00  0.00    -0.182 NA
ATOM      5  C   LIG d   1       5.719  -0.449  -6.406  0.00  0.00     0.336 A 
ATOM      6  N   LIG d   1       4.400  -0.246  -6.297  0.00  0.00    -0.192 N 
ATOM      7  C   LIG d   1       3.807  -0.108  -5.091  0.00  0.00     0.238 A 
ATOM      8  O   LIG d   1       2.613   0.075  -4.990  0.00  0.00    -0.274 OA
ATOM      9  O   LIG d   1       6.182  -0.563  -7.526  0.00  0.00    -0.250 OA
ENDROOT
BRANCH   1  10
ATOM     10  C   LIG d   1       4.558   1.109  -3.080  0.00  0.00    -0.038 C 
ATOM     11  H   LIG d   1       3.658   1.632  -3.404  0.00  0.00     0.028 H 
ATOM     12  H   LIG d   1       5.429   1.739  -3.258  0.00  0.00     0.028 H 
BRANCH  10  13
ATOM     13  C   LIG d   1       4.453   0.794  -1.586  0.00  0.00    -0.064 C 
ATOM     14  H   LIG d   1       3.461   0.402  -1.366  0.00  0.00     0.023 H 
ATOM     15  H   LIG d   1       5.205   0.052  -1.318  0.00  0.00     0.023 H 
ATOM     16  H   LIG d   1       4.621   1.705  -1.010  0.00  0.00     0.023 H 
ENDBRANCH  10  13
ENDBRANCH   1  10
BRANCH   1  17
ATOM     17  C   LIG d   1       4.192  -1.337  -2.987  0.00  0.00    -0.038 C 
ATOM     18  H   LIG d   1       4.703  -1.309  -2.023  0.00  0.00     0.028 H 
ATOM     19  H   LIG d   1       3.119  -1.228  -2.831  0.00  0.00     0.028 H 
BRANCH  17  20
ATOM     20  C   LIG d   1       4.474  -2.675  -3.672  0.00  0.00    -0.064 C 
ATOM     21  H   LIG d   1       5.230  -3.222  -3.108  0.00  0.00     0.023 H 
ATOM     22  H   LIG d   1       3.558  -3.262  -3.714  0.00  0.00     0.023 H 
ATOM     23  H   LIG d   1       4.837  -2.495  -4.685  0.00  0.00     0.023 H 
ENDBRANCH  17  20
ENDBRANCH   1  17
BRANCH   6  24
ATOM     24  C   LIG d   1       3.620  -0.174  -7.458  0.00  0.00     0.045 A 
ATOM     25  C   LIG d   1       3.201  -1.338  -8.090  0.00  0.00    -0.040 A 
ATOM     26  C   LIG d   1       2.428  -1.262  -9.231  0.00  0.00    -0.060 A 
ATOM     27  H   LIG d   1       3.476  -2.300  -7.685  0.00  0.00     0.064 H 
ATOM     28  C   LIG d   1       2.080  -0.030  -9.753  0.00  0.00    -0.062 A 
ATOM     29  H   LIG d   1       2.098  -2.168  -9.720  0.00  0.00     0.062 H 
ATOM     30  C   LIG d   1       2.500   1.131  -9.130  0.00  0.00    -0.060 A 
ATOM     31  H   LIG d   1       1.479   0.026 -10.649  0.00  0.00     0.062 H 
ATOM     32  C   LIG d   1       3.269   1.063  -7.985  0.00  0.00    -0.040 A 
ATOM     33  H   LIG d   1       2.226   2.092  -9.540  0.00  0.00     0.062 H 
ATOM     34  H   LIG d   1       3.596   1.970  -7.498  0.00  0.00     0.064 H 
ENDBRANCH   6  24
TORSDOF 5
ENDMDL
MODEL 2
REMARK VINA RESULT:      -6.1      2.022      2.850
REMARK  5 active torsions:
REMARK  status: ('A' for Active; 'I' for Inactive)
REMARK    1  A    between atoms: C_1  and  C_2 
REMARK    2  A    between atoms: C_2  and  C_3 
REMARK    3  A    between atoms: C_3  and  C_18 
REMARK    4  A    between atoms: N_8  and  C_11 
REMARK    5  A    between atoms: C_18  and  C_19 
ROOT
ATOM      1  C   LIG d   1       4.755  -1.915  -4.597  0.00  0.00     0.073 A 
ATOM      2  C   LIG d   1       4.615  -3.241  -5.319  0.00  0.00    -0.027 A 
ATOM      3  O   LIG d   1       4.711  -4.403  -4.655  0.00  0.00    -0.864 OA
ATOM      4  N   LIG d   1       4.398  -3.215  -6.608  0.00  0.00    -0.182 NA
ATOM      5  C   LIG d   1       4.297  -2.076  -7.301  0.00  0.00     0.336 A 
ATOM      6  N   LIG d   1       4.402  -0.849  -6.774  0.00  0.00    -0.192 N 
ATOM      7  C   LIG d   1       4.628  -0.668  -5.455  0.00  0.00     0.238 A 
ATOM      8  O   LIG d   1       4.723   0.441  -4.975  0.00  0.00    -0.274 OA
ATOM      9  O   LIG d   1       4.094  -2.160  -8.498  0.00  0.00    -0.250 OA
ENDROOT
BRANCH   1  10
ATOM     10  C   LIG d   1       6.124  -1.885  -3.915  0.00  0.00    -0.038 C 
ATOM     11  H   LIG d   1       6.204  -2.725  -3.225  0.00  0.00     0.028 H 
ATOM     12  H   LIG d   1       6.236  -0.950  -3.366  0.00  0.00     0.028 H 
BRANCH  10  13
ATOM     13  C   LIG d   1       7.224  -1.988  -4.974  0.00  0.00    -0.064 C 
ATOM     14  H   LIG d   1       6.806  -1.765  -5.955  0.00  0.00     0.023 H 
ATOM     15  H   LIG d   1       8.016  -1.275  -4.746  0.00  0.00     0.023 H 
ATOM     16  H   LIG d   1       7.635  -2.998  -4.974  0.00  0.00     0.023 H 
ENDBRANCH  10  13
ENDBRANCH   1  10
BRANCH   1  17
ATOM     17  C   LIG d   1       3.683  -1.854  -3.508  0.00  0.00    -0.038 C 
ATOM     18  H   LIG d   1       3.022  -1.006  -3.695  0.00  0.00     0.028 H 
ATOM     19  H   LIG d   1       3.101  -2.776  -3.517  0.00  0.00     0.028 H 
BRANCH  17  20
ATOM     20  C   LIG d   1       4.352  -1.687  -2.142  0.00  0.00    -0.064 C 
ATOM     21  H   LIG d   1       4.021  -0.754  -1.686  0.00  0.00     0.023 H 
ATOM     22  H   LIG d   1       4.077  -2.522  -1.499  0.00  0.00     0.023 H 
ATOM     23  H   LIG d   1       5.434  -1.666  -2.268  0.00  0.00     0.023 H 
ENDBRANCH  17  20
ENDBRANCH   1  17
BRANCH   6  24
ATOM     24  C   LIG d   1       4.277   0.268  -7.609  0.00  0.00     0.045 A 
ATOM     25  C   LIG d   1       3.041   0.879  -7.775  0.00  0.00    -0.040 A 
ATOM     26  C   LIG d   1       2.922   1.984  -8.595  0.00  0.00    -0.060 A 
ATOM     27  H   LIG d   1       2.174   0.493  -7.258  0.00  0.00     0.064 H 
ATOM     28  C   LIG d   1       4.030   2.475  -9.261  0.00  0.00    -0.062 A 
ATOM     29  H   LIG d   1       1.961   2.461  -8.721  0.00  0.00     0.062 H 
ATOM     30  C   LIG d   1       5.261   1.866  -9.102  0.00  0.00    -0.060 A 
ATOM     31  H   LIG d   1       3.934   3.336  -9.905  0.00  0.00     0.062 H 
ATOM     32  C   LIG d   1       5.388   0.764  -8.279  0.00  0.00    -0.040 A 
ATOM     33  H   LIG d   1       6.125   2.252  -9.623  0.00  0.00     0.062 H 
ATOM     34  H   LIG d   1       6.350   0.289  -8.155  0.00  0.00     0.064 H 
ENDBRANCH   6  24
TORSDOF 5
ENDMDL
MODEL 3
REMARK VINA RESULT:      -5.8      1.263      5.317
REMARK  5 active torsions:
REMARK  status: ('A' for Active; 'I' for Inactive)
REMARK    1  A    between atoms: C_1  and  C_2 
REMARK    2  A    between atoms: C_2  and  C_3 
REMARK    3  A    between atoms: C_3  and  C_18 
REMARK    4  A    between atoms: N_8  and  C_11 
REMARK    5  A    between atoms: C_18  and  C_19 
ROOT
ATOM      1  C   LIG d   1       3.907   0.158  -8.002  0.00  0.00     0.073 A 
ATOM      2  C   LIG d   1       5.301  -0.120  -8.529  0.00  0.00    -0.027 A 
ATOM      3  O   LIG d   1       5.595   0.048  -9.828  0.00  0.00    -0.864 OA
ATOM      4  N   LIG d   1       6.206  -0.529  -7.679  0.00  0.00    -0.182 NA
ATOM      5  C   LIG d   1       5.949  -0.706  -6.379  0.00  0.00     0.336 A 
ATOM      6  N   LIG d   1       4.760  -0.493  -5.800  0.00  0.00    -0.192 N 
ATOM      7  C   LIG d   1       3.696  -0.068  -6.515  0.00  0.00     0.238 A 
ATOM      8  O   LIG d   1       2.619   0.126  -5.993  0.00  0.00    -0.274 OA
ATOM      9  O   LIG d   1       6.861  -1.090  -5.671  0.00  0.00    -0.250 OA
ENDROOT
BRANCH   1  10
ATOM     10  C   LIG d   1       2.922  -0.732  -8.763  0.00  0.00    -0.038 C 
ATOM     11  H   LIG d   1       2.925  -0.457  -9.817  0.00  0.00     0.028 H 
ATOM     12  H   LIG d   1       1.920  -0.598  -8.354  0.00  0.00     0.028 H 
BRANCH  10  13
ATOM     13  C   LIG d   1       3.340  -2.196  -8.617  0.00  0.00    -0.064 C 
ATOM     14  H   LIG d   1       3.693  -2.571  -9.577  0.00  0.00     0.023 H 
ATOM     15  H   LIG d   1       4.139  -2.274  -7.880  0.00  0.00     0.023 H 
ATOM     16  H   LIG d   1       2.484  -2.787  -8.287  0.00  0.00     0.023 H 
ENDBRANCH  10  13
ENDBRANCH   1  10
BRANCH   1  17
ATOM     17  C   LIG d   1       3.565   1.616  -8.314  0.00  0.00    -0.038 C 
ATOM     18  H   LIG d   1       3.183   2.100  -7.414  0.00  0.00     0.028 H 
ATOM     19  H   LIG d   1       4.462   2.136  -8.652  0.00  0.00     0.028 H 
BRANCH  17  20
ATOM     20  C   LIG d   1       2.501   1.667  -9.411  0.00  0.00    -0.064 C 
ATOM     21  H   LIG d   1       2.813   1.044 -10.250  0.00  0.00     0.023 H 
ATOM     22  H   LIG d   1       1.555   1.299  -9.017  0.00  0.00     0.023 H 
ATOM     23  H   LIG d   1       2.378   2.696  -9.750  0.00  0.00     0.023 H 
ENDBRANCH  17  20
ENDBRANCH   1  17
BRANCH   6  24
ATOM     24  C   LIG d   1       4.618  -0.717  -4.425  0.00  0.00     0.045 A 
ATOM     25  C   LIG d   1       4.949   0.281  -3.518  0.00  0.00    -0.040 A 
ATOM     26  C   LIG d   1       4.803   0.058  -2.163  0.00  0.00    -0.060 A 
ATOM     27  H   LIG d   1       5.315   1.233  -3.874  0.00  0.00     0.064 H 
ATOM     28  C   LIG d   1       4.339  -1.162  -1.707  0.00  0.00    -0.062 A 
ATOM     29  H   LIG d   1       5.057   0.837  -1.458  0.00  0.00     0.062 H 
ATOM     30  C   LIG d   1       4.014  -2.160  -2.607  0.00  0.00    -0.060 A 
ATOM     31  H   LIG d   1       4.230  -1.336  -0.647  0.00  0.00     0.062 H 
ATOM     32  C   LIG d   1       4.153  -1.942  -3.964  0.00  0.00    -0.040 A 
ATOM     33  H   LIG d   1       3.651  -3.112  -2.248  0.00  0.00     0.062 H 
ATOM     34  H   LIG d   1       3.898  -2.722  -4.666  0.00  0.00     0.064 H 
ENDBRANCH   6  24
TORSDOF 5
ENDMDL
MODEL 4
REMARK VINA RESULT:      -5.8      1.834      5.331
REMARK  5 active torsions:
REMARK  status: ('A' for Active; 'I' for Inactive)
REMARK    1  A    between atoms: C_1  and  C_2 
REMARK    2  A    between atoms: C_2  and  C_3 
REMARK    3  A    between atoms: C_3  and  C_18 
REMARK    4  A    between atoms: N_8  and  C_11 
REMARK    5  A    between atoms: C_18  and  C_19 
ROOT
ATOM      1  C   LIG d   1       3.812  -0.935  -8.162  0.00  0.00     0.073 A 
ATOM      2  C   LIG d   1       4.268  -2.381  -8.178  0.00  0.00    -0.027 A 
ATOM      3  O   LIG d   1       4.283  -3.090  -9.317  0.00  0.00    -0.864 OA
ATOM      4  N   LIG d   1       4.646  -2.915  -7.045  0.00  0.00    -0.182 NA
ATOM      5  C   LIG d   1       4.644  -2.239  -5.892  0.00  0.00     0.336 A 
ATOM      6  N   LIG d   1       4.265  -0.962  -5.755  0.00  0.00    -0.192 N 
ATOM      7  C   LIG d   1       3.839  -0.238  -6.813  0.00  0.00     0.238 A 
ATOM      8  O   LIG d   1       3.495   0.918  -6.692  0.00  0.00    -0.274 OA
ATOM      9  O   LIG d   1       5.014  -2.828  -4.893  0.00  0.00    -0.250 OA
ENDROOT
BRANCH   1  10
ATOM     10  C   LIG d   1       2.379  -0.881  -8.696  0.00  0.00    -0.038 C 
ATOM     11  H   LIG d   1       1.737  -0.391  -7.964  0.00  0.00     0.028 H 
ATOM     12  H   LIG d   1       2.020  -1.894  -8.877  0.00  0.00     0.028 H 
BRANCH  10  13
ATOM     13  C   LIG d   1       2.354  -0.091 -10.006  0.00  0.00    -0.064 C 
ATOM     14  H   LIG d   1       2.310  -0.782 -10.848  0.00  0.00     0.023 H 
ATOM     15  H   LIG d   1       1.478   0.558 -10.022  0.00  0.00     0.023 H 
ATOM     16  H   LIG d   1       3.256   0.518 -10.081  0.00  0.00     0.023 H 
ENDBRANCH  10  13
ENDBRANCH   1  10
BRANCH   1  17
ATOM     17  C   LIG d   1       4.705  -0.147  -9.122  0.00  0.00    -0.038 C 
ATOM     18  H   LIG d   1       4.666  -0.604 -10.112  0.00  0.00     0.028 H 
ATOM     19  H   LIG d   1       4.354   0.883  -9.185  0.00  0.00     0.028 H 
BRANCH  17  20
ATOM     20  C   LIG d   1       6.146  -0.164  -8.609  0.00  0.00    -0.064 C 
ATOM     21  H   LIG d   1       6.165  -0.548  -7.589  0.00  0.00     0.023 H 
ATOM     22  H   LIG d   1       6.752  -0.805  -9.248  0.00  0.00     0.023 H 
ATOM     23  H   LIG d   1       6.549   0.849  -8.623  0.00  0.00     0.023 H 
ENDBRANCH  17  20
ENDBRANCH   1  17
BRANCH   6  24
ATOM     24  C   LIG d   1       4.309  -0.366  -4.488  0.00  0.00     0.045 A 
ATOM     25  C   LIG d   1       3.165  -0.316  -3.702  0.00  0.00    -0.040 A 
ATOM     26  C   LIG d   1       3.213   0.269  -2.452  0.00  0.00    -0.060 A 
ATOM     27  H   LIG d   1       2.240  -0.737  -4.067  0.00  0.00     0.064 H 
ATOM     28  C   LIG d   1       4.396   0.813  -1.986  0.00  0.00    -0.062 A 
ATOM     29  H   LIG d   1       2.325   0.305  -1.838  0.00  0.00     0.062 H 
ATOM     30  C   LIG d   1       5.535   0.769  -2.769  0.00  0.00    -0.060 A 
ATOM     31  H   LIG d   1       4.430   1.274  -1.010  0.00  0.00     0.062 H 
ATOM     32  C   LIG d   1       5.495   0.181  -4.018  0.00  0.00    -0.040 A 
ATOM     33  H   LIG d   1       6.458   1.195  -2.402  0.00  0.00     0.062 H 
ATOM     34  H   LIG d   1       6.385   0.146  -4.628  0.00  0.00     0.064 H 
ENDBRANCH   6  24
TORSDOF 5
ENDMDL
MODEL 5
REMARK VINA RESULT:      -5.7      1.488      2.855
REMARK  5 active torsions:
REMARK  status: ('A' for Active; 'I' for Inactive)
REMARK    1  A    between atoms: C_1  and  C_2 
REMARK    2  A    between atoms: C_2  and  C_3 
REMARK    3  A    between atoms: C_3  and  C_18 
REMARK    4  A    between atoms: N_8  and  C_11 
REMARK    5  A    between atoms: C_18  and  C_19 
ROOT
ATOM      1  C   LIG d   1       5.270  -0.923  -3.910  0.00  0.00     0.073 A 
ATOM      2  C   LIG d   1       4.139  -0.867  -2.901  0.00  0.00    -0.027 A 
ATOM      3  O   LIG d   1       4.346  -1.179  -1.612  0.00  0.00    -0.864 OA
ATOM      4  N   LIG d   1       2.957  -0.505  -3.327  0.00  0.00    -0.182 NA
ATOM      5  C   LIG d   1       2.715  -0.187  -4.603  0.00  0.00     0.336 A 
ATOM      6  N   LIG d   1       3.631  -0.198  -5.580  0.00  0.00    -0.192 N 
ATOM      7  C   LIG d   1       4.913  -0.547  -5.338  0.00  0.00     0.238 A 
ATOM      8  O   LIG d   1       5.744  -0.559  -6.221  0.00  0.00    -0.274 OA
ATOM      9  O   LIG d   1       1.580   0.138  -4.898  0.00  0.00    -0.250 OA
ENDROOT
BRANCH   1  10
ATOM     10  C   LIG d   1       5.831  -2.346  -3.919  0.00  0.00    -0.038 C 
ATOM     11  H   LIG d   1       5.711  -2.777  -4.913  0.00  0.00     0.028 H 
ATOM     12  H   LIG d   1       5.293  -2.954  -3.191  0.00  0.00     0.028 H 
BRANCH  10  13
ATOM     13  C   LIG d   1       7.317  -2.311  -3.554  0.00  0.00    -0.064 C 
ATOM     14  H   LIG d   1       7.756  -1.378  -3.908  0.00  0.00     0.023 H 
ATOM     15  H   LIG d   1       7.427  -2.377  -2.472  0.00  0.00     0.023 H 
ATOM     16  H   LIG d   1       7.826  -3.154  -4.023  0.00  0.00     0.023 H 
ENDBRANCH  10  13
ENDBRANCH   1  10
BRANCH   1  17
ATOM     17  C   LIG d   1       6.377   0.019  -3.433  0.00  0.00    -0.038 C 
ATOM     18  H   LIG d   1       6.868  -0.411  -2.559  0.00  0.00     0.028 H 
ATOM     19  H   LIG d   1       7.108   0.155  -4.229  0.00  0.00     0.028 H 
BRANCH  17  20
ATOM     20  C   LIG d   1       5.770   1.373  -3.062  0.00  0.00    -0.064 C 
ATOM     21  H   LIG d   1       6.077   1.645  -2.052  0.00  0.00     0.023 H 
ATOM     22  H   LIG d   1       6.117   2.131  -3.763  0.00  0.00     0.023 H 
ATOM     23  H   LIG d   1       4.682   1.308  -3.105  0.00  0.00     0.023 H 
ENDBRANCH  17  20
ENDBRANCH   1  17
BRANCH   6  24
ATOM     24  C   LIG d   1       3.250   0.157  -6.881  0.00  0.00     0.045 A 
ATOM     25  C   LIG d   1       2.991  -0.828  -7.824  0.00  0.00    -0.040 A 
ATOM     26  C   LIG d   1       2.611  -0.474  -9.104  0.00  0.00    -0.060 A 
ATOM     27  H   LIG d   1       3.081  -1.871  -7.555  0.00  0.00     0.064 H 
ATOM     28  C   LIG d   1       2.500   0.859  -9.450  0.00  0.00    -0.062 A 
ATOM     29  H   LIG d   1       2.405  -1.241  -9.837  0.00  0.00     0.062 H 
ATOM     30  C   LIG d   1       2.763   1.843  -8.514  0.00  0.00    -0.060 A 
ATOM     31  H   LIG d   1       2.207   1.134 -10.452  0.00  0.00     0.062 H 
ATOM     32  C   LIG d   1       3.138   1.496  -7.231  0.00  0.00    -0.040 A 
ATOM     33  H   LIG d   1       2.674   2.884  -8.787  0.00  0.00     0.062 H 
ATOM     34  H   LIG d   1       3.342   2.265  -6.500  0.00  0.00     0.064 H 
ENDBRANCH   6  24
TORSDOF 5
ENDMDL
MODEL 6
REMARK VINA RESULT:      -5.6      1.718      5.418
REMARK  5 active torsions:
REMARK  status: ('A' for Active; 'I' for Inactive)
REMARK    1  A    between atoms: C_1  and  C_2 
REMARK    2  A    between atoms: C_2  and  C_3 
REMARK    3  A    between atoms: C_3  and  C_18 
REMARK    4  A    between atoms: N_8  and  C_11 
REMARK    5  A    between atoms: C_18  and  C_19 
ROOT
ATOM      1  C   LIG d   1       4.923  -0.193  -7.937  0.00  0.00     0.073 A 
ATOM      2  C   LIG d   1       3.572   0.377  -8.320  0.00  0.00    -0.027 A 
ATOM      3  O   LIG d   1       3.292   0.699  -9.593  0.00  0.00    -0.864 OA
ATOM      4  N   LIG d   1       2.688   0.547  -7.371  0.00  0.00    -0.182 NA
ATOM      5  C   LIG d   1       2.932   0.238  -6.094  0.00  0.00     0.336 A 
ATOM      6  N   LIG d   1       4.083  -0.272  -5.637  0.00  0.00    -0.192 N 
ATOM      7  C   LIG d   1       5.121  -0.518  -6.466  0.00  0.00     0.238 A 
ATOM      8  O   LIG d   1       6.164  -0.979  -6.056  0.00  0.00    -0.274 OA
ATOM      9  O   LIG d   1       2.042   0.433  -5.287  0.00  0.00    -0.250 OA
ENDROOT
BRANCH   1  10
ATOM     10  C   LIG d   1       6.000   0.811  -8.351  0.00  0.00    -0.038 C 
ATOM     11  H   LIG d   1       6.662   1.002  -7.507  0.00  0.00     0.028 H 
ATOM     12  H   LIG d   1       5.528   1.743  -8.662  0.00  0.00     0.028 H 
BRANCH  10  13
ATOM     13  C   LIG d   1       6.811   0.238  -9.515  0.00  0.00    -0.064 C 
ATOM     14  H   LIG d   1       6.714   0.889 -10.383  0.00  0.00     0.023 H 
ATOM     15  H   LIG d   1       7.860   0.169  -9.228  0.00  0.00     0.023 H 
ATOM     16  H   LIG d   1       6.438  -0.757  -9.763  0.00  0.00     0.023 H 
ENDBRANCH  10  13
ENDBRANCH   1  10
BRANCH   1  17
ATOM     17  C   LIG d   1       5.139  -1.477  -8.740  0.00  0.00    -0.038 C 
ATOM     18  H   LIG d   1       5.081  -1.252  -9.806  0.00  0.00     0.028 H 
ATOM     19  H   LIG d   1       6.121  -1.890  -8.510  0.00  0.00     0.028 H 
BRANCH  17  20
ATOM     20  C   LIG d   1       4.059  -2.496  -8.374  0.00  0.00    -0.064 C 
ATOM     21  H   LIG d   1       3.332  -2.563  -9.185  0.00  0.00     0.023 H 
ATOM     22  H   LIG d   1       4.518  -3.471  -8.217  0.00  0.00     0.023 H 
ATOM     23  H   LIG d   1       3.555  -2.179  -7.461  0.00  0.00     0.023 H 
ENDBRANCH  17  20
ENDBRANCH   1  17
BRANCH   6  24
ATOM     24  C   LIG d   1       4.214  -0.553  -4.271  0.00  0.00     0.045 A 
ATOM     25  C   LIG d   1       3.919  -1.822  -3.790  0.00  0.00    -0.040 A 
ATOM     26  C   LIG d   1       4.054  -2.097  -2.444  0.00  0.00    -0.060 A 
ATOM     27  H   LIG d   1       3.589  -2.594  -4.470  0.00  0.00     0.064 H 
ATOM     28  C   LIG d   1       4.471  -1.108  -1.572  0.00  0.00    -0.062 A 
ATOM     29  H   LIG d   1       3.828  -3.085  -2.070  0.00  0.00     0.062 H 
ATOM     30  C   LIG d   1       4.761   0.158  -2.048  0.00  0.00    -0.060 A 
ATOM     31  H   LIG d   1       4.572  -1.324  -0.519  0.00  0.00     0.062 H 
ATOM     32  C   LIG d   1       4.633   0.438  -3.394  0.00  0.00    -0.040 A 
ATOM     33  H   LIG d   1       5.088   0.928  -1.365  0.00  0.00     0.062 H 
ATOM     34  H   LIG d   1       4.861   1.427  -3.764  0.00  0.00     0.064 H 
ENDBRANCH   6  24
TORSDOF 5
ENDMDL
MODEL 7
REMARK VINA RESULT:      -5.5      2.574      4.997
REMARK  5 active torsions:
REMARK  status: ('A' for Active; 'I' for Inactive)
REMARK    1  A    between atoms: C_1  and  C_2 
REMARK    2  A    between atoms: C_2  and  C_3 
REMARK    3  A    between atoms: C_3  and  C_18 
REMARK    4  A    between atoms: N_8  and  C_11 
REMARK    5  A    between atoms: C_18  and  C_19 
ROOT
ATOM      1  C   LIG d   1       4.612  -1.166  -3.185  0.00  0.00     0.073 A 
ATOM      2  C   LIG d   1       3.670  -0.517  -4.181  0.00  0.00    -0.027 A 
ATOM      3  O   LIG d   1       2.344  -0.507  -3.974  0.00  0.00    -0.864 OA
ATOM      4  N   LIG d   1       4.191   0.032  -5.247  0.00  0.00    -0.182 NA
ATOM      5  C   LIG d   1       5.507   0.041  -5.485  0.00  0.00     0.336 A 
ATOM      6  N   LIG d   1       6.433  -0.497  -4.681  0.00  0.00    -0.192 N 
ATOM      7  C   LIG d   1       6.090  -1.113  -3.528  0.00  0.00     0.238 A 
ATOM      8  O   LIG d   1       6.926  -1.602  -2.799  0.00  0.00    -0.274 OA
ATOM      9  O   LIG d   1       5.892   0.579  -6.507  0.00  0.00    -0.250 OA
ENDROOT
BRANCH   1  10
ATOM     10  C   LIG d   1       4.210  -2.634  -3.036  0.00  0.00    -0.038 C 
ATOM     11  H   LIG d   1       3.134  -2.702  -2.880  0.00  0.00     0.028 H 
ATOM     12  H   LIG d   1       4.730  -3.068  -2.181  0.00  0.00     0.028 H 
BRANCH  10  13
ATOM     13  C   LIG d   1       4.591  -3.399  -4.305  0.00  0.00    -0.064 C 
ATOM     14  H   LIG d   1       4.322  -4.449  -4.192  0.00  0.00     0.023 H 
ATOM     15  H   LIG d   1       4.058  -2.977  -5.157  0.00  0.00     0.023 H 
ATOM     16  H   LIG d   1       5.665  -3.314  -4.472  0.00  0.00     0.023 H 
ENDBRANCH  10  13
ENDBRANCH   1  10
BRANCH   1  17
ATOM     17  C   LIG d   1       4.413  -0.481  -1.832  0.00  0.00    -0.038 C 
ATOM     18  H   LIG d   1       3.381  -0.612  -1.506  0.00  0.00     0.028 H 
ATOM     19  H   LIG d   1       5.084  -0.925  -1.096  0.00  0.00     0.028 H 
BRANCH  17  20
ATOM     20  C   LIG d   1       4.720   1.012  -1.965  0.00  0.00    -0.064 C 
ATOM     21  H   LIG d   1       3.833   1.535  -2.323  0.00  0.00     0.023 H 
ATOM     22  H   LIG d   1       5.008   1.411  -0.993  0.00  0.00     0.023 H 
ATOM     23  H   LIG d   1       5.536   1.153  -2.674  0.00  0.00     0.023 H 
ENDBRANCH  17  20
ENDBRANCH   1  17
BRANCH   6  24
ATOM     24  C   LIG d   1       7.784  -0.422  -5.044  0.00  0.00     0.045 A 
ATOM     25  C   LIG d   1       8.546   0.676  -4.668  0.00  0.00    -0.040 A 
ATOM     26  C   LIG d   1       9.878   0.745  -5.023  0.00  0.00    -0.060 A 
ATOM     27  H   LIG d   1       8.097   1.473  -4.093  0.00  0.00     0.064 H 
ATOM     28  C   LIG d   1      10.452  -0.273  -5.763  0.00  0.00    -0.062 A 
ATOM     29  H   LIG d   1      10.472   1.597  -4.728  0.00  0.00     0.062 H 
ATOM     30  C   LIG d   1       9.694  -1.366  -6.144  0.00  0.00    -0.060 A 
ATOM     31  H   LIG d   1      11.493  -0.215  -6.044  0.00  0.00     0.062 H 
ATOM     32  C   LIG d   1       8.362  -1.443  -5.787  0.00  0.00    -0.040 A 
ATOM     33  H   LIG d   1      10.145  -2.159  -6.721  0.00  0.00     0.062 H 
ATOM     34  H   LIG d   1       7.771  -2.297  -6.084  0.00  0.00     0.064 H 
ENDBRANCH   6  24
TORSDOF 5
ENDMDL
MODEL 8
REMARK VINA RESULT:      -5.3      2.509      4.574
REMARK  5 active torsions:
REMARK  status: ('A' for Active; 'I' for Inactive)
REMARK    1  A    between atoms: C_1  and  C_2 
REMARK    2  A    between atoms: C_2  and  C_3 
REMARK    3  A    between atoms: C_3  and  C_18 
REMARK    4  A    between atoms: N_8  and  C_11 
REMARK    5  A    between atoms: C_18  and  C_19 
ROOT
ATOM      1  C   LIG d   1       5.127  -0.248  -3.213  0.00  0.00     0.073 A 
ATOM      2  C   LIG d   1       4.127   0.254  -4.236  0.00  0.00    -0.027 A 
ATOM      3  O   LIG d   1       3.253   1.226  -3.930  0.00  0.00    -0.864 OA
ATOM      4  N   LIG d   1       4.143  -0.290  -5.425  0.00  0.00    -0.182 NA
ATOM      5  C   LIG d   1       5.000  -1.259  -5.764  0.00  0.00     0.336 A 
ATOM      6  N   LIG d   1       5.925  -1.780  -4.949  0.00  0.00    -0.192 N 
ATOM      7  C   LIG d   1       6.064  -1.349  -3.676  0.00  0.00     0.238 A 
ATOM      8  O   LIG d   1       6.901  -1.820  -2.936  0.00  0.00    -0.274 OA
ATOM      9  O   LIG d   1       4.934  -1.698  -6.897  0.00  0.00    -0.250 OA
ENDROOT
BRANCH   1  10
ATOM     10  C   LIG d   1       4.351  -0.763  -1.999  0.00  0.00    -0.038 C 
ATOM     11  H   LIG d   1       3.599  -0.029  -1.711  0.00  0.00     0.028 H 
ATOM     12  H   LIG d   1       5.039  -0.925  -1.169  0.00  0.00     0.028 H 
BRANCH  10  13
ATOM     13  C   LIG d   1       3.664  -2.083  -2.356  0.00  0.00    -0.064 C 
ATOM     14  H   LIG d   1       4.409  -2.798  -2.704  0.00  0.00     0.023 H 
ATOM     15  H   LIG d   1       3.162  -2.482  -1.474  0.00  0.00     0.023 H 
ATOM     16  H   LIG d   1       2.930  -1.910  -3.143  0.00  0.00     0.023 H 
ENDBRANCH  10  13
ENDBRANCH   1  10
BRANCH   1  17
ATOM     17  C   LIG d   1       5.977   0.940  -2.760  0.00  0.00    -0.038 C 
ATOM     18  H   LIG d   1       5.335   1.807  -2.600  0.00  0.00     0.028 H 
ATOM     19  H   LIG d   1       6.487   0.691  -1.829  0.00  0.00     0.028 H 
BRANCH  17  20
ATOM     20  C   LIG d   1       7.013   1.266  -3.837  0.00  0.00    -0.064 C 
ATOM     21  H   LIG d   1       7.798   0.509  -3.829  0.00  0.00     0.023 H 
ATOM     22  H   LIG d   1       6.531   1.278  -4.814  0.00  0.00     0.023 H 
ATOM     23  H   LIG d   1       7.451   2.244  -3.636  0.00  0.00     0.023 H 
ENDBRANCH  17  20
ENDBRANCH   1  17
BRANCH   6  24
ATOM     24  C   LIG d   1       6.765  -2.795  -5.426  0.00  0.00     0.045 A 
ATOM     25  C   LIG d   1       6.413  -4.128  -5.256  0.00  0.00    -0.040 A 
ATOM     26  C   LIG d   1       7.241  -5.125  -5.731  0.00  0.00    -0.060 A 
ATOM     27  H   LIG d   1       5.491  -4.383  -4.755  0.00  0.00     0.064 H 
ATOM     28  C   LIG d   1       8.425  -4.799  -6.366  0.00  0.00    -0.062 A 
ATOM     29  H   LIG d   1       6.966  -6.162  -5.602  0.00  0.00     0.062 H 
ATOM     30  C   LIG d   1       8.781  -3.473  -6.533  0.00  0.00    -0.060 A 
ATOM     31  H   LIG d   1       9.074  -5.581  -6.734  0.00  0.00     0.062 H 
ATOM     32  C   LIG d   1       7.955  -2.471  -6.064  0.00  0.00    -0.040 A 
ATOM     33  H   LIG d   1       9.706  -3.221  -7.031  0.00  0.00     0.062 H 
ATOM     34  H   LIG d   1       8.232  -1.435  -6.196  0.00  0.00     0.064 H 
ENDBRANCH   6  24
TORSDOF 5
ENDMDL
MODEL 9
REMARK VINA RESULT:      -5.3      2.472      4.829
REMARK  5 active torsions:
REMARK  status: ('A' for Active; 'I' for Inactive)
REMARK    1  A    between atoms: C_1  and  C_2 
REMARK    2  A    between atoms: C_2  and  C_3 
REMARK    3  A    between atoms: C_3  and  C_18 
REMARK    4  A    between atoms: N_8  and  C_11 
REMARK    5  A    between atoms: C_18  and  C_19 
ROOT
ATOM      1  C   LIG d   1       5.831  -3.501  -6.112  0.00  0.00     0.073 A 
ATOM      2  C   LIG d   1       6.773  -2.787  -7.062  0.00  0.00    -0.027 A 
ATOM      3  O   LIG d   1       7.420  -3.456  -8.029  0.00  0.00    -0.864 OA
ATOM      4  N   LIG d   1       6.936  -1.498  -6.908  0.00  0.00    -0.182 NA
ATOM      5  C   LIG d   1       6.308  -0.800  -5.956  0.00  0.00     0.336 A 
ATOM      6  N   LIG d   1       5.455  -1.320  -5.064  0.00  0.00    -0.192 N 
ATOM      7  C   LIG d   1       5.158  -2.638  -5.060  0.00  0.00     0.238 A 
ATOM      8  O   LIG d   1       4.386  -3.111  -4.254  0.00  0.00    -0.274 OA
ATOM      9  O   LIG d   1       6.527   0.395  -5.896  0.00  0.00    -0.250 OA
ENDROOT
BRANCH   1  10
ATOM     10  C   LIG d   1       6.619  -4.599  -5.394  0.00  0.00    -0.038 C 
ATOM     11  H   LIG d   1       7.029  -5.291  -6.130  0.00  0.00     0.028 H 
ATOM     12  H   LIG d   1       5.957  -5.137  -4.716  0.00  0.00     0.028 H 
BRANCH  10  13
ATOM     13  C   LIG d   1       7.761  -3.967  -4.596  0.00  0.00    -0.064 C 
ATOM     14  H   LIG d   1       8.562  -3.675  -5.275  0.00  0.00     0.023 H 
ATOM     15  H   LIG d   1       7.393  -3.087  -4.068  0.00  0.00     0.023 H 
ATOM     16  H   LIG d   1       8.142  -4.690  -3.873  0.00  0.00     0.023 H 
ENDBRANCH  10  13
ENDBRANCH   1  10
BRANCH   1  17
ATOM     17  C   LIG d   1       4.739  -4.172  -6.947  0.00  0.00    -0.038 C 
ATOM     18  H   LIG d   1       5.187  -4.929  -7.592  0.00  0.00     0.028 H 
ATOM     19  H   LIG d   1       4.013  -4.645  -6.285  0.00  0.00     0.028 H 
BRANCH  17  20
ATOM     20  C   LIG d   1       4.035  -3.121  -7.807  0.00  0.00    -0.064 C 
ATOM     21  H   LIG d   1       4.291  -3.278  -8.855  0.00  0.00     0.023 H 
ATOM     22  H   LIG d   1       2.957  -3.211  -7.680  0.00  0.00     0.023 H 
ATOM     23  H   LIG d   1       4.356  -2.126  -7.499  0.00  0.00     0.023 H 
ENDBRANCH  17  20
ENDBRANCH   1  17
BRANCH   6  24
ATOM     24  C   LIG d   1       4.861  -0.480  -4.113  0.00  0.00     0.045 A 
ATOM     25  C   LIG d   1       3.657   0.152  -4.397  0.00  0.00    -0.040 A 
ATOM     26  C   LIG d   1       3.073   0.976  -3.456  0.00  0.00    -0.060 A 
ATOM     27  H   LIG d   1       3.178  -0.005  -5.352  0.00  0.00     0.064 H 
ATOM     28  C   LIG d   1       3.689   1.182  -2.236  0.00  0.00    -0.062 A 
ATOM     29  H   LIG d   1       2.135   1.465  -3.676  0.00  0.00     0.062 H 
ATOM     30  C   LIG d   1       4.890   0.558  -1.952  0.00  0.00    -0.060 A 
ATOM     31  H   LIG d   1       3.232   1.830  -1.503  0.00  0.00     0.062 H 
ATOM     32  C   LIG d   1       5.478  -0.272  -2.886  0.00  0.00    -0.040 A 
ATOM     33  H   LIG d   1       5.369   0.720  -0.997  0.00  0.00     0.062 H 
ATOM     34  H   LIG d   1       6.415  -0.759  -2.663  0.00  0.00     0.064 H 
ENDBRANCH   6  24
TORSDOF 5
ENDMDL
MODEL 10
REMARK VINA RESULT:      -5.2      3.342      5.228
REMARK  5 active torsions:
REMARK  status: ('A' for Active; 'I' for Inactive)
REMARK    1  A    between atoms: C_1  and  C_2 
REMARK    2  A    between atoms: C_2  and  C_3 
REMARK    3  A    between atoms: C_3  and  C_18 
REMARK    4  A    between atoms: N_8  and  C_11 
REMARK    5  A    between atoms: C_18  and  C_19 
ROOT
ATOM      1  C   LIG d   1       8.177  -3.527  -4.447  0.00  0.00     0.073 A 
ATOM      2  C   LIG d   1       7.742  -4.779  -5.183  0.00  0.00    -0.027 A 
ATOM      3  O   LIG d   1       8.637  -5.705  -5.563  0.00  0.00    -0.864 OA
ATOM      4  N   LIG d   1       6.468  -4.928  -5.437  0.00  0.00    -0.182 NA
ATOM      5  C   LIG d   1       5.549  -4.027  -5.074  0.00  0.00     0.336 A 
ATOM      6  N   LIG d   1       5.812  -2.888  -4.421  0.00  0.00    -0.192 N 
ATOM      7  C   LIG d   1       7.074  -2.554  -4.070  0.00  0.00     0.238 A 
ATOM      8  O   LIG d   1       7.314  -1.524  -3.478  0.00  0.00    -0.274 OA
ATOM      9  O   LIG d   1       4.389  -4.259  -5.357  0.00  0.00    -0.250 OA
ENDROOT
BRANCH   1  10
ATOM     10  C   LIG d   1       9.187  -2.784  -5.323  0.00  0.00    -0.038 C 
ATOM     11  H   LIG d   1      10.024  -3.444  -5.551  0.00  0.00     0.028 H 
ATOM     12  H   LIG d   1       9.551  -1.904  -4.792  0.00  0.00     0.028 H 
BRANCH  10  13
ATOM     13  C   LIG d   1       8.511  -2.351  -6.625  0.00  0.00    -0.064 C 
ATOM     14  H   LIG d   1       8.154  -3.230  -7.160  0.00  0.00     0.023 H 
ATOM     15  H   LIG d   1       7.669  -1.697  -6.397  0.00  0.00     0.023 H 
ATOM     16  H   LIG d   1       9.229  -1.814  -7.246  0.00  0.00     0.023 H 
ENDBRANCH  10  13
ENDBRANCH   1  10
BRANCH   1  17
ATOM     17  C   LIG d   1       8.890  -3.957  -3.164  0.00  0.00    -0.038 C 
ATOM     18  H   LIG d   1       8.576  -3.314  -2.340  0.00  0.00     0.028 H 
ATOM     19  H   LIG d   1       8.634  -4.992  -2.933  0.00  0.00     0.028 H 
BRANCH  17  20
ATOM     20  C   LIG d   1      10.403  -3.837  -3.356  0.00  0.00    -0.064 C 
ATOM     21  H   LIG d   1      10.877  -4.788  -3.112  0.00  0.00     0.023 H 
ATOM     22  H   LIG d   1      10.618  -3.579  -4.392  0.00  0.00     0.023 H 
ATOM     23  H   LIG d   1      10.792  -3.059  -2.699  0.00  0.00     0.023 H 
ENDBRANCH  17  20
ENDBRANCH   1  17
BRANCH   6  24
ATOM     24  C   LIG d   1       4.758  -2.024  -4.097  0.00  0.00     0.045 A 
ATOM     25  C   LIG d   1       4.088  -2.166  -2.889  0.00  0.00    -0.040 A 
ATOM     26  C   LIG d   1       3.052  -1.310  -2.571  0.00  0.00    -0.060 A 
ATOM     27  H   LIG d   1       4.380  -2.942  -2.197  0.00  0.00     0.064 H 
ATOM     28  C   LIG d   1       2.674  -0.319  -3.458  0.00  0.00    -0.062 A 
ATOM     29  H   LIG d   1       2.533  -1.417  -1.630  0.00  0.00     0.062 H 
ATOM     30  C   LIG d   1       3.337  -0.178  -4.664  0.00  0.00    -0.060 A 
ATOM     31  H   LIG d   1       1.861   0.347  -3.210  0.00  0.00     0.062 H 
ATOM     32  C   LIG d   1       4.377  -1.028  -4.986  0.00  0.00    -0.040 A 
ATOM     33  H   LIG d   1       3.040   0.597  -5.355  0.00  0.00     0.062 H 
ATOM     34  H   LIG d   1       4.894  -0.917  -5.928  0.00  0.00     0.064 H 
ENDBRANCH   6  24
TORSDOF 5
ENDMDL
