MODEL 1
REMARK VINA RESULT:      -6.2      0.000      0.000
REMARK  5 active torsions:
REMARK  status: ('A' for Active; 'I' for Inactive)
REMARK    1  A    between atoms: C_1  and  C_2 
REMARK    2  A    between atoms: C_9  and  O_12 
REMARK    3  A    between atoms: O_12  and  C_13 
REMARK    4  A    between atoms: C_15  and  C_18 
REMARK    5  A    between atoms: C_18  and  O_19 
ROOT
ATOM      1  C   LIG d   1       6.524  -1.359  -6.066  0.00  0.00     0.046 A 
ATOM      2  C   LIG d   1       5.879  -2.553  -5.783  0.00  0.00     0.019 A 
ATOM      3  C   LIG d   1       5.150  -2.696  -4.617  0.00  0.00     0.135 A 
ATOM      4  C   LIG d   1       5.109  -1.587  -3.736  0.00  0.00     0.046 A 
ATOM      5  C   LIG d   1       4.400  -1.646  -2.527  0.00  0.00    -0.049 A 
ATOM      6  C   LIG d   1       4.381  -0.561  -1.702  0.00  0.00    -0.058 A 
ATOM      7  C   LIG d   1       5.055   0.608  -2.043  0.00  0.00    -0.018 A 
ATOM      8  C   LIG d   1       5.754   0.701  -3.213  0.00  0.00     0.146 A 
ATOM      9  C   LIG d   1       5.796  -0.402  -4.091  0.00  0.00     0.116 A 
ATOM     10  N   LIG d   1       6.477  -0.338  -5.241  0.00  0.00    -0.248 NA
ATOM     11  O   LIG d   1       4.578  -3.921  -4.533  0.00  0.00    -0.485 OA
ATOM     12  C   LIG d   1       5.255  -4.821  -5.429  0.00  0.00     0.127 C 
ATOM     13  H   LIG d   1       6.078  -5.324  -4.922  0.00  0.00     0.076 H 
ATOM     14  C   LIG d   1       5.787  -3.870  -6.528  0.00  0.00     0.017 C 
ATOM     15  H   LIG d   1       3.874  -2.547  -2.251  0.00  0.00     0.062 H 
ATOM     16  H   LIG d   1       3.835  -0.609  -0.771  0.00  0.00     0.062 H 
ATOM     17  H   LIG d   1       5.025   1.455  -1.373  0.00  0.00     0.066 H 
ATOM     18  H   LIG d   1       5.082  -3.800  -7.356  0.00  0.00     0.035 H 
ATOM     19  H   LIG d   1       6.767  -4.189  -6.878  0.00  0.00     0.035 H 
ENDROOT
BRANCH  12  20
ATOM     20  C   LIG d   1       4.276  -5.841  -6.014  0.00  0.00     0.081 C 
ATOM     21  H   LIG d   1       4.736  -6.336  -6.870  0.00  0.00     0.059 H 
ATOM     22  H   LIG d   1       4.029  -6.584  -5.256  0.00  0.00     0.059 H 
BRANCH  20  23
ATOM     23  O   LIG d   1       3.085  -5.173  -6.434  0.00  0.00    -0.391 OA
ATOM     24  H   LIG d   1       2.441  -5.035  -5.726  0.00  0.00     0.210 HD
ENDBRANCH  20  23
ENDBRANCH  12  20
BRANCH   1  25
ATOM     25  C   LIG d   1       7.304  -1.230  -7.349  0.00  0.00    -0.022 C 
ATOM     26  H   LIG d   1       6.701  -1.599  -8.179  0.00  0.00     0.029 H 
ATOM     27  H   LIG d   1       8.220  -1.817  -7.278  0.00  0.00     0.029 H 
ATOM     28  H   LIG d   1       7.555  -0.184  -7.518  0.00  0.00     0.029 H 
ENDBRANCH   1  25
BRANCH   8  29
ATOM     29  O   LIG d   1       6.406   1.850  -3.529  0.00  0.00    -0.493 OA
BRANCH  29  30
ATOM     30  C   LIG d   1       7.827   1.776  -3.658  0.00  0.00     0.079 C 
ATOM     31  H   LIG d   1       8.133   0.730  -3.711  0.00  0.00     0.066 H 
ATOM     32  H   LIG d   1       8.137   2.291  -4.569  0.00  0.00     0.066 H 
ATOM     33  H   LIG d   1       8.296   2.249  -2.796  0.00  0.00     0.066 H 
ENDBRANCH  29  30
ENDBRANCH   8  29
TORSDOF 5
ENDMDL
MODEL 2
REMARK VINA RESULT:      -5.6      3.060      5.728
REMARK  5 active torsions:
REMARK  status: ('A' for Active; 'I' for Inactive)
REMARK    1  A    between atoms: C_1  and  C_2 
REMARK    2  A    between atoms: C_9  and  O_12 
REMARK    3  A    between atoms: O_12  and  C_13 
REMARK    4  A    between atoms: C_15  and  C_18 
REMARK    5  A    between atoms: C_18  and  O_19 
ROOT
ATOM      1  C   LIG d   1       5.085  -2.680  -5.532  0.00  0.00     0.046 A 
ATOM      2  C   LIG d   1       4.914  -1.560  -4.734  0.00  0.00     0.019 A 
ATOM      3  C   LIG d   1       4.240  -0.454  -5.216  0.00  0.00     0.135 A 
ATOM      4  C   LIG d   1       3.754  -0.517  -6.545  0.00  0.00     0.046 A 
ATOM      5  C   LIG d   1       3.065   0.562  -7.118  0.00  0.00    -0.049 A 
ATOM      6  C   LIG d   1       2.611   0.469  -8.400  0.00  0.00    -0.058 A 
ATOM      7  C   LIG d   1       2.820  -0.684  -9.150  0.00  0.00    -0.018 A 
ATOM      8  C   LIG d   1       3.486  -1.754  -8.624  0.00  0.00     0.146 A 
ATOM      9  C   LIG d   1       3.970  -1.693  -7.301  0.00  0.00     0.116 A 
ATOM     10  N   LIG d   1       4.630  -2.726  -6.762  0.00  0.00    -0.248 NA
ATOM     11  O   LIG d   1       4.157   0.526  -4.283  0.00  0.00    -0.485 OA
ATOM     12  C   LIG d   1       5.156   0.301  -3.272  0.00  0.00     0.127 C 
ATOM     13  H   LIG d   1       6.084   0.814  -3.526  0.00  0.00     0.076 H 
ATOM     14  C   LIG d   1       5.347  -1.234  -3.318  0.00  0.00     0.017 C 
ATOM     15  H   LIG d   1       2.897   1.463  -6.547  0.00  0.00     0.062 H 
ATOM     16  H   LIG d   1       2.081   1.302  -8.839  0.00  0.00     0.062 H 
ATOM     17  H   LIG d   1       2.451  -0.734 -10.164  0.00  0.00     0.066 H 
ATOM     18  H   LIG d   1       4.703  -1.728  -2.591  0.00  0.00     0.035 H 
ATOM     19  H   LIG d   1       6.390  -1.501  -3.158  0.00  0.00     0.035 H 
ENDROOT
BRANCH  12  20
ATOM     20  C   LIG d   1       4.649   0.749  -1.900  0.00  0.00     0.081 C 
ATOM     21  H   LIG d   1       4.522  -0.123  -1.257  0.00  0.00     0.059 H 
ATOM     22  H   LIG d   1       5.373   1.428  -1.450  0.00  0.00     0.059 H 
BRANCH  20  23
ATOM     23  O   LIG d   1       3.396   1.418  -2.049  0.00  0.00    -0.391 OA
ATOM     24  H   LIG d   1       3.457   2.272  -2.498  0.00  0.00     0.210 HD
ENDBRANCH  20  23
ENDBRANCH  12  20
BRANCH   1  25
ATOM     25  C   LIG d   1       5.818  -3.874  -4.976  0.00  0.00    -0.022 C 
ATOM     26  H   LIG d   1       5.137  -4.723  -4.917  0.00  0.00     0.029 H 
ATOM     27  H   LIG d   1       6.193  -3.639  -3.980  0.00  0.00     0.029 H 
ATOM     28  H   LIG d   1       6.654  -4.124  -5.629  0.00  0.00     0.029 H 
ENDBRANCH   1  25
BRANCH   8  29
ATOM     29  O   LIG d   1       3.682  -2.872  -9.371  0.00  0.00    -0.493 OA
BRANCH  29  30
ATOM     30  C   LIG d   1       2.517  -3.519  -9.889  0.00  0.00     0.079 C 
ATOM     31  H   LIG d   1       2.719  -3.875 -10.899  0.00  0.00     0.066 H 
ATOM     32  H   LIG d   1       2.257  -4.365  -9.251  0.00  0.00     0.066 H 
ATOM     33  H   LIG d   1       1.688  -2.812  -9.910  0.00  0.00     0.066 H 
ENDBRANCH  29  30
ENDBRANCH   8  29
TORSDOF 5
ENDMDL
MODEL 3
REMARK VINA RESULT:      -5.6      7.667     11.121
REMARK  5 active torsions:
REMARK  status: ('A' for Active; 'I' for Inactive)
REMARK    1  A    between atoms: C_1  and  C_2 
REMARK    2  A    between atoms: C_9  and  O_12 
REMARK    3  A    between atoms: O_12  and  C_13 
REMARK    4  A    between atoms: C_15  and  C_18 
REMARK    5  A    between atoms: C_18  and  O_19 
ROOT
ATOM      1  C   LIG d   1      10.719   5.994  -0.558  0.00  0.00     0.046 A 
ATOM      2  C   LIG d   1      10.384   7.243  -1.057  0.00  0.00     0.019 A 
ATOM      3  C   LIG d   1       9.962   7.384  -2.366  0.00  0.00     0.135 A 
ATOM      4  C   LIG d   1       9.904   6.212  -3.160  0.00  0.00     0.046 A 
ATOM      5  C   LIG d   1       9.494   6.263  -4.500  0.00  0.00    -0.049 A 
ATOM      6  C   LIG d   1       9.449   5.117  -5.237  0.00  0.00    -0.058 A 
ATOM      7  C   LIG d   1       9.804   3.893  -4.677  0.00  0.00    -0.018 A 
ATOM      8  C   LIG d   1      10.206   3.807  -3.374  0.00  0.00     0.146 A 
ATOM      9  C   LIG d   1      10.264   4.972  -2.582  0.00  0.00     0.116 A 
ATOM     10  N   LIG d   1      10.659   4.915  -1.305  0.00  0.00    -0.248 NA
ATOM     11  O   LIG d   1       9.661   8.673  -2.657  0.00  0.00    -0.485 OA
ATOM     12  C   LIG d   1      10.286   9.534  -1.689  0.00  0.00     0.127 C 
ATOM     13  H   LIG d   1      11.278   9.837  -2.025  0.00  0.00     0.076 H 
ATOM     14  C   LIG d   1      10.383   8.627  -0.439  0.00  0.00     0.017 C 
ATOM     15  H   LIG d   1       9.217   7.206  -4.947  0.00  0.00     0.062 H 
ATOM     16  H   LIG d   1       9.134   5.159  -6.269  0.00  0.00     0.062 H 
ATOM     17  H   LIG d   1       9.760   2.999  -5.280  0.00  0.00     0.066 H 
ATOM     18  H   LIG d   1       9.517   8.764   0.208  0.00  0.00     0.035 H 
ATOM     19  H   LIG d   1      11.308   8.812   0.105  0.00  0.00     0.035 H 
ENDROOT
BRANCH  12  20
ATOM     20  C   LIG d   1       9.413  10.760  -1.410  0.00  0.00     0.081 C 
ATOM     21  H   LIG d   1       9.605  11.120  -0.399  0.00  0.00     0.059 H 
ATOM     22  H   LIG d   1       9.653  11.546  -2.126  0.00  0.00     0.059 H 
BRANCH  20  23
ATOM     23  O   LIG d   1       8.036  10.403  -1.536  0.00  0.00    -0.391 OA
ATOM     24  H   LIG d   1       7.681   9.930  -0.771  0.00  0.00     0.210 HD
ENDBRANCH  20  23
ENDBRANCH  12  20
BRANCH   1  25
ATOM     25  C   LIG d   1      11.167   5.871   0.875  0.00  0.00    -0.022 C 
ATOM     26  H   LIG d   1      12.110   6.401   1.008  0.00  0.00     0.029 H 
ATOM     27  H   LIG d   1      11.305   4.818   1.123  0.00  0.00     0.029 H 
ATOM     28  H   LIG d   1      10.412   6.303   1.531  0.00  0.00     0.029 H 
ENDBRANCH   1  25
BRANCH   8  29
ATOM     29  O   LIG d   1      10.548   2.604  -2.844  0.00  0.00    -0.493 OA
BRANCH  29  30
ATOM     30  C   LIG d   1      11.588   1.876  -3.502  0.00  0.00     0.079 C 
ATOM     31  H   LIG d   1      11.669   0.882  -3.061  0.00  0.00     0.066 H 
ATOM     32  H   LIG d   1      11.352   1.785  -4.563  0.00  0.00     0.066 H 
ATOM     33  H   LIG d   1      12.533   2.405  -3.384  0.00  0.00     0.066 H 
ENDBRANCH  29  30
ENDBRANCH   8  29
TORSDOF 5
ENDMDL
MODEL 4
REMARK VINA RESULT:      -5.5      1.462      5.300
REMARK  5 active torsions:
REMARK  status: ('A' for Active; 'I' for Inactive)
REMARK    1  A    between atoms: C_1  and  C_2 
REMARK    2  A    between atoms: C_9  and  O_12 
REMARK    3  A    between atoms: O_12  and  C_13 
REMARK    4  A    between atoms: C_15  and  C_18 
REMARK    5  A    between atoms: C_18  and  O_19 
ROOT
ATOM      1  C   LIG d   1       7.076  -0.646  -6.061  0.00  0.00     0.046 A 
ATOM      2  C   LIG d   1       7.476   0.390  -5.233  0.00  0.00     0.019 A 
ATOM      3  C   LIG d   1       6.910   0.544  -3.980  0.00  0.00     0.135 A 
ATOM      4  C   LIG d   1       5.911  -0.385  -3.601  0.00  0.00     0.046 A 
ATOM      5  C   LIG d   1       5.278  -0.301  -2.352  0.00  0.00    -0.049 A 
ATOM      6  C   LIG d   1       4.320  -1.211  -2.016  0.00  0.00    -0.058 A 
ATOM      7  C   LIG d   1       3.960  -2.226  -2.898  0.00  0.00    -0.018 A 
ATOM      8  C   LIG d   1       4.557  -2.340  -4.121  0.00  0.00     0.146 A 
ATOM      9  C   LIG d   1       5.552  -1.416  -4.501  0.00  0.00     0.116 A 
ATOM     10  N   LIG d   1       6.149  -1.501  -5.696  0.00  0.00    -0.248 NA
ATOM     11  O   LIG d   1       7.447   1.596  -3.316  0.00  0.00    -0.485 OA
ATOM     12  C   LIG d   1       8.089   2.473  -4.259  0.00  0.00     0.127 C 
ATOM     13  H   LIG d   1       7.393   3.232  -4.616  0.00  0.00     0.076 H 
ATOM     14  C   LIG d   1       8.483   1.509  -5.404  0.00  0.00     0.017 C 
ATOM     15  H   LIG d   1       5.547   0.482  -1.659  0.00  0.00     0.062 H 
ATOM     16  H   LIG d   1       3.834  -1.143  -1.055  0.00  0.00     0.062 H 
ATOM     17  H   LIG d   1       3.199  -2.936  -2.610  0.00  0.00     0.066 H 
ATOM     18  H   LIG d   1       9.501   1.142  -5.269  0.00  0.00     0.035 H 
ATOM     19  H   LIG d   1       8.370   1.991  -6.374  0.00  0.00     0.035 H 
ENDROOT
BRANCH  12  20
ATOM     20  C   LIG d   1       9.327   3.124  -3.639  0.00  0.00     0.081 C 
ATOM     21  H   LIG d   1       9.863   3.685  -4.404  0.00  0.00     0.059 H 
ATOM     22  H   LIG d   1       9.020   3.800  -2.841  0.00  0.00     0.059 H 
BRANCH  20  23
ATOM     23  O   LIG d   1      10.181   2.111  -3.104  0.00  0.00    -0.391 OA
ATOM     24  H   LIG d   1      10.744   2.414  -2.380  0.00  0.00     0.210 HD
ENDBRANCH  20  23
ENDBRANCH  12  20
BRANCH   1  25
ATOM     25  C   LIG d   1       7.716  -0.793  -7.417  0.00  0.00    -0.022 C 
ATOM     26  H   LIG d   1       6.970  -0.620  -8.192  0.00  0.00     0.029 H 
ATOM     27  H   LIG d   1       8.121  -1.800  -7.521  0.00  0.00     0.029 H 
ATOM     28  H   LIG d   1       8.522  -0.065  -7.519  0.00  0.00     0.029 H 
ENDBRANCH   1  25
BRANCH   8  29
ATOM     29  O   LIG d   1       4.193  -3.337  -4.969  0.00  0.00    -0.493 OA
BRANCH  29  30
ATOM     30  C   LIG d   1       5.018  -4.504  -4.990  0.00  0.00     0.079 C 
ATOM     31  H   LIG d   1       6.013  -4.239  -5.349  0.00  0.00     0.066 H 
ATOM     32  H   LIG d   1       5.094  -4.915  -3.982  0.00  0.00     0.066 H 
ATOM     33  H   LIG d   1       4.578  -5.248  -5.653  0.00  0.00     0.066 H 
ENDBRANCH  29  30
ENDBRANCH   8  29
TORSDOF 5
ENDMDL
MODEL 5
REMARK VINA RESULT:      -5.4      4.077      5.855
REMARK  5 active torsions:
REMARK  status: ('A' for Active; 'I' for Inactive)
REMARK    1  A    between atoms: C_1  and  C_2 
REMARK    2  A    between atoms: C_9  and  O_12 
REMARK    3  A    between atoms: O_12  and  C_13 
REMARK    4  A    between atoms: C_15  and  C_18 
REMARK    5  A    between atoms: C_18  and  O_19 
ROOT
ATOM      1  C   LIG d   1       5.159  -1.861  -7.694  0.00  0.00     0.046 A 
ATOM      2  C   LIG d   1       4.518  -1.280  -6.611  0.00  0.00     0.019 A 
ATOM      3  C   LIG d   1       3.825  -0.094  -6.761  0.00  0.00     0.135 A 
ATOM      4  C   LIG d   1       3.815   0.494  -8.049  0.00  0.00     0.046 A 
ATOM      5  C   LIG d   1       3.143   1.702  -8.291  0.00  0.00    -0.049 A 
ATOM      6  C   LIG d   1       3.152   2.242  -9.542  0.00  0.00    -0.058 A 
ATOM      7  C   LIG d   1       3.820   1.610 -10.587  0.00  0.00    -0.018 A 
ATOM      8  C   LIG d   1       4.484   0.433 -10.389  0.00  0.00     0.146 A 
ATOM      9  C   LIG d   1       4.494  -0.155  -9.107  0.00  0.00     0.116 A 
ATOM     10  N   LIG d   1       5.141  -1.305  -8.884  0.00  0.00    -0.248 NA
ATOM     11  O   LIG d   1       3.251   0.299  -5.598  0.00  0.00    -0.485 OA
ATOM     12  C   LIG d   1       3.897  -0.373  -4.502  0.00  0.00     0.127 C 
ATOM     13  H   LIG d   1       4.733   0.217  -4.126  0.00  0.00     0.076 H 
ATOM     14  C   LIG d   1       4.398  -1.683  -5.155  0.00  0.00     0.017 C 
ATOM     15  H   LIG d   1       2.621   2.202  -7.489  0.00  0.00     0.062 H 
ATOM     16  H   LIG d   1       2.635   3.172  -9.726  0.00  0.00     0.062 H 
ATOM     17  H   LIG d   1       3.814   2.057 -11.571  0.00  0.00     0.066 H 
ATOM     18  H   LIG d   1       3.669  -2.484  -5.030  0.00  0.00     0.035 H 
ATOM     19  H   LIG d   1       5.366  -1.974  -4.749  0.00  0.00     0.035 H 
ENDROOT
BRANCH  12  20
ATOM     20  C   LIG d   1       2.897  -0.667  -3.381  0.00  0.00     0.081 C 
ATOM     21  H   LIG d   1       2.946   0.125  -2.633  0.00  0.00     0.059 H 
ATOM     22  H   LIG d   1       1.890  -0.711  -3.796  0.00  0.00     0.059 H 
BRANCH  20  23
ATOM     23  O   LIG d   1       3.217  -1.919  -2.772  0.00  0.00    -0.391 OA
ATOM     24  H   LIG d   1       2.783  -2.065  -1.921  0.00  0.00     0.210 HD
ENDBRANCH  20  23
ENDBRANCH  12  20
BRANCH   1  25
ATOM     25  C   LIG d   1       5.900  -3.159  -7.502  0.00  0.00    -0.022 C 
ATOM     26  H   LIG d   1       5.185  -3.963  -7.329  0.00  0.00     0.029 H 
ATOM     27  H   LIG d   1       6.565  -3.073  -6.642  0.00  0.00     0.029 H 
ATOM     28  H   LIG d   1       6.485  -3.379  -8.394  0.00  0.00     0.029 H 
ENDBRANCH   1  25
BRANCH   8  29
ATOM     29  O   LIG d   1       5.130  -0.169 -11.421  0.00  0.00    -0.493 OA
BRANCH  29  30
ATOM     30  C   LIG d   1       4.396  -0.342 -12.635  0.00  0.00     0.079 C 
ATOM     31  H   LIG d   1       5.084  -0.597 -13.442  0.00  0.00     0.066 H 
ATOM     32  H   LIG d   1       3.670  -1.146 -12.509  0.00  0.00     0.066 H 
ATOM     33  H   LIG d   1       3.875   0.583 -12.879  0.00  0.00     0.066 H 
ENDBRANCH  29  30
ENDBRANCH   8  29
TORSDOF 5
ENDMDL
MODEL 6
REMARK VINA RESULT:      -5.3      8.533     11.009
REMARK  5 active torsions:
REMARK  status: ('A' for Active; 'I' for Inactive)
REMARK    1  A    between atoms: C_1  and  C_2 
REMARK    2  A    between atoms: C_9  and  O_12 
REMARK    3  A    between atoms: O_12  and  C_13 
REMARK    4  A    between atoms: C_15  and  C_18 
REMARK    5  A    between atoms: C_18  and  O_19 
ROOT
ATOM      1  C   LIG d   1       9.663   5.737  -3.939  0.00  0.00     0.046 A 
ATOM      2  C   LIG d   1       9.645   6.823  -4.799  0.00  0.00     0.019 A 
ATOM      3  C   LIG d   1       9.851   8.102  -4.317  0.00  0.00     0.135 A 
ATOM      4  C   LIG d   1      10.064   8.244  -2.924  0.00  0.00     0.046 A 
ATOM      5  C   LIG d   1      10.274   9.505  -2.347  0.00  0.00    -0.049 A 
ATOM      6  C   LIG d   1      10.475   9.608  -1.002  0.00  0.00    -0.058 A 
ATOM      7  C   LIG d   1      10.476   8.477  -0.192  0.00  0.00    -0.018 A 
ATOM      8  C   LIG d   1      10.276   7.233  -0.720  0.00  0.00     0.146 A 
ATOM      9  C   LIG d   1      10.065   7.089  -2.107  0.00  0.00     0.116 A 
ATOM     10  N   LIG d   1       9.862   5.883  -2.649  0.00  0.00    -0.248 NA
ATOM     11  O   LIG d   1       9.819   9.021  -5.312  0.00  0.00    -0.485 OA
ATOM     12  C   LIG d   1       9.151   8.458  -6.454  0.00  0.00     0.127 C 
ATOM     13  H   LIG d   1       8.082   8.667  -6.417  0.00  0.00     0.076 H 
ATOM     14  C   LIG d   1       9.421   6.943  -6.293  0.00  0.00     0.017 C 
ATOM     15  H   LIG d   1      10.275  10.391  -2.964  0.00  0.00     0.062 H 
ATOM     16  H   LIG d   1      10.636  10.580  -0.560  0.00  0.00     0.062 H 
ATOM     17  H   LIG d   1      10.637   8.583   0.871  0.00  0.00     0.066 H 
ATOM     18  H   LIG d   1      10.312   6.646  -6.847  0.00  0.00     0.035 H 
ATOM     19  H   LIG d   1       8.557   6.359  -6.607  0.00  0.00     0.035 H 
ENDROOT
BRANCH  12  20
ATOM     20  C   LIG d   1       9.760   8.988  -7.754  0.00  0.00     0.081 C 
ATOM     21  H   LIG d   1      10.301   9.912  -7.551  0.00  0.00     0.059 H 
ATOM     22  H   LIG d   1      10.447   8.247  -8.162  0.00  0.00     0.059 H 
BRANCH  20  23
ATOM     23  O   LIG d   1       8.719   9.245  -8.699  0.00  0.00    -0.391 OA
ATOM     24  H   LIG d   1       7.831   9.238  -8.317  0.00  0.00     0.210 HD
ENDBRANCH  20  23
ENDBRANCH  12  20
BRANCH   1  25
ATOM     25  C   LIG d   1       9.443   4.354  -4.495  0.00  0.00    -0.022 C 
ATOM     26  H   LIG d   1       9.439   3.630  -3.680  0.00  0.00     0.029 H 
ATOM     27  H   LIG d   1      10.245   4.111  -5.193  0.00  0.00     0.029 H 
ATOM     28  H   LIG d   1       8.486   4.319  -5.016  0.00  0.00     0.029 H 
ENDBRANCH   1  25
BRANCH   8  29
ATOM     29  O   LIG d   1      10.280   6.140   0.087  0.00  0.00    -0.493 OA
BRANCH  29  30
ATOM     30  C   LIG d   1      11.542   5.726   0.613  0.00  0.00     0.079 C 
ATOM     31  H   LIG d   1      12.319   6.416   0.279  0.00  0.00     0.066 H 
ATOM     32  H   LIG d   1      11.500   5.728   1.703  0.00  0.00     0.066 H 
ATOM     33  H   LIG d   1      11.772   4.721   0.260  0.00  0.00     0.066 H 
ENDBRANCH  29  30
ENDBRANCH   8  29
TORSDOF 5
ENDMDL
MODEL 7
REMARK VINA RESULT:      -5.0      5.848      8.008
REMARK  5 active torsions:
REMARK  status: ('A' for Active; 'I' for Inactive)
REMARK    1  A    between atoms: C_1  and  C_2 
REMARK    2  A    between atoms: C_9  and  O_12 
REMARK    3  A    between atoms: O_12  and  C_13 
REMARK    4  A    between atoms: C_15  and  C_18 
REMARK    5  A    between atoms: C_18  and  O_19 
ROOT
ATOM      1  C   LIG d   1       7.509  -7.699  -4.888  0.00  0.00     0.046 A 
ATOM      2  C   LIG d   1       6.351  -7.338  -5.558  0.00  0.00     0.019 A 
ATOM      3  C   LIG d   1       5.172  -8.026  -5.340  0.00  0.00     0.135 A 
ATOM      4  C   LIG d   1       5.210  -9.106  -4.425  0.00  0.00     0.046 A 
ATOM      5  C   LIG d   1       4.063  -9.864  -4.148  0.00  0.00    -0.049 A 
ATOM      6  C   LIG d   1       4.133 -10.897  -3.262  0.00  0.00    -0.058 A 
ATOM      7  C   LIG d   1       5.330 -11.212  -2.625  0.00  0.00    -0.018 A 
ATOM      8  C   LIG d   1       6.467 -10.494  -2.870  0.00  0.00     0.146 A 
ATOM      9  C   LIG d   1       6.430  -9.418  -3.780  0.00  0.00     0.116 A 
ATOM     10  N   LIG d   1       7.530  -8.702  -4.041  0.00  0.00    -0.248 NA
ATOM     11  O   LIG d   1       4.152  -7.511  -6.068  0.00  0.00    -0.485 OA
ATOM     12  C   LIG d   1       4.690  -6.727  -7.148  0.00  0.00     0.127 C 
ATOM     13  H   LIG d   1       4.830  -7.341  -8.038  0.00  0.00     0.076 H 
ATOM     14  C   LIG d   1       6.053  -6.261  -6.583  0.00  0.00     0.017 C 
ATOM     15  H   LIG d   1       3.129  -9.631  -4.636  0.00  0.00     0.062 H 
ATOM     16  H   LIG d   1       3.249 -11.481  -3.052  0.00  0.00     0.062 H 
ATOM     17  H   LIG d   1       5.362 -12.036  -1.927  0.00  0.00     0.066 H 
ATOM     18  H   LIG d   1       5.964  -5.285  -6.108  0.00  0.00     0.035 H 
ATOM     19  H   LIG d   1       6.813  -6.245  -7.364  0.00  0.00     0.035 H 
ENDROOT
BRANCH  12  20
ATOM     20  C   LIG d   1       3.786  -5.531  -7.454  0.00  0.00     0.081 C 
ATOM     21  H   LIG d   1       4.387  -4.713  -7.851  0.00  0.00     0.059 H 
ATOM     22  H   LIG d   1       3.037  -5.822  -8.191  0.00  0.00     0.059 H 
BRANCH  20  23
ATOM     23  O   LIG d   1       3.135  -5.106  -6.255  0.00  0.00    -0.391 OA
ATOM     24  H   LIG d   1       3.085  -4.146  -6.154  0.00  0.00     0.210 HD
ENDBRANCH  20  23
ENDBRANCH  12  20
BRANCH   1  25
ATOM     25  C   LIG d   1       8.777  -6.924  -5.140  0.00  0.00    -0.022 C 
ATOM     26  H   LIG d   1       9.570  -7.306  -4.498  0.00  0.00     0.029 H 
ATOM     27  H   LIG d   1       8.609  -5.870  -4.922  0.00  0.00     0.029 H 
ATOM     28  H   LIG d   1       9.069  -7.037  -6.184  0.00  0.00     0.029 H 
ENDBRANCH   1  25
BRANCH   8  29
ATOM     29  O   LIG d   1       7.626 -10.816  -2.239  0.00  0.00    -0.493 OA
BRANCH  29  30
ATOM     30  C   LIG d   1       7.587 -10.903  -0.813  0.00  0.00     0.079 C 
ATOM     31  H   LIG d   1       6.690 -10.404  -0.443  0.00  0.00     0.066 H 
ATOM     32  H   LIG d   1       7.568 -11.952  -0.513  0.00  0.00     0.066 H 
ATOM     33  H   LIG d   1       8.470 -10.421  -0.394  0.00  0.00     0.066 H 
ENDBRANCH  29  30
ENDBRANCH   8  29
TORSDOF 5
ENDMDL
MODEL 8
REMARK VINA RESULT:      -5.0     10.702     12.847
REMARK  5 active torsions:
REMARK  status: ('A' for Active; 'I' for Inactive)
REMARK    1  A    between atoms: C_1  and  C_2 
REMARK    2  A    between atoms: C_9  and  O_12 
REMARK    3  A    between atoms: O_12  and  C_13 
REMARK    4  A    between atoms: C_15  and  C_18 
REMARK    5  A    between atoms: C_18  and  O_19 
ROOT
ATOM      1  C   LIG d   1       9.996   7.871  -2.217  0.00  0.00     0.046 A 
ATOM      2  C   LIG d   1      10.370   7.439  -0.954  0.00  0.00     0.019 A 
ATOM      3  C   LIG d   1      10.673   8.353   0.037  0.00  0.00     0.135 A 
ATOM      4  C   LIG d   1      10.598   9.727  -0.301  0.00  0.00     0.046 A 
ATOM      5  C   LIG d   1      10.896  10.723   0.640  0.00  0.00    -0.049 A 
ATOM      6  C   LIG d   1      10.814  12.036   0.283  0.00  0.00    -0.058 A 
ATOM      7  C   LIG d   1      10.438  12.404  -1.005  0.00  0.00    -0.018 A 
ATOM      8  C   LIG d   1      10.139  11.460  -1.947  0.00  0.00     0.146 A 
ATOM      9  C   LIG d   1      10.213  10.092  -1.612  0.00  0.00     0.116 A 
ATOM     10  N   LIG d   1       9.930   9.148  -2.517  0.00  0.00    -0.248 NA
ATOM     11  O   LIG d   1      10.992   7.739   1.202  0.00  0.00    -0.485 OA
ATOM     12  C   LIG d   1      11.348   6.371   0.933  0.00  0.00     0.127 C 
ATOM     13  H   LIG d   1      12.419   6.279   0.754  0.00  0.00     0.076 H 
ATOM     14  C   LIG d   1      10.548   6.058  -0.354  0.00  0.00     0.017 C 
ATOM     15  H   LIG d   1      11.190  10.452   1.643  0.00  0.00     0.062 H 
ATOM     16  H   LIG d   1      11.045  12.802   1.009  0.00  0.00     0.062 H 
ATOM     17  H   LIG d   1      10.380  13.450  -1.265  0.00  0.00     0.066 H 
ATOM     18  H   LIG d   1       9.583   5.611  -0.113  0.00  0.00     0.035 H 
ATOM     19  H   LIG d   1      11.119   5.414  -1.020  0.00  0.00     0.035 H 
ENDROOT
BRANCH  12  20
ATOM     20  C   LIG d   1      10.913   5.461   2.084  0.00  0.00     0.081 C 
ATOM     21  H   LIG d   1       9.872   5.170   1.943  0.00  0.00     0.059 H 
ATOM     22  H   LIG d   1      11.540   4.569   2.098  0.00  0.00     0.059 H 
BRANCH  20  23
ATOM     23  O   LIG d   1      11.049   6.160   3.322  0.00  0.00    -0.391 OA
ATOM     24  H   LIG d   1      10.490   6.945   3.394  0.00  0.00     0.210 HD
ENDBRANCH  20  23
ENDBRANCH  12  20
BRANCH   1  25
ATOM     25  C   LIG d   1       9.664   6.850  -3.275  0.00  0.00    -0.022 C 
ATOM     26  H   LIG d   1       9.210   7.349  -4.132  0.00  0.00     0.029 H 
ATOM     27  H   LIG d   1       8.963   6.120  -2.868  0.00  0.00     0.029 H 
ATOM     28  H   LIG d   1      10.575   6.343  -3.590  0.00  0.00     0.029 H 
ENDBRANCH   1  25
BRANCH   8  29
ATOM     29  O   LIG d   1       9.773  11.837  -3.199  0.00  0.00    -0.493 OA
BRANCH  29  30
ATOM     30  C   LIG d   1       8.518  12.506  -3.335  0.00  0.00     0.079 C 
ATOM     31  H   LIG d   1       8.672  13.474  -3.814  0.00  0.00     0.066 H 
ATOM     32  H   LIG d   1       7.848  11.901  -3.949  0.00  0.00     0.066 H 
ATOM     33  H   LIG d   1       8.075  12.653  -2.351  0.00  0.00     0.066 H 
ENDBRANCH  29  30
ENDBRANCH   8  29
TORSDOF 5
ENDMDL
MODEL 9
REMARK VINA RESULT:      -4.9      3.286      3.677
REMARK  5 active torsions:
REMARK  status: ('A' for Active; 'I' for Inactive)
REMARK    1  A    between atoms: C_1  and  C_2 
REMARK    2  A    between atoms: C_9  and  O_12 
REMARK    3  A    between atoms: O_12  and  C_13 
REMARK    4  A    between atoms: C_15  and  C_18 
REMARK    5  A    between atoms: C_18  and  O_19 
ROOT
ATOM      1  C   LIG d   1       5.843  -0.845  -7.104  0.00  0.00     0.046 A 
ATOM      2  C   LIG d   1       4.572  -0.676  -7.631  0.00  0.00     0.019 A 
ATOM      3  C   LIG d   1       3.508  -0.365  -6.805  0.00  0.00     0.135 A 
ATOM      4  C   LIG d   1       3.774  -0.245  -5.420  0.00  0.00     0.046 A 
ATOM      5  C   LIG d   1       2.753   0.061  -4.508  0.00  0.00    -0.049 A 
ATOM      6  C   LIG d   1       3.042   0.170  -3.181  0.00  0.00    -0.058 A 
ATOM      7  C   LIG d   1       4.340  -0.017  -2.715  0.00  0.00    -0.018 A 
ATOM      8  C   LIG d   1       5.360  -0.314  -3.575  0.00  0.00     0.146 A 
ATOM      9  C   LIG d   1       5.097  -0.435  -4.955  0.00  0.00     0.116 A 
ATOM     10  N   LIG d   1       6.076  -0.730  -5.817  0.00  0.00    -0.248 NA
ATOM     11  O   LIG d   1       2.358  -0.219  -7.508  0.00  0.00    -0.485 OA
ATOM     12  C   LIG d   1       2.502  -0.858  -8.789  0.00  0.00     0.127 C 
ATOM     13  H   LIG d   1       2.176  -1.897  -8.740  0.00  0.00     0.076 H 
ATOM     14  C   LIG d   1       4.026  -0.772  -9.042  0.00  0.00     0.017 C 
ATOM     15  H   LIG d   1       1.741   0.208  -4.856  0.00  0.00     0.062 H 
ATOM     16  H   LIG d   1       2.254   0.405  -2.480  0.00  0.00     0.062 H 
ATOM     17  H   LIG d   1       4.546   0.075  -1.658  0.00  0.00     0.066 H 
ATOM     18  H   LIG d   1       4.275   0.120  -9.617  0.00  0.00     0.035 H 
ATOM     19  H   LIG d   1       4.388  -1.670  -9.540  0.00  0.00     0.035 H 
ENDROOT
BRANCH  12  20
ATOM     20  C   LIG d   1       1.724  -0.097  -9.864  0.00  0.00     0.081 C 
ATOM     21  H   LIG d   1       1.204   0.746  -9.408  0.00  0.00     0.059 H 
ATOM     22  H   LIG d   1       2.416   0.271 -10.621  0.00  0.00     0.059 H 
BRANCH  20  23
ATOM     23  O   LIG d   1       0.772  -0.971 -10.473  0.00  0.00    -0.391 OA
ATOM     24  H   LIG d   1       1.101  -1.423 -11.261  0.00  0.00     0.210 HD
ENDBRANCH  20  23
ENDBRANCH  12  20
BRANCH   1  25
ATOM     25  C   LIG d   1       6.985  -1.176  -8.030  0.00  0.00    -0.022 C 
ATOM     26  H   LIG d   1       7.492  -2.073  -7.676  0.00  0.00     0.029 H 
ATOM     27  H   LIG d   1       7.689  -0.344  -8.050  0.00  0.00     0.029 H 
ATOM     28  H   LIG d   1       6.599  -1.349  -9.035  0.00  0.00     0.029 H 
ENDBRANCH   1  25
BRANCH   8  29
ATOM     29  O   LIG d   1       6.621  -0.493  -3.102  0.00  0.00    -0.493 OA
BRANCH  29  30
ATOM     30  C   LIG d   1       7.113  -1.834  -3.057  0.00  0.00     0.079 C 
ATOM     31  H   LIG d   1       6.959  -2.244  -2.058  0.00  0.00     0.066 H 
ATOM     32  H   LIG d   1       6.576  -2.444  -3.785  0.00  0.00     0.066 H 
ATOM     33  H   LIG d   1       8.176  -1.840  -3.293  0.00  0.00     0.066 H 
ENDBRANCH  29  30
ENDBRANCH   8  29
TORSDOF 5
ENDMDL
MODEL 10
REMARK VINA RESULT:      -4.9      2.832      3.560
REMARK  5 active torsions:
REMARK  status: ('A' for Active; 'I' for Inactive)
REMARK    1  A    between atoms: C_1  and  C_2 
REMARK    2  A    between atoms: C_9  and  O_12 
REMARK    3  A    between atoms: O_12  and  C_13 
REMARK    4  A    between atoms: C_15  and  C_18 
REMARK    5  A    between atoms: C_18  and  O_19 
ROOT
ATOM      1  C   LIG d   1       5.121  -2.634  -5.656  0.00  0.00     0.046 A 
ATOM      2  C   LIG d   1       6.237  -2.829  -4.858  0.00  0.00     0.019 A 
ATOM      3  C   LIG d   1       6.395  -2.110  -3.688  0.00  0.00     0.135 A 
ATOM      4  C   LIG d   1       5.386  -1.172  -3.360  0.00  0.00     0.046 A 
ATOM      5  C   LIG d   1       5.468  -0.393  -2.196  0.00  0.00    -0.049 A 
ATOM      6  C   LIG d   1       4.480   0.500  -1.910  0.00  0.00    -0.058 A 
ATOM      7  C   LIG d   1       3.386   0.652  -2.758  0.00  0.00    -0.018 A 
ATOM      8  C   LIG d   1       3.273  -0.091  -3.899  0.00  0.00     0.146 A 
ATOM      9  C   LIG d   1       4.277  -1.025  -4.227  0.00  0.00     0.116 A 
ATOM     10  N   LIG d   1       4.192  -1.762  -5.341  0.00  0.00    -0.248 NA
ATOM     11  O   LIG d   1       7.533  -2.458  -3.038  0.00  0.00    -0.485 OA
ATOM     12  C   LIG d   1       8.422  -3.113  -3.960  0.00  0.00     0.127 C 
ATOM     13  H   LIG d   1       9.082  -2.391  -4.439  0.00  0.00     0.076 H 
ATOM     14  C   LIG d   1       7.447  -3.733  -4.990  0.00  0.00     0.017 C 
ATOM     15  H   LIG d   1       6.311  -0.500  -1.531  0.00  0.00     0.062 H 
ATOM     16  H   LIG d   1       4.545   1.100  -1.014  0.00  0.00     0.062 H 
ATOM     17  H   LIG d   1       2.615   1.367  -2.511  0.00  0.00     0.066 H 
ATOM     18  H   LIG d   1       7.198  -4.759  -4.720  0.00  0.00     0.035 H 
ATOM     19  H   LIG d   1       7.862  -3.685  -5.996  0.00  0.00     0.035 H 
ENDROOT
BRANCH  12  20
ATOM     20  C   LIG d   1       9.233  -4.199  -3.251  0.00  0.00     0.081 C 
ATOM     21  H   LIG d   1       9.558  -3.832  -2.277  0.00  0.00     0.059 H 
ATOM     22  H   LIG d   1       8.614  -5.086  -3.116  0.00  0.00     0.059 H 
BRANCH  20  23
ATOM     23  O   LIG d   1      10.377  -4.532  -4.040  0.00  0.00    -0.391 OA
ATOM     24  H   LIG d   1      10.162  -4.898  -4.909  0.00  0.00     0.210 HD
ENDBRANCH  20  23
ENDBRANCH  12  20
BRANCH   1  25
ATOM     25  C   LIG d   1       4.973  -3.439  -6.921  0.00  0.00    -0.022 C 
ATOM     26  H   LIG d   1       4.733  -2.773  -7.750  0.00  0.00     0.029 H 
ATOM     27  H   LIG d   1       4.171  -4.167  -6.797  0.00  0.00     0.029 H 
ATOM     28  H   LIG d   1       5.906  -3.960  -7.133  0.00  0.00     0.029 H 
ENDBRANCH   1  25
BRANCH   8  29
ATOM     29  O   LIG d   1       2.199   0.071  -4.715  0.00  0.00    -0.493 OA
BRANCH  29  30
ATOM     30  C   LIG d   1       2.376   0.897  -5.867  0.00  0.00     0.079 C 
ATOM     31  H   LIG d   1       1.982   0.385  -6.745  0.00  0.00     0.066 H 
ATOM     32  H   LIG d   1       1.842   1.838  -5.725  0.00  0.00     0.066 H 
ATOM     33  H   LIG d   1       3.437   1.100  -6.009  0.00  0.00     0.066 H 
ENDBRANCH  29  30
ENDBRANCH   8  29
TORSDOF 5
ENDMDL
