MODEL 1
REMARK VINA RESULT:      -5.6      0.000      0.000
REMARK  6 active torsions:
REMARK  status: ('A' for Active; 'I' for Inactive)
REMARK    1  A    between atoms: C_1  and  C_2 
REMARK    2  A    between atoms: C_2  and  C_3 
REMARK    3  A    between atoms: N_6  and  C_9 
REMARK    4  A    between atoms: C_9  and  C_10 
REMARK    5  A    between atoms: C_10  and  C_12 
REMARK    6  A    between atoms: C_15  and  N_18 
ROOT
ATOM      1  C   LIG d   1       6.275  -4.064  -5.932  0.00  0.00     0.212 C 
ATOM      2  H   LIG d   1       6.501  -3.118  -6.425  0.00  0.00     0.112 H 
ATOM      3  H   LIG d   1       6.135  -4.841  -6.684  0.00  0.00     0.112 H 
ENDROOT
BRANCH   1   4
ATOM      4  N   LIG d   1       7.388  -4.432  -5.052  0.00  0.00    -0.196 N 
ATOM      5  C   LIG d   1       7.817  -5.679  -5.048  0.00  0.00     0.172 A 
ATOM      6  C   LIG d   1       8.863  -6.063  -4.231  0.00  0.00     0.005 A 
ATOM      7  H   LIG d   1       7.345  -6.408  -5.691  0.00  0.00     0.138 H 
ATOM      8  C   LIG d   1       9.462  -5.120  -3.411  0.00  0.00    -0.036 A 
ATOM      9  H   LIG d   1       9.211  -7.086  -4.233  0.00  0.00     0.068 H 
ATOM     10  C   LIG d   1       8.979  -3.820  -3.438  0.00  0.00     0.005 A 
ATOM     11  C   LIG d   1       7.933  -3.509  -4.285  0.00  0.00     0.172 A 
ATOM     12  H   LIG d   1       9.418  -3.061  -2.808  0.00  0.00     0.068 H 
ATOM     13  H   LIG d   1       7.554  -2.498  -4.316  0.00  0.00     0.138 H 
BRANCH   8  14
ATOM     14  C   LIG d   1      10.606  -5.499  -2.506  0.00  0.00    -0.030 C 
ATOM     15  H   LIG d   1      10.867  -4.649  -1.875  0.00  0.00     0.031 H 
ATOM     16  H   LIG d   1      11.468  -5.781  -3.109  0.00  0.00     0.031 H 
BRANCH  14  17
ATOM     17  C   LIG d   1      10.191  -6.680  -1.626  0.00  0.00    -0.061 C 
ATOM     18  H   LIG d   1      10.302  -7.608  -2.188  0.00  0.00     0.023 H 
ATOM     19  H   LIG d   1      10.824  -6.713  -0.740  0.00  0.00     0.023 H 
ATOM     20  H   LIG d   1       9.150  -6.560  -1.326  0.00  0.00     0.023 H 
ENDBRANCH  14  17
ENDBRANCH   8  14
ENDBRANCH   1   4
BRANCH   1  21
ATOM     21  C   LIG d   1       5.017  -3.919  -5.118  0.00  0.00     0.228 C 
ATOM     22  O   LIG d   1       4.314  -4.885  -4.909  0.00  0.00    -0.285 OA
BRANCH  21  23
ATOM     23  C   LIG d   1       4.640  -2.604  -4.574  0.00  0.00     0.024 A 
ATOM     24  C   LIG d   1       4.209  -2.488  -3.249  0.00  0.00    -0.045 A 
ATOM     25  C   LIG d   1       3.864  -1.251  -2.745  0.00  0.00     0.016 A 
ATOM     26  H   LIG d   1       4.152  -3.364  -2.620  0.00  0.00     0.063 H 
ATOM     27  C   LIG d   1       3.932  -0.129  -3.551  0.00  0.00     0.273 A 
ATOM     28  H   LIG d   1       3.536  -1.160  -1.720  0.00  0.00     0.069 H 
ATOM     29  C   LIG d   1       4.351  -0.235  -4.866  0.00  0.00     0.016 A 
ATOM     30  C   LIG d   1       4.706  -1.464  -5.382  0.00  0.00    -0.045 A 
ATOM     31  H   LIG d   1       4.402   0.646  -5.489  0.00  0.00     0.069 H 
ATOM     32  H   LIG d   1       5.034  -1.546  -6.409  0.00  0.00     0.063 H 
BRANCH  27  33
ATOM     33  N   LIG d   1       3.554   1.194  -3.005  0.00  0.00     0.080 N 
ATOM     34  O   LIG d   1       3.572   1.383  -1.811  0.00  0.00     0.041 OA
ATOM     35  O   LIG d   1       3.228   2.086  -3.754  0.00  0.00    -0.576 OA
ENDBRANCH  27  33
ENDBRANCH  21  23
ENDBRANCH   1  21
TORSDOF 6
ENDMDL
MODEL 2
REMARK VINA RESULT:      -5.6      5.916      7.311
REMARK  6 active torsions:
REMARK  status: ('A' for Active; 'I' for Inactive)
REMARK    1  A    between atoms: C_1  and  C_2 
REMARK    2  A    between atoms: C_2  and  C_3 
REMARK    3  A    between atoms: N_6  and  C_9 
REMARK    4  A    between atoms: C_9  and  C_10 
REMARK    5  A    between atoms: C_10  and  C_12 
REMARK    6  A    between atoms: C_15  and  N_18 
ROOT
ATOM      1  C   LIG d   1       8.431   1.160  -5.412  0.00  0.00     0.212 C 
ATOM      2  H   LIG d   1       8.701   0.404  -6.151  0.00  0.00     0.112 H 
ATOM      3  H   LIG d   1       8.004   2.026  -5.917  0.00  0.00     0.112 H 
ENDROOT
BRANCH   1   4
ATOM      4  N   LIG d   1       7.445   0.601  -4.482  0.00  0.00    -0.196 N 
ATOM      5  C   LIG d   1       7.317  -0.709  -4.394  0.00  0.00     0.172 A 
ATOM      6  C   LIG d   1       6.398  -1.271  -3.529  0.00  0.00     0.005 A 
ATOM      7  H   LIG d   1       7.936  -1.348  -5.006  0.00  0.00     0.138 H 
ATOM      8  C   LIG d   1       5.608  -0.442  -2.748  0.00  0.00    -0.036 A 
ATOM      9  H   LIG d   1       6.298  -2.344  -3.461  0.00  0.00     0.068 H 
ATOM     10  C   LIG d   1       5.768   0.930  -2.873  0.00  0.00     0.005 A 
ATOM     11  C   LIG d   1       6.711   1.420  -3.755  0.00  0.00     0.172 A 
ATOM     12  H   LIG d   1       5.166   1.606  -2.284  0.00  0.00     0.068 H 
ATOM     13  H   LIG d   1       6.845   2.487  -3.855  0.00  0.00     0.138 H 
BRANCH   8  14
ATOM     14  C   LIG d   1       4.595  -1.017  -1.792  0.00  0.00    -0.030 C 
ATOM     15  H   LIG d   1       3.896  -0.237  -1.491  0.00  0.00     0.031 H 
ATOM     16  H   LIG d   1       5.106  -1.405  -0.912  0.00  0.00     0.031 H 
BRANCH  14  17
ATOM     17  C   LIG d   1       3.831  -2.150  -2.479  0.00  0.00    -0.061 C 
ATOM     18  H   LIG d   1       4.144  -2.219  -3.521  0.00  0.00     0.023 H 
ATOM     19  H   LIG d   1       4.043  -3.092  -1.972  0.00  0.00     0.023 H 
ATOM     20  H   LIG d   1       2.761  -1.946  -2.434  0.00  0.00     0.023 H 
ENDBRANCH  14  17
ENDBRANCH   8  14
ENDBRANCH   1   4
BRANCH   1  21
ATOM     21  C   LIG d   1       9.661   1.578  -4.649  0.00  0.00     0.228 C 
ATOM     22  O   LIG d   1      10.587   0.806  -4.521  0.00  0.00    -0.285 OA
BRANCH  21  23
ATOM     23  C   LIG d   1       9.738   2.924  -4.058  0.00  0.00     0.024 A 
ATOM     24  C   LIG d   1       9.216   4.024  -4.745  0.00  0.00    -0.045 A 
ATOM     25  C   LIG d   1       9.286   5.281  -4.182  0.00  0.00     0.016 A 
ATOM     26  H   LIG d   1       8.754   3.889  -5.713  0.00  0.00     0.063 H 
ATOM     27  C   LIG d   1       9.882   5.457  -2.946  0.00  0.00     0.273 A 
ATOM     28  H   LIG d   1       8.879   6.131  -4.710  0.00  0.00     0.069 H 
ATOM     29  C   LIG d   1      10.406   4.374  -2.261  0.00  0.00     0.016 A 
ATOM     30  C   LIG d   1      10.338   3.110  -2.809  0.00  0.00    -0.045 A 
ATOM     31  H   LIG d   1      10.870   4.519  -1.297  0.00  0.00     0.069 H 
ATOM     32  H   LIG d   1      10.747   2.265  -2.273  0.00  0.00     0.063 H 
BRANCH  27  33
ATOM     33  N   LIG d   1       9.959   6.810  -2.351  0.00  0.00     0.080 N 
ATOM     34  O   LIG d   1       9.247   7.102  -1.418  0.00  0.00     0.041 OA
ATOM     35  O   LIG d   1      10.733   7.623  -2.799  0.00  0.00    -0.576 OA
ENDBRANCH  27  33
ENDBRANCH  21  23
ENDBRANCH   1  21
TORSDOF 6
ENDMDL
MODEL 3
REMARK VINA RESULT:      -5.6      3.915      5.502
REMARK  6 active torsions:
REMARK  status: ('A' for Active; 'I' for Inactive)
REMARK    1  A    between atoms: C_1  and  C_2 
REMARK    2  A    between atoms: C_2  and  C_3 
REMARK    3  A    between atoms: N_6  and  C_9 
REMARK    4  A    between atoms: C_9  and  C_10 
REMARK    5  A    between atoms: C_10  and  C_12 
REMARK    6  A    between atoms: C_15  and  N_18 
ROOT
ATOM      1  C   LIG d   1       5.749  -3.444  -5.904  0.00  0.00     0.212 C 
ATOM      2  H   LIG d   1       6.777  -3.294  -6.236  0.00  0.00     0.112 H 
ATOM      3  H   LIG d   1       5.624  -4.470  -5.558  0.00  0.00     0.112 H 
ENDROOT
BRANCH   1   4
ATOM      4  N   LIG d   1       5.452  -2.518  -4.807  0.00  0.00    -0.196 N 
ATOM      5  C   LIG d   1       4.336  -2.674  -4.121  0.00  0.00     0.172 A 
ATOM      6  C   LIG d   1       4.022  -1.820  -3.081  0.00  0.00     0.005 A 
ATOM      7  H   LIG d   1       3.660  -3.477  -4.376  0.00  0.00     0.138 H 
ATOM      8  C   LIG d   1       4.895  -0.793  -2.762  0.00  0.00    -0.036 A 
ATOM      9  H   LIG d   1       3.107  -1.953  -2.522  0.00  0.00     0.068 H 
ATOM     10  C   LIG d   1       6.056  -0.657  -3.510  0.00  0.00     0.005 A 
ATOM     11  C   LIG d   1       6.306  -1.552  -4.532  0.00  0.00     0.172 A 
ATOM     12  H   LIG d   1       6.757   0.135  -3.292  0.00  0.00     0.068 H 
ATOM     13  H   LIG d   1       7.209  -1.457  -5.116  0.00  0.00     0.138 H 
BRANCH   8  14
ATOM     14  C   LIG d   1       4.590   0.158  -1.634  0.00  0.00    -0.030 C 
ATOM     15  H   LIG d   1       5.522   0.524  -1.203  0.00  0.00     0.031 H 
ATOM     16  H   LIG d   1       4.015  -0.360  -0.867  0.00  0.00     0.031 H 
BRANCH  14  17
ATOM     17  C   LIG d   1       3.777   1.339  -2.169  0.00  0.00    -0.061 C 
ATOM     18  H   LIG d   1       3.592   2.048  -1.361  0.00  0.00     0.023 H 
ATOM     19  H   LIG d   1       4.334   1.833  -2.965  0.00  0.00     0.023 H 
ATOM     20  H   LIG d   1       2.826   0.978  -2.560  0.00  0.00     0.023 H 
ENDBRANCH  14  17
ENDBRANCH   8  14
ENDBRANCH   1   4
BRANCH   1  21
ATOM     21  C   LIG d   1       4.808  -3.182  -7.051  0.00  0.00     0.228 C 
ATOM     22  O   LIG d   1       4.089  -4.069  -7.461  0.00  0.00    -0.285 OA
BRANCH  21  23
ATOM     23  C   LIG d   1       4.760  -1.849  -7.675  0.00  0.00     0.024 A 
ATOM     24  C   LIG d   1       5.917  -1.291  -8.227  0.00  0.00    -0.045 A 
ATOM     25  C   LIG d   1       5.863  -0.044  -8.816  0.00  0.00     0.016 A 
ATOM     26  H   LIG d   1       6.849  -1.836  -8.199  0.00  0.00     0.063 H 
ATOM     27  C   LIG d   1       4.671   0.658  -8.850  0.00  0.00     0.273 A 
ATOM     28  H   LIG d   1       6.755   0.386  -9.248  0.00  0.00     0.069 H 
ATOM     29  C   LIG d   1       3.523   0.114  -8.299  0.00  0.00     0.016 A 
ATOM     30  C   LIG d   1       3.560  -1.134  -7.713  0.00  0.00    -0.045 A 
ATOM     31  H   LIG d   1       2.596   0.668  -8.329  0.00  0.00     0.069 H 
ATOM     32  H   LIG d   1       2.662  -1.557  -7.284  0.00  0.00     0.063 H 
BRANCH  27  33
ATOM     33  N   LIG d   1       4.622   1.997  -9.478  0.00  0.00     0.080 N 
ATOM     34  O   LIG d   1       3.662   2.322 -10.135  0.00  0.00     0.041 OA
ATOM     35  O   LIG d   1       5.545   2.765  -9.334  0.00  0.00    -0.576 OA
ENDBRANCH  27  33
ENDBRANCH  21  23
ENDBRANCH   1  21
TORSDOF 6
ENDMDL
MODEL 4
REMARK VINA RESULT:      -5.5      3.724      5.716
REMARK  6 active torsions:
REMARK  status: ('A' for Active; 'I' for Inactive)
REMARK    1  A    between atoms: C_1  and  C_2 
REMARK    2  A    between atoms: C_2  and  C_3 
REMARK    3  A    between atoms: N_6  and  C_9 
REMARK    4  A    between atoms: C_9  and  C_10 
REMARK    5  A    between atoms: C_10  and  C_12 
REMARK    6  A    between atoms: C_15  and  N_18 
ROOT
ATOM      1  C   LIG d   1       6.302  -3.683  -5.020  0.00  0.00     0.212 C 
ATOM      2  H   LIG d   1       7.248  -4.076  -4.644  0.00  0.00     0.112 H 
ATOM      3  H   LIG d   1       5.554  -4.476  -5.020  0.00  0.00     0.112 H 
ENDROOT
BRANCH   1   4
ATOM      4  N   LIG d   1       5.853  -2.587  -4.157  0.00  0.00    -0.196 N 
ATOM      5  C   LIG d   1       4.647  -2.641  -3.627  0.00  0.00     0.172 A 
ATOM      6  C   LIG d   1       4.188  -1.626  -2.810  0.00  0.00     0.005 A 
ATOM      7  H   LIG d   1       4.009  -3.488  -3.836  0.00  0.00     0.138 H 
ATOM      8  C   LIG d   1       5.013  -0.543  -2.548  0.00  0.00    -0.036 A 
ATOM      9  H   LIG d   1       3.200  -1.676  -2.378  0.00  0.00     0.068 H 
ATOM     10  C   LIG d   1       6.273  -0.519  -3.128  0.00  0.00     0.005 A 
ATOM     11  C   LIG d   1       6.665  -1.573  -3.931  0.00  0.00     0.172 A 
ATOM     12  H   LIG d   1       6.940   0.311  -2.951  0.00  0.00     0.068 H 
ATOM     13  H   LIG d   1       7.646  -1.565  -4.383  0.00  0.00     0.138 H 
BRANCH   8  14
ATOM     14  C   LIG d   1       4.551   0.584  -1.661  0.00  0.00    -0.030 C 
ATOM     15  H   LIG d   1       5.408   1.191  -1.369  0.00  0.00     0.031 H 
ATOM     16  H   LIG d   1       4.077   0.173  -0.770  0.00  0.00     0.031 H 
BRANCH  14  17
ATOM     17  C   LIG d   1       3.545   1.451  -2.421  0.00  0.00    -0.061 C 
ATOM     18  H   LIG d   1       2.768   1.789  -1.735  0.00  0.00     0.023 H 
ATOM     19  H   LIG d   1       4.057   2.314  -2.846  0.00  0.00     0.023 H 
ATOM     20  H   LIG d   1       3.093   0.865  -3.221  0.00  0.00     0.023 H 
ENDBRANCH  14  17
ENDBRANCH   8  14
ENDBRANCH   1   4
BRANCH   1  21
ATOM     21  C   LIG d   1       6.494  -3.172  -6.424  0.00  0.00     0.228 C 
ATOM     22  O   LIG d   1       7.609  -3.085  -6.891  0.00  0.00    -0.285 OA
BRANCH  21  23
ATOM     23  C   LIG d   1       5.326  -2.777  -7.229  0.00  0.00     0.024 A 
ATOM     24  C   LIG d   1       4.911  -1.442  -7.257  0.00  0.00    -0.045 A 
ATOM     25  C   LIG d   1       3.820  -1.079  -8.019  0.00  0.00     0.016 A 
ATOM     26  H   LIG d   1       5.447  -0.696  -6.688  0.00  0.00     0.063 H 
ATOM     27  C   LIG d   1       3.130  -2.033  -8.744  0.00  0.00     0.273 A 
ATOM     28  H   LIG d   1       3.502  -0.047  -8.046  0.00  0.00     0.069 H 
ATOM     29  C   LIG d   1       3.530  -3.359  -8.716  0.00  0.00     0.016 A 
ATOM     30  C   LIG d   1       4.623  -3.736  -7.965  0.00  0.00    -0.045 A 
ATOM     31  H   LIG d   1       2.986  -4.098  -9.285  0.00  0.00     0.069 H 
ATOM     32  H   LIG d   1       4.935  -4.770  -7.945  0.00  0.00     0.063 H 
BRANCH  27  33
ATOM     33  N   LIG d   1       1.956  -1.637  -9.555  0.00  0.00     0.080 N 
ATOM     34  O   LIG d   1       1.337  -2.472 -10.171  0.00  0.00     0.041 OA
ATOM     35  O   LIG d   1       1.619  -0.477  -9.600  0.00  0.00    -0.576 OA
ENDBRANCH  27  33
ENDBRANCH  21  23
ENDBRANCH   1  21
TORSDOF 6
ENDMDL
MODEL 5
REMARK VINA RESULT:      -5.4      3.387      7.352
REMARK  6 active torsions:
REMARK  status: ('A' for Active; 'I' for Inactive)
REMARK    1  A    between atoms: C_1  and  C_2 
REMARK    2  A    between atoms: C_2  and  C_3 
REMARK    3  A    between atoms: N_6  and  C_9 
REMARK    4  A    between atoms: C_9  and  C_10 
REMARK    5  A    between atoms: C_10  and  C_12 
REMARK    6  A    between atoms: C_15  and  N_18 
ROOT
ATOM      1  C   LIG d   1       7.579  -2.560  -5.306  0.00  0.00     0.212 C 
ATOM      2  H   LIG d   1       7.038  -3.491  -5.483  0.00  0.00     0.112 H 
ATOM      3  H   LIG d   1       7.705  -2.029  -6.249  0.00  0.00     0.112 H 
ENDROOT
BRANCH   1   4
ATOM      4  N   LIG d   1       6.820  -1.725  -4.372  0.00  0.00    -0.196 N 
ATOM      5  C   LIG d   1       7.095  -0.437  -4.294  0.00  0.00     0.172 A 
ATOM      6  C   LIG d   1       6.401   0.382  -3.424  0.00  0.00     0.005 A 
ATOM      7  H   LIG d   1       7.873  -0.019  -4.916  0.00  0.00     0.138 H 
ATOM      8  C   LIG d   1       5.405  -0.164  -2.631  0.00  0.00    -0.036 A 
ATOM      9  H   LIG d   1       6.630   1.436  -3.365  0.00  0.00     0.068 H 
ATOM     10  C   LIG d   1       5.148  -1.523  -2.736  0.00  0.00     0.005 A 
ATOM     11  C   LIG d   1       5.880  -2.279  -3.632  0.00  0.00     0.172 A 
ATOM     12  H   LIG d   1       4.383  -1.983  -2.129  0.00  0.00     0.068 H 
ATOM     13  H   LIG d   1       5.683  -3.336  -3.725  0.00  0.00     0.138 H 
BRANCH   8  14
ATOM     14  C   LIG d   1       4.624   0.696  -1.670  0.00  0.00    -0.030 C 
ATOM     15  H   LIG d   1       5.293   1.417  -1.201  0.00  0.00     0.031 H 
ATOM     16  H   LIG d   1       4.173   0.067  -0.904  0.00  0.00     0.031 H 
BRANCH  14  17
ATOM     17  C   LIG d   1       3.524   1.440  -2.431  0.00  0.00    -0.061 C 
ATOM     18  H   LIG d   1       3.224   0.854  -3.300  0.00  0.00     0.023 H 
ATOM     19  H   LIG d   1       2.665   1.587  -1.776  0.00  0.00     0.023 H 
ATOM     20  H   LIG d   1       3.902   2.408  -2.759  0.00  0.00     0.023 H 
ENDBRANCH  14  17
ENDBRANCH   8  14
ENDBRANCH   1   4
BRANCH   1  21
ATOM     21  C   LIG d   1       8.931  -2.869  -4.719  0.00  0.00     0.228 C 
ATOM     22  O   LIG d   1       9.852  -2.096  -4.874  0.00  0.00    -0.285 OA
BRANCH  21  23
ATOM     23  C   LIG d   1       9.135  -4.112  -3.955  0.00  0.00     0.024 A 
ATOM     24  C   LIG d   1       9.594  -4.059  -2.636  0.00  0.00    -0.045 A 
ATOM     25  C   LIG d   1       9.776  -5.227  -1.925  0.00  0.00     0.016 A 
ATOM     26  H   LIG d   1       9.800  -3.105  -2.172  0.00  0.00     0.063 H 
ATOM     27  C   LIG d   1       9.518  -6.449  -2.519  0.00  0.00     0.273 A 
ATOM     28  H   LIG d   1      10.126  -5.187  -0.904  0.00  0.00     0.069 H 
ATOM     29  C   LIG d   1       9.069  -6.511  -3.828  0.00  0.00     0.016 A 
ATOM     30  C   LIG d   1       8.876  -5.351  -4.549  0.00  0.00    -0.045 A 
ATOM     31  H   LIG d   1       8.870  -7.469  -4.284  0.00  0.00     0.069 H 
ATOM     32  H   LIG d   1       8.525  -5.401  -5.569  0.00  0.00     0.063 H 
BRANCH  27  33
ATOM     33  N   LIG d   1       9.721  -7.699  -1.752  0.00  0.00     0.080 N 
ATOM     34  O   LIG d   1       8.991  -8.645  -1.932  0.00  0.00     0.041 OA
ATOM     35  O   LIG d   1      10.618  -7.772  -0.945  0.00  0.00    -0.576 OA
ENDBRANCH  27  33
ENDBRANCH  21  23
ENDBRANCH   1  21
TORSDOF 6
ENDMDL
MODEL 6
REMARK VINA RESULT:      -5.4      4.357      6.082
REMARK  6 active torsions:
REMARK  status: ('A' for Active; 'I' for Inactive)
REMARK    1  A    between atoms: C_1  and  C_2 
REMARK    2  A    between atoms: C_2  and  C_3 
REMARK    3  A    between atoms: N_6  and  C_9 
REMARK    4  A    between atoms: C_9  and  C_10 
REMARK    5  A    between atoms: C_10  and  C_12 
REMARK    6  A    between atoms: C_15  and  N_18 
ROOT
ATOM      1  C   LIG d   1       8.869   0.240  -5.260  0.00  0.00     0.212 C 
ATOM      2  H   LIG d   1       9.021   1.318  -5.332  0.00  0.00     0.112 H 
ATOM      3  H   LIG d   1       9.758  -0.225  -4.836  0.00  0.00     0.112 H 
ENDROOT
BRANCH   1   4
ATOM      4  N   LIG d   1       7.716  -0.032  -4.397  0.00  0.00    -0.196 N 
ATOM      5  C   LIG d   1       7.046   0.981  -3.884  0.00  0.00     0.172 A 
ATOM      6  C   LIG d   1       5.954   0.764  -3.065  0.00  0.00     0.005 A 
ATOM      7  H   LIG d   1       7.354   1.993  -4.106  0.00  0.00     0.138 H 
ATOM      8  C   LIG d   1       5.566  -0.537  -2.787  0.00  0.00    -0.036 A 
ATOM      9  H   LIG d   1       5.409   1.598  -2.649  0.00  0.00     0.068 H 
ATOM     10  C   LIG d   1       6.299  -1.577  -3.340  0.00  0.00     0.005 A 
ATOM     11  C   LIG d   1       7.376  -1.282  -4.154  0.00  0.00     0.172 A 
ATOM     12  H   LIG d   1       6.029  -2.602  -3.140  0.00  0.00     0.068 H 
ATOM     13  H   LIG d   1       7.949  -2.085  -4.592  0.00  0.00     0.138 H 
BRANCH   8  14
ATOM     14  C   LIG d   1       4.381  -0.816  -1.899  0.00  0.00    -0.030 C 
ATOM     15  H   LIG d   1       3.648  -0.017  -2.010  0.00  0.00     0.031 H 
ATOM     16  H   LIG d   1       4.708  -0.867  -0.861  0.00  0.00     0.031 H 
BRANCH  14  17
ATOM     17  C   LIG d   1       3.747  -2.150  -2.300  0.00  0.00    -0.061 C 
ATOM     18  H   LIG d   1       3.492  -2.714  -1.403  0.00  0.00     0.023 H 
ATOM     19  H   LIG d   1       2.844  -1.963  -2.882  0.00  0.00     0.023 H 
ATOM     20  H   LIG d   1       4.455  -2.722  -2.899  0.00  0.00     0.023 H 
ENDBRANCH  14  17
ENDBRANCH   8  14
ENDBRANCH   1   4
BRANCH   1  21
ATOM     21  C   LIG d   1       8.612  -0.324  -6.633  0.00  0.00     0.228 C 
ATOM     22  O   LIG d   1       9.287  -1.242  -7.048  0.00  0.00    -0.285 OA
BRANCH  21  23
ATOM     23  C   LIG d   1       7.541   0.239  -7.472  0.00  0.00     0.024 A 
ATOM     24  C   LIG d   1       6.400  -0.517  -7.755  0.00  0.00    -0.045 A 
ATOM     25  C   LIG d   1       5.397   0.021  -8.536  0.00  0.00     0.016 A 
ATOM     26  H   LIG d   1       6.300  -1.517  -7.359  0.00  0.00     0.063 H 
ATOM     27  C   LIG d   1       5.525   1.299  -9.048  0.00  0.00     0.273 A 
ATOM     28  H   LIG d   1       4.513  -0.561  -8.752  0.00  0.00     0.069 H 
ATOM     29  C   LIG d   1       6.655   2.052  -8.777  0.00  0.00     0.016 A 
ATOM     30  C   LIG d   1       7.662   1.531  -7.993  0.00  0.00    -0.045 A 
ATOM     31  H   LIG d   1       6.747   3.050  -9.181  0.00  0.00     0.069 H 
ATOM     32  H   LIG d   1       8.543   2.120  -7.782  0.00  0.00     0.063 H 
BRANCH  27  33
ATOM     33  N   LIG d   1       4.448   1.867  -9.890  0.00  0.00     0.080 N 
ATOM     34  O   LIG d   1       4.153   1.335 -10.935  0.00  0.00     0.041 OA
ATOM     35  O   LIG d   1       3.863   2.863  -9.532  0.00  0.00    -0.576 OA
ENDBRANCH  27  33
ENDBRANCH  21  23
ENDBRANCH   1  21
TORSDOF 6
ENDMDL
MODEL 7
REMARK VINA RESULT:      -5.4      5.446      7.858
REMARK  6 active torsions:
REMARK  status: ('A' for Active; 'I' for Inactive)
REMARK    1  A    between atoms: C_1  and  C_2 
REMARK    2  A    between atoms: C_2  and  C_3 
REMARK    3  A    between atoms: N_6  and  C_9 
REMARK    4  A    between atoms: C_9  and  C_10 
REMARK    5  A    between atoms: C_10  and  C_12 
REMARK    6  A    between atoms: C_15  and  N_18 
ROOT
ATOM      1  C   LIG d   1       4.772  -0.726  -7.678  0.00  0.00     0.212 C 
ATOM      2  H   LIG d   1       5.857  -0.695  -7.792  0.00  0.00     0.112 H 
ATOM      3  H   LIG d   1       4.414  -1.734  -7.887  0.00  0.00     0.112 H 
ENDROOT
BRANCH   1   4
ATOM      4  N   LIG d   1       4.415  -0.354  -6.307  0.00  0.00    -0.196 N 
ATOM      5  C   LIG d   1       3.171  -0.008  -6.040  0.00  0.00     0.172 A 
ATOM      6  C   LIG d   1       2.797   0.350  -4.759  0.00  0.00     0.005 A 
ATOM      7  H   LIG d   1       2.436  -0.004  -6.832  0.00  0.00     0.138 H 
ATOM      8  C   LIG d   1       3.747   0.341  -3.750  0.00  0.00    -0.036 A 
ATOM      9  H   LIG d   1       1.776   0.631  -4.546  0.00  0.00     0.068 H 
ATOM     10  C   LIG d   1       5.046  -0.022  -4.070  0.00  0.00     0.005 A 
ATOM     11  C   LIG d   1       5.345  -0.373  -5.373  0.00  0.00     0.172 A 
ATOM     12  H   LIG d   1       5.813  -0.035  -3.310  0.00  0.00     0.068 H 
ATOM     13  H   LIG d   1       6.353  -0.662  -5.630  0.00  0.00     0.138 H 
BRANCH   8  14
ATOM     14  C   LIG d   1       3.379   0.724  -2.339  0.00  0.00    -0.030 C 
ATOM     15  H   LIG d   1       2.756  -0.056  -1.902  0.00  0.00     0.031 H 
ATOM     16  H   LIG d   1       2.829   1.664  -2.350  0.00  0.00     0.031 H 
BRANCH  14  17
ATOM     17  C   LIG d   1       4.652   0.888  -1.507  0.00  0.00    -0.061 C 
ATOM     18  H   LIG d   1       4.384   1.089  -0.469  0.00  0.00     0.023 H 
ATOM     19  H   LIG d   1       5.241  -0.028  -1.560  0.00  0.00     0.023 H 
ATOM     20  H   LIG d   1       5.237   1.720  -1.899  0.00  0.00     0.023 H 
ENDBRANCH  14  17
ENDBRANCH   8  14
ENDBRANCH   1   4
BRANCH   1  21
ATOM     21  C   LIG d   1       4.139   0.242  -8.643  0.00  0.00     0.228 C 
ATOM     22  O   LIG d   1       4.365   1.429  -8.547  0.00  0.00    -0.285 OA
BRANCH  21  23
ATOM     23  C   LIG d   1       3.245  -0.254  -9.703  0.00  0.00     0.024 A 
ATOM     24  C   LIG d   1       1.944  -0.660  -9.392  0.00  0.00    -0.045 A 
ATOM     25  C   LIG d   1       1.110  -1.117 -10.391  0.00  0.00     0.016 A 
ATOM     26  H   LIG d   1       1.590  -0.611  -8.372  0.00  0.00     0.063 H 
ATOM     27  C   LIG d   1       1.563  -1.185 -11.697  0.00  0.00     0.273 A 
ATOM     28  H   LIG d   1       0.103  -1.426 -10.153  0.00  0.00     0.069 H 
ATOM     29  C   LIG d   1       2.852  -0.791 -12.012  0.00  0.00     0.016 A 
ATOM     30  C   LIG d   1       3.695  -0.325 -11.025  0.00  0.00    -0.045 A 
ATOM     31  H   LIG d   1       3.198  -0.847 -13.034  0.00  0.00     0.069 H 
ATOM     32  H   LIG d   1       4.701  -0.017 -11.273  0.00  0.00     0.063 H 
BRANCH  27  33
ATOM     33  N   LIG d   1       0.664  -1.682 -12.763  0.00  0.00     0.080 N 
ATOM     34  O   LIG d   1      -0.499  -1.355 -12.775  0.00  0.00     0.041 OA
ATOM     35  O   LIG d   1       1.095  -2.417 -13.621  0.00  0.00    -0.576 OA
ENDBRANCH  27  33
ENDBRANCH  21  23
ENDBRANCH   1  21
TORSDOF 6
ENDMDL
MODEL 8
REMARK VINA RESULT:      -5.4      3.485      7.166
REMARK  6 active torsions:
REMARK  status: ('A' for Active; 'I' for Inactive)
REMARK    1  A    between atoms: C_1  and  C_2 
REMARK    2  A    between atoms: C_2  and  C_3 
REMARK    3  A    between atoms: N_6  and  C_9 
REMARK    4  A    between atoms: C_9  and  C_10 
REMARK    5  A    between atoms: C_10  and  C_12 
REMARK    6  A    between atoms: C_15  and  N_18 
ROOT
ATOM      1  C   LIG d   1       8.266  -2.833  -5.610  0.00  0.00     0.212 C 
ATOM      2  H   LIG d   1       8.069  -3.662  -6.291  0.00  0.00     0.112 H 
ATOM      3  H   LIG d   1       8.494  -1.936  -6.186  0.00  0.00     0.112 H 
ENDROOT
BRANCH   1   4
ATOM      4  N   LIG d   1       7.082  -2.593  -4.780  0.00  0.00    -0.196 N 
ATOM      5  C   LIG d   1       6.010  -3.339  -4.962  0.00  0.00     0.172 A 
ATOM      6  C   LIG d   1       4.875  -3.142  -4.199  0.00  0.00     0.005 A 
ATOM      7  H   LIG d   1       6.019  -4.112  -5.717  0.00  0.00     0.138 H 
ATOM      8  C   LIG d   1       4.874  -2.148  -3.233  0.00  0.00    -0.036 A 
ATOM      9  H   LIG d   1       4.000  -3.756  -4.352  0.00  0.00     0.068 H 
ATOM     10  C   LIG d   1       6.018  -1.380  -3.075  0.00  0.00     0.005 A 
ATOM     11  C   LIG d   1       7.117  -1.639  -3.871  0.00  0.00     0.172 A 
ATOM     12  H   LIG d   1       6.051  -0.594  -2.336  0.00  0.00     0.068 H 
ATOM     13  H   LIG d   1       8.014  -1.049  -3.751  0.00  0.00     0.138 H 
BRANCH   8  14
ATOM     14  C   LIG d   1       3.656  -1.902  -2.379  0.00  0.00    -0.030 C 
ATOM     15  H   LIG d   1       3.967  -1.550  -1.396  0.00  0.00     0.031 H 
ATOM     16  H   LIG d   1       3.095  -2.829  -2.272  0.00  0.00     0.031 H 
BRANCH  14  17
ATOM     17  C   LIG d   1       2.772  -0.845  -3.044  0.00  0.00    -0.061 C 
ATOM     18  H   LIG d   1       1.760  -1.235  -3.153  0.00  0.00     0.023 H 
ATOM     19  H   LIG d   1       2.753   0.053  -2.427  0.00  0.00     0.023 H 
ATOM     20  H   LIG d   1       3.175  -0.602  -4.027  0.00  0.00     0.023 H 
ENDBRANCH  14  17
ENDBRANCH   8  14
ENDBRANCH   1   4
BRANCH   1  21
ATOM     21  C   LIG d   1       9.438  -3.175  -4.727  0.00  0.00     0.228 C 
ATOM     22  O   LIG d   1      10.381  -2.417  -4.650  0.00  0.00    -0.285 OA
BRANCH  21  23
ATOM     23  C   LIG d   1       9.438  -4.431  -3.958  0.00  0.00     0.024 A 
ATOM     24  C   LIG d   1       9.078  -5.632  -4.575  0.00  0.00    -0.045 A 
ATOM     25  C   LIG d   1       9.086  -6.806  -3.849  0.00  0.00     0.016 A 
ATOM     26  H   LIG d   1       8.798  -5.643  -5.619  0.00  0.00     0.063 H 
ATOM     27  C   LIG d   1       9.439  -6.793  -2.512  0.00  0.00     0.273 A 
ATOM     28  H   LIG d   1       8.813  -7.736  -4.326  0.00  0.00     0.069 H 
ATOM     29  C   LIG d   1       9.791  -5.606  -1.892  0.00  0.00     0.016 A 
ATOM     30  C   LIG d   1       9.793  -4.426  -2.606  0.00  0.00    -0.045 A 
ATOM     31  H   LIG d   1      10.065  -5.604  -0.847  0.00  0.00     0.069 H 
ATOM     32  H   LIG d   1      10.069  -3.501  -2.121  0.00  0.00     0.063 H 
BRANCH  27  33
ATOM     33  N   LIG d   1       9.440  -8.055  -1.738  0.00  0.00     0.080 N 
ATOM     34  O   LIG d   1      10.358  -8.307  -0.993  0.00  0.00     0.041 OA
ATOM     35  O   LIG d   1       8.523  -8.834  -1.853  0.00  0.00    -0.576 OA
ENDBRANCH  27  33
ENDBRANCH  21  23
ENDBRANCH   1  21
TORSDOF 6
ENDMDL
MODEL 9
REMARK VINA RESULT:      -5.2      6.141      7.814
REMARK  6 active torsions:
REMARK  status: ('A' for Active; 'I' for Inactive)
REMARK    1  A    between atoms: C_1  and  C_2 
REMARK    2  A    between atoms: C_2  and  C_3 
REMARK    3  A    between atoms: N_6  and  C_9 
REMARK    4  A    between atoms: C_9  and  C_10 
REMARK    5  A    between atoms: C_10  and  C_12 
REMARK    6  A    between atoms: C_15  and  N_18 
ROOT
ATOM      1  C   LIG d   1       8.662   1.113  -5.079  0.00  0.00     0.212 C 
ATOM      2  H   LIG d   1       9.390   0.316  -5.231  0.00  0.00     0.112 H 
ATOM      3  H   LIG d   1       8.273   1.438  -6.044  0.00  0.00     0.112 H 
ENDROOT
BRANCH   1   4
ATOM      4  N   LIG d   1       7.561   0.617  -4.250  0.00  0.00    -0.196 N 
ATOM      5  C   LIG d   1       6.740   1.483  -3.688  0.00  0.00     0.172 A 
ATOM      6  C   LIG d   1       5.690   1.052  -2.899  0.00  0.00     0.005 A 
ATOM      7  H   LIG d   1       6.890   2.541  -3.847  0.00  0.00     0.138 H 
ATOM      8  C   LIG d   1       5.506  -0.307  -2.702  0.00  0.00    -0.036 A 
ATOM      9  H   LIG d   1       5.021   1.766  -2.443  0.00  0.00     0.068 H 
ATOM     10  C   LIG d   1       6.394  -1.187  -3.304  0.00  0.00     0.005 A 
ATOM     11  C   LIG d   1       7.417  -0.683  -4.084  0.00  0.00     0.172 A 
ATOM     12  H   LIG d   1       6.284  -2.253  -3.168  0.00  0.00     0.068 H 
ATOM     13  H   LIG d   1       8.109  -1.361  -4.560  0.00  0.00     0.138 H 
BRANCH   8  14
ATOM     14  C   LIG d   1       4.374  -0.818  -1.849  0.00  0.00    -0.030 C 
ATOM     15  H   LIG d   1       3.569  -0.082  -1.835  0.00  0.00     0.031 H 
ATOM     16  H   LIG d   1       4.731  -0.985  -0.834  0.00  0.00     0.031 H 
BRANCH  14  17
ATOM     17  C   LIG d   1       3.852  -2.134  -2.429  0.00  0.00    -0.061 C 
ATOM     18  H   LIG d   1       3.715  -2.027  -3.506  0.00  0.00     0.023 H 
ATOM     19  H   LIG d   1       4.570  -2.929  -2.231  0.00  0.00     0.023 H 
ATOM     20  H   LIG d   1       2.897  -2.382  -1.965  0.00  0.00     0.023 H 
ENDBRANCH  14  17
ENDBRANCH   8  14
ENDBRANCH   1   4
BRANCH   1  21
ATOM     21  C   LIG d   1       9.327   2.276  -4.389  0.00  0.00     0.228 C 
ATOM     22  O   LIG d   1       9.752   2.148  -3.260  0.00  0.00    -0.285 OA
BRANCH  21  23
ATOM     23  C   LIG d   1       9.460   3.567  -5.084  0.00  0.00     0.024 A 
ATOM     24  C   LIG d   1       9.328   4.763  -4.374  0.00  0.00    -0.045 A 
ATOM     25  C   LIG d   1       9.460   5.969  -5.032  0.00  0.00     0.016 A 
ATOM     26  H   LIG d   1       9.127   4.745  -3.312  0.00  0.00     0.063 H 
ATOM     27  C   LIG d   1       9.711   5.996  -6.392  0.00  0.00     0.273 A 
ATOM     28  H   LIG d   1       9.363   6.895  -4.483  0.00  0.00     0.069 H 
ATOM     29  C   LIG d   1       9.837   4.814  -7.103  0.00  0.00     0.016 A 
ATOM     30  C   LIG d   1       9.714   3.601  -6.458  0.00  0.00    -0.045 A 
ATOM     31  H   LIG d   1      10.033   4.843  -8.165  0.00  0.00     0.069 H 
ATOM     32  H   LIG d   1       9.813   2.680  -7.015  0.00  0.00     0.063 H 
BRANCH  27  33
ATOM     33  N   LIG d   1       9.846   7.293  -7.091  0.00  0.00     0.080 N 
ATOM     34  O   LIG d   1      10.641   7.414  -7.994  0.00  0.00     0.041 OA
ATOM     35  O   LIG d   1       9.162   8.232  -6.758  0.00  0.00    -0.576 OA
ENDBRANCH  27  33
ENDBRANCH  21  23
ENDBRANCH   1  21
TORSDOF 6
ENDMDL
