MODEL 1
REMARK VINA RESULT:      -6.9      0.000      0.000
REMARK  9 active torsions:
REMARK  status: ('A' for Active; 'I' for Inactive)
REMARK    1  A    between atoms: C_1  and  C_2 
REMARK    2  A    between atoms: C_2  and  C_3 
REMARK    3  A    between atoms: C_2  and  C_4 
REMARK    4  A    between atoms: C_4  and  C_5 
REMARK    5  A    between atoms: C_15  and  O_23 
REMARK    6  A    between atoms: C_16  and  O_21 
REMARK    7  A    between atoms: O_21  and  C_22 
REMARK    8  A    between atoms: O_23  and  C_24 
REMARK    9  A    between atoms: C_25  and  O_35 
ROOT
ATOM      1  C   LIG d   1       4.424  -0.353  -4.677  0.00  0.00     0.106 C 
ATOM      2  H   LIG d   1       4.911   0.586  -4.413  0.00  0.00     0.060 H 
ATOM      3  C   LIG d   1       3.953  -0.306  -6.111  0.00  0.00     0.241 C 
ATOM      4  O   LIG d   1       3.425   0.707  -6.519  0.00  0.00    -0.273 OA
ATOM      5  N   LIG d   1       4.098  -1.336  -6.947  0.00  0.00    -0.262 N 
ATOM      6  C   LIG d   1       4.737  -2.613  -6.647  0.00  0.00     0.085 C 
ATOM      7  H   LIG d   1       4.026  -3.404  -6.885  0.00  0.00     0.056 H 
ATOM      8  C   LIG d   1       5.954  -2.795  -7.552  0.00  0.00    -0.003 C 
ATOM      9  C   LIG d   1       5.584  -2.550  -8.991  0.00  0.00    -0.033 A 
ATOM     10  C   LIG d   1       6.370  -3.098  -9.990  0.00  0.00    -0.012 A 
ATOM     11  C   LIG d   1       6.058  -2.885 -11.322  0.00  0.00     0.162 A 
ATOM     12  C   LIG d   1       4.949  -2.117 -11.670  0.00  0.00     0.162 A 
ATOM     13  C   LIG d   1       4.157  -1.568 -10.678  0.00  0.00    -0.007 A 
ATOM     14  C   LIG d   1       4.473  -1.786  -9.338  0.00  0.00     0.003 A 
ATOM     15  C   LIG d   1       3.612  -1.204  -8.274  0.00  0.00     0.037 C 
ATOM     16  C   LIG d   1       2.457  -0.598  -8.549  0.00  0.00    -0.076 C 
ATOM     17  C   LIG d   1       5.135  -2.773  -5.193  0.00  0.00     0.183 A 
ATOM     18  N   LIG d   1       5.383  -1.460  -4.585  0.00  0.00    -0.252 N 
ATOM     19  C   LIG d   1       6.589  -1.475  -3.999  0.00  0.00     0.250 A 
ATOM     20  O   LIG d   1       7.054  -0.571  -3.333  0.00  0.00    -0.270 OA
ATOM     21  C   LIG d   1       7.263  -2.747  -4.283  0.00  0.00     0.045 A 
ATOM     22  C   LIG d   1       6.396  -3.559  -5.037  0.00  0.00     0.016 A 
ATOM     23  C   LIG d   1       6.747  -4.824  -5.453  0.00  0.00    -0.053 A 
ATOM     24  C   LIG d   1       8.027  -5.263  -5.129  0.00  0.00    -0.061 A 
ATOM     25  C   LIG d   1       8.910  -4.472  -4.421  0.00  0.00    -0.061 A 
ATOM     26  C   LIG d   1       8.540  -3.196  -3.943  0.00  0.00    -0.049 A 
ATOM     27  H   LIG d   1       6.732  -2.091  -7.255  0.00  0.00     0.033 H 
ATOM     28  H   LIG d   1       6.332  -3.812  -7.446  0.00  0.00     0.033 H 
ATOM     29  H   LIG d   1       7.232  -3.695  -9.729  0.00  0.00     0.066 H 
ATOM     30  H   LIG d   1       3.297  -0.970 -10.940  0.00  0.00     0.066 H 
ATOM     31  H   LIG d   1       1.858  -0.188  -7.749  0.00  0.00     0.055 H 
ATOM     32  H   LIG d   1       2.119  -0.517  -9.572  0.00  0.00     0.055 H 
ATOM     33  H   LIG d   1       6.060  -5.447  -6.007  0.00  0.00     0.062 H 
ATOM     34  H   LIG d   1       8.339  -6.249  -5.440  0.00  0.00     0.062 H 
ATOM     35  H   LIG d   1       9.892  -4.859  -4.190  0.00  0.00     0.062 H 
ATOM     36  H   LIG d   1       9.224  -2.583  -3.374  0.00  0.00     0.062 H 
ENDROOT
BRANCH   1  37
ATOM     37  C   LIG d   1       3.237  -0.608  -3.745  0.00  0.00    -0.023 C 
ATOM     38  H   LIG d   1       3.281  -1.631  -3.373  0.00  0.00     0.029 H 
ATOM     39  H   LIG d   1       2.307  -0.460  -4.293  0.00  0.00     0.029 H 
BRANCH  37  40
ATOM     40  C   LIG d   1       3.296   0.366  -2.567  0.00  0.00    -0.045 C 
ATOM     41  H   LIG d   1       2.328   0.389  -2.066  0.00  0.00     0.030 H 
BRANCH  40  42
ATOM     42  C   LIG d   1       4.372  -0.091  -1.580  0.00  0.00    -0.063 C 
ATOM     43  H   LIG d   1       4.764   0.774  -1.044  0.00  0.00     0.023 H 
ATOM     44  H   LIG d   1       3.938  -0.793  -0.869  0.00  0.00     0.023 H 
ATOM     45  H   LIG d   1       5.181  -0.578  -2.124  0.00  0.00     0.023 H 
ENDBRANCH  40  42
BRANCH  40  46
ATOM     46  C   LIG d   1       3.637   1.767  -3.081  0.00  0.00    -0.063 C 
ATOM     47  H   LIG d   1       2.816   2.446  -2.855  0.00  0.00     0.023 H 
ATOM     48  H   LIG d   1       4.547   2.121  -2.596  0.00  0.00     0.023 H 
ATOM     49  H   LIG d   1       3.792   1.730  -4.160  0.00  0.00     0.023 H 
ENDBRANCH  40  46
ENDBRANCH  37  40
ENDBRANCH   1  37
BRANCH  17  50
ATOM     50  O   LIG d   1       4.078  -3.407  -4.471  0.00  0.00    -0.366 OA
ATOM     51  H   LIG d   1       3.201  -3.045  -4.657  0.00  0.00     0.212 HD
ENDBRANCH  17  50
BRANCH  12  52
ATOM     52  O   LIG d   1       4.645  -1.909 -12.979  0.00  0.00    -0.491 OA
BRANCH  52  53
ATOM     53  C   LIG d   1       4.305  -0.575 -13.362  0.00  0.00     0.079 C 
ATOM     54  H   LIG d   1       3.268  -0.547 -13.697  0.00  0.00     0.066 H 
ATOM     55  H   LIG d   1       4.429   0.091 -12.509  0.00  0.00     0.066 H 
ATOM     56  H   LIG d   1       4.958  -0.252 -14.173  0.00  0.00     0.066 H 
ENDBRANCH  52  53
ENDBRANCH  12  52
BRANCH  11  57
ATOM     57  O   LIG d   1       6.836  -3.429 -12.296  0.00  0.00    -0.491 OA
BRANCH  57  58
ATOM     58  C   LIG d   1       8.243  -3.201 -12.204  0.00  0.00     0.079 C 
ATOM     59  H   LIG d   1       8.684  -3.919 -11.512  0.00  0.00     0.066 H 
ATOM     60  H   LIG d   1       8.696  -3.320 -13.189  0.00  0.00     0.066 H 
ATOM     61  H   LIG d   1       8.424  -2.189 -11.841  0.00  0.00     0.066 H 
ENDBRANCH  57  58
ENDBRANCH  11  57
TORSDOF 9
ENDMDL
MODEL 2
REMARK VINA RESULT:      -6.8      3.949      7.066
REMARK  9 active torsions:
REMARK  status: ('A' for Active; 'I' for Inactive)
REMARK    1  A    between atoms: C_1  and  C_2 
REMARK    2  A    between atoms: C_2  and  C_3 
REMARK    3  A    between atoms: C_2  and  C_4 
REMARK    4  A    between atoms: C_4  and  C_5 
REMARK    5  A    between atoms: C_15  and  O_23 
REMARK    6  A    between atoms: C_16  and  O_21 
REMARK    7  A    between atoms: O_21  and  C_22 
REMARK    8  A    between atoms: O_23  and  C_24 
REMARK    9  A    between atoms: C_25  and  O_35 
ROOT
ATOM      1  C   LIG d   1       4.783   0.332  -8.261  0.00  0.00     0.106 C 
ATOM      2  H   LIG d   1       3.967   1.013  -8.501  0.00  0.00     0.060 H 
ATOM      3  C   LIG d   1       6.099   1.071  -8.291  0.00  0.00     0.241 C 
ATOM      4  O   LIG d   1       6.304   1.862  -9.188  0.00  0.00    -0.273 OA
ATOM      5  N   LIG d   1       7.044   0.891  -7.366  0.00  0.00    -0.262 N 
ATOM      6  C   LIG d   1       6.961   0.015  -6.202  0.00  0.00     0.085 C 
ATOM      7  H   LIG d   1       7.823  -0.652  -6.227  0.00  0.00     0.056 H 
ATOM      8  C   LIG d   1       7.063   0.855  -4.930  0.00  0.00    -0.003 C 
ATOM      9  C   LIG d   1       8.254   1.775  -4.996  0.00  0.00    -0.033 A 
ATOM     10  C   LIG d   1       8.796   2.259  -3.819  0.00  0.00    -0.012 A 
ATOM     11  C   LIG d   1       9.887   3.111  -3.849  0.00  0.00     0.162 A 
ATOM     12  C   LIG d   1      10.451   3.488  -5.066  0.00  0.00     0.162 A 
ATOM     13  C   LIG d   1       9.917   3.007  -6.248  0.00  0.00    -0.007 A 
ATOM     14  C   LIG d   1       8.820   2.148  -6.213  0.00  0.00     0.003 A 
ATOM     15  C   LIG d   1       8.255   1.621  -7.485  0.00  0.00     0.037 C 
ATOM     16  C   LIG d   1       8.850   1.822  -8.661  0.00  0.00    -0.076 C 
ATOM     17  C   LIG d   1       5.713  -0.843  -6.167  0.00  0.00     0.183 A 
ATOM     18  N   LIG d   1       4.622  -0.185  -6.897  0.00  0.00    -0.252 N 
ATOM     19  C   LIG d   1       3.541  -0.134  -6.105  0.00  0.00     0.250 A 
ATOM     20  O   LIG d   1       2.446   0.271  -6.444  0.00  0.00    -0.270 OA
ATOM     21  C   LIG d   1       3.878  -0.639  -4.771  0.00  0.00     0.045 A 
ATOM     22  C   LIG d   1       5.219  -1.064  -4.773  0.00  0.00     0.016 A 
ATOM     23  C   LIG d   1       5.827  -1.596  -3.658  0.00  0.00    -0.053 A 
ATOM     24  C   LIG d   1       5.064  -1.664  -2.496  0.00  0.00    -0.061 A 
ATOM     25  C   LIG d   1       3.758  -1.221  -2.456  0.00  0.00    -0.061 A 
ATOM     26  C   LIG d   1       3.109  -0.725  -3.608  0.00  0.00    -0.049 A 
ATOM     27  H   LIG d   1       6.155   1.448  -4.817  0.00  0.00     0.033 H 
ATOM     28  H   LIG d   1       7.168   0.193  -4.070  0.00  0.00     0.033 H 
ATOM     29  H   LIG d   1       8.365   1.972  -2.871  0.00  0.00     0.066 H 
ATOM     30  H   LIG d   1      10.347   3.296  -7.195  0.00  0.00     0.066 H 
ATOM     31  H   LIG d   1       8.411   1.424  -9.563  0.00  0.00     0.055 H 
ATOM     32  H   LIG d   1       9.771   2.384  -8.712  0.00  0.00     0.055 H 
ATOM     33  H   LIG d   1       6.849  -1.944  -3.684  0.00  0.00     0.062 H 
ATOM     34  H   LIG d   1       5.508  -2.073  -1.600  0.00  0.00     0.062 H 
ATOM     35  H   LIG d   1       3.206  -1.298  -1.531  0.00  0.00     0.062 H 
ATOM     36  H   LIG d   1       2.082  -0.394  -3.583  0.00  0.00     0.062 H 
ENDROOT
BRANCH   1  37
ATOM     37  C   LIG d   1       4.811  -0.827  -9.261  0.00  0.00    -0.023 C 
ATOM     38  H   LIG d   1       4.938  -1.766  -8.725  0.00  0.00     0.029 H 
ATOM     39  H   LIG d   1       5.642  -0.688  -9.953  0.00  0.00     0.029 H 
BRANCH  37  40
ATOM     40  C   LIG d   1       3.496  -0.858 -10.041  0.00  0.00    -0.045 C 
ATOM     41  H   LIG d   1       3.701  -1.081 -11.088  0.00  0.00     0.030 H 
BRANCH  40  42
ATOM     42  C   LIG d   1       2.581  -1.937  -9.458  0.00  0.00    -0.063 C 
ATOM     43  H   LIG d   1       1.542  -1.686  -9.672  0.00  0.00     0.023 H 
ATOM     44  H   LIG d   1       2.824  -2.900  -9.906  0.00  0.00     0.023 H 
ATOM     45  H   LIG d   1       2.727  -1.991  -8.379  0.00  0.00     0.023 H 
ENDBRANCH  40  42
BRANCH  40  46
ATOM     46  C   LIG d   1       2.809   0.506  -9.936  0.00  0.00    -0.063 C 
ATOM     47  H   LIG d   1       2.838   0.848  -8.902  0.00  0.00     0.023 H 
ATOM     48  H   LIG d   1       3.326   1.224 -10.572  0.00  0.00     0.023 H 
ATOM     49  H   LIG d   1       1.772   0.416 -10.260  0.00  0.00     0.023 H 
ENDBRANCH  40  46
ENDBRANCH  37  40
ENDBRANCH   1  37
BRANCH  17  50
ATOM     50  O   LIG d   1       5.974  -2.100  -6.792  0.00  0.00    -0.366 OA
ATOM     51  H   LIG d   1       6.707  -2.082  -7.422  0.00  0.00     0.212 HD
ENDBRANCH  17  50
BRANCH  12  52
ATOM     52  O   LIG d   1      11.522   4.325  -5.093  0.00  0.00    -0.491 OA
BRANCH  52  53
ATOM     53  C   LIG d   1      11.338   5.594  -5.725  0.00  0.00     0.079 C 
ATOM     54  H   LIG d   1      12.257   6.174  -5.648  0.00  0.00     0.066 H 
ATOM     55  H   LIG d   1      11.090   5.445  -6.775  0.00  0.00     0.066 H 
ATOM     56  H   LIG d   1      10.527   6.131  -5.233  0.00  0.00     0.066 H 
ENDBRANCH  52  53
ENDBRANCH  12  52
BRANCH  11  57
ATOM     57  O   LIG d   1      10.413   3.581  -2.686  0.00  0.00    -0.491 OA
BRANCH  57  58
ATOM     58  C   LIG d   1      10.023   4.896  -2.284  0.00  0.00     0.079 C 
ATOM     59  H   LIG d   1       9.718   5.469  -3.159  0.00  0.00     0.066 H 
ATOM     60  H   LIG d   1       9.190   4.829  -1.584  0.00  0.00     0.066 H 
ATOM     61  H   LIG d   1      10.865   5.392  -1.800  0.00  0.00     0.066 H 
ENDBRANCH  57  58
ENDBRANCH  11  57
TORSDOF 9
ENDMDL
MODEL 3
REMARK VINA RESULT:      -6.7      2.991      5.255
REMARK  9 active torsions:
REMARK  status: ('A' for Active; 'I' for Inactive)
REMARK    1  A    between atoms: C_1  and  C_2 
REMARK    2  A    between atoms: C_2  and  C_3 
REMARK    3  A    between atoms: C_2  and  C_4 
REMARK    4  A    between atoms: C_4  and  C_5 
REMARK    5  A    between atoms: C_15  and  O_23 
REMARK    6  A    between atoms: C_16  and  O_21 
REMARK    7  A    between atoms: O_21  and  C_22 
REMARK    8  A    between atoms: O_23  and  C_24 
REMARK    9  A    between atoms: C_25  and  O_35 
ROOT
ATOM      1  C   LIG d   1       4.474  -1.488  -4.600  0.00  0.00     0.106 C 
ATOM      2  H   LIG d   1       3.643  -1.297  -3.920  0.00  0.00     0.060 H 
ATOM      3  C   LIG d   1       4.495  -2.946  -4.994  0.00  0.00     0.241 C 
ATOM      4  O   LIG d   1       4.293  -3.784  -4.141  0.00  0.00    -0.273 OA
ATOM      5  N   LIG d   1       4.723  -3.346  -6.246  0.00  0.00    -0.262 N 
ATOM      6  C   LIG d   1       4.948  -2.486  -7.404  0.00  0.00     0.085 C 
ATOM      7  H   LIG d   1       5.890  -2.788  -7.863  0.00  0.00     0.056 H 
ATOM      8  C   LIG d   1       3.838  -2.717  -8.428  0.00  0.00    -0.003 C 
ATOM      9  C   LIG d   1       3.671  -4.188  -8.705  0.00  0.00    -0.033 A 
ATOM     10  C   LIG d   1       3.084  -4.585  -9.893  0.00  0.00    -0.012 A 
ATOM     11  C   LIG d   1       2.912  -5.931 -10.173  0.00  0.00     0.162 A 
ATOM     12  C   LIG d   1       3.329  -6.897  -9.260  0.00  0.00     0.162 A 
ATOM     13  C   LIG d   1       3.918  -6.508  -8.071  0.00  0.00    -0.007 A 
ATOM     14  C   LIG d   1       4.091  -5.154  -7.794  0.00  0.00     0.003 A 
ATOM     15  C   LIG d   1       4.737  -4.738  -6.519  0.00  0.00     0.037 C 
ATOM     16  C   LIG d   1       5.294  -5.619  -5.688  0.00  0.00    -0.076 C 
ATOM     17  C   LIG d   1       5.051  -1.013  -7.063  0.00  0.00     0.183 A 
ATOM     18  N   LIG d   1       4.299  -0.719  -5.837  0.00  0.00    -0.252 N 
ATOM     19  C   LIG d   1       3.462   0.300  -6.077  0.00  0.00     0.250 A 
ATOM     20  O   LIG d   1       2.762   0.841  -5.243  0.00  0.00    -0.270 OA
ATOM     21  C   LIG d   1       3.517   0.664  -7.497  0.00  0.00     0.045 A 
ATOM     22  C   LIG d   1       4.475  -0.145  -8.135  0.00  0.00     0.016 A 
ATOM     23  C   LIG d   1       4.759  -0.033  -9.477  0.00  0.00    -0.053 A 
ATOM     24  C   LIG d   1       4.024   0.899 -10.202  0.00  0.00    -0.061 A 
ATOM     25  C   LIG d   1       3.053   1.681  -9.609  0.00  0.00    -0.061 A 
ATOM     26  C   LIG d   1       2.793   1.612  -8.223  0.00  0.00    -0.049 A 
ATOM     27  H   LIG d   1       2.902  -2.314  -8.040  0.00  0.00     0.033 H 
ATOM     28  H   LIG d   1       4.093  -2.203  -9.355  0.00  0.00     0.033 H 
ATOM     29  H   LIG d   1       2.758  -3.843 -10.607  0.00  0.00     0.066 H 
ATOM     30  H   LIG d   1       4.241  -7.252  -7.358  0.00  0.00     0.066 H 
ATOM     31  H   LIG d   1       5.754  -5.280  -4.772  0.00  0.00     0.055 H 
ATOM     32  H   LIG d   1       5.285  -6.672  -5.930  0.00  0.00     0.055 H 
ATOM     33  H   LIG d   1       5.518  -0.642  -9.947  0.00  0.00     0.062 H 
ATOM     34  H   LIG d   1       4.217   1.014 -11.258  0.00  0.00     0.062 H 
ATOM     35  H   LIG d   1       2.511   2.394 -10.213  0.00  0.00     0.062 H 
ATOM     36  H   LIG d   1       2.046   2.235  -7.754  0.00  0.00     0.062 H 
ENDROOT
BRANCH   1  37
ATOM     37  C   LIG d   1       5.796  -1.109  -3.929  0.00  0.00    -0.023 C 
ATOM     38  H   LIG d   1       6.341  -0.413  -4.567  0.00  0.00     0.029 H 
ATOM     39  H   LIG d   1       6.396  -2.006  -3.776  0.00  0.00     0.029 H 
BRANCH  37  40
ATOM     40  C   LIG d   1       5.512  -0.449  -2.579  0.00  0.00    -0.045 C 
ATOM     41  H   LIG d   1       6.376  -0.572  -1.925  0.00  0.00     0.030 H 
BRANCH  40  42
ATOM     42  C   LIG d   1       5.238   1.042  -2.787  0.00  0.00    -0.063 C 
ATOM     43  H   LIG d   1       4.442   1.166  -3.522  0.00  0.00     0.023 H 
ATOM     44  H   LIG d   1       4.934   1.492  -1.842  0.00  0.00     0.023 H 
ATOM     45  H   LIG d   1       6.144   1.530  -3.147  0.00  0.00     0.023 H 
ENDBRANCH  40  42
BRANCH  40  46
ATOM     46  C   LIG d   1       4.289  -1.108  -1.937  0.00  0.00    -0.063 C 
ATOM     47  H   LIG d   1       4.586  -1.602  -1.013  0.00  0.00     0.023 H 
ATOM     48  H   LIG d   1       3.539  -0.347  -1.719  0.00  0.00     0.023 H 
ATOM     49  H   LIG d   1       3.870  -1.844  -2.624  0.00  0.00     0.023 H 
ENDBRANCH  40  46
ENDBRANCH  37  40
ENDBRANCH   1  37
BRANCH  17  50
ATOM     50  O   LIG d   1       6.419  -0.664  -6.841  0.00  0.00    -0.366 OA
ATOM     51  H   LIG d   1       6.688  -0.693  -5.914  0.00  0.00     0.212 HD
ENDBRANCH  17  50
BRANCH  12  52
ATOM     52  O   LIG d   1       3.157  -8.217  -9.536  0.00  0.00    -0.491 OA
BRANCH  52  53
ATOM     53  C   LIG d   1       4.143  -9.119  -9.031  0.00  0.00     0.079 C 
ATOM     54  H   LIG d   1       4.785  -9.451  -9.848  0.00  0.00     0.066 H 
ATOM     55  H   LIG d   1       4.747  -8.614  -8.279  0.00  0.00     0.066 H 
ATOM     56  H   LIG d   1       3.651  -9.982  -8.582  0.00  0.00     0.066 H 
ENDBRANCH  52  53
ENDBRANCH  12  52
BRANCH  11  57
ATOM     57  O   LIG d   1       2.335  -6.311 -11.344  0.00  0.00    -0.491 OA
BRANCH  57  58
ATOM     58  C   LIG d   1       0.953  -5.992 -11.520  0.00  0.00     0.079 C 
ATOM     59  H   LIG d   1       0.794  -4.935 -11.309  0.00  0.00     0.066 H 
ATOM     60  H   LIG d   1       0.659  -6.206 -12.548  0.00  0.00     0.066 H 
ATOM     61  H   LIG d   1       0.352  -6.593 -10.838  0.00  0.00     0.066 H 
ENDBRANCH  57  58
ENDBRANCH  11  57
TORSDOF 9
ENDMDL
MODEL 4
REMARK VINA RESULT:      -6.4      4.237      7.521
REMARK  9 active torsions:
REMARK  status: ('A' for Active; 'I' for Inactive)
REMARK    1  A    between atoms: C_1  and  C_2 
REMARK    2  A    between atoms: C_2  and  C_3 
REMARK    3  A    between atoms: C_2  and  C_4 
REMARK    4  A    between atoms: C_4  and  C_5 
REMARK    5  A    between atoms: C_15  and  O_23 
REMARK    6  A    between atoms: C_16  and  O_21 
REMARK    7  A    between atoms: O_21  and  C_22 
REMARK    8  A    between atoms: O_23  and  C_24 
REMARK    9  A    between atoms: C_25  and  O_35 
ROOT
ATOM      1  C   LIG d   1       8.724   0.816  -5.318  0.00  0.00     0.106 C 
ATOM      2  H   LIG d   1       9.061   1.671  -4.731  0.00  0.00     0.060 H 
ATOM      3  C   LIG d   1       9.793  -0.251  -5.336  0.00  0.00     0.241 C 
ATOM      4  O   LIG d   1      10.948   0.084  -5.487  0.00  0.00    -0.273 OA
ATOM      5  N   LIG d   1       9.514  -1.547  -5.190  0.00  0.00    -0.262 N 
ATOM      6  C   LIG d   1       8.195  -2.130  -4.963  0.00  0.00     0.085 C 
ATOM      7  H   LIG d   1       8.028  -2.884  -5.733  0.00  0.00     0.056 H 
ATOM      8  C   LIG d   1       8.181  -2.838  -3.609  0.00  0.00    -0.003 C 
ATOM      9  C   LIG d   1       9.358  -3.771  -3.489  0.00  0.00    -0.033 A 
ATOM     10  C   LIG d   1       9.293  -4.822  -2.592  0.00  0.00    -0.012 A 
ATOM     11  C   LIG d   1      10.362  -5.692  -2.455  0.00  0.00     0.162 A 
ATOM     12  C   LIG d   1      11.513  -5.516  -3.219  0.00  0.00     0.162 A 
ATOM     13  C   LIG d   1      11.586  -4.469  -4.119  0.00  0.00    -0.007 A 
ATOM     14  C   LIG d   1      10.507  -3.597  -4.256  0.00  0.00     0.003 A 
ATOM     15  C   LIG d   1      10.583  -2.479  -5.234  0.00  0.00     0.037 C 
ATOM     16  C   LIG d   1      11.591  -2.361  -6.099  0.00  0.00    -0.076 C 
ATOM     17  C   LIG d   1       7.060  -1.129  -5.043  0.00  0.00     0.183 A 
ATOM     18  N   LIG d   1       7.539   0.214  -4.695  0.00  0.00    -0.252 N 
ATOM     19  C   LIG d   1       6.746   0.723  -3.742  0.00  0.00     0.250 A 
ATOM     20  O   LIG d   1       6.822   1.853  -3.299  0.00  0.00    -0.270 OA
ATOM     21  C   LIG d   1       5.772  -0.287  -3.314  0.00  0.00     0.045 A 
ATOM     22  C   LIG d   1       5.957  -1.448  -4.086  0.00  0.00     0.016 A 
ATOM     23  C   LIG d   1       5.184  -2.575  -3.920  0.00  0.00    -0.053 A 
ATOM     24  C   LIG d   1       4.220  -2.537  -2.916  0.00  0.00    -0.061 A 
ATOM     25  C   LIG d   1       4.042  -1.424  -2.121  0.00  0.00    -0.061 A 
ATOM     26  C   LIG d   1       4.793  -0.244  -2.320  0.00  0.00    -0.049 A 
ATOM     27  H   LIG d   1       8.227  -2.095  -2.813  0.00  0.00     0.033 H 
ATOM     28  H   LIG d   1       7.258  -3.410  -3.513  0.00  0.00     0.033 H 
ATOM     29  H   LIG d   1       8.404  -4.966  -1.995  0.00  0.00     0.066 H 
ATOM     30  H   LIG d   1      12.476  -4.326  -4.714  0.00  0.00     0.066 H 
ATOM     31  H   LIG d   1      11.611  -1.535  -6.794  0.00  0.00     0.055 H 
ATOM     32  H   LIG d   1      12.388  -3.090  -6.102  0.00  0.00     0.055 H 
ATOM     33  H   LIG d   1       5.319  -3.450  -4.540  0.00  0.00     0.062 H 
ATOM     34  H   LIG d   1       3.595  -3.403  -2.755  0.00  0.00     0.062 H 
ATOM     35  H   LIG d   1       3.278  -1.441  -1.357  0.00  0.00     0.062 H 
ATOM     36  H   LIG d   1       4.643   0.634  -1.709  0.00  0.00     0.062 H 
ENDROOT
BRANCH   1  37
ATOM     37  C   LIG d   1       8.399   1.256  -6.747  0.00  0.00    -0.023 C 
ATOM     38  H   LIG d   1       7.320   1.243  -6.895  0.00  0.00     0.029 H 
ATOM     39  H   LIG d   1       8.871   0.572  -7.453  0.00  0.00     0.029 H 
BRANCH  37  40
ATOM     40  C   LIG d   1       8.929   2.672  -6.977  0.00  0.00    -0.045 C 
ATOM     41  H   LIG d   1       8.165   3.270  -7.474  0.00  0.00     0.030 H 
BRANCH  40  42
ATOM     42  C   LIG d   1       9.281   3.310  -5.631  0.00  0.00    -0.063 C 
ATOM     43  H   LIG d   1       9.656   4.321  -5.796  0.00  0.00     0.023 H 
ATOM     44  H   LIG d   1       8.391   3.351  -5.004  0.00  0.00     0.023 H 
ATOM     45  H   LIG d   1      10.048   2.714  -5.137  0.00  0.00     0.023 H 
ENDBRANCH  40  42
BRANCH  40  46
ATOM     46  C   LIG d   1      10.181   2.612  -7.856  0.00  0.00    -0.063 C 
ATOM     47  H   LIG d   1      11.068   2.608  -7.224  0.00  0.00     0.023 H 
ATOM     48  H   LIG d   1      10.158   1.703  -8.458  0.00  0.00     0.023 H 
ATOM     49  H   LIG d   1      10.206   3.482  -8.513  0.00  0.00     0.023 H 
ENDBRANCH  40  46
ENDBRANCH  37  40
ENDBRANCH   1  37
BRANCH  17  50
ATOM     50  O   LIG d   1       6.546  -1.088  -6.376  0.00  0.00    -0.366 OA
ATOM     51  H   LIG d   1       6.670  -1.908  -6.871  0.00  0.00     0.212 HD
ENDBRANCH  17  50
BRANCH  12  52
ATOM     52  O   LIG d   1      12.562  -6.371  -3.082  0.00  0.00    -0.491 OA
BRANCH  52  53
ATOM     53  C   LIG d   1      12.745  -7.344  -4.112  0.00  0.00     0.079 C 
ATOM     54  H   LIG d   1      13.655  -7.117  -4.668  0.00  0.00     0.066 H 
ATOM     55  H   LIG d   1      12.830  -8.334  -3.667  0.00  0.00     0.066 H 
ATOM     56  H   LIG d   1      11.891  -7.322  -4.790  0.00  0.00     0.066 H 
ENDBRANCH  52  53
ENDBRANCH  12  52
BRANCH  11  57
ATOM     57  O   LIG d   1      10.288  -6.724  -1.571  0.00  0.00    -0.491 OA
BRANCH  57  58
ATOM     58  C   LIG d   1       9.539  -7.871  -1.975  0.00  0.00     0.079 C 
ATOM     59  H   LIG d   1       8.503  -7.584  -2.156  0.00  0.00     0.066 H 
ATOM     60  H   LIG d   1       9.967  -8.280  -2.891  0.00  0.00     0.066 H 
ATOM     61  H   LIG d   1       9.575  -8.624  -1.189  0.00  0.00     0.066 H 
ENDBRANCH  57  58
ENDBRANCH  11  57
TORSDOF 9
ENDMDL
MODEL 5
REMARK VINA RESULT:      -6.3      1.677      1.942
REMARK  9 active torsions:
REMARK  status: ('A' for Active; 'I' for Inactive)
REMARK    1  A    between atoms: C_1  and  C_2 
REMARK    2  A    between atoms: C_2  and  C_3 
REMARK    3  A    between atoms: C_2  and  C_4 
REMARK    4  A    between atoms: C_4  and  C_5 
REMARK    5  A    between atoms: C_15  and  O_23 
REMARK    6  A    between atoms: C_16  and  O_21 
REMARK    7  A    between atoms: O_21  and  C_22 
REMARK    8  A    between atoms: O_23  and  C_24 
REMARK    9  A    between atoms: C_25  and  O_35 
ROOT
ATOM      1  C   LIG d   1       5.417  -0.602  -5.247  0.00  0.00     0.106 C 
ATOM      2  H   LIG d   1       6.276   0.068  -5.275  0.00  0.00     0.060 H 
ATOM      3  C   LIG d   1       4.622  -0.478  -6.525  0.00  0.00     0.241 C 
ATOM      4  O   LIG d   1       4.428   0.627  -6.987  0.00  0.00    -0.273 OA
ATOM      5  N   LIG d   1       4.128  -1.538  -7.168  0.00  0.00    -0.262 N 
ATOM      6  C   LIG d   1       4.290  -2.937  -6.784  0.00  0.00     0.085 C 
ATOM      7  H   LIG d   1       3.296  -3.378  -6.710  0.00  0.00     0.056 H 
ATOM      8  C   LIG d   1       5.045  -3.678  -7.886  0.00  0.00    -0.003 C 
ATOM      9  C   LIG d   1       4.414  -3.417  -9.228  0.00  0.00    -0.033 A 
ATOM     10  C   LIG d   1       4.623  -4.319 -10.256  0.00  0.00    -0.012 A 
ATOM     11  C   LIG d   1       4.060  -4.103 -11.503  0.00  0.00     0.162 A 
ATOM     12  C   LIG d   1       3.276  -2.974 -11.733  0.00  0.00     0.162 A 
ATOM     13  C   LIG d   1       3.060  -2.069 -10.711  0.00  0.00    -0.007 A 
ATOM     14  C   LIG d   1       3.627  -2.291  -9.457  0.00  0.00     0.003 A 
ATOM     15  C   LIG d   1       3.382  -1.322  -8.355  0.00  0.00     0.037 C 
ATOM     16  C   LIG d   1       2.516  -0.316  -8.476  0.00  0.00    -0.076 C 
ATOM     17  C   LIG d   1       4.983  -3.131  -5.450  0.00  0.00     0.183 A 
ATOM     18  N   LIG d   1       5.868  -1.996  -5.165  0.00  0.00    -0.252 N 
ATOM     19  C   LIG d   1       7.089  -2.464  -4.867  0.00  0.00     0.250 A 
ATOM     20  O   LIG d   1       8.027  -1.784  -4.499  0.00  0.00    -0.270 OA
ATOM     21  C   LIG d   1       7.123  -3.918  -5.052  0.00  0.00     0.045 A 
ATOM     22  C   LIG d   1       5.841  -4.355  -5.433  0.00  0.00     0.016 A 
ATOM     23  C   LIG d   1       5.555  -5.680  -5.676  0.00  0.00    -0.053 A 
ATOM     24  C   LIG d   1       6.608  -6.583  -5.566  0.00  0.00    -0.061 A 
ATOM     25  C   LIG d   1       7.883  -6.176  -5.229  0.00  0.00    -0.061 A 
ATOM     26  C   LIG d   1       8.174  -4.828  -4.926  0.00  0.00    -0.049 A 
ATOM     27  H   LIG d   1       6.081  -3.339  -7.903  0.00  0.00     0.033 H 
ATOM     28  H   LIG d   1       5.021  -4.748  -7.680  0.00  0.00     0.033 H 
ATOM     29  H   LIG d   1       5.229  -5.197 -10.087  0.00  0.00     0.066 H 
ATOM     30  H   LIG d   1       2.455  -1.191 -10.883  0.00  0.00     0.066 H 
ATOM     31  H   LIG d   1       2.365   0.368  -7.654  0.00  0.00     0.055 H 
ATOM     32  H   LIG d   1       1.967  -0.183  -9.396  0.00  0.00     0.055 H 
ATOM     33  H   LIG d   1       4.558  -6.004  -5.940  0.00  0.00     0.062 H 
ATOM     34  H   LIG d   1       6.423  -7.631  -5.751  0.00  0.00     0.062 H 
ATOM     35  H   LIG d   1       8.667  -6.916  -5.153  0.00  0.00     0.062 H 
ATOM     36  H   LIG d   1       9.167  -4.511  -4.645  0.00  0.00     0.062 H 
ENDROOT
BRANCH   1  37
ATOM     37  C   LIG d   1       4.530  -0.267  -4.045  0.00  0.00    -0.023 C 
ATOM     38  H   LIG d   1       3.963  -1.150  -3.754  0.00  0.00     0.029 H 
ATOM     39  H   LIG d   1       3.842   0.534  -4.314  0.00  0.00     0.029 H 
BRANCH  37  40
ATOM     40  C   LIG d   1       5.407   0.186  -2.876  0.00  0.00    -0.045 C 
ATOM     41  H   LIG d   1       5.891  -0.683  -2.428  0.00  0.00     0.030 H 
BRANCH  40  42
ATOM     42  C   LIG d   1       6.472   1.159  -3.384  0.00  0.00    -0.063 C 
ATOM     43  H   LIG d   1       6.120   2.183  -3.255  0.00  0.00     0.023 H 
ATOM     44  H   LIG d   1       7.393   1.017  -2.819  0.00  0.00     0.023 H 
ATOM     45  H   LIG d   1       6.661   0.971  -4.441  0.00  0.00     0.023 H 
ENDBRANCH  40  42
BRANCH  40  46
ATOM     46  C   LIG d   1       4.537   0.883  -1.827  0.00  0.00    -0.063 C 
ATOM     47  H   LIG d   1       4.998   1.828  -1.544  0.00  0.00     0.023 H 
ATOM     48  H   LIG d   1       3.546   1.070  -2.242  0.00  0.00     0.023 H 
ATOM     49  H   LIG d   1       4.447   0.245  -0.948  0.00  0.00     0.023 H 
ENDBRANCH  40  46
ENDBRANCH  37  40
ENDBRANCH   1  37
BRANCH  17  50
ATOM     50  O   LIG d   1       4.008  -3.210  -4.408  0.00  0.00    -0.366 OA
ATOM     51  H   LIG d   1       3.312  -3.861  -4.568  0.00  0.00     0.212 HD
ENDBRANCH  17  50
BRANCH  12  52
ATOM     52  O   LIG d   1       2.725  -2.763 -12.958  0.00  0.00    -0.491 OA
BRANCH  52  53
ATOM     53  C   LIG d   1       1.345  -2.396 -12.995  0.00  0.00     0.079 C 
ATOM     54  H   LIG d   1       1.217  -1.418 -12.530  0.00  0.00     0.066 H 
ATOM     55  H   LIG d   1       1.007  -2.351 -14.030  0.00  0.00     0.066 H 
ATOM     56  H   LIG d   1       0.757  -3.136 -12.452  0.00  0.00     0.066 H 
ENDBRANCH  52  53
ENDBRANCH  12  52
BRANCH  11  57
ATOM     57  O   LIG d   1       4.271  -4.996 -12.507  0.00  0.00    -0.491 OA
BRANCH  57  58
ATOM     58  C   LIG d   1       3.499  -6.198 -12.478  0.00  0.00     0.079 C 
ATOM     59  H   LIG d   1       3.500  -6.656 -13.467  0.00  0.00     0.066 H 
ATOM     60  H   LIG d   1       3.934  -6.891 -11.757  0.00  0.00     0.066 H 
ATOM     61  H   LIG d   1       2.475  -5.965 -12.186  0.00  0.00     0.066 H 
ENDBRANCH  57  58
ENDBRANCH  11  57
TORSDOF 9
ENDMDL
MODEL 6
REMARK VINA RESULT:      -6.0      3.220      8.065
REMARK  9 active torsions:
REMARK  status: ('A' for Active; 'I' for Inactive)
REMARK    1  A    between atoms: C_1  and  C_2 
REMARK    2  A    between atoms: C_2  and  C_3 
REMARK    3  A    between atoms: C_2  and  C_4 
REMARK    4  A    between atoms: C_4  and  C_5 
REMARK    5  A    between atoms: C_15  and  O_23 
REMARK    6  A    between atoms: C_16  and  O_21 
REMARK    7  A    between atoms: O_21  and  C_22 
REMARK    8  A    between atoms: O_23  and  C_24 
REMARK    9  A    between atoms: C_25  and  O_35 
ROOT
ATOM      1  C   LIG d   1       2.736  -2.675 -12.624  0.00  0.00     0.106 C 
ATOM      2  H   LIG d   1       3.531  -2.684 -13.371  0.00  0.00     0.060 H 
ATOM      3  C   LIG d   1       2.894  -3.849 -11.688  0.00  0.00     0.241 C 
ATOM      4  O   LIG d   1       3.184  -4.931 -12.152  0.00  0.00    -0.273 OA
ATOM      5  N   LIG d   1       2.730  -3.741 -10.368  0.00  0.00    -0.262 N 
ATOM      6  C   LIG d   1       2.418  -2.520  -9.631  0.00  0.00     0.085 C 
ATOM      7  H   LIG d   1       1.524  -2.711  -9.036  0.00  0.00     0.056 H 
ATOM      8  C   LIG d   1       3.559  -2.206  -8.666  0.00  0.00    -0.003 C 
ATOM      9  C   LIG d   1       3.904  -3.420  -7.842  0.00  0.00    -0.033 A 
ATOM     10  C   LIG d   1       4.548  -3.248  -6.630  0.00  0.00    -0.012 A 
ATOM     11  C   LIG d   1       4.883  -4.345  -5.853  0.00  0.00     0.162 A 
ATOM     12  C   LIG d   1       4.574  -5.633  -6.287  0.00  0.00     0.162 A 
ATOM     13  C   LIG d   1       3.929  -5.813  -7.497  0.00  0.00    -0.007 A 
ATOM     14  C   LIG d   1       3.591  -4.706  -8.274  0.00  0.00     0.003 A 
ATOM     15  C   LIG d   1       2.886  -4.902  -9.569  0.00  0.00     0.037 C 
ATOM     16  C   LIG d   1       2.428  -6.094  -9.953  0.00  0.00    -0.076 C 
ATOM     17  C   LIG d   1       2.135  -1.324 -10.517  0.00  0.00     0.183 A 
ATOM     18  N   LIG d   1       2.833  -1.464 -11.801  0.00  0.00    -0.252 N 
ATOM     19  C   LIG d   1       3.545  -0.352 -12.031  0.00  0.00     0.250 A 
ATOM     20  O   LIG d   1       4.165  -0.117 -13.049  0.00  0.00    -0.270 OA
ATOM     21  C   LIG d   1       3.463   0.539 -10.869  0.00  0.00     0.045 A 
ATOM     22  C   LIG d   1       2.616  -0.045  -9.909  0.00  0.00     0.016 A 
ATOM     23  C   LIG d   1       2.337   0.560  -8.705  0.00  0.00    -0.053 A 
ATOM     24  C   LIG d   1       2.964   1.776  -8.449  0.00  0.00    -0.061 A 
ATOM     25  C   LIG d   1       3.827   2.354  -9.358  0.00  0.00    -0.061 A 
ATOM     26  C   LIG d   1       4.077   1.768 -10.618  0.00  0.00    -0.049 A 
ATOM     27  H   LIG d   1       4.436  -1.895  -9.234  0.00  0.00     0.033 H 
ATOM     28  H   LIG d   1       3.255  -1.396  -8.002  0.00  0.00     0.033 H 
ATOM     29  H   LIG d   1       4.791  -2.253  -6.286  0.00  0.00     0.066 H 
ATOM     30  H   LIG d   1       3.688  -6.808  -7.839  0.00  0.00     0.066 H 
ATOM     31  H   LIG d   1       1.920  -6.198 -10.900  0.00  0.00     0.055 H 
ATOM     32  H   LIG d   1       2.566  -6.957  -9.317  0.00  0.00     0.055 H 
ATOM     33  H   LIG d   1       1.661   0.112  -7.991  0.00  0.00     0.062 H 
ATOM     34  H   LIG d   1       2.770   2.280  -7.514  0.00  0.00     0.062 H 
ATOM     35  H   LIG d   1       4.287   3.301  -9.115  0.00  0.00     0.062 H 
ATOM     36  H   LIG d   1       4.740   2.227 -11.337  0.00  0.00     0.062 H 
ENDROOT
BRANCH   1  37
ATOM     37  C   LIG d   1       1.370  -2.735 -13.312  0.00  0.00    -0.023 C 
ATOM     38  H   LIG d   1       0.864  -1.777 -13.198  0.00  0.00     0.029 H 
ATOM     39  H   LIG d   1       0.768  -3.520 -12.855  0.00  0.00     0.029 H 
BRANCH  37  40
ATOM     40  C   LIG d   1       1.561  -3.038 -14.799  0.00  0.00    -0.045 C 
ATOM     41  H   LIG d   1       1.527  -4.117 -14.956  0.00  0.00     0.030 H 
BRANCH  40  42
ATOM     42  C   LIG d   1       0.445  -2.369 -15.604  0.00  0.00    -0.063 C 
ATOM     43  H   LIG d   1      -0.360  -2.072 -14.930  0.00  0.00     0.023 H 
ATOM     44  H   LIG d   1       0.839  -1.489 -16.110  0.00  0.00     0.023 H 
ATOM     45  H   LIG d   1       0.059  -3.072 -16.342  0.00  0.00     0.023 H 
ENDBRANCH  40  42
BRANCH  40  46
ATOM     46  C   LIG d   1       2.917  -2.498 -15.259  0.00  0.00    -0.063 C 
ATOM     47  H   LIG d   1       3.569  -2.372 -14.396  0.00  0.00     0.023 H 
ATOM     48  H   LIG d   1       3.370  -3.201 -15.959  0.00  0.00     0.023 H 
ATOM     49  H   LIG d   1       2.776  -1.535 -15.752  0.00  0.00     0.023 H 
ENDBRANCH  40  46
ENDBRANCH  37  40
ENDBRANCH   1  37
BRANCH  17  50
ATOM     50  O   LIG d   1       0.733  -1.237 -10.779  0.00  0.00    -0.366 OA
ATOM     51  H   LIG d   1       0.509  -0.711 -11.558  0.00  0.00     0.212 HD
ENDBRANCH  17  50
BRANCH  12  52
ATOM     52  O   LIG d   1       4.905  -6.708  -5.523  0.00  0.00    -0.491 OA
BRANCH  52  53
ATOM     53  C   LIG d   1       4.948  -7.978  -6.176  0.00  0.00     0.079 C 
ATOM     54  H   LIG d   1       5.528  -7.895  -7.095  0.00  0.00     0.066 H 
ATOM     55  H   LIG d   1       5.416  -8.710  -5.518  0.00  0.00     0.066 H 
ATOM     56  H   LIG d   1       3.934  -8.300  -6.415  0.00  0.00     0.066 H 
ENDBRANCH  52  53
ENDBRANCH  12  52
BRANCH  11  57
ATOM     57  O   LIG d   1       5.515  -4.166  -4.662  0.00  0.00    -0.491 OA
BRANCH  57  58
ATOM     58  C   LIG d   1       5.814  -2.821  -4.284  0.00  0.00     0.079 C 
ATOM     59  H   LIG d   1       5.791  -2.735  -3.197  0.00  0.00     0.066 H 
ATOM     60  H   LIG d   1       6.805  -2.553  -4.649  0.00  0.00     0.066 H 
ATOM     61  H   LIG d   1       5.073  -2.149  -4.717  0.00  0.00     0.066 H 
ENDBRANCH  57  58
ENDBRANCH  11  57
TORSDOF 9
ENDMDL
MODEL 7
REMARK VINA RESULT:      -6.0     10.446     13.811
REMARK  9 active torsions:
REMARK  status: ('A' for Active; 'I' for Inactive)
REMARK    1  A    between atoms: C_1  and  C_2 
REMARK    2  A    between atoms: C_2  and  C_3 
REMARK    3  A    between atoms: C_2  and  C_4 
REMARK    4  A    between atoms: C_4  and  C_5 
REMARK    5  A    between atoms: C_15  and  O_23 
REMARK    6  A    between atoms: C_16  and  O_21 
REMARK    7  A    between atoms: O_21  and  C_22 
REMARK    8  A    between atoms: O_23  and  C_24 
REMARK    9  A    between atoms: C_25  and  O_35 
ROOT
ATOM      1  C   LIG d   1      10.636   6.919  -8.552  0.00  0.00     0.106 C 
ATOM      2  H   LIG d   1      11.601   6.558  -8.908  0.00  0.00     0.060 H 
ATOM      3  C   LIG d   1      10.332   6.330  -7.195  0.00  0.00     0.241 C 
ATOM      4  O   LIG d   1      10.572   5.157  -7.002  0.00  0.00    -0.273 OA
ATOM      5  N   LIG d   1       9.811   7.051  -6.200  0.00  0.00    -0.262 N 
ATOM      6  C   LIG d   1       9.492   8.475  -6.237  0.00  0.00     0.085 C 
ATOM      7  H   LIG d   1       8.446   8.588  -5.950  0.00  0.00     0.056 H 
ATOM      8  C   LIG d   1      10.339   9.209  -5.200  0.00  0.00    -0.003 C 
ATOM      9  C   LIG d   1      10.238   8.532  -3.858  0.00  0.00    -0.033 A 
ATOM     10  C   LIG d   1      10.522   9.258  -2.715  0.00  0.00    -0.012 A 
ATOM     11  C   LIG d   1      10.443   8.660  -1.468  0.00  0.00     0.162 A 
ATOM     12  C   LIG d   1      10.077   7.321  -1.354  0.00  0.00     0.162 A 
ATOM     13  C   LIG d   1       9.790   6.588  -2.491  0.00  0.00    -0.007 A 
ATOM     14  C   LIG d   1       9.868   7.194  -3.744  0.00  0.00     0.003 A 
ATOM     15  C   LIG d   1       9.546   6.407  -4.964  0.00  0.00     0.037 C 
ATOM     16  C   LIG d   1       9.041   5.175  -4.900  0.00  0.00    -0.076 C 
ATOM     17  C   LIG d   1       9.667   9.108  -7.603  0.00  0.00     0.183 A 
ATOM     18  N   LIG d   1      10.676   8.376  -8.378  0.00  0.00    -0.252 N 
ATOM     19  C   LIG d   1      11.588   9.248  -8.833  0.00  0.00     0.250 A 
ATOM     20  O   LIG d   1      12.505   8.972  -9.582  0.00  0.00    -0.270 OA
ATOM     21  C   LIG d   1      11.312  10.583  -8.293  0.00  0.00     0.045 A 
ATOM     22  C   LIG d   1      10.144  10.522  -7.512  0.00  0.00     0.016 A 
ATOM     23  C   LIG d   1       9.625  11.626  -6.873  0.00  0.00    -0.053 A 
ATOM     24  C   LIG d   1      10.332  12.818  -6.999  0.00  0.00    -0.061 A 
ATOM     25  C   LIG d   1      11.500  12.897  -7.730  0.00  0.00    -0.061 A 
ATOM     26  C   LIG d   1      12.010  11.784  -8.433  0.00  0.00    -0.049 A 
ATOM     27  H   LIG d   1      11.380   9.215  -5.523  0.00  0.00     0.033 H 
ATOM     28  H   LIG d   1       9.986  10.237  -5.111  0.00  0.00     0.033 H 
ATOM     29  H   LIG d   1      10.806  10.297  -2.795  0.00  0.00     0.066 H 
ATOM     30  H   LIG d   1       9.508   5.549  -2.409  0.00  0.00     0.066 H 
ATOM     31  H   LIG d   1       8.819   4.635  -5.808  0.00  0.00     0.055 H 
ATOM     32  H   LIG d   1       8.853   4.717  -3.940  0.00  0.00     0.055 H 
ATOM     33  H   LIG d   1       8.710  11.569  -6.300  0.00  0.00     0.062 H 
ATOM     34  H   LIG d   1       9.956  13.705  -6.511  0.00  0.00     0.062 H 
ATOM     35  H   LIG d   1      12.011  13.847  -7.801  0.00  0.00     0.062 H 
ATOM     36  H   LIG d   1      12.915  11.848  -9.019  0.00  0.00     0.062 H 
ENDROOT
BRANCH   1  37
ATOM     37  C   LIG d   1       9.535   6.540  -9.546  0.00  0.00    -0.023 C 
ATOM     38  H   LIG d   1       8.859   7.384  -9.678  0.00  0.00     0.029 H 
ATOM     39  H   LIG d   1       8.979   5.685  -9.162  0.00  0.00     0.029 H 
BRANCH  37  40
ATOM     40  C   LIG d   1      10.167   6.176 -10.890  0.00  0.00    -0.045 C 
ATOM     41  H   LIG d   1       9.599   5.368 -11.351  0.00  0.00     0.030 H 
BRANCH  40  42
ATOM     42  C   LIG d   1      10.152   7.399 -11.809  0.00  0.00    -0.063 C 
ATOM     43  H   LIG d   1       9.929   8.291 -11.223  0.00  0.00     0.023 H 
ATOM     44  H   LIG d   1      11.127   7.510 -12.284  0.00  0.00     0.023 H 
ATOM     45  H   LIG d   1       9.388   7.268 -12.575  0.00  0.00     0.023 H 
ENDBRANCH  40  42
BRANCH  40  46
ATOM     46  C   LIG d   1      11.612   5.722 -10.668  0.00  0.00    -0.063 C 
ATOM     47  H   LIG d   1      12.197   6.552 -10.275  0.00  0.00     0.023 H 
ATOM     48  H   LIG d   1      11.628   4.896  -9.957  0.00  0.00     0.023 H 
ATOM     49  H   LIG d   1      12.039   5.393 -11.616  0.00  0.00     0.023 H 
ENDBRANCH  40  46
ENDBRANCH  37  40
ENDBRANCH   1  37
BRANCH  17  50
ATOM     50  O   LIG d   1       8.432   9.059  -8.319  0.00  0.00    -0.366 OA
ATOM     51  H   LIG d   1       8.492   9.379  -9.229  0.00  0.00     0.212 HD
ENDBRANCH  17  50
BRANCH  12  52
ATOM     52  O   LIG d   1      10.002   6.736  -0.128  0.00  0.00    -0.491 OA
BRANCH  52  53
ATOM     53  C   LIG d   1      11.102   5.915   0.267  0.00  0.00     0.079 C 
ATOM     54  H   LIG d   1      10.743   5.114   0.914  0.00  0.00     0.066 H 
ATOM     55  H   LIG d   1      11.571   5.484  -0.617  0.00  0.00     0.066 H 
ATOM     56  H   LIG d   1      11.831   6.519   0.808  0.00  0.00     0.066 H 
ENDBRANCH  52  53
ENDBRANCH  12  52
BRANCH  11  57
ATOM     57  O   LIG d   1      10.723   9.383  -0.351  0.00  0.00    -0.491 OA
BRANCH  57  58
ATOM     58  C   LIG d   1       9.821  10.440  -0.021  0.00  0.00     0.079 C 
ATOM     59  H   LIG d   1      10.271  11.398  -0.282  0.00  0.00     0.066 H 
ATOM     60  H   LIG d   1       8.892  10.312  -0.576  0.00  0.00     0.066 H 
ATOM     61  H   LIG d   1       9.611  10.418   1.049  0.00  0.00     0.066 H 
ENDBRANCH  57  58
ENDBRANCH  11  57
TORSDOF 9
ENDMDL
MODEL 8
REMARK VINA RESULT:      -5.9      2.812      5.967
REMARK  9 active torsions:
REMARK  status: ('A' for Active; 'I' for Inactive)
REMARK    1  A    between atoms: C_1  and  C_2 
REMARK    2  A    between atoms: C_2  and  C_3 
REMARK    3  A    between atoms: C_2  and  C_4 
REMARK    4  A    between atoms: C_4  and  C_5 
REMARK    5  A    between atoms: C_15  and  O_23 
REMARK    6  A    between atoms: C_16  and  O_21 
REMARK    7  A    between atoms: O_21  and  C_22 
REMARK    8  A    between atoms: O_23  and  C_24 
REMARK    9  A    between atoms: C_25  and  O_35 
ROOT
ATOM      1  C   LIG d   1       5.648  -0.670  -5.019  0.00  0.00     0.106 C 
ATOM      2  H   LIG d   1       5.026  -0.338  -4.187  0.00  0.00     0.060 H 
ATOM      3  C   LIG d   1       6.077  -2.102  -4.806  0.00  0.00     0.241 C 
ATOM      4  O   LIG d   1       6.431  -2.446  -3.699  0.00  0.00    -0.273 OA
ATOM      5  N   LIG d   1       6.077  -3.004  -5.790  0.00  0.00    -0.262 N 
ATOM      6  C   LIG d   1       5.651  -2.783  -7.168  0.00  0.00     0.085 C 
ATOM      7  H   LIG d   1       6.472  -3.082  -7.820  0.00  0.00     0.056 H 
ATOM      8  C   LIG d   1       4.459  -3.686  -7.480  0.00  0.00    -0.003 C 
ATOM      9  C   LIG d   1       4.757  -5.109  -7.088  0.00  0.00    -0.033 A 
ATOM     10  C   LIG d   1       4.046  -6.134  -7.687  0.00  0.00    -0.012 A 
ATOM     11  C   LIG d   1       4.293  -7.452  -7.342  0.00  0.00     0.162 A 
ATOM     12  C   LIG d   1       5.261  -7.759  -6.388  0.00  0.00     0.162 A 
ATOM     13  C   LIG d   1       5.978  -6.741  -5.786  0.00  0.00    -0.007 A 
ATOM     14  C   LIG d   1       5.727  -5.416  -6.137  0.00  0.00     0.003 A 
ATOM     15  C   LIG d   1       6.509  -4.323  -5.498  0.00  0.00     0.037 C 
ATOM     16  C   LIG d   1       7.549  -4.569  -4.701  0.00  0.00    -0.076 C 
ATOM     17  C   LIG d   1       5.314  -1.339  -7.482  0.00  0.00     0.183 A 
ATOM     18  N   LIG d   1       4.876  -0.642  -6.267  0.00  0.00    -0.252 N 
ATOM     19  C   LIG d   1       3.700  -0.046  -6.510  0.00  0.00     0.250 A 
ATOM     20  O   LIG d   1       3.114   0.684  -5.735  0.00  0.00    -0.270 OA
ATOM     21  C   LIG d   1       3.228  -0.407  -7.850  0.00  0.00     0.045 A 
ATOM     22  C   LIG d   1       4.194  -1.223  -8.466  0.00  0.00     0.016 A 
ATOM     23  C   LIG d   1       4.037  -1.720  -9.740  0.00  0.00    -0.053 A 
ATOM     24  C   LIG d   1       2.848  -1.413 -10.395  0.00  0.00    -0.061 A 
ATOM     25  C   LIG d   1       1.868  -0.644  -9.801  0.00  0.00    -0.061 A 
ATOM     26  C   LIG d   1       2.043  -0.085  -8.516  0.00  0.00    -0.049 A 
ATOM     27  H   LIG d   1       3.587  -3.334  -6.928  0.00  0.00     0.033 H 
ATOM     28  H   LIG d   1       4.248  -3.644  -8.549  0.00  0.00     0.033 H 
ATOM     29  H   LIG d   1       3.293  -5.905  -8.427  0.00  0.00     0.066 H 
ATOM     30  H   LIG d   1       6.728  -6.971  -5.045  0.00  0.00     0.066 H 
ATOM     31  H   LIG d   1       8.093  -3.750  -4.255  0.00  0.00     0.055 H 
ATOM     32  H   LIG d   1       7.848  -5.588  -4.501  0.00  0.00     0.055 H 
ATOM     33  H   LIG d   1       4.801  -2.321 -10.211  0.00  0.00     0.062 H 
ATOM     34  H   LIG d   1       2.688  -1.786 -11.396  0.00  0.00     0.062 H 
ATOM     35  H   LIG d   1       0.963  -0.430 -10.351  0.00  0.00     0.062 H 
ATOM     36  H   LIG d   1       1.284   0.530  -8.056  0.00  0.00     0.062 H 
ENDROOT
BRANCH   1  37
ATOM     37  C   LIG d   1       6.879   0.231  -5.144  0.00  0.00    -0.023 C 
ATOM     38  H   LIG d   1       6.680   1.020  -5.868  0.00  0.00     0.029 H 
ATOM     39  H   LIG d   1       7.731  -0.362  -5.478  0.00  0.00     0.029 H 
BRANCH  37  40
ATOM     40  C   LIG d   1       7.195   0.854  -3.783  0.00  0.00    -0.045 C 
ATOM     41  H   LIG d   1       7.768   0.146  -3.184  0.00  0.00     0.030 H 
BRANCH  40  42
ATOM     42  C   LIG d   1       8.012   2.132  -3.984  0.00  0.00    -0.063 C 
ATOM     43  H   LIG d   1       7.878   2.492  -5.004  0.00  0.00     0.023 H 
ATOM     44  H   LIG d   1       7.674   2.894  -3.282  0.00  0.00     0.023 H 
ATOM     45  H   LIG d   1       9.067   1.919  -3.810  0.00  0.00     0.023 H 
ENDBRANCH  40  42
BRANCH  40  46
ATOM     46  C   LIG d   1       5.888   1.192  -3.062  0.00  0.00    -0.063 C 
ATOM     47  H   LIG d   1       5.973   2.174  -2.598  0.00  0.00     0.023 H 
ATOM     48  H   LIG d   1       5.068   1.198  -3.780  0.00  0.00     0.023 H 
ATOM     49  H   LIG d   1       5.693   0.443  -2.294  0.00  0.00     0.023 H 
ENDBRANCH  40  46
ENDBRANCH  37  40
ENDBRANCH   1  37
BRANCH  17  50
ATOM     50  O   LIG d   1       6.472  -0.672  -7.987  0.00  0.00    -0.366 OA
ATOM     51  H   LIG d   1       6.293  -0.081  -8.731  0.00  0.00     0.212 HD
ENDBRANCH  17  50
BRANCH  12  52
ATOM     52  O   LIG d   1       5.502  -9.054  -6.051  0.00  0.00    -0.491 OA
BRANCH  52  53
ATOM     53  C   LIG d   1       5.217  -9.437  -4.704  0.00  0.00     0.079 C 
ATOM     54  H   LIG d   1       4.562 -10.308  -4.705  0.00  0.00     0.066 H 
ATOM     55  H   LIG d   1       6.147  -9.684  -4.192  0.00  0.00     0.066 H 
ATOM     56  H   LIG d   1       4.725  -8.613  -4.187  0.00  0.00     0.066 H 
ENDBRANCH  52  53
ENDBRANCH  12  52
BRANCH  11  57
ATOM     57  O   LIG d   1       3.589  -8.453  -7.937  0.00  0.00    -0.491 OA
BRANCH  57  58
ATOM     58  C   LIG d   1       3.961  -8.800  -9.272  0.00  0.00     0.079 C 
ATOM     59  H   LIG d   1       3.073  -9.091  -9.833  0.00  0.00     0.066 H 
ATOM     60  H   LIG d   1       4.430  -7.942  -9.754  0.00  0.00     0.066 H 
ATOM     61  H   LIG d   1       4.664  -9.633  -9.249  0.00  0.00     0.066 H 
ENDBRANCH  57  58
ENDBRANCH  11  57
TORSDOF 9
ENDMDL
MODEL 9
REMARK VINA RESULT:      -5.9     10.068     11.920
REMARK  9 active torsions:
REMARK  status: ('A' for Active; 'I' for Inactive)
REMARK    1  A    between atoms: C_1  and  C_2 
REMARK    2  A    between atoms: C_2  and  C_3 
REMARK    3  A    between atoms: C_2  and  C_4 
REMARK    4  A    between atoms: C_4  and  C_5 
REMARK    5  A    between atoms: C_15  and  O_23 
REMARK    6  A    between atoms: C_16  and  O_21 
REMARK    7  A    between atoms: O_21  and  C_22 
REMARK    8  A    between atoms: O_23  and  C_24 
REMARK    9  A    between atoms: C_25  and  O_35 
ROOT
ATOM      1  C   LIG d   1       9.948   8.644  -3.265  0.00  0.00     0.106 C 
ATOM      2  H   LIG d   1       9.033   8.822  -2.700  0.00  0.00     0.060 H 
ATOM      3  C   LIG d   1       9.859   7.324  -3.993  0.00  0.00     0.241 C 
ATOM      4  O   LIG d   1       9.391   6.368  -3.412  0.00  0.00    -0.273 OA
ATOM      5  N   LIG d   1      10.273   7.170  -5.252  0.00  0.00    -0.262 N 
ATOM      6  C   LIG d   1      10.825   8.209  -6.115  0.00  0.00     0.085 C 
ATOM      7  H   LIG d   1      11.791   7.859  -6.479  0.00  0.00     0.056 H 
ATOM      8  C   LIG d   1       9.914   8.397  -7.327  0.00  0.00    -0.003 C 
ATOM      9  C   LIG d   1       9.617   7.070  -7.976  0.00  0.00    -0.033 A 
ATOM     10  C   LIG d   1       9.226   7.043  -9.303  0.00  0.00    -0.012 A 
ATOM     11  C   LIG d   1       8.941   5.839  -9.925  0.00  0.00     0.162 A 
ATOM     12  C   LIG d   1       9.046   4.642  -9.219  0.00  0.00     0.162 A 
ATOM     13  C   LIG d   1       9.438   4.660  -7.893  0.00  0.00    -0.007 A 
ATOM     14  C   LIG d   1       9.727   5.873  -7.272  0.00  0.00     0.003 A 
ATOM     15  C   LIG d   1      10.161   5.888  -5.849  0.00  0.00     0.037 C 
ATOM     16  C   LIG d   1      10.429   4.768  -5.179  0.00  0.00    -0.076 C 
ATOM     17  C   LIG d   1      11.047   9.535  -5.415  0.00  0.00     0.183 A 
ATOM     18  N   LIG d   1      10.116   9.680  -4.291  0.00  0.00    -0.252 N 
ATOM     19  C   LIG d   1       9.478  10.854  -4.406  0.00  0.00     0.250 A 
ATOM     20  O   LIG d   1       8.705  11.312  -3.587  0.00  0.00    -0.270 OA
ATOM     21  C   LIG d   1       9.853  11.501  -5.667  0.00  0.00     0.045 A 
ATOM     22  C   LIG d   1      10.805  10.699  -6.322  0.00  0.00     0.016 A 
ATOM     23  C   LIG d   1      11.356  11.048  -7.534  0.00  0.00    -0.053 A 
ATOM     24  C   LIG d   1      10.900  12.226  -8.119  0.00  0.00    -0.061 A 
ATOM     25  C   LIG d   1       9.941  13.013  -7.515  0.00  0.00    -0.061 A 
ATOM     26  C   LIG d   1       9.410  12.692  -6.247  0.00  0.00    -0.049 A 
ATOM     27  H   LIG d   1       8.980   8.858  -7.008  0.00  0.00     0.033 H 
ATOM     28  H   LIG d   1      10.407   9.048  -8.050  0.00  0.00     0.033 H 
ATOM     29  H   LIG d   1       9.142   7.967  -9.858  0.00  0.00     0.066 H 
ATOM     30  H   LIG d   1       9.520   3.736  -7.340  0.00  0.00     0.066 H 
ATOM     31  H   LIG d   1      10.743   4.818  -4.147  0.00  0.00     0.055 H 
ATOM     32  H   LIG d   1      10.333   3.809  -5.667  0.00  0.00     0.055 H 
ATOM     33  H   LIG d   1      12.107  10.435  -8.011  0.00  0.00     0.062 H 
ATOM     34  H   LIG d   1      11.307  12.531  -9.071  0.00  0.00     0.062 H 
ATOM     35  H   LIG d   1       9.622  13.921  -8.007  0.00  0.00     0.062 H 
ATOM     36  H   LIG d   1       8.672  13.316  -5.765  0.00  0.00     0.062 H 
ENDROOT
BRANCH   1  37
ATOM     37  C   LIG d   1      11.153   8.641  -2.321  0.00  0.00    -0.023 C 
ATOM     38  H   LIG d   1      11.772   9.516  -2.518  0.00  0.00     0.029 H 
ATOM     39  H   LIG d   1      11.740   7.737  -2.486  0.00  0.00     0.029 H 
BRANCH  37  40
ATOM     40  C   LIG d   1      10.665   8.676  -0.872  0.00  0.00    -0.045 C 
ATOM     41  H   LIG d   1      11.293   9.354  -0.294  0.00  0.00     0.030 H 
BRANCH  40  42
ATOM     42  C   LIG d   1       9.216   9.164  -0.833  0.00  0.00    -0.063 C 
ATOM     43  H   LIG d   1       9.012   9.767  -1.718  0.00  0.00     0.023 H 
ATOM     44  H   LIG d   1       8.544   8.306  -0.814  0.00  0.00     0.023 H 
ATOM     45  H   LIG d   1       9.061   9.768   0.061  0.00  0.00     0.023 H 
ENDBRANCH  40  42
BRANCH  40  46
ATOM     46  C   LIG d   1      10.747   7.270  -0.273  0.00  0.00    -0.063 C 
ATOM     47  H   LIG d   1      11.678   6.797  -0.582  0.00  0.00     0.023 H 
ATOM     48  H   LIG d   1      10.715   7.336   0.815  0.00  0.00     0.023 H 
ATOM     49  H   LIG d   1       9.903   6.675  -0.625  0.00  0.00     0.023 H 
ENDBRANCH  40  46
ENDBRANCH  37  40
ENDBRANCH   1  37
BRANCH  17  50
ATOM     50  O   LIG d   1      12.379   9.592  -4.902  0.00  0.00    -0.366 OA
ATOM     51  H   LIG d   1      12.663  10.477  -4.638  0.00  0.00     0.212 HD
ENDBRANCH  17  50
BRANCH  12  52
ATOM     52  O   LIG d   1       8.764   3.461  -9.832  0.00  0.00    -0.491 OA
BRANCH  52  53
ATOM     53  C   LIG d   1       8.327   2.386  -8.998  0.00  0.00     0.079 C 
ATOM     54  H   LIG d   1       7.956   2.786  -8.055  0.00  0.00     0.066 H 
ATOM     55  H   LIG d   1       7.529   1.839  -9.499  0.00  0.00     0.066 H 
ATOM     56  H   LIG d   1       9.163   1.713  -8.804  0.00  0.00     0.066 H 
ENDBRANCH  52  53
ENDBRANCH  12  52
BRANCH  11  57
ATOM     57  O   LIG d   1       8.558   5.824 -11.230  0.00  0.00    -0.491 OA
BRANCH  57  58
ATOM     58  C   LIG d   1       9.355   6.573 -12.148  0.00  0.00     0.079 C 
ATOM     59  H   LIG d   1      10.030   7.227 -11.595  0.00  0.00     0.066 H 
ATOM     60  H   LIG d   1       9.937   5.889 -12.766  0.00  0.00     0.066 H 
ATOM     61  H   LIG d   1       8.707   7.175 -12.785  0.00  0.00     0.066 H 
ENDBRANCH  57  58
ENDBRANCH  11  57
TORSDOF 9
ENDMDL
