MODEL 1
REMARK VINA RESULT:      -5.1      0.000      0.000
REMARK  4 active torsions:
REMARK  status: ('A' for Active; 'I' for Inactive)
REMARK    1  A    between atoms: C_1  and  C_2 
REMARK    2  A    between atoms: C_4  and  O_11 
REMARK    3  A    between atoms: C_5  and  C_9 
REMARK    4  A    between atoms: C_6  and  O_8 
ROOT
ATOM      1  C   LIG d   1       6.710  -1.889  -3.689  0.00  0.00    -0.043 A 
ATOM      2  C   LIG d   1       5.394  -2.297  -3.789  0.00  0.00    -0.016 A 
ATOM      3  C   LIG d   1       4.366  -1.379  -3.646  0.00  0.00     0.129 A 
ATOM      4  C   LIG d   1       4.666  -0.029  -3.407  0.00  0.00     0.080 A 
ATOM      5  C   LIG d   1       6.007   0.375  -3.315  0.00  0.00     0.129 A 
ATOM      6  C   LIG d   1       7.018  -0.561  -3.460  0.00  0.00    -0.016 A 
ATOM      7  H   LIG d   1       5.164  -3.336  -3.973  0.00  0.00     0.066 H 
ATOM      8  H   LIG d   1       8.051  -0.252  -3.389  0.00  0.00     0.066 H 
ENDROOT
BRANCH   1   9
ATOM      9  C   LIG d   1       7.819  -2.898  -3.839  0.00  0.00    -0.040 C 
ATOM     10  H   LIG d   1       8.737  -2.389  -4.135  0.00  0.00     0.028 H 
ATOM     11  H   LIG d   1       7.978  -3.408  -2.889  0.00  0.00     0.028 H 
ATOM     12  H   LIG d   1       7.546  -3.627  -4.602  0.00  0.00     0.028 H 
ENDBRANCH   1   9
BRANCH   5  13
ATOM     13  O   LIG d   1       6.312   1.676  -3.083  0.00  0.00    -0.506 OA
ATOM     14  H   LIG d   1       6.022   2.001  -2.218  0.00  0.00     0.292 HD
ENDBRANCH   5  13
BRANCH   3  15
ATOM     15  O   LIG d   1       3.074  -1.782  -3.738  0.00  0.00    -0.506 OA
ATOM     16  H   LIG d   1       2.814  -2.070  -4.625  0.00  0.00     0.292 HD
ENDBRANCH   3  15
BRANCH   4  17
ATOM     17  C   LIG d   1       3.584   0.956  -3.256  0.00  0.00     0.079 C 
ATOM     18  O   LIG d   1       3.353   1.441  -2.165  0.00  0.00    -0.544 OA
ATOM     19  O   LIG d   1       2.849   1.319  -4.325  0.00  0.00    -0.544 OA
ENDBRANCH   4  17
TORSDOF 4
ENDMDL
MODEL 2
REMARK VINA RESULT:      -5.1      0.007      2.398
REMARK  4 active torsions:
REMARK  status: ('A' for Active; 'I' for Inactive)
REMARK    1  A    between atoms: C_1  and  C_2 
REMARK    2  A    between atoms: C_4  and  O_11 
REMARK    3  A    between atoms: C_5  and  C_9 
REMARK    4  A    between atoms: C_6  and  O_8 
ROOT
ATOM      1  C   LIG d   1       6.705  -1.889  -3.693  0.00  0.00    -0.043 A 
ATOM      2  C   LIG d   1       7.015  -0.564  -3.454  0.00  0.00    -0.016 A 
ATOM      3  C   LIG d   1       6.005   0.374  -3.312  0.00  0.00     0.129 A 
ATOM      4  C   LIG d   1       4.664  -0.027  -3.406  0.00  0.00     0.080 A 
ATOM      5  C   LIG d   1       4.361  -1.377  -3.643  0.00  0.00     0.129 A 
ATOM      6  C   LIG d   1       5.387  -2.297  -3.782  0.00  0.00    -0.016 A 
ATOM      7  H   LIG d   1       8.048  -0.258  -3.381  0.00  0.00     0.066 H 
ATOM      8  H   LIG d   1       5.156  -3.337  -3.965  0.00  0.00     0.066 H 
ENDROOT
BRANCH   1   9
ATOM      9  C   LIG d   1       7.812  -2.899  -3.852  0.00  0.00    -0.040 C 
ATOM     10  H   LIG d   1       7.552  -3.603  -4.644  0.00  0.00     0.028 H 
ATOM     11  H   LIG d   1       8.738  -2.387  -4.112  0.00  0.00     0.028 H 
ATOM     12  H   LIG d   1       7.947  -3.440  -2.915  0.00  0.00     0.028 H 
ENDBRANCH   1   9
BRANCH   5  13
ATOM     13  O   LIG d   1       3.069  -1.778  -3.738  0.00  0.00    -0.506 OA
ATOM     14  H   LIG d   1       2.962  -2.710  -3.978  0.00  0.00     0.292 HD
ENDBRANCH   5  13
BRANCH   3  15
ATOM     15  O   LIG d   1       6.312   1.675  -3.083  0.00  0.00    -0.506 OA
ATOM     16  H   LIG d   1       6.867   2.075  -3.767  0.00  0.00     0.292 HD
ENDBRANCH   3  15
BRANCH   4  17
ATOM     17  C   LIG d   1       3.583   0.959  -3.256  0.00  0.00     0.079 C 
ATOM     18  O   LIG d   1       3.352   1.446  -2.166  0.00  0.00    -0.544 OA
ATOM     19  O   LIG d   1       2.849   1.323  -4.327  0.00  0.00    -0.544 OA
ENDBRANCH   4  17
TORSDOF 4
ENDMDL
MODEL 3
REMARK VINA RESULT:      -4.8      2.305      3.922
REMARK  4 active torsions:
REMARK  status: ('A' for Active; 'I' for Inactive)
REMARK    1  A    between atoms: C_1  and  C_2 
REMARK    2  A    between atoms: C_4  and  O_11 
REMARK    3  A    between atoms: C_5  and  C_9 
REMARK    4  A    between atoms: C_6  and  O_8 
ROOT
ATOM      1  C   LIG d   1       4.524   0.259  -2.656  0.00  0.00    -0.043 A 
ATOM      2  C   LIG d   1       3.978  -0.996  -2.842  0.00  0.00    -0.016 A 
ATOM      3  C   LIG d   1       4.757  -2.032  -3.332  0.00  0.00     0.129 A 
ATOM      4  C   LIG d   1       6.109  -1.803  -3.633  0.00  0.00     0.080 A 
ATOM      5  C   LIG d   1       6.655  -0.525  -3.434  0.00  0.00     0.129 A 
ATOM      6  C   LIG d   1       5.856   0.494  -2.944  0.00  0.00    -0.016 A 
ATOM      7  H   LIG d   1       2.938  -1.171  -2.609  0.00  0.00     0.066 H 
ATOM      8  H   LIG d   1       6.274   1.479  -2.790  0.00  0.00     0.066 H 
ENDROOT
BRANCH   1   9
ATOM      9  C   LIG d   1       3.665   1.378  -2.128  0.00  0.00    -0.040 C 
ATOM     10  H   LIG d   1       3.525   1.255  -1.054  0.00  0.00     0.028 H 
ATOM     11  H   LIG d   1       4.151   2.334  -2.323  0.00  0.00     0.028 H 
ATOM     12  H   LIG d   1       2.695   1.356  -2.626  0.00  0.00     0.028 H 
ENDBRANCH   1   9
BRANCH   5  13
ATOM     13  O   LIG d   1       7.959  -0.290  -3.722  0.00  0.00    -0.506 OA
ATOM     14  H   LIG d   1       8.521  -1.076  -3.673  0.00  0.00     0.292 HD
ENDBRANCH   5  13
BRANCH   3  15
ATOM     15  O   LIG d   1       4.217  -3.262  -3.519  0.00  0.00    -0.506 OA
ATOM     16  H   LIG d   1       4.553  -3.936  -2.912  0.00  0.00     0.292 HD
ENDBRANCH   3  15
BRANCH   4  17
ATOM     17  C   LIG d   1       6.947  -2.894  -4.153  0.00  0.00     0.079 C 
ATOM     18  O   LIG d   1       8.020  -3.135  -3.634  0.00  0.00    -0.544 OA
ATOM     19  O   LIG d   1       6.525  -3.626  -5.203  0.00  0.00    -0.544 OA
ENDBRANCH   4  17
TORSDOF 4
ENDMDL
MODEL 4
REMARK VINA RESULT:      -4.8      2.305      4.580
REMARK  4 active torsions:
REMARK  status: ('A' for Active; 'I' for Inactive)
REMARK    1  A    between atoms: C_1  and  C_2 
REMARK    2  A    between atoms: C_4  and  O_11 
REMARK    3  A    between atoms: C_5  and  C_9 
REMARK    4  A    between atoms: C_6  and  O_8 
ROOT
ATOM      1  C   LIG d   1       4.527   0.259  -2.657  0.00  0.00    -0.043 A 
ATOM      2  C   LIG d   1       5.856   0.495  -2.955  0.00  0.00    -0.016 A 
ATOM      3  C   LIG d   1       6.654  -0.528  -3.440  0.00  0.00     0.129 A 
ATOM      4  C   LIG d   1       6.107  -1.806  -3.634  0.00  0.00     0.080 A 
ATOM      5  C   LIG d   1       4.755  -2.032  -3.334  0.00  0.00     0.129 A 
ATOM      6  C   LIG d   1       3.976  -0.994  -2.850  0.00  0.00    -0.016 A 
ATOM      7  H   LIG d   1       6.275   1.479  -2.805  0.00  0.00     0.066 H 
ATOM      8  H   LIG d   1       2.935  -1.166  -2.618  0.00  0.00     0.066 H 
ENDROOT
BRANCH   1   9
ATOM      9  C   LIG d   1       3.670   1.378  -2.124  0.00  0.00    -0.040 C 
ATOM     10  H   LIG d   1       4.183   2.330  -2.267  0.00  0.00     0.028 H 
ATOM     11  H   LIG d   1       2.720   1.395  -2.657  0.00  0.00     0.028 H 
ATOM     12  H   LIG d   1       3.487   1.220  -1.061  0.00  0.00     0.028 H 
ENDBRANCH   1   9
BRANCH   5  13
ATOM     13  O   LIG d   1       4.214  -3.262  -3.516  0.00  0.00    -0.506 OA
ATOM     14  H   LIG d   1       4.827  -3.992  -3.346  0.00  0.00     0.292 HD
ENDBRANCH   5  13
BRANCH   3  15
ATOM     15  O   LIG d   1       7.960  -0.296  -3.726  0.00  0.00    -0.506 OA
ATOM     16  H   LIG d   1       8.389   0.330  -3.127  0.00  0.00     0.292 HD
ENDBRANCH   3  15
BRANCH   4  17
ATOM     17  C   LIG d   1       6.945  -2.900  -4.150  0.00  0.00     0.079 C 
ATOM     18  O   LIG d   1       8.016  -3.142  -3.629  0.00  0.00    -0.544 OA
ATOM     19  O   LIG d   1       6.524  -3.634  -5.199  0.00  0.00    -0.544 OA
ENDBRANCH   4  17
TORSDOF 4
ENDMDL
MODEL 5
REMARK VINA RESULT:      -4.7      1.386      2.928
REMARK  4 active torsions:
REMARK  status: ('A' for Active; 'I' for Inactive)
REMARK    1  A    between atoms: C_1  and  C_2 
REMARK    2  A    between atoms: C_4  and  O_11 
REMARK    3  A    between atoms: C_5  and  C_9 
REMARK    4  A    between atoms: C_6  and  O_8 
ROOT
ATOM      1  C   LIG d   1       5.092  -2.949  -4.269  0.00  0.00    -0.043 A 
ATOM      2  C   LIG d   1       6.301  -2.290  -4.149  0.00  0.00    -0.016 A 
ATOM      3  C   LIG d   1       6.360  -1.046  -3.543  0.00  0.00     0.129 A 
ATOM      4  C   LIG d   1       5.188  -0.458  -3.043  0.00  0.00     0.080 A 
ATOM      5  C   LIG d   1       3.967  -1.140  -3.165  0.00  0.00     0.129 A 
ATOM      6  C   LIG d   1       3.932  -2.383  -3.776  0.00  0.00    -0.016 A 
ATOM      7  H   LIG d   1       7.202  -2.743  -4.534  0.00  0.00     0.066 H 
ATOM      8  H   LIG d   1       2.993  -2.910  -3.871  0.00  0.00     0.066 H 
ENDROOT
BRANCH   1   9
ATOM      9  C   LIG d   1       5.040  -4.299  -4.937  0.00  0.00    -0.040 C 
ATOM     10  H   LIG d   1       4.213  -4.322  -5.647  0.00  0.00     0.028 H 
ATOM     11  H   LIG d   1       5.976  -4.481  -5.465  0.00  0.00     0.028 H 
ATOM     12  H   LIG d   1       4.893  -5.072  -4.182  0.00  0.00     0.028 H 
ENDBRANCH   1   9
BRANCH   5  13
ATOM     13  O   LIG d   1       2.826  -0.584  -2.687  0.00  0.00    -0.506 OA
ATOM     14  H   LIG d   1       2.019  -1.048  -2.953  0.00  0.00     0.292 HD
ENDBRANCH   5  13
BRANCH   3  15
ATOM     15  O   LIG d   1       7.547  -0.398  -3.431  0.00  0.00    -0.506 OA
ATOM     16  H   LIG d   1       8.265  -0.802  -3.938  0.00  0.00     0.292 HD
ENDBRANCH   3  15
BRANCH   4  17
ATOM     17  C   LIG d   1       5.238   0.862  -2.396  0.00  0.00     0.079 C 
ATOM     18  O   LIG d   1       5.792   1.790  -2.952  0.00  0.00    -0.544 OA
ATOM     19  O   LIG d   1       4.669   1.041  -1.187  0.00  0.00    -0.544 OA
ENDBRANCH   4  17
TORSDOF 4
ENDMDL
MODEL 6
REMARK VINA RESULT:      -4.6      2.000      3.541
REMARK  4 active torsions:
REMARK  status: ('A' for Active; 'I' for Inactive)
REMARK    1  A    between atoms: C_1  and  C_2 
REMARK    2  A    between atoms: C_4  and  O_11 
REMARK    3  A    between atoms: C_5  and  C_9 
REMARK    4  A    between atoms: C_6  and  O_8 
ROOT
ATOM      1  C   LIG d   1       4.865  -1.428  -2.706  0.00  0.00    -0.043 A 
ATOM      2  C   LIG d   1       6.047  -1.956  -3.187  0.00  0.00    -0.016 A 
ATOM      3  C   LIG d   1       7.056  -1.117  -3.633  0.00  0.00     0.129 A 
ATOM      4  C   LIG d   1       6.875   0.274  -3.588  0.00  0.00     0.080 A 
ATOM      5  C   LIG d   1       5.672   0.799  -3.091  0.00  0.00     0.129 A 
ATOM      6  C   LIG d   1       4.677  -0.060  -2.652  0.00  0.00    -0.016 A 
ATOM      7  H   LIG d   1       6.185  -3.027  -3.220  0.00  0.00     0.066 H 
ATOM      8  H   LIG d   1       3.750   0.342  -2.269  0.00  0.00     0.066 H 
ENDROOT
BRANCH   1   9
ATOM      9  C   LIG d   1       3.773  -2.351  -2.230  0.00  0.00    -0.040 C 
ATOM     10  H   LIG d   1       2.937  -2.319  -2.930  0.00  0.00     0.028 H 
ATOM     11  H   LIG d   1       4.157  -3.369  -2.170  0.00  0.00     0.028 H 
ATOM     12  H   LIG d   1       3.433  -2.033  -1.244  0.00  0.00     0.028 H 
ENDBRANCH   1   9
BRANCH   5  13
ATOM     13  O   LIG d   1       5.483   2.141  -3.043  0.00  0.00    -0.506 OA
ATOM     14  H   LIG d   1       5.781   2.551  -2.219  0.00  0.00     0.292 HD
ENDBRANCH   5  13
BRANCH   3  15
ATOM     15  O   LIG d   1       8.214  -1.638  -4.110  0.00  0.00    -0.506 OA
ATOM     16  H   LIG d   1       8.943  -1.003  -4.152  0.00  0.00     0.292 HD
ENDBRANCH   3  15
BRANCH   4  17
ATOM     17  C   LIG d   1       7.938   1.175  -4.058  0.00  0.00     0.079 C 
ATOM     18  O   LIG d   1       8.276   2.123  -3.376  0.00  0.00    -0.544 OA
ATOM     19  O   LIG d   1       8.539   0.949  -5.243  0.00  0.00    -0.544 OA
ENDBRANCH   4  17
TORSDOF 4
ENDMDL
MODEL 7
REMARK VINA RESULT:      -4.4      8.334      9.598
REMARK  4 active torsions:
REMARK  status: ('A' for Active; 'I' for Inactive)
REMARK    1  A    between atoms: C_1  and  C_2 
REMARK    2  A    between atoms: C_4  and  O_11 
REMARK    3  A    between atoms: C_5  and  C_9 
REMARK    4  A    between atoms: C_6  and  O_8 
ROOT
ATOM      1  C   LIG d   1       9.657   6.438  -3.070  0.00  0.00    -0.043 A 
ATOM      2  C   LIG d   1      10.249   5.315  -2.524  0.00  0.00    -0.016 A 
ATOM      3  C   LIG d   1      10.722   5.339  -1.222  0.00  0.00     0.129 A 
ATOM      4  C   LIG d   1      10.590   6.507  -0.455  0.00  0.00     0.080 A 
ATOM      5  C   LIG d   1       9.980   7.639  -1.018  0.00  0.00     0.129 A 
ATOM      6  C   LIG d   1       9.516   7.592  -2.322  0.00  0.00    -0.016 A 
ATOM      7  H   LIG d   1      10.350   4.417  -3.116  0.00  0.00     0.066 H 
ATOM      8  H   LIG d   1       9.046   8.462  -2.758  0.00  0.00     0.066 H 
ENDROOT
BRANCH   1   9
ATOM      9  C   LIG d   1       9.153   6.402  -4.490  0.00  0.00    -0.040 C 
ATOM     10  H   LIG d   1       8.131   6.021  -4.504  0.00  0.00     0.028 H 
ATOM     11  H   LIG d   1       9.171   7.408  -4.908  0.00  0.00     0.028 H 
ATOM     12  H   LIG d   1       9.792   5.749  -5.085  0.00  0.00     0.028 H 
ENDBRANCH   1   9
BRANCH   5  13
ATOM     13  O   LIG d   1       9.847   8.774  -0.288  0.00  0.00    -0.506 OA
ATOM     14  H   LIG d   1      10.102   8.678   0.641  0.00  0.00     0.292 HD
ENDBRANCH   5  13
BRANCH   3  15
ATOM     15  O   LIG d   1      11.309   4.238  -0.689  0.00  0.00    -0.506 OA
ATOM     16  H   LIG d   1      11.493   4.309   0.257  0.00  0.00     0.292 HD
ENDBRANCH   3  15
BRANCH   4  17
ATOM     17  C   LIG d   1      11.086   6.544   0.930  0.00  0.00     0.079 C 
ATOM     18  O   LIG d   1      10.734   5.694   1.724  0.00  0.00    -0.544 OA
ATOM     19  O   LIG d   1      11.930   7.521   1.317  0.00  0.00    -0.544 OA
ENDBRANCH   4  17
TORSDOF 4
ENDMDL
MODEL 8
REMARK VINA RESULT:      -4.4      8.322      9.718
REMARK  4 active torsions:
REMARK  status: ('A' for Active; 'I' for Inactive)
REMARK    1  A    between atoms: C_1  and  C_2 
REMARK    2  A    between atoms: C_4  and  O_11 
REMARK    3  A    between atoms: C_5  and  C_9 
REMARK    4  A    between atoms: C_6  and  O_8 
ROOT
ATOM      1  C   LIG d   1       9.646   6.416  -3.102  0.00  0.00    -0.043 A 
ATOM      2  C   LIG d   1       9.507   7.570  -2.354  0.00  0.00    -0.016 A 
ATOM      3  C   LIG d   1       9.971   7.615  -1.050  0.00  0.00     0.129 A 
ATOM      4  C   LIG d   1      10.589   6.486  -0.491  0.00  0.00     0.080 A 
ATOM      5  C   LIG d   1      10.730   5.322  -1.262  0.00  0.00     0.129 A 
ATOM      6  C   LIG d   1      10.258   5.300  -2.565  0.00  0.00    -0.016 A 
ATOM      7  H   LIG d   1       9.032   8.438  -2.786  0.00  0.00     0.066 H 
ATOM      8  H   LIG d   1      10.365   4.405  -3.161  0.00  0.00     0.066 H 
ENDROOT
BRANCH   1   9
ATOM      9  C   LIG d   1       9.132   6.377  -4.518  0.00  0.00    -0.040 C 
ATOM     10  H   LIG d   1       8.202   6.943  -4.585  0.00  0.00     0.028 H 
ATOM     11  H   LIG d   1       9.872   6.816  -5.187  0.00  0.00     0.028 H 
ATOM     12  H   LIG d   1       8.948   5.343  -4.809  0.00  0.00     0.028 H 
ENDBRANCH   1   9
BRANCH   5  13
ATOM     13  O   LIG d   1      11.325   4.223  -0.735  0.00  0.00    -0.506 OA
ATOM     14  H   LIG d   1      11.286   4.180   0.231  0.00  0.00     0.292 HD
ENDBRANCH   5  13
BRANCH   3  15
ATOM     15  O   LIG d   1       9.829   8.746  -0.315  0.00  0.00    -0.506 OA
ATOM     16  H   LIG d   1      10.260   8.710   0.550  0.00  0.00     0.292 HD
ENDBRANCH   3  15
BRANCH   4  17
ATOM     17  C   LIG d   1      11.086   6.522   0.893  0.00  0.00     0.079 C 
ATOM     18  O   LIG d   1      10.716   5.686   1.694  0.00  0.00    -0.544 OA
ATOM     19  O   LIG d   1      11.953   7.482   1.273  0.00  0.00    -0.544 OA
ENDBRANCH   4  17
TORSDOF 4
ENDMDL
MODEL 9
REMARK VINA RESULT:      -4.1     11.199     12.802
REMARK  4 active torsions:
REMARK  status: ('A' for Active; 'I' for Inactive)
REMARK    1  A    between atoms: C_1  and  C_2 
REMARK    2  A    between atoms: C_4  and  O_11 
REMARK    3  A    between atoms: C_5  and  C_9 
REMARK    4  A    between atoms: C_6  and  O_8 
ROOT
ATOM      1  C   LIG d   1      10.254 -11.129   0.976  0.00  0.00    -0.043 A 
ATOM      2  C   LIG d   1      10.377  -9.837   0.503  0.00  0.00    -0.016 A 
ATOM      3  C   LIG d   1      10.984  -8.864   1.280  0.00  0.00     0.129 A 
ATOM      4  C   LIG d   1      11.481  -9.196   2.549  0.00  0.00     0.080 A 
ATOM      5  C   LIG d   1      11.356 -10.514   3.017  0.00  0.00     0.129 A 
ATOM      6  C   LIG d   1      10.745 -11.470   2.223  0.00  0.00    -0.016 A 
ATOM      7  H   LIG d   1       9.995  -9.583  -0.475  0.00  0.00     0.066 H 
ATOM      8  H   LIG d   1      10.647 -12.485   2.581  0.00  0.00     0.066 H 
ENDROOT
BRANCH   1   9
ATOM      9  C   LIG d   1       9.586 -12.178   0.125  0.00  0.00    -0.040 C 
ATOM     10  H   LIG d   1      10.079 -12.227  -0.847  0.00  0.00     0.028 H 
ATOM     11  H   LIG d   1       9.659 -13.148   0.617  0.00  0.00     0.028 H 
ATOM     12  H   LIG d   1       8.536 -11.919  -0.014  0.00  0.00     0.028 H 
ENDBRANCH   1   9
BRANCH   5  13
ATOM     13  O   LIG d   1      11.831 -10.849   4.243  0.00  0.00    -0.506 OA
ATOM     14  H   LIG d   1      12.623 -10.359   4.506  0.00  0.00     0.292 HD
ENDBRANCH   5  13
BRANCH   3  15
ATOM     15  O   LIG d   1      11.098  -7.595   0.815  0.00  0.00    -0.506 OA
ATOM     16  H   LIG d   1      10.842  -6.917   1.456  0.00  0.00     0.292 HD
ENDBRANCH   3  15
BRANCH   4  17
ATOM     17  C   LIG d   1      12.128  -8.172   3.383  0.00  0.00     0.079 C 
ATOM     18  O   LIG d   1      11.710  -7.947   4.502  0.00  0.00    -0.544 OA
ATOM     19  O   LIG d   1      13.184  -7.484   2.906  0.00  0.00    -0.544 OA
ENDBRANCH   4  17
TORSDOF 4
ENDMDL
MODEL 10
REMARK VINA RESULT:      -4.1      1.385      1.906
REMARK  4 active torsions:
REMARK  status: ('A' for Active; 'I' for Inactive)
REMARK    1  A    between atoms: C_1  and  C_2 
REMARK    2  A    between atoms: C_4  and  O_11 
REMARK    3  A    between atoms: C_5  and  C_9 
REMARK    4  A    between atoms: C_6  and  O_8 
ROOT
ATOM      1  C   LIG d   1       7.328  -3.146  -4.206  0.00  0.00    -0.043 A 
ATOM      2  C   LIG d   1       6.158  -3.576  -4.800  0.00  0.00    -0.016 A 
ATOM      3  C   LIG d   1       5.021  -2.784  -4.757  0.00  0.00     0.129 A 
ATOM      4  C   LIG d   1       5.065  -1.539  -4.113  0.00  0.00     0.080 A 
ATOM      5  C   LIG d   1       6.262  -1.109  -3.519  0.00  0.00     0.129 A 
ATOM      6  C   LIG d   1       7.385  -1.918  -3.574  0.00  0.00    -0.016 A 
ATOM      7  H   LIG d   1       6.126  -4.535  -5.296  0.00  0.00     0.066 H 
ATOM      8  H   LIG d   1       8.308  -1.590  -3.117  0.00  0.00     0.066 H 
ENDROOT
BRANCH   1   9
ATOM      9  C   LIG d   1       8.556  -4.019  -4.254  0.00  0.00    -0.040 C 
ATOM     10  H   LIG d   1       8.666  -4.545  -3.306  0.00  0.00     0.028 H 
ATOM     11  H   LIG d   1       8.456  -4.743  -5.062  0.00  0.00     0.028 H 
ATOM     12  H   LIG d   1       9.436  -3.399  -4.430  0.00  0.00     0.028 H 
ENDBRANCH   1   9
BRANCH   5  13
ATOM     13  O   LIG d   1       6.318   0.092  -2.892  0.00  0.00    -0.506 OA
ATOM     14  H   LIG d   1       7.195   0.500  -2.900  0.00  0.00     0.292 HD
ENDBRANCH   5  13
BRANCH   3  15
ATOM     15  O   LIG d   1       3.871  -3.211  -5.336  0.00  0.00    -0.506 OA
ATOM     16  H   LIG d   1       3.902  -4.128  -5.643  0.00  0.00     0.292 HD
ENDBRANCH   3  15
BRANCH   4  17
ATOM     17  C   LIG d   1       3.865  -0.688  -4.061  0.00  0.00     0.079 C 
ATOM     18  O   LIG d   1       3.868   0.398  -4.606  0.00  0.00    -0.544 OA
ATOM     19  O   LIG d   1       2.765  -1.114  -3.410  0.00  0.00    -0.544 OA
ENDBRANCH   4  17
TORSDOF 4
ENDMDL
