MODEL 1
REMARK VINA RESULT:      -5.3      0.000      0.000
REMARK  6 active torsions:
REMARK  status: ('A' for Active; 'I' for Inactive)
REMARK    1  A    between atoms: C_1  and  C_2 
REMARK    2  A    between atoms: C_2  and  C_4 
REMARK    3  A    between atoms: C_2  and  N_20 
REMARK    4  A    between atoms: C_4  and  C_5 
REMARK       I    between atoms: C_5  and  N_7 
REMARK       I    between atoms: N_7  and  CA_8 
REMARK    5  A    between atoms: CA_8  and  CB_10 
REMARK       I    between atoms: CA_8  and  C_17 
REMARK    6  A    between atoms: CB_10  and  CG_11 
ROOT
ATOM      1  C   UNK d   0       3.675  -1.432  -4.219  0.00  0.00     0.219 C 
ATOM      2  O   UNK d   0       4.221  -2.472  -4.523  0.00  0.00    -0.276 OA
ATOM      3  N   HIS d   1       3.452  -0.489  -5.156  0.00  0.00    -0.307 N 
ATOM      4  CA  HIS d   1       3.870  -0.720  -6.542  0.00  0.00     0.070 C 
ATOM      5  HA  HIS d   1       3.748  -1.774  -6.787  0.00  0.00     0.056 H 
ATOM      6  C   HIS d   1       5.317  -0.331  -6.701  0.00  0.00     0.062 C 
ATOM      7  O   HIS d   1       5.942   0.100  -5.746  0.00  0.00    -0.548 OA
ATOM      8  OXT HIS d   1       5.864  -0.445  -7.785  0.00  0.00    -0.548 OA
ATOM      9  H   HIS d   1       3.015   0.342  -4.914  0.00  0.00     0.149 HD
ENDROOT
BRANCH   1  10
ATOM     10  C   UNK d   0       3.244  -1.195  -2.795  0.00  0.00     0.067 C 
ATOM     11  H   UNK d   0       2.985  -2.147  -2.330  0.00  0.00     0.041 H 
ATOM     12  H   UNK d   0       2.375  -0.537  -2.784  0.00  0.00     0.041 H 
BRANCH  10  13
ATOM     13  C   UNK d   0       4.390  -0.543  -2.018  0.00  0.00    -0.019 C 
ATOM     14  H   UNK d   0       4.435  -0.964  -1.015  0.00  0.00     0.085 H 
BRANCH  13  15
ATOM     15  C   UNK d   0       4.149   0.966  -1.927  0.00  0.00    -0.021 C 
ATOM     16  H   UNK d   0       3.089   1.154  -1.750  0.00  0.00     0.028 H 
ATOM     17  H   UNK d   0       4.733   1.378  -1.105  0.00  0.00     0.028 H 
ATOM     18  H   UNK d   0       4.451   1.439  -2.861  0.00  0.00     0.028 H 
ENDBRANCH  13  15
BRANCH  13  19
ATOM     19  N   UNK d   0       5.659  -0.795  -2.713  0.00  0.00     0.221 N 
ATOM     20  H   UNK d   0       5.821  -1.790  -2.764  0.00  0.00     0.200 HD
ATOM     21  H   UNK d   0       5.613  -0.414  -3.647  0.00  0.00     0.200 HD
ATOM     22  H   UNK d   0       6.413  -0.357  -2.206  0.00  0.00     0.200 HD
ENDBRANCH  13  19
ENDBRANCH  10  13
ENDBRANCH   1  10
BRANCH   4  23
ATOM     23  CB  HIS d   1       3.009   0.126  -7.482  0.00  0.00     0.036 C 
ATOM     24  HB1 HIS d   1       2.189   0.574  -6.920  0.00  0.00     0.037 H 
ATOM     25  HB2 HIS d   1       3.619   0.914  -7.924  0.00  0.00     0.037 H 
BRANCH  23  26
ATOM     26  CG  HIS d   1       2.450  -0.749  -8.574  0.00  0.00     0.143 A 
ATOM     27  ND1 HIS d   1       2.755  -2.063  -8.802  0.00  0.00    -0.247 N 
ATOM     28  HD1 HIS d   1       3.373  -2.608  -8.290  0.00  0.00     0.310 HD
ATOM     29  CE1 HIS d   1       2.032  -2.462  -9.871  0.00  0.00     0.242 A 
ATOM     30  NE2 HIS d   1       1.322  -1.453 -10.295  0.00  0.00    -0.250 N 
ATOM     31  HE1 HIS d   1       2.043  -3.450 -10.306  0.00  0.00     0.158 H 
ATOM     32  CD2 HIS d   1       1.559  -0.386  -9.516  0.00  0.00     0.131 A 
ATOM     33  HE2 HIS d   1       0.718  -1.471 -11.054  0.00  0.00     0.310 HD
ATOM     34  HD2 HIS d   1       1.113   0.591  -9.626  0.00  0.00     0.112 H 
ENDBRANCH  23  26
ENDBRANCH   4  23
TORSDOF 8
ENDMDL
MODEL 2
REMARK VINA RESULT:      -5.3      1.955      2.608
REMARK  6 active torsions:
REMARK  status: ('A' for Active; 'I' for Inactive)
REMARK    1  A    between atoms: C_1  and  C_2 
REMARK    2  A    between atoms: C_2  and  C_4 
REMARK    3  A    between atoms: C_2  and  N_20 
REMARK    4  A    between atoms: C_4  and  C_5 
REMARK       I    between atoms: C_5  and  N_7 
REMARK       I    between atoms: N_7  and  CA_8 
REMARK    5  A    between atoms: CA_8  and  CB_10 
REMARK       I    between atoms: CA_8  and  C_17 
REMARK    6  A    between atoms: CB_10  and  CG_11 
ROOT
ATOM      1  C   UNK d   0       3.203   0.104  -5.507  0.00  0.00     0.219 C 
ATOM      2  O   UNK d   0       4.402   0.277  -5.552  0.00  0.00    -0.276 OA
ATOM      3  N   HIS d   1       2.507  -0.084  -6.646  0.00  0.00    -0.307 N 
ATOM      4  CA  HIS d   1       3.199  -0.080  -7.937  0.00  0.00     0.070 C 
ATOM      5  HA  HIS d   1       4.188  -0.523  -7.821  0.00  0.00     0.056 H 
ATOM      6  C   HIS d   1       3.339   1.338  -8.427  0.00  0.00     0.062 C 
ATOM      7  O   HIS d   1       2.901   2.260  -7.761  0.00  0.00    -0.548 OA
ATOM      8  OXT HIS d   1       3.890   1.563  -9.491  0.00  0.00    -0.548 OA
ATOM      9  H   HIS d   1       1.547  -0.223  -6.611  0.00  0.00     0.149 HD
ENDROOT
BRANCH   1  10
ATOM     10  C   UNK d   0       2.490   0.099  -4.179  0.00  0.00     0.067 C 
ATOM     11  H   UNK d   0       1.417   0.005  -4.342  0.00  0.00     0.041 H 
ATOM     12  H   UNK d   0       2.697   1.032  -3.653  0.00  0.00     0.041 H 
BRANCH  10  13
ATOM     13  C   UNK d   0       2.985  -1.081  -3.340  0.00  0.00    -0.019 C 
ATOM     14  H   UNK d   0       2.140  -1.545  -2.833  0.00  0.00     0.085 H 
BRANCH  13  15
ATOM     15  C   UNK d   0       3.991  -0.582  -2.302  0.00  0.00    -0.021 C 
ATOM     16  H   UNK d   0       3.459  -0.256  -1.408  0.00  0.00     0.028 H 
ATOM     17  H   UNK d   0       4.677  -1.388  -2.043  0.00  0.00     0.028 H 
ATOM     18  H   UNK d   0       4.553   0.255  -2.715  0.00  0.00     0.028 H 
ENDBRANCH  13  15
BRANCH  13  19
ATOM     19  N   UNK d   0       3.632  -2.067  -4.217  0.00  0.00     0.221 N 
ATOM     20  H   UNK d   0       3.862  -1.632  -5.098  0.00  0.00     0.200 HD
ATOM     21  H   UNK d   0       4.475  -2.405  -3.778  0.00  0.00     0.200 HD
ATOM     22  H   UNK d   0       3.002  -2.838  -4.377  0.00  0.00     0.200 HD
ENDBRANCH  13  19
ENDBRANCH  10  13
ENDBRANCH   1  10
BRANCH   4  23
ATOM     23  CB  HIS d   1       2.392  -0.893  -8.951  0.00  0.00     0.036 C 
ATOM     24  HB1 HIS d   1       1.334  -0.852  -8.691  0.00  0.00     0.037 H 
ATOM     25  HB2 HIS d   1       2.537  -0.477  -9.948  0.00  0.00     0.037 H 
BRANCH  23  26
ATOM     26  CG  HIS d   1       2.859  -2.325  -8.932  0.00  0.00     0.143 A 
ATOM     27  ND1 HIS d   1       3.702  -2.896  -8.018  0.00  0.00    -0.247 N 
ATOM     28  HD1 HIS d   1       4.115  -2.453  -7.260  0.00  0.00     0.310 HD
ATOM     29  CE1 HIS d   1       3.853  -4.192  -8.367  0.00  0.00     0.242 A 
ATOM     30  NE2 HIS d   1       3.151  -4.420  -9.444  0.00  0.00    -0.250 N 
ATOM     31  HE1 HIS d   1       4.457  -4.919  -7.845  0.00  0.00     0.158 H 
ATOM     32  CD2 HIS d   1       2.529  -3.290  -9.813  0.00  0.00     0.131 A 
ATOM     33  HE2 HIS d   1       3.089  -5.271  -9.903  0.00  0.00     0.310 HD
ATOM     34  HD2 HIS d   1       1.878  -3.173 -10.667  0.00  0.00     0.112 H 
ENDBRANCH  23  26
ENDBRANCH   4  23
TORSDOF 8
ENDMDL
MODEL 3
REMARK VINA RESULT:      -5.1      2.484      5.240
REMARK  6 active torsions:
REMARK  status: ('A' for Active; 'I' for Inactive)
REMARK    1  A    between atoms: C_1  and  C_2 
REMARK    2  A    between atoms: C_2  and  C_4 
REMARK    3  A    between atoms: C_2  and  N_20 
REMARK    4  A    between atoms: C_4  and  C_5 
REMARK       I    between atoms: C_5  and  N_7 
REMARK       I    between atoms: N_7  and  CA_8 
REMARK    5  A    between atoms: CA_8  and  CB_10 
REMARK       I    between atoms: CA_8  and  C_17 
REMARK    6  A    between atoms: CB_10  and  CG_11 
ROOT
ATOM      1  C   UNK d   0       2.977   0.566  -5.342  0.00  0.00     0.219 C 
ATOM      2  O   UNK d   0       2.317   1.448  -4.835  0.00  0.00    -0.276 OA
ATOM      3  N   HIS d   1       3.686  -0.276  -4.564  0.00  0.00    -0.307 N 
ATOM      4  CA  HIS d   1       3.660  -0.125  -3.107  0.00  0.00     0.070 C 
ATOM      5  HA  HIS d   1       2.670   0.206  -2.794  0.00  0.00     0.056 H 
ATOM      6  C   HIS d   1       4.687   0.896  -2.689  0.00  0.00     0.062 C 
ATOM      7  O   HIS d   1       5.377   1.446  -3.530  0.00  0.00    -0.548 OA
ATOM      8  OXT HIS d   1       4.828   1.171  -1.510  0.00  0.00    -0.548 OA
ATOM      9  H   HIS d   1       4.214  -0.982  -4.969  0.00  0.00     0.149 HD
ENDROOT
BRANCH   1  10
ATOM     10  C   UNK d   0       3.004   0.411  -6.841  0.00  0.00     0.067 C 
ATOM     11  H   UNK d   0       3.200   1.378  -7.304  0.00  0.00     0.041 H 
ATOM     12  H   UNK d   0       2.040   0.032  -7.183  0.00  0.00     0.041 H 
BRANCH  10  13
ATOM     13  C   UNK d   0       4.107  -0.575  -7.231  0.00  0.00    -0.019 C 
ATOM     14  H   UNK d   0       4.686  -0.840  -6.347  0.00  0.00     0.085 H 
BRANCH  13  15
ATOM     15  C   UNK d   0       5.026   0.073  -8.268  0.00  0.00    -0.021 C 
ATOM     16  H   UNK d   0       5.217  -0.634  -9.076  0.00  0.00     0.028 H 
ATOM     17  H   UNK d   0       4.547   0.966  -8.671  0.00  0.00     0.028 H 
ATOM     18  H   UNK d   0       5.969   0.348  -7.795  0.00  0.00     0.028 H 
ENDBRANCH  13  15
BRANCH  13  19
ATOM     19  N   UNK d   0       3.502  -1.787  -7.801  0.00  0.00     0.221 N 
ATOM     20  H   UNK d   0       2.839  -2.171  -7.144  0.00  0.00     0.200 HD
ATOM     21  H   UNK d   0       3.027  -1.553  -8.660  0.00  0.00     0.200 HD
ATOM     22  H   UNK d   0       4.223  -2.467  -7.988  0.00  0.00     0.200 HD
ENDBRANCH  13  19
ENDBRANCH  10  13
ENDBRANCH   1  10
BRANCH   4  23
ATOM     23  CB  HIS d   1       3.980  -1.469  -2.449  0.00  0.00     0.036 C 
ATOM     24  HB1 HIS d   1       4.604  -1.304  -1.571  0.00  0.00     0.037 H 
ATOM     25  HB2 HIS d   1       3.053  -1.957  -2.150  0.00  0.00     0.037 H 
BRANCH  23  26
ATOM     26  CG  HIS d   1       4.715  -2.345  -3.431  0.00  0.00     0.143 A 
ATOM     27  ND1 HIS d   1       4.158  -3.257  -4.286  0.00  0.00    -0.247 N 
ATOM     28  HD1 HIS d   1       3.214  -3.462  -4.374  0.00  0.00     0.310 HD
ATOM     29  CE1 HIS d   1       5.168  -3.817  -4.987  0.00  0.00     0.242 A 
ATOM     30  NE2 HIS d   1       6.295  -3.292  -4.588  0.00  0.00    -0.250 N 
ATOM     31  HE1 HIS d   1       5.062  -4.575  -5.748  0.00  0.00     0.158 H 
ATOM     32  CD2 HIS d   1       6.046  -2.384  -3.632  0.00  0.00     0.131 A 
ATOM     33  HE2 HIS d   1       7.173  -3.522  -4.929  0.00  0.00     0.310 HD
ATOM     34  HD2 HIS d   1       6.784  -1.789  -3.114  0.00  0.00     0.112 H 
ENDBRANCH  23  26
ENDBRANCH   4  23
TORSDOF 8
ENDMDL
MODEL 4
REMARK VINA RESULT:      -4.9      2.240      3.001
REMARK  6 active torsions:
REMARK  status: ('A' for Active; 'I' for Inactive)
REMARK    1  A    between atoms: C_1  and  C_2 
REMARK    2  A    between atoms: C_2  and  C_4 
REMARK    3  A    between atoms: C_2  and  N_20 
REMARK    4  A    between atoms: C_4  and  C_5 
REMARK       I    between atoms: C_5  and  N_7 
REMARK       I    between atoms: N_7  and  CA_8 
REMARK    5  A    between atoms: CA_8  and  CB_10 
REMARK       I    between atoms: CA_8  and  C_17 
REMARK    6  A    between atoms: CB_10  and  CG_11 
ROOT
ATOM      1  C   UNK d   0       3.587  -1.668  -3.326  0.00  0.00     0.219 C 
ATOM      2  O   UNK d   0       3.557  -2.684  -2.666  0.00  0.00    -0.276 OA
ATOM      3  N   HIS d   1       4.129  -1.681  -4.560  0.00  0.00    -0.307 N 
ATOM      4  CA  HIS d   1       4.685  -2.924  -5.102  0.00  0.00     0.070 C 
ATOM      5  HA  HIS d   1       4.090  -3.769  -4.757  0.00  0.00     0.056 H 
ATOM      6  C   HIS d   1       6.107  -3.086  -4.632  0.00  0.00     0.062 C 
ATOM      7  O   HIS d   1       6.611  -2.241  -3.911  0.00  0.00    -0.548 OA
ATOM      8  OXT HIS d   1       6.755  -4.061  -4.973  0.00  0.00    -0.548 OA
ATOM      9  H   HIS d   1       4.152  -0.869  -5.089  0.00  0.00     0.149 HD
ENDROOT
BRANCH   1  10
ATOM     10  C   UNK d   0       3.015  -0.389  -2.769  0.00  0.00     0.067 C 
ATOM     11  H   UNK d   0       2.780  -0.526  -1.713  0.00  0.00     0.041 H 
ATOM     12  H   UNK d   0       2.106  -0.131  -3.313  0.00  0.00     0.041 H 
BRANCH  10  13
ATOM     13  C   UNK d   0       4.039   0.737  -2.923  0.00  0.00    -0.019 C 
ATOM     14  H   UNK d   0       4.816   0.428  -3.621  0.00  0.00     0.085 H 
BRANCH  13  15
ATOM     15  C   UNK d   0       4.668   1.042  -1.562  0.00  0.00    -0.021 C 
ATOM     16  H   UNK d   0       5.495   0.355  -1.382  0.00  0.00     0.028 H 
ATOM     17  H   UNK d   0       5.038   2.067  -1.554  0.00  0.00     0.028 H 
ATOM     18  H   UNK d   0       3.918   0.921  -0.780  0.00  0.00     0.028 H 
ENDBRANCH  13  15
BRANCH  13  19
ATOM     19  N   UNK d   0       3.370   1.940  -3.435  0.00  0.00     0.221 N 
ATOM     20  H   UNK d   0       3.152   1.812  -4.412  0.00  0.00     0.200 HD
ATOM     21  H   UNK d   0       2.517   2.097  -2.919  0.00  0.00     0.200 HD
ATOM     22  H   UNK d   0       3.981   2.735  -3.328  0.00  0.00     0.200 HD
ENDBRANCH  13  19
ENDBRANCH  10  13
ENDBRANCH   1  10
BRANCH   4  23
ATOM     23  CB  HIS d   1       4.657  -2.870  -6.631  0.00  0.00     0.036 C 
ATOM     24  HB1 HIS d   1       5.620  -3.193  -7.024  0.00  0.00     0.037 H 
ATOM     25  HB2 HIS d   1       3.872  -3.529  -7.004  0.00  0.00     0.037 H 
BRANCH  23  26
ATOM     26  CG  HIS d   1       4.380  -1.458  -7.079  0.00  0.00     0.143 A 
ATOM     27  ND1 HIS d   1       3.171  -0.946  -7.463  0.00  0.00    -0.247 N 
ATOM     28  HD1 HIS d   1       2.328  -1.426  -7.500  0.00  0.00     0.310 HD
ATOM     29  CE1 HIS d   1       3.368   0.352  -7.780  0.00  0.00     0.242 A 
ATOM     30  NE2 HIS d   1       4.631   0.636  -7.612  0.00  0.00    -0.250 N 
ATOM     31  HE1 HIS d   1       2.608   1.040  -8.119  0.00  0.00     0.158 H 
ATOM     32  CD2 HIS d   1       5.277  -0.458  -7.181  0.00  0.00     0.131 A 
ATOM     33  HE2 HIS d   1       5.037   1.502  -7.773  0.00  0.00     0.310 HD
ATOM     34  HD2 HIS d   1       6.331  -0.525  -6.956  0.00  0.00     0.112 H 
ENDBRANCH  23  26
ENDBRANCH   4  23
TORSDOF 8
ENDMDL
MODEL 5
REMARK VINA RESULT:      -4.9      2.777      5.866
REMARK  6 active torsions:
REMARK  status: ('A' for Active; 'I' for Inactive)
REMARK    1  A    between atoms: C_1  and  C_2 
REMARK    2  A    between atoms: C_2  and  C_4 
REMARK    3  A    between atoms: C_2  and  N_20 
REMARK    4  A    between atoms: C_4  and  C_5 
REMARK       I    between atoms: C_5  and  N_7 
REMARK       I    between atoms: N_7  and  CA_8 
REMARK    5  A    between atoms: CA_8  and  CB_10 
REMARK       I    between atoms: CA_8  and  C_17 
REMARK    6  A    between atoms: CB_10  and  CG_11 
ROOT
ATOM      1  C   UNK d   0       4.461  -0.226  -7.030  0.00  0.00     0.219 C 
ATOM      2  O   UNK d   0       3.594  -1.062  -7.169  0.00  0.00    -0.276 OA
ATOM      3  N   HIS d   1       4.969   0.021  -5.806  0.00  0.00    -0.307 N 
ATOM      4  CA  HIS d   1       4.472  -0.719  -4.644  0.00  0.00     0.070 C 
ATOM      5  HA  HIS d   1       4.229  -1.740  -4.939  0.00  0.00     0.056 H 
ATOM      6  C   HIS d   1       3.236  -0.044  -4.110  0.00  0.00     0.062 C 
ATOM      7  O   HIS d   1       2.809   0.963  -4.649  0.00  0.00    -0.548 OA
ATOM      8  OXT HIS d   1       2.662  -0.504  -3.137  0.00  0.00    -0.548 OA
ATOM      9  H   HIS d   1       5.664   0.689  -5.694  0.00  0.00     0.149 HD
ENDROOT
BRANCH   1  10
ATOM     10  C   UNK d   0       4.974   0.535  -8.226  0.00  0.00     0.067 C 
ATOM     11  H   UNK d   0       5.289  -0.168  -8.997  0.00  0.00     0.041 H 
ATOM     12  H   UNK d   0       5.822   1.151  -7.927  0.00  0.00     0.041 H 
BRANCH  10  13
ATOM     13  C   UNK d   0       3.861   1.429  -8.775  0.00  0.00    -0.019 C 
ATOM     14  H   UNK d   0       3.342   0.911  -9.581  0.00  0.00     0.085 H 
BRANCH  13  15
ATOM     15  C   UNK d   0       4.468   2.727  -9.312  0.00  0.00    -0.021 C 
ATOM     16  H   UNK d   0       5.182   3.120  -8.588  0.00  0.00     0.028 H 
ATOM     17  H   UNK d   0       4.978   2.527 -10.254  0.00  0.00     0.028 H 
ATOM     18  H   UNK d   0       3.677   3.458  -9.475  0.00  0.00     0.028 H 
ENDBRANCH  13  15
BRANCH  13  19
ATOM     19  N   UNK d   0       2.908   1.741  -7.701  0.00  0.00     0.221 N 
ATOM     20  H   UNK d   0       2.388   0.910  -7.463  0.00  0.00     0.200 HD
ATOM     21  H   UNK d   0       3.411   2.067  -6.889  0.00  0.00     0.200 HD
ATOM     22  H   UNK d   0       2.271   2.458  -8.014  0.00  0.00     0.200 HD
ENDBRANCH  13  19
ENDBRANCH  10  13
ENDBRANCH   1  10
BRANCH   4  23
ATOM     23  CB  HIS d   1       5.549  -0.746  -3.557  0.00  0.00     0.036 C 
ATOM     24  HB1 HIS d   1       6.106   0.191  -3.574  0.00  0.00     0.037 H 
ATOM     25  HB2 HIS d   1       5.078  -0.871  -2.582  0.00  0.00     0.037 H 
BRANCH  23  26
ATOM     26  CG  HIS d   1       6.490  -1.894  -3.812  0.00  0.00     0.143 A 
ATOM     27  ND1 HIS d   1       7.773  -2.015  -3.352  0.00  0.00    -0.247 N 
ATOM     28  HD1 HIS d   1       8.250  -1.374  -2.800  0.00  0.00     0.310 HD
ATOM     29  CE1 HIS d   1       8.253  -3.192  -3.807  0.00  0.00     0.242 A 
ATOM     30  NE2 HIS d   1       7.327  -3.774  -4.519  0.00  0.00    -0.250 N 
ATOM     31  HE1 HIS d   1       9.240  -3.586  -3.617  0.00  0.00     0.158 H 
ATOM     32  CD2 HIS d   1       6.232  -2.998  -4.539  0.00  0.00     0.131 A 
ATOM     33  HE2 HIS d   1       7.416  -4.631  -4.963  0.00  0.00     0.310 HD
ATOM     34  HD2 HIS d   1       5.306  -3.220  -5.049  0.00  0.00     0.112 H 
ENDBRANCH  23  26
ENDBRANCH   4  23
TORSDOF 8
ENDMDL
MODEL 6
REMARK VINA RESULT:      -4.9      9.579     12.136
REMARK  6 active torsions:
REMARK  status: ('A' for Active; 'I' for Inactive)
REMARK    1  A    between atoms: C_1  and  C_2 
REMARK    2  A    between atoms: C_2  and  C_4 
REMARK    3  A    between atoms: C_2  and  N_20 
REMARK    4  A    between atoms: C_4  and  C_5 
REMARK       I    between atoms: C_5  and  N_7 
REMARK       I    between atoms: N_7  and  CA_8 
REMARK    5  A    between atoms: CA_8  and  CB_10 
REMARK       I    between atoms: CA_8  and  C_17 
REMARK    6  A    between atoms: CB_10  and  CG_11 
ROOT
ATOM      1  C   UNK d   0      10.224   8.635  -0.834  0.00  0.00     0.219 C 
ATOM      2  O   UNK d   0       9.108   8.421  -0.411  0.00  0.00    -0.276 OA
ATOM      3  N   HIS d   1      11.152   7.658  -0.809  0.00  0.00    -0.307 N 
ATOM      4  CA  HIS d   1      10.814   6.339  -0.268  0.00  0.00     0.070 C 
ATOM      5  HA  HIS d   1       9.778   6.102  -0.510  0.00  0.00     0.056 H 
ATOM      6  C   HIS d   1      10.991   6.349   1.228  0.00  0.00     0.062 C 
ATOM      7  O   HIS d   1      11.365   7.363   1.791  0.00  0.00    -0.548 OA
ATOM      8  OXT HIS d   1      10.760   5.342   1.875  0.00  0.00    -0.548 OA
ATOM      9  H   HIS d   1      12.045   7.828  -1.148  0.00  0.00     0.149 HD
ENDROOT
BRANCH   1  10
ATOM     10  C   UNK d   0      10.572   9.991  -1.391  0.00  0.00     0.067 C 
ATOM     11  H   UNK d   0      11.601   9.983  -1.752  0.00  0.00     0.041 H 
ATOM     12  H   UNK d   0      10.467  10.742  -0.608  0.00  0.00     0.041 H 
BRANCH  10  13
ATOM     13  C   UNK d   0       9.628  10.325  -2.548  0.00  0.00    -0.019 C 
ATOM     14  H   UNK d   0       9.509   9.449  -3.184  0.00  0.00     0.085 H 
BRANCH  13  15
ATOM     15  C   UNK d   0      10.215  11.475  -3.369  0.00  0.00    -0.021 C 
ATOM     16  H   UNK d   0       9.506  12.303  -3.391  0.00  0.00     0.028 H 
ATOM     17  H   UNK d   0      11.148  11.807  -2.914  0.00  0.00     0.028 H 
ATOM     18  H   UNK d   0      10.407  11.134  -4.386  0.00  0.00     0.028 H 
ENDBRANCH  13  15
BRANCH  13  19
ATOM     19  N   UNK d   0       8.319  10.722  -2.012  0.00  0.00     0.221 N 
ATOM     20  H   UNK d   0       8.450  11.248  -1.160  0.00  0.00     0.200 HD
ATOM     21  H   UNK d   0       7.838  11.295  -2.689  0.00  0.00     0.200 HD
ATOM     22  H   UNK d   0       7.771   9.898  -1.817  0.00  0.00     0.200 HD
ENDBRANCH  13  19
ENDBRANCH  10  13
ENDBRANCH   1  10
BRANCH   4  23
ATOM     23  CB  HIS d   1      11.736   5.284  -0.884  0.00  0.00     0.036 C 
ATOM     24  HB1 HIS d   1      12.563   5.777  -1.394  0.00  0.00     0.037 H 
ATOM     25  HB2 HIS d   1      12.127   4.639  -0.097  0.00  0.00     0.037 H 
BRANCH  23  26
ATOM     26  CG  HIS d   1      10.959   4.454  -1.873  0.00  0.00     0.143 A 
ATOM     27  ND1 HIS d   1      11.083   3.108  -2.084  0.00  0.00    -0.247 N 
ATOM     28  HD1 HIS d   1      11.691   2.507  -1.625  0.00  0.00     0.310 HD
ATOM     29  CE1 HIS d   1      10.201   2.771  -3.049  0.00  0.00     0.242 A 
ATOM     30  NE2 HIS d   1       9.565   3.846  -3.428  0.00  0.00    -0.250 N 
ATOM     31  HE1 HIS d   1      10.049   1.778  -3.445  0.00  0.00     0.158 H 
ATOM     32  CD2 HIS d   1      10.010   4.896  -2.721  0.00  0.00     0.131 A 
ATOM     33  HE2 HIS d   1       8.878   3.880  -4.112  0.00  0.00     0.310 HD
ATOM     34  HD2 HIS d   1       9.669   5.916  -2.816  0.00  0.00     0.112 H 
ENDBRANCH  23  26
ENDBRANCH   4  23
TORSDOF 8
ENDMDL
MODEL 7
REMARK VINA RESULT:      -4.7      9.677     12.327
REMARK  6 active torsions:
REMARK  status: ('A' for Active; 'I' for Inactive)
REMARK    1  A    between atoms: C_1  and  C_2 
REMARK    2  A    between atoms: C_2  and  C_4 
REMARK    3  A    between atoms: C_2  and  N_20 
REMARK    4  A    between atoms: C_4  and  C_5 
REMARK       I    between atoms: C_5  and  N_7 
REMARK       I    between atoms: N_7  and  CA_8 
REMARK    5  A    between atoms: CA_8  and  CB_10 
REMARK       I    between atoms: CA_8  and  C_17 
REMARK    6  A    between atoms: CB_10  and  CG_11 
ROOT
ATOM      1  C   UNK d   0      10.530   6.129  -2.487  0.00  0.00     0.219 C 
ATOM      2  O   UNK d   0      11.739   6.229  -2.498  0.00  0.00    -0.276 OA
ATOM      3  N   HIS d   1       9.799   6.898  -1.655  0.00  0.00    -0.307 N 
ATOM      4  CA  HIS d   1      10.464   7.852  -0.764  0.00  0.00     0.070 C 
ATOM      5  HA  HIS d   1      11.339   8.267  -1.264  0.00  0.00     0.056 H 
ATOM      6  C   HIS d   1      10.893   7.147   0.496  0.00  0.00     0.062 C 
ATOM      7  O   HIS d   1      10.664   5.958   0.639  0.00  0.00    -0.548 OA
ATOM      8  OXT HIS d   1      11.468   7.766   1.375  0.00  0.00    -0.548 OA
ATOM      9  H   HIS d   1       8.832   6.819  -1.646  0.00  0.00     0.149 HD
ENDROOT
BRANCH   1  10
ATOM     10  C   UNK d   0       9.846   5.149  -3.404  0.00  0.00     0.067 C 
ATOM     11  H   UNK d   0      10.003   5.449  -4.440  0.00  0.00     0.041 H 
ATOM     12  H   UNK d   0       8.777   5.135  -3.188  0.00  0.00     0.041 H 
BRANCH  10  13
ATOM     13  C   UNK d   0      10.429   3.752  -3.183  0.00  0.00    -0.019 C 
ATOM     14  H   UNK d   0      11.262   3.593  -3.867  0.00  0.00     0.085 H 
BRANCH  13  15
ATOM     15  C   UNK d   0       9.348   2.701  -3.443  0.00  0.00    -0.021 C 
ATOM     16  H   UNK d   0       9.332   2.452  -4.504  0.00  0.00     0.028 H 
ATOM     17  H   UNK d   0       9.565   1.805  -2.862  0.00  0.00     0.028 H 
ATOM     18  H   UNK d   0       8.377   3.099  -3.149  0.00  0.00     0.028 H 
ENDBRANCH  13  15
BRANCH  13  19
ATOM     19  N   UNK d   0      10.905   3.634  -1.797  0.00  0.00     0.221 N 
ATOM     20  H   UNK d   0      11.026   4.556  -1.405  0.00  0.00     0.200 HD
ATOM     21  H   UNK d   0      10.228   3.122  -1.252  0.00  0.00     0.200 HD
ATOM     22  H   UNK d   0      11.787   3.145  -1.786  0.00  0.00     0.200 HD
ENDBRANCH  13  19
ENDBRANCH  10  13
ENDBRANCH   1  10
BRANCH   4  23
ATOM     23  CB  HIS d   1       9.494   8.982  -0.412  0.00  0.00     0.036 C 
ATOM     24  HB1 HIS d   1       8.499   8.569  -0.248  0.00  0.00     0.037 H 
ATOM     25  HB2 HIS d   1       9.835   9.483   0.494  0.00  0.00     0.037 H 
BRANCH  23  26
ATOM     26  CG  HIS d   1       9.446   9.973  -1.546  0.00  0.00     0.143 A 
ATOM     27  ND1 HIS d   1       8.351  10.677  -1.968  0.00  0.00    -0.247 N 
ATOM     28  HD1 HIS d   1       7.457  10.631  -1.593  0.00  0.00     0.310 HD
ATOM     29  CE1 HIS d   1       8.747  11.450  -3.002  0.00  0.00     0.242 A 
ATOM     30  NE2 HIS d   1      10.016  11.237  -3.222  0.00  0.00    -0.250 N 
ATOM     31  HE1 HIS d   1       8.118  12.129  -3.558  0.00  0.00     0.158 H 
ATOM     32  CD2 HIS d   1      10.472  10.334  -2.341  0.00  0.00     0.131 A 
ATOM     33  HE2 HIS d   1      10.545  11.665  -3.913  0.00  0.00     0.310 HD
ATOM     34  HD2 HIS d   1      11.483   9.961  -2.281  0.00  0.00     0.112 H 
ENDBRANCH  23  26
ENDBRANCH   4  23
TORSDOF 8
ENDMDL
MODEL 8
REMARK VINA RESULT:      -4.7      2.955      3.665
REMARK  6 active torsions:
REMARK  status: ('A' for Active; 'I' for Inactive)
REMARK    1  A    between atoms: C_1  and  C_2 
REMARK    2  A    between atoms: C_2  and  C_4 
REMARK    3  A    between atoms: C_2  and  N_20 
REMARK    4  A    between atoms: C_4  and  C_5 
REMARK       I    between atoms: C_5  and  N_7 
REMARK       I    between atoms: N_7  and  CA_8 
REMARK    5  A    between atoms: CA_8  and  CB_10 
REMARK       I    between atoms: CA_8  and  C_17 
REMARK    6  A    between atoms: CB_10  and  CG_11 
ROOT
ATOM      1  C   UNK d   0       5.054  -1.731  -4.827  0.00  0.00     0.219 C 
ATOM      2  O   UNK d   0       5.741  -0.800  -4.467  0.00  0.00    -0.276 OA
ATOM      3  N   HIS d   1       3.978  -1.511  -5.609  0.00  0.00    -0.307 N 
ATOM      4  CA  HIS d   1       3.639  -0.147  -6.022  0.00  0.00     0.070 C 
ATOM      5  HA  HIS d   1       4.554   0.424  -6.178  0.00  0.00     0.056 H 
ATOM      6  C   HIS d   1       2.813   0.512  -4.948  0.00  0.00     0.062 C 
ATOM      7  O   HIS d   1       2.532  -0.101  -3.932  0.00  0.00    -0.548 OA
ATOM      8  OXT HIS d   1       2.424   1.658  -5.096  0.00  0.00    -0.548 OA
ATOM      9  H   HIS d   1       3.428  -2.256  -5.899  0.00  0.00     0.149 HD
ENDROOT
BRANCH   1  10
ATOM     10  C   UNK d   0       5.403  -3.135  -4.404  0.00  0.00     0.067 C 
ATOM     11  H   UNK d   0       4.605  -3.814  -4.703  0.00  0.00     0.041 H 
ATOM     12  H   UNK d   0       5.520  -3.168  -3.320  0.00  0.00     0.041 H 
BRANCH  10  13
ATOM     13  C   UNK d   0       6.712  -3.558  -5.073  0.00  0.00    -0.019 C 
ATOM     14  H   UNK d   0       6.661  -4.614  -5.335  0.00  0.00     0.085 H 
BRANCH  13  15
ATOM     15  C   UNK d   0       7.875  -3.328  -4.106  0.00  0.00    -0.021 C 
ATOM     16  H   UNK d   0       8.485  -4.230  -4.051  0.00  0.00     0.028 H 
ATOM     17  H   UNK d   0       8.485  -2.498  -4.463  0.00  0.00     0.028 H 
ATOM     18  H   UNK d   0       7.484  -3.093  -3.117  0.00  0.00     0.028 H 
ENDBRANCH  13  15
BRANCH  13  19
ATOM     19  N   UNK d   0       6.920  -2.761  -6.290  0.00  0.00     0.221 N 
ATOM     20  H   UNK d   0       6.696  -1.795  -6.100  0.00  0.00     0.200 HD
ATOM     21  H   UNK d   0       7.884  -2.833  -6.578  0.00  0.00     0.200 HD
ATOM     22  H   UNK d   0       6.321  -3.107  -7.024  0.00  0.00     0.200 HD
ENDBRANCH  13  19
ENDBRANCH  10  13
ENDBRANCH   1  10
BRANCH   4  23
ATOM     23  CB  HIS d   1       2.838  -0.193  -7.325  0.00  0.00     0.036 C 
ATOM     24  HB1 HIS d   1       2.906  -1.190  -7.759  0.00  0.00     0.037 H 
ATOM     25  HB2 HIS d   1       1.794   0.044  -7.119  0.00  0.00     0.037 H 
BRANCH  23  26
ATOM     26  CG  HIS d   1       3.399   0.816  -8.295  0.00  0.00     0.143 A 
ATOM     27  ND1 HIS d   1       3.241   2.174  -8.241  0.00  0.00    -0.247 N 
ATOM     28  HD1 HIS d   1       2.745   2.670  -7.571  0.00  0.00     0.310 HD
ATOM     29  CE1 HIS d   1       3.907   2.696  -9.294  0.00  0.00     0.242 A 
ATOM     30  NE2 HIS d   1       4.445   1.720  -9.974  0.00  0.00    -0.250 N 
ATOM     31  HE1 HIS d   1       3.980   3.746  -9.536  0.00  0.00     0.158 H 
ATOM     32  CD2 HIS d   1       4.149   0.553  -9.382  0.00  0.00     0.131 A 
ATOM     33  HE2 HIS d   1       4.975   1.823 -10.780  0.00  0.00     0.310 HD
ATOM     34  HD2 HIS d   1       4.457  -0.426  -9.719  0.00  0.00     0.112 H 
ENDBRANCH  23  26
ENDBRANCH   4  23
TORSDOF 8
ENDMDL
MODEL 9
REMARK VINA RESULT:      -4.4      2.171      6.155
REMARK  6 active torsions:
REMARK  status: ('A' for Active; 'I' for Inactive)
REMARK    1  A    between atoms: C_1  and  C_2 
REMARK    2  A    between atoms: C_2  and  C_4 
REMARK    3  A    between atoms: C_2  and  N_20 
REMARK    4  A    between atoms: C_4  and  C_5 
REMARK       I    between atoms: C_5  and  N_7 
REMARK       I    between atoms: N_7  and  CA_8 
REMARK    5  A    between atoms: CA_8  and  CB_10 
REMARK       I    between atoms: CA_8  and  C_17 
REMARK    6  A    between atoms: CB_10  and  CG_11 
ROOT
ATOM      1  C   UNK d   0       4.454   1.300  -8.514  0.00  0.00     0.219 C 
ATOM      2  O   UNK d   0       5.623   1.552  -8.317  0.00  0.00    -0.276 OA
ATOM      3  N   HIS d   1       3.782   0.507  -7.656  0.00  0.00    -0.307 N 
ATOM      4  CA  HIS d   1       4.466  -0.053  -6.487  0.00  0.00     0.070 C 
ATOM      5  HA  HIS d   1       5.191   0.668  -6.111  0.00  0.00     0.056 H 
ATOM      6  C   HIS d   1       5.176  -1.322  -6.880  0.00  0.00     0.062 C 
ATOM      7  O   HIS d   1       5.117  -1.723  -8.030  0.00  0.00    -0.548 OA
ATOM      8  OXT HIS d   1       5.810  -1.949  -6.048  0.00  0.00    -0.548 OA
ATOM      9  H   HIS d   1       2.846   0.305  -7.812  0.00  0.00     0.149 HD
ENDROOT
BRANCH   1  10
ATOM     10  C   UNK d   0       3.750   1.876  -9.716  0.00  0.00     0.067 C 
ATOM     11  H   UNK d   0       4.152   2.865  -9.934  0.00  0.00     0.041 H 
ATOM     12  H   UNK d   0       2.683   1.955  -9.508  0.00  0.00     0.041 H 
BRANCH  10  13
ATOM     13  C   UNK d   0       3.968   0.959 -10.921  0.00  0.00    -0.019 C 
ATOM     14  H   UNK d   0       4.000   1.556 -11.832  0.00  0.00     0.085 H 
BRANCH  13  15
ATOM     15  C   UNK d   0       2.817  -0.046 -11.012  0.00  0.00    -0.021 C 
ATOM     16  H   UNK d   0       2.730  -0.584 -10.068  0.00  0.00     0.028 H 
ATOM     17  H   UNK d   0       1.887   0.484 -11.216  0.00  0.00     0.028 H 
ATOM     18  H   UNK d   0       3.016  -0.754 -11.816  0.00  0.00     0.028 H 
ENDBRANCH  13  15
BRANCH  13  19
ATOM     19  N   UNK d   0       5.238   0.237 -10.764  0.00  0.00     0.221 N 
ATOM     20  H   UNK d   0       5.966   0.726 -11.264  0.00  0.00     0.200 HD
ATOM     21  H   UNK d   0       5.478   0.187  -9.785  0.00  0.00     0.200 HD
ATOM     22  H   UNK d   0       5.143  -0.696 -11.136  0.00  0.00     0.200 HD
ENDBRANCH  13  19
ENDBRANCH  10  13
ENDBRANCH   1  10
BRANCH   4  23
ATOM     23  CB  HIS d   1       3.439  -0.360  -5.395  0.00  0.00     0.036 C 
ATOM     24  HB1 HIS d   1       2.480   0.082  -5.663  0.00  0.00     0.037 H 
ATOM     25  HB2 HIS d   1       3.328  -1.440  -5.294  0.00  0.00     0.037 H 
BRANCH  23  26
ATOM     26  CG  HIS d   1       3.911   0.220  -4.086  0.00  0.00     0.143 A 
ATOM     27  ND1 HIS d   1       5.127   0.796  -3.840  0.00  0.00    -0.247 N 
ATOM     28  HD1 HIS d   1       5.850   0.908  -4.477  0.00  0.00     0.310 HD
ATOM     29  CE1 HIS d   1       5.132   1.183  -2.546  0.00  0.00     0.242 A 
ATOM     30  NE2 HIS d   1       3.988   0.859  -2.008  0.00  0.00    -0.250 N 
ATOM     31  HE1 HIS d   1       5.949   1.674  -2.039  0.00  0.00     0.158 H 
ATOM     32  CD2 HIS d   1       3.217   0.266  -2.932  0.00  0.00     0.131 A 
ATOM     33  HE2 HIS d   1       3.735   1.023  -1.087  0.00  0.00     0.310 HD
ATOM     34  HD2 HIS d   1       2.216  -0.110  -2.778  0.00  0.00     0.112 H 
ENDBRANCH  23  26
ENDBRANCH   4  23
TORSDOF 8
ENDMDL
MODEL 10
REMARK VINA RESULT:      -4.4     10.442     12.867
REMARK  6 active torsions:
REMARK  status: ('A' for Active; 'I' for Inactive)
REMARK    1  A    between atoms: C_1  and  C_2 
REMARK    2  A    between atoms: C_2  and  C_4 
REMARK    3  A    between atoms: C_2  and  N_20 
REMARK    4  A    between atoms: C_4  and  C_5 
REMARK       I    between atoms: C_5  and  N_7 
REMARK       I    between atoms: N_7  and  CA_8 
REMARK    5  A    between atoms: CA_8  and  CB_10 
REMARK       I    between atoms: CA_8  and  C_17 
REMARK    6  A    between atoms: CB_10  and  CG_11 
ROOT
ATOM      1  C   UNK d   0      10.065   7.036  -3.175  0.00  0.00     0.219 C 
ATOM      2  O   UNK d   0      11.275   6.960  -3.191  0.00  0.00    -0.276 OA
ATOM      3  N   HIS d   1       9.447   7.755  -2.217  0.00  0.00    -0.307 N 
ATOM      4  CA  HIS d   1      10.238   8.443  -1.193  0.00  0.00     0.070 C 
ATOM      5  HA  HIS d   1      11.167   8.803  -1.633  0.00  0.00     0.056 H 
ATOM      6  C   HIS d   1      10.550   7.485  -0.072  0.00  0.00     0.062 C 
ATOM      7  O   HIS d   1      10.150   6.335  -0.123  0.00  0.00    -0.548 OA
ATOM      8  OXT HIS d   1      11.203   7.861   0.887  0.00  0.00    -0.548 OA
ATOM      9  H   HIS d   1       8.479   7.817  -2.204  0.00  0.00     0.149 HD
ENDROOT
BRANCH   1  10
ATOM     10  C   UNK d   0       9.251   6.329  -4.229  0.00  0.00     0.067 C 
ATOM     11  H   UNK d   0       8.258   6.112  -3.837  0.00  0.00     0.041 H 
ATOM     12  H   UNK d   0       9.745   5.397  -4.503  0.00  0.00     0.041 H 
BRANCH  10  13
ATOM     13  C   UNK d   0       9.128   7.225  -5.463  0.00  0.00    -0.019 C 
ATOM     14  H   UNK d   0       8.118   7.154  -5.865  0.00  0.00     0.085 H 
BRANCH  13  15
ATOM     15  C   UNK d   0      10.132   6.769  -6.525  0.00  0.00    -0.021 C 
ATOM     16  H   UNK d   0       9.616   6.630  -7.476  0.00  0.00     0.028 H 
ATOM     17  H   UNK d   0      10.908   7.525  -6.639  0.00  0.00     0.028 H 
ATOM     18  H   UNK d   0      10.584   5.827  -6.216  0.00  0.00     0.028 H 
ENDBRANCH  13  15
BRANCH  13  19
ATOM     19  N   UNK d   0       9.410   8.617  -5.088  0.00  0.00     0.221 N 
ATOM     20  H   UNK d   0      10.136   8.635  -4.387  0.00  0.00     0.200 HD
ATOM     21  H   UNK d   0       9.715   9.130  -5.902  0.00  0.00     0.200 HD
ATOM     22  H   UNK d   0       8.573   9.040  -4.716  0.00  0.00     0.200 HD
ENDBRANCH  13  19
ENDBRANCH  10  13
ENDBRANCH   1  10
BRANCH   4  23
ATOM     23  CB  HIS d   1       9.440   9.628  -0.644  0.00  0.00     0.036 C 
ATOM     24  HB1 HIS d   1       8.457   9.286  -0.320  0.00  0.00     0.037 H 
ATOM     25  HB2 HIS d   1       9.972  10.062   0.204  0.00  0.00     0.037 H 
BRANCH  23  26
ATOM     26  CG  HIS d   1       9.280  10.668  -1.722  0.00  0.00     0.143 A 
ATOM     27  ND1 HIS d   1       8.121  11.003  -2.367  0.00  0.00    -0.247 N 
ATOM     28  HD1 HIS d   1       7.245  10.613  -2.217  0.00  0.00     0.310 HD
ATOM     29  CE1 HIS d   1       8.423  11.978  -3.251  0.00  0.00     0.242 A 
ATOM     30  NE2 HIS d   1       9.700  12.234  -3.172  0.00  0.00    -0.250 N 
ATOM     31  HE1 HIS d   1       7.724  12.463  -3.917  0.00  0.00     0.158 H 
ATOM     32  CD2 HIS d   1      10.252  11.444  -2.239  0.00  0.00     0.131 A 
ATOM     33  HE2 HIS d   1      10.174  12.893  -3.703  0.00  0.00     0.310 HD
ATOM     34  HD2 HIS d   1      11.294  11.431  -1.954  0.00  0.00     0.112 H 
ENDBRANCH  23  26
ENDBRANCH   4  23
TORSDOF 8
ENDMDL
