MODEL 1
REMARK VINA RESULT:      -8.0      0.000      0.000
REMARK  5 active torsions:
REMARK  status: ('A' for Active; 'I' for Inactive)
REMARK    1  A    between atoms: C_1  and  C_2 
REMARK    2  A    between atoms: C_2  and  C_38 
REMARK    3  A    between atoms: N_20  and  N_23 
REMARK       I    between atoms: N_23  and  C_24 
REMARK       I    between atoms: N_23  and  C_31 
REMARK    4  A    between atoms: C_24  and  C_26 
REMARK    5  A    between atoms: C_31  and  C_33 
ROOT
ATOM      1  C   LIG d   1       8.173   1.417  -7.235  0.00  0.00     0.073 C 
ATOM      2  C   LIG d   1       8.780   2.402  -6.263  0.00  0.00     0.044 A 
ATOM      3  C   LIG d   1       8.716   2.261  -4.921  0.00  0.00    -0.015 A 
ATOM      4  C   LIG d   1       9.411   3.394  -4.343  0.00  0.00     0.003 A 
ATOM      5  C   LIG d   1       9.666   3.776  -3.023  0.00  0.00    -0.052 A 
ATOM      6  C   LIG d   1      10.370   4.940  -2.838  0.00  0.00    -0.061 A 
ATOM      7  C   LIG d   1      10.812   5.708  -3.902  0.00  0.00    -0.060 A 
ATOM      8  C   LIG d   1      10.575   5.354  -5.219  0.00  0.00    -0.038 A 
ATOM      9  C   LIG d   1       9.863   4.177  -5.437  0.00  0.00     0.047 A 
ATOM     10  N   LIG d   1       9.463   3.547  -6.580  0.00  0.00    -0.356 N 
ATOM     11  H   LIG d   1       9.637   3.862  -7.480  0.00  0.00     0.166 HD
ATOM     12  C   LIG d   1       8.032   1.122  -4.210  0.00  0.00     0.002 C 
ATOM     13  C   LIG d   1       7.822  -0.026  -5.201  0.00  0.00     0.109 A 
ATOM     14  H   LIG d   1       8.791  -0.487  -5.390  0.00  0.00     0.060 H 
ATOM     15  N   LIG d   1       7.303   0.508  -6.460  0.00  0.00    -0.278 N 
ATOM     16  C   LIG d   1       6.087   0.219  -6.929  0.00  0.00     0.236 A 
ATOM     17  O   LIG d   1       5.726   0.774  -7.945  0.00  0.00    -0.274 OA
ATOM     18  C   LIG d   1       5.141  -0.742  -6.285  0.00  0.00     0.111 A 
ATOM     19  N   LIG d   1       5.709  -1.356  -5.098  0.00  0.00    -0.200 N 
ATOM     20  C   LIG d   1       6.908  -1.048  -4.606  0.00  0.00     0.254 A 
ATOM     21  O   LIG d   1       7.280  -1.632  -3.609  0.00  0.00    -0.272 OA
ATOM     22  H   LIG d   1       9.325   3.183  -2.187  0.00  0.00     0.062 H 
ATOM     23  H   LIG d   1      10.585   5.266  -1.832  0.00  0.00     0.062 H 
ATOM     24  H   LIG d   1      11.361   6.616  -3.697  0.00  0.00     0.062 H 
ATOM     25  H   LIG d   1      10.926   5.963  -6.040  0.00  0.00     0.064 H 
ATOM     26  H   LIG d   1       8.655   0.782  -3.382  0.00  0.00     0.034 H 
ATOM     27  H   LIG d   1       7.068   1.457  -3.828  0.00  0.00     0.034 H 
ATOM     28  H   LIG d   1       4.888  -1.524  -7.002  0.00  0.00     0.058 H 
ATOM     29  H   LIG d   1       4.231  -0.209  -6.007  0.00  0.00     0.058 H 
ENDROOT
BRANCH  19  30
ATOM     30  N   LIG d   1       4.953  -2.329  -4.431  0.00  0.00    -0.139 N 
ATOM     31  C   LIG d   1       4.172  -1.979  -3.390  0.00  0.00     0.305 C 
ATOM     32  O   LIG d   1       3.515  -2.823  -2.811  0.00  0.00    -0.265 OA
ATOM     33  C   LIG d   1       5.006  -3.615  -4.831  0.00  0.00     0.305 C 
ATOM     34  O   LIG d   1       4.350  -4.460  -4.251  0.00  0.00    -0.265 OA
BRANCH  31  35
ATOM     35  C   LIG d   1       4.114  -0.580  -2.955  0.00  0.00     0.191 A 
ATOM     36  O   LIG d   1       3.510   0.430  -3.614  0.00  0.00    -0.458 OA
ATOM     37  C   LIG d   1       3.657   1.565  -2.919  0.00  0.00     0.093 A 
ATOM     38  C   LIG d   1       4.369   1.301  -1.801  0.00  0.00    -0.023 A 
ATOM     39  H   LIG d   1       3.275   2.534  -3.206  0.00  0.00     0.103 H 
ATOM     40  C   LIG d   1       4.666  -0.070  -1.815  0.00  0.00    -0.011 A 
ATOM     41  H   LIG d   1       4.657   2.012  -1.040  0.00  0.00     0.065 H 
ATOM     42  H   LIG d   1       5.224  -0.617  -1.068  0.00  0.00     0.066 H 
ENDBRANCH  31  35
BRANCH  33  43
ATOM     43  C   LIG d   1       5.856  -3.996  -5.962  0.00  0.00     0.191 A 
ATOM     44  O   LIG d   1       5.515  -3.933  -7.266  0.00  0.00    -0.458 OA
ATOM     45  C   LIG d   1       6.540  -4.358  -8.015  0.00  0.00     0.093 A 
ATOM     46  C   LIG d   1       7.558  -4.711  -7.198  0.00  0.00    -0.023 A 
ATOM     47  H   LIG d   1       6.551  -4.415  -9.093  0.00  0.00     0.103 H 
ATOM     48  C   LIG d   1       7.130  -4.483  -5.881  0.00  0.00    -0.011 A 
ATOM     49  H   LIG d   1       8.520  -5.097  -7.501  0.00  0.00     0.065 H 
ATOM     50  H   LIG d   1       7.697  -4.658  -4.979  0.00  0.00     0.066 H 
ENDBRANCH  33  43
ENDBRANCH  19  30
BRANCH   1  51
ATOM     51  C   LIG d   1       9.280   0.615  -7.923  0.00  0.00    -0.038 C 
ATOM     52  H   LIG d   1       9.878   1.280  -8.547  0.00  0.00     0.025 H 
ATOM     53  H   LIG d   1       9.918   0.155  -7.168  0.00  0.00     0.025 H 
ATOM     54  H   LIG d   1       8.833  -0.162  -8.544  0.00  0.00     0.025 H 
ENDBRANCH   1  51
BRANCH   1  55
ATOM     55  C   LIG d   1       7.343   2.164  -8.282  0.00  0.00    -0.038 C 
ATOM     56  H   LIG d   1       7.079   3.150  -7.900  0.00  0.00     0.025 H 
ATOM     57  H   LIG d   1       7.925   2.272  -9.198  0.00  0.00     0.025 H 
ATOM     58  H   LIG d   1       6.434   1.600  -8.494  0.00  0.00     0.025 H 
ENDBRANCH   1  55
TORSDOF 5
ENDMDL
MODEL 2
REMARK VINA RESULT:      -8.0      0.004      3.785
REMARK  5 active torsions:
REMARK  status: ('A' for Active; 'I' for Inactive)
REMARK    1  A    between atoms: C_1  and  C_2 
REMARK    2  A    between atoms: C_2  and  C_38 
REMARK    3  A    between atoms: N_20  and  N_23 
REMARK       I    between atoms: N_23  and  C_24 
REMARK       I    between atoms: N_23  and  C_31 
REMARK    4  A    between atoms: C_24  and  C_26 
REMARK    5  A    between atoms: C_31  and  C_33 
ROOT
ATOM      1  C   LIG d   1       8.173   1.416  -7.238  0.00  0.00     0.073 C 
ATOM      2  C   LIG d   1       8.782   2.400  -6.266  0.00  0.00     0.044 A 
ATOM      3  C   LIG d   1       8.719   2.259  -4.924  0.00  0.00    -0.015 A 
ATOM      4  C   LIG d   1       9.415   3.391  -4.346  0.00  0.00     0.003 A 
ATOM      5  C   LIG d   1       9.671   3.772  -3.026  0.00  0.00    -0.052 A 
ATOM      6  C   LIG d   1      10.377   4.936  -2.841  0.00  0.00    -0.061 A 
ATOM      7  C   LIG d   1      10.818   5.704  -3.906  0.00  0.00    -0.060 A 
ATOM      8  C   LIG d   1      10.580   5.351  -5.223  0.00  0.00    -0.038 A 
ATOM      9  C   LIG d   1       9.867   4.174  -5.440  0.00  0.00     0.047 A 
ATOM     10  N   LIG d   1       9.466   3.544  -6.583  0.00  0.00    -0.356 N 
ATOM     11  H   LIG d   1       9.639   3.859  -7.484  0.00  0.00     0.166 HD
ATOM     12  C   LIG d   1       8.035   1.120  -4.212  0.00  0.00     0.002 C 
ATOM     13  C   LIG d   1       7.823  -0.028  -5.203  0.00  0.00     0.109 A 
ATOM     14  H   LIG d   1       8.792  -0.489  -5.393  0.00  0.00     0.060 H 
ATOM     15  N   LIG d   1       7.304   0.507  -6.462  0.00  0.00    -0.278 N 
ATOM     16  C   LIG d   1       6.087   0.219  -6.930  0.00  0.00     0.236 A 
ATOM     17  O   LIG d   1       5.725   0.774  -7.945  0.00  0.00    -0.274 OA
ATOM     18  C   LIG d   1       5.141  -0.742  -6.285  0.00  0.00     0.111 A 
ATOM     19  N   LIG d   1       5.710  -1.357  -5.099  0.00  0.00    -0.200 N 
ATOM     20  C   LIG d   1       6.910  -1.049  -4.608  0.00  0.00     0.254 A 
ATOM     21  O   LIG d   1       7.282  -1.633  -3.612  0.00  0.00    -0.272 OA
ATOM     22  H   LIG d   1       9.331   3.180  -2.190  0.00  0.00     0.062 H 
ATOM     23  H   LIG d   1      10.593   5.262  -1.835  0.00  0.00     0.062 H 
ATOM     24  H   LIG d   1      11.368   6.612  -3.701  0.00  0.00     0.062 H 
ATOM     25  H   LIG d   1      10.931   5.959  -6.044  0.00  0.00     0.064 H 
ATOM     26  H   LIG d   1       8.659   0.779  -3.385  0.00  0.00     0.034 H 
ATOM     27  H   LIG d   1       7.072   1.455  -3.830  0.00  0.00     0.034 H 
ATOM     28  H   LIG d   1       4.887  -1.523  -7.002  0.00  0.00     0.058 H 
ATOM     29  H   LIG d   1       4.232  -0.208  -6.007  0.00  0.00     0.058 H 
ENDROOT
BRANCH  19  30
ATOM     30  N   LIG d   1       4.953  -2.329  -4.432  0.00  0.00    -0.139 N 
ATOM     31  C   LIG d   1       5.005  -3.615  -4.832  0.00  0.00     0.305 C 
ATOM     32  O   LIG d   1       4.349  -4.460  -4.254  0.00  0.00    -0.265 OA
ATOM     33  C   LIG d   1       4.172  -1.979  -3.391  0.00  0.00     0.305 C 
ATOM     34  O   LIG d   1       3.515  -2.824  -2.812  0.00  0.00    -0.265 OA
BRANCH  31  35
ATOM     35  C   LIG d   1       5.854  -3.996  -5.965  0.00  0.00     0.191 A 
ATOM     36  O   LIG d   1       5.512  -3.933  -7.269  0.00  0.00    -0.458 OA
ATOM     37  C   LIG d   1       6.537  -4.358  -8.019  0.00  0.00     0.093 A 
ATOM     38  C   LIG d   1       7.556  -4.710  -7.202  0.00  0.00    -0.023 A 
ATOM     39  H   LIG d   1       6.548  -4.416  -9.097  0.00  0.00     0.103 H 
ATOM     40  C   LIG d   1       7.129  -4.481  -5.886  0.00  0.00    -0.011 A 
ATOM     41  H   LIG d   1       8.518  -5.095  -7.507  0.00  0.00     0.065 H 
ATOM     42  H   LIG d   1       7.697  -4.655  -4.984  0.00  0.00     0.066 H 
ENDBRANCH  31  35
BRANCH  33  43
ATOM     43  C   LIG d   1       4.115  -0.581  -2.956  0.00  0.00     0.191 A 
ATOM     44  O   LIG d   1       3.512   0.430  -3.616  0.00  0.00    -0.458 OA
ATOM     45  C   LIG d   1       3.660   1.565  -2.920  0.00  0.00     0.093 A 
ATOM     46  C   LIG d   1       4.371   1.300  -1.801  0.00  0.00    -0.023 A 
ATOM     47  H   LIG d   1       3.278   2.533  -3.207  0.00  0.00     0.103 H 
ATOM     48  C   LIG d   1       4.668  -0.072  -1.815  0.00  0.00    -0.011 A 
ATOM     49  H   LIG d   1       4.658   2.010  -1.040  0.00  0.00     0.065 H 
ATOM     50  H   LIG d   1       5.224  -0.619  -1.068  0.00  0.00     0.066 H 
ENDBRANCH  33  43
ENDBRANCH  19  30
BRANCH   1  51
ATOM     51  C   LIG d   1       9.279   0.613  -7.927  0.00  0.00    -0.038 C 
ATOM     52  H   LIG d   1       8.873   0.116  -8.808  0.00  0.00     0.025 H 
ATOM     53  H   LIG d   1      10.083   1.286  -8.227  0.00  0.00     0.025 H 
ATOM     54  H   LIG d   1       9.670  -0.134  -7.236  0.00  0.00     0.025 H 
ENDBRANCH   1  51
BRANCH   1  55
ATOM     55  C   LIG d   1       7.343   2.163  -8.284  0.00  0.00    -0.038 C 
ATOM     56  H   LIG d   1       7.600   3.222  -8.262  0.00  0.00     0.025 H 
ATOM     57  H   LIG d   1       7.555   1.757  -9.273  0.00  0.00     0.025 H 
ATOM     58  H   LIG d   1       6.282   2.041  -8.061  0.00  0.00     0.025 H 
ENDBRANCH   1  55
TORSDOF 5
ENDMDL
MODEL 3
REMARK VINA RESULT:      -7.0      3.376      7.520
REMARK  5 active torsions:
REMARK  status: ('A' for Active; 'I' for Inactive)
REMARK    1  A    between atoms: C_1  and  C_2 
REMARK    2  A    between atoms: C_2  and  C_38 
REMARK    3  A    between atoms: N_20  and  N_23 
REMARK       I    between atoms: N_23  and  C_24 
REMARK       I    between atoms: N_23  and  C_31 
REMARK    4  A    between atoms: C_24  and  C_26 
REMARK    5  A    between atoms: C_31  and  C_33 
ROOT
ATOM      1  C   LIG d   1       3.773   0.742  -8.404  0.00  0.00     0.073 C 
ATOM      2  C   LIG d   1       3.011  -0.211  -9.295  0.00  0.00     0.044 A 
ATOM      3  C   LIG d   1       2.958  -1.545  -9.089  0.00  0.00    -0.015 A 
ATOM      4  C   LIG d   1       2.136  -2.104 -10.143  0.00  0.00     0.003 A 
ATOM      5  C   LIG d   1       1.733  -3.409 -10.439  0.00  0.00    -0.052 A 
ATOM      6  C   LIG d   1       0.936  -3.579 -11.544  0.00  0.00    -0.061 A 
ATOM      7  C   LIG d   1       0.543  -2.512 -12.336  0.00  0.00    -0.060 A 
ATOM      8  C   LIG d   1       0.926  -1.210 -12.067  0.00  0.00    -0.038 A 
ATOM      9  C   LIG d   1       1.735  -1.009 -10.951  0.00  0.00     0.047 A 
ATOM     10  N   LIG d   1       2.282   0.118 -10.408  0.00  0.00    -0.356 N 
ATOM     11  H   LIG d   1       2.173   1.016 -10.758  0.00  0.00     0.166 HD
ATOM     12  C   LIG d   1       3.650  -2.266  -7.961  0.00  0.00     0.002 C 
ATOM     13  C   LIG d   1       4.031  -1.249  -6.882  0.00  0.00     0.109 A 
ATOM     14  H   LIG d   1       3.118  -0.947  -6.370  0.00  0.00     0.060 H 
ATOM     15  N   LIG d   1       4.627  -0.072  -7.514  0.00  0.00    -0.278 N 
ATOM     16  C   LIG d   1       5.899   0.290  -7.328  0.00  0.00     0.236 A 
ATOM     17  O   LIG d   1       6.314   1.240  -7.957  0.00  0.00    -0.274 OA
ATOM     18  C   LIG d   1       6.845  -0.398  -6.398  0.00  0.00     0.111 A 
ATOM     19  N   LIG d   1       6.212  -1.495  -5.687  0.00  0.00    -0.200 N 
ATOM     20  C   LIG d   1       4.953  -1.882  -5.892  0.00  0.00     0.254 A 
ATOM     21  O   LIG d   1       4.531  -2.811  -5.234  0.00  0.00    -0.272 OA
ATOM     22  H   LIG d   1       2.035  -4.247  -9.827  0.00  0.00     0.062 H 
ATOM     23  H   LIG d   1       0.606  -4.573 -11.803  0.00  0.00     0.062 H 
ATOM     24  H   LIG d   1      -0.084  -2.705 -13.195  0.00  0.00     0.062 H 
ATOM     25  H   LIG d   1       0.612  -0.388 -12.693  0.00  0.00     0.064 H 
ATOM     26  H   LIG d   1       2.977  -3.014  -7.539  0.00  0.00     0.034 H 
ATOM     27  H   LIG d   1       4.548  -2.754  -8.337  0.00  0.00     0.034 H 
ATOM     28  H   LIG d   1       7.216   0.326  -5.673  0.00  0.00     0.058 H 
ATOM     29  H   LIG d   1       7.685  -0.786  -6.973  0.00  0.00     0.058 H 
ENDROOT
BRANCH  19  30
ATOM     30  N   LIG d   1       6.968  -2.187  -4.732  0.00  0.00    -0.139 N 
ATOM     31  C   LIG d   1       7.745  -3.222  -5.108  0.00  0.00     0.305 C 
ATOM     32  O   LIG d   1       8.402  -3.823  -4.280  0.00  0.00    -0.265 OA
ATOM     33  C   LIG d   1       6.918  -1.818  -3.437  0.00  0.00     0.305 C 
ATOM     34  O   LIG d   1       7.574  -2.419  -2.607  0.00  0.00    -0.265 OA
BRANCH  31  35
ATOM     35  C   LIG d   1       7.799  -3.624  -6.517  0.00  0.00     0.191 A 
ATOM     36  O   LIG d   1       8.608  -3.098  -7.460  0.00  0.00    -0.458 OA
ATOM     37  C   LIG d   1       8.385  -3.712  -8.630  0.00  0.00     0.093 A 
ATOM     38  C   LIG d   1       7.417  -4.640  -8.455  0.00  0.00    -0.023 A 
ATOM     39  H   LIG d   1       8.890  -3.498  -9.560  0.00  0.00     0.103 H 
ATOM     40  C   LIG d   1       7.036  -4.591  -7.106  0.00  0.00    -0.011 A 
ATOM     41  H   LIG d   1       7.013  -5.295  -9.213  0.00  0.00     0.065 H 
ATOM     42  H   LIG d   1       6.285  -5.201  -6.626  0.00  0.00     0.066 H 
ENDBRANCH  31  35
BRANCH  33  43
ATOM     43  C   LIG d   1       6.073  -0.694  -3.028  0.00  0.00     0.191 A 
ATOM     44  O   LIG d   1       6.347   0.615  -3.215  0.00  0.00    -0.458 OA
ATOM     45  C   LIG d   1       5.349   1.354  -2.716  0.00  0.00     0.093 A 
ATOM     46  C   LIG d   1       4.416   0.528  -2.190  0.00  0.00    -0.023 A 
ATOM     47  H   LIG d   1       5.298   2.433  -2.727  0.00  0.00     0.103 H 
ATOM     48  C   LIG d   1       4.871  -0.785  -2.384  0.00  0.00    -0.011 A 
ATOM     49  H   LIG d   1       3.496   0.824  -1.709  0.00  0.00     0.065 H 
ATOM     50  H   LIG d   1       4.367  -1.692  -2.084  0.00  0.00     0.066 H 
ENDBRANCH  33  43
ENDBRANCH  19  30
BRANCH   1  51
ATOM     51  C   LIG d   1       2.793   1.569  -7.568  0.00  0.00    -0.038 C 
ATOM     52  H   LIG d   1       1.821   1.591  -8.062  0.00  0.00     0.025 H 
ATOM     53  H   LIG d   1       2.688   1.120  -6.581  0.00  0.00     0.025 H 
ATOM     54  H   LIG d   1       3.171   2.586  -7.466  0.00  0.00     0.025 H 
ENDBRANCH   1  51
BRANCH   1  55
ATOM     55  C   LIG d   1       4.643   1.668  -9.256  0.00  0.00    -0.038 C 
ATOM     56  H   LIG d   1       4.682   1.292 -10.278  0.00  0.00     0.025 H 
ATOM     57  H   LIG d   1       4.216   2.672  -9.253  0.00  0.00     0.025 H 
ATOM     58  H   LIG d   1       5.651   1.702  -8.841  0.00  0.00     0.025 H 
ENDBRANCH   1  55
TORSDOF 5
ENDMDL
MODEL 4
REMARK VINA RESULT:      -6.9      3.376      6.509
REMARK  5 active torsions:
REMARK  status: ('A' for Active; 'I' for Inactive)
REMARK    1  A    between atoms: C_1  and  C_2 
REMARK    2  A    between atoms: C_2  and  C_38 
REMARK    3  A    between atoms: N_20  and  N_23 
REMARK       I    between atoms: N_23  and  C_24 
REMARK       I    between atoms: N_23  and  C_31 
REMARK    4  A    between atoms: C_24  and  C_26 
REMARK    5  A    between atoms: C_31  and  C_33 
ROOT
ATOM      1  C   LIG d   1       3.773   0.742  -8.404  0.00  0.00     0.073 C 
ATOM      2  C   LIG d   1       3.010  -0.211  -9.296  0.00  0.00     0.044 A 
ATOM      3  C   LIG d   1       2.958  -1.545  -9.090  0.00  0.00    -0.015 A 
ATOM      4  C   LIG d   1       2.136  -2.104 -10.144  0.00  0.00     0.003 A 
ATOM      5  C   LIG d   1       1.733  -3.409 -10.439  0.00  0.00    -0.052 A 
ATOM      6  C   LIG d   1       0.936  -3.579 -11.544  0.00  0.00    -0.061 A 
ATOM      7  C   LIG d   1       0.543  -2.512 -12.337  0.00  0.00    -0.060 A 
ATOM      8  C   LIG d   1       0.926  -1.210 -12.068  0.00  0.00    -0.038 A 
ATOM      9  C   LIG d   1       1.735  -1.009 -10.951  0.00  0.00     0.047 A 
ATOM     10  N   LIG d   1       2.282   0.118 -10.409  0.00  0.00    -0.356 N 
ATOM     11  H   LIG d   1       2.173   1.016 -10.759  0.00  0.00     0.166 HD
ATOM     12  C   LIG d   1       3.649  -2.266  -7.961  0.00  0.00     0.002 C 
ATOM     13  C   LIG d   1       4.031  -1.249  -6.883  0.00  0.00     0.109 A 
ATOM     14  H   LIG d   1       3.118  -0.946  -6.371  0.00  0.00     0.060 H 
ATOM     15  N   LIG d   1       4.627  -0.071  -7.514  0.00  0.00    -0.278 N 
ATOM     16  C   LIG d   1       5.899   0.290  -7.328  0.00  0.00     0.236 A 
ATOM     17  O   LIG d   1       6.314   1.240  -7.957  0.00  0.00    -0.274 OA
ATOM     18  C   LIG d   1       6.844  -0.398  -6.398  0.00  0.00     0.111 A 
ATOM     19  N   LIG d   1       6.211  -1.495  -5.687  0.00  0.00    -0.200 N 
ATOM     20  C   LIG d   1       4.953  -1.882  -5.892  0.00  0.00     0.254 A 
ATOM     21  O   LIG d   1       4.531  -2.810  -5.235  0.00  0.00    -0.272 OA
ATOM     22  H   LIG d   1       2.034  -4.247  -9.827  0.00  0.00     0.062 H 
ATOM     23  H   LIG d   1       0.605  -4.573 -11.804  0.00  0.00     0.062 H 
ATOM     24  H   LIG d   1      -0.084  -2.705 -13.195  0.00  0.00     0.062 H 
ATOM     25  H   LIG d   1       0.612  -0.388 -12.694  0.00  0.00     0.064 H 
ATOM     26  H   LIG d   1       2.977  -3.014  -7.539  0.00  0.00     0.034 H 
ATOM     27  H   LIG d   1       4.548  -2.754  -8.337  0.00  0.00     0.034 H 
ATOM     28  H   LIG d   1       7.216   0.326  -5.673  0.00  0.00     0.058 H 
ATOM     29  H   LIG d   1       7.685  -0.786  -6.973  0.00  0.00     0.058 H 
ENDROOT
BRANCH  19  30
ATOM     30  N   LIG d   1       6.967  -2.187  -4.732  0.00  0.00    -0.139 N 
ATOM     31  C   LIG d   1       6.919  -1.816  -3.437  0.00  0.00     0.305 C 
ATOM     32  O   LIG d   1       7.575  -2.415  -2.607  0.00  0.00    -0.265 OA
ATOM     33  C   LIG d   1       7.744  -3.221  -5.108  0.00  0.00     0.305 C 
ATOM     34  O   LIG d   1       8.402  -3.821  -4.278  0.00  0.00    -0.265 OA
BRANCH  31  35
ATOM     35  C   LIG d   1       6.074  -0.690  -3.028  0.00  0.00     0.191 A 
ATOM     36  O   LIG d   1       6.347   0.617  -3.222  0.00  0.00    -0.458 OA
ATOM     37  C   LIG d   1       5.350   1.359  -2.721  0.00  0.00     0.093 A 
ATOM     38  C   LIG d   1       4.420   0.534  -2.190  0.00  0.00    -0.023 A 
ATOM     39  H   LIG d   1       5.299   2.437  -2.736  0.00  0.00     0.103 H 
ATOM     40  C   LIG d   1       4.874  -0.779  -2.381  0.00  0.00    -0.011 A 
ATOM     41  H   LIG d   1       3.501   0.831  -1.706  0.00  0.00     0.065 H 
ATOM     42  H   LIG d   1       4.373  -1.686  -2.076  0.00  0.00     0.066 H 
ENDBRANCH  31  35
BRANCH  33  43
ATOM     43  C   LIG d   1       7.798  -3.624  -6.515  0.00  0.00     0.191 A 
ATOM     44  O   LIG d   1       8.608  -3.101  -7.459  0.00  0.00    -0.458 OA
ATOM     45  C   LIG d   1       8.383  -3.715  -8.628  0.00  0.00     0.093 A 
ATOM     46  C   LIG d   1       7.414  -4.641  -8.453  0.00  0.00    -0.023 A 
ATOM     47  H   LIG d   1       8.890  -3.502  -9.558  0.00  0.00     0.103 H 
ATOM     48  C   LIG d   1       7.033  -4.590  -7.104  0.00  0.00    -0.011 A 
ATOM     49  H   LIG d   1       7.009  -5.296  -9.210  0.00  0.00     0.065 H 
ATOM     50  H   LIG d   1       6.280  -5.199  -6.624  0.00  0.00     0.066 H 
ENDBRANCH  33  43
ENDBRANCH  19  30
BRANCH   1  51
ATOM     51  C   LIG d   1       2.793   1.570  -7.569  0.00  0.00    -0.038 C 
ATOM     52  H   LIG d   1       2.954   2.630  -7.764  0.00  0.00     0.025 H 
ATOM     53  H   LIG d   1       1.771   1.303  -7.839  0.00  0.00     0.025 H 
ATOM     54  H   LIG d   1       2.955   1.366  -6.511  0.00  0.00     0.025 H 
ENDBRANCH   1  51
BRANCH   1  55
ATOM     55  C   LIG d   1       4.643   1.668  -9.256  0.00  0.00    -0.038 C 
ATOM     56  H   LIG d   1       4.081   1.992 -10.131  0.00  0.00     0.025 H 
ATOM     57  H   LIG d   1       4.932   2.539  -8.666  0.00  0.00     0.025 H 
ATOM     58  H   LIG d   1       5.538   1.133  -9.576  0.00  0.00     0.025 H 
ENDBRANCH   1  55
TORSDOF 5
ENDMDL
MODEL 5
REMARK VINA RESULT:      -6.9      4.152      6.522
REMARK  5 active torsions:
REMARK  status: ('A' for Active; 'I' for Inactive)
REMARK    1  A    between atoms: C_1  and  C_2 
REMARK    2  A    between atoms: C_2  and  C_38 
REMARK    3  A    between atoms: N_20  and  N_23 
REMARK       I    between atoms: N_23  and  C_24 
REMARK       I    between atoms: N_23  and  C_31 
REMARK    4  A    between atoms: C_24  and  C_26 
REMARK    5  A    between atoms: C_31  and  C_33 
ROOT
ATOM      1  C   LIG d   1       6.149  -2.849  -5.912  0.00  0.00     0.073 C 
ATOM      2  C   LIG d   1       5.555  -1.851  -4.946  0.00  0.00     0.044 A 
ATOM      3  C   LIG d   1       4.635  -0.928  -5.300  0.00  0.00    -0.015 A 
ATOM      4  C   LIG d   1       4.314  -0.170  -4.107  0.00  0.00     0.003 A 
ATOM      5  C   LIG d   1       3.441   0.894  -3.867  0.00  0.00    -0.052 A 
ATOM      6  C   LIG d   1       3.391   1.380  -2.583  0.00  0.00    -0.061 A 
ATOM      7  C   LIG d   1       4.166   0.847  -1.566  0.00  0.00    -0.060 A 
ATOM      8  C   LIG d   1       5.038  -0.206  -1.774  0.00  0.00    -0.038 A 
ATOM      9  C   LIG d   1       5.109  -0.720  -3.068  0.00  0.00     0.047 A 
ATOM     10  N   LIG d   1       5.845  -1.732  -3.612  0.00  0.00    -0.356 N 
ATOM     11  H   LIG d   1       6.478  -2.284  -3.128  0.00  0.00     0.166 HD
ATOM     12  C   LIG d   1       4.083  -0.757  -6.692  0.00  0.00     0.002 C 
ATOM     13  C   LIG d   1       4.379  -2.021  -7.502  0.00  0.00     0.109 A 
ATOM     14  H   LIG d   1       3.721  -2.811  -7.142  0.00  0.00     0.060 H 
ATOM     15  N   LIG d   1       5.767  -2.429  -7.276  0.00  0.00    -0.278 N 
ATOM     16  C   LIG d   1       6.692  -2.428  -8.238  0.00  0.00     0.236 A 
ATOM     17  O   LIG d   1       7.830  -2.712  -7.928  0.00  0.00    -0.274 OA
ATOM     18  C   LIG d   1       6.421  -2.100  -9.670  0.00  0.00     0.111 A 
ATOM     19  N   LIG d   1       5.018  -1.810  -9.908  0.00  0.00    -0.200 N 
ATOM     20  C   LIG d   1       4.095  -1.776  -8.948  0.00  0.00     0.254 A 
ATOM     21  O   LIG d   1       2.952  -1.526  -9.268  0.00  0.00    -0.272 OA
ATOM     22  H   LIG d   1       2.832   1.316  -4.654  0.00  0.00     0.062 H 
ATOM     23  H   LIG d   1       2.727   2.202  -2.360  0.00  0.00     0.062 H 
ATOM     24  H   LIG d   1       4.086   1.270  -0.575  0.00  0.00     0.062 H 
ATOM     25  H   LIG d   1       5.637  -0.612  -0.972  0.00  0.00     0.064 H 
ATOM     26  H   LIG d   1       3.005  -0.599  -6.640  0.00  0.00     0.034 H 
ATOM     27  H   LIG d   1       4.555   0.101  -7.168  0.00  0.00     0.034 H 
ATOM     28  H   LIG d   1       6.718  -2.947 -10.289  0.00  0.00     0.058 H 
ATOM     29  H   LIG d   1       7.016  -1.230  -9.951  0.00  0.00     0.058 H 
ENDROOT
BRANCH  19  30
ATOM     30  N   LIG d   1       4.612  -1.550 -11.224  0.00  0.00    -0.139 N 
ATOM     31  C   LIG d   1       4.403  -0.280 -11.626  0.00  0.00     0.305 C 
ATOM     32  O   LIG d   1       4.051  -0.053 -12.768  0.00  0.00    -0.265 OA
ATOM     33  C   LIG d   1       4.428  -2.568 -12.086  0.00  0.00     0.305 C 
ATOM     34  O   LIG d   1       4.075  -2.343 -13.228  0.00  0.00    -0.265 OA
BRANCH  31  35
ATOM     35  C   LIG d   1       4.602   0.828 -10.687  0.00  0.00     0.191 A 
ATOM     36  O   LIG d   1       5.767   1.166 -10.095  0.00  0.00    -0.458 OA
ATOM     37  C   LIG d   1       5.572   2.230  -9.305  0.00  0.00     0.093 A 
ATOM     38  C   LIG d   1       4.270   2.589  -9.373  0.00  0.00    -0.023 A 
ATOM     39  H   LIG d   1       6.328   2.718  -8.709  0.00  0.00     0.103 H 
ATOM     40  C   LIG d   1       3.641   1.697 -10.255  0.00  0.00    -0.011 A 
ATOM     41  H   LIG d   1       3.802   3.407  -8.846  0.00  0.00     0.065 H 
ATOM     42  H   LIG d   1       2.599   1.698 -10.539  0.00  0.00     0.066 H 
ENDBRANCH  31  35
BRANCH  33  43
ATOM     43  C   LIG d   1       4.654  -3.948 -11.648  0.00  0.00     0.191 A 
ATOM     44  O   LIG d   1       3.824  -4.681 -10.876  0.00  0.00    -0.458 OA
ATOM     45  C   LIG d   1       4.354  -5.895 -10.682  0.00  0.00     0.093 A 
ATOM     46  C   LIG d   1       5.543  -5.959 -11.324  0.00  0.00    -0.023 A 
ATOM     47  H   LIG d   1       3.908  -6.692 -10.105  0.00  0.00     0.103 H 
ATOM     48  C   LIG d   1       5.744  -4.717 -11.945  0.00  0.00    -0.011 A 
ATOM     49  H   LIG d   1       6.212  -6.806 -11.352  0.00  0.00     0.065 H 
ATOM     50  H   LIG d   1       6.595  -4.426 -12.543  0.00  0.00     0.066 H 
ENDBRANCH  33  43
ENDBRANCH  19  30
BRANCH   1  51
ATOM     51  C   LIG d   1       5.594  -4.246  -5.624  0.00  0.00    -0.038 C 
ATOM     52  H   LIG d   1       6.335  -4.997  -5.902  0.00  0.00     0.025 H 
ATOM     53  H   LIG d   1       5.368  -4.335  -4.562  0.00  0.00     0.025 H 
ATOM     54  H   LIG d   1       4.684  -4.402  -6.204  0.00  0.00     0.025 H 
ENDBRANCH   1  51
BRANCH   1  55
ATOM     55  C   LIG d   1       7.674  -2.857  -5.779  0.00  0.00    -0.038 C 
ATOM     56  H   LIG d   1       7.970  -2.218  -4.947  0.00  0.00     0.025 H 
ATOM     57  H   LIG d   1       8.017  -3.876  -5.595  0.00  0.00     0.025 H 
ATOM     58  H   LIG d   1       8.121  -2.484  -6.701  0.00  0.00     0.025 H 
ENDBRANCH   1  55
TORSDOF 5
ENDMDL
MODEL 6
REMARK VINA RESULT:      -6.9      2.889      7.647
REMARK  5 active torsions:
REMARK  status: ('A' for Active; 'I' for Inactive)
REMARK    1  A    between atoms: C_1  and  C_2 
REMARK    2  A    between atoms: C_2  and  C_38 
REMARK    3  A    between atoms: N_20  and  N_23 
REMARK       I    between atoms: N_23  and  C_24 
REMARK       I    between atoms: N_23  and  C_31 
REMARK    4  A    between atoms: C_24  and  C_26 
REMARK    5  A    between atoms: C_31  and  C_33 
ROOT
ATOM      1  C   LIG d   1       6.035  -4.052  -7.669  0.00  0.00     0.073 C 
ATOM      2  C   LIG d   1       4.768  -3.853  -8.468  0.00  0.00     0.044 A 
ATOM      3  C   LIG d   1       4.071  -2.696  -8.487  0.00  0.00    -0.015 A 
ATOM      4  C   LIG d   1       2.934  -2.899  -9.362  0.00  0.00     0.003 A 
ATOM      5  C   LIG d   1       1.885  -2.068  -9.761  0.00  0.00    -0.052 A 
ATOM      6  C   LIG d   1       0.958  -2.604 -10.620  0.00  0.00    -0.061 A 
ATOM      7  C   LIG d   1       1.049  -3.909 -11.077  0.00  0.00    -0.060 A 
ATOM      8  C   LIG d   1       2.077  -4.755 -10.699  0.00  0.00    -0.038 A 
ATOM      9  C   LIG d   1       3.033  -4.236  -9.828  0.00  0.00     0.047 A 
ATOM     10  N   LIG d   1       4.152  -4.780  -9.267  0.00  0.00    -0.356 N 
ATOM     11  H   LIG d   1       4.464  -5.687  -9.412  0.00  0.00     0.166 HD
ATOM     12  C   LIG d   1       4.448  -1.456  -7.717  0.00  0.00     0.002 C 
ATOM     13  C   LIG d   1       5.913  -1.565  -7.288  0.00  0.00     0.109 A 
ATOM     14  H   LIG d   1       6.533  -1.423  -8.173  0.00  0.00     0.060 H 
ATOM     15  N   LIG d   1       6.164  -2.902  -6.750  0.00  0.00    -0.278 N 
ATOM     16  C   LIG d   1       6.493  -3.125  -5.476  0.00  0.00     0.236 A 
ATOM     17  O   LIG d   1       6.606  -4.277  -5.114  0.00  0.00    -0.274 OA
ATOM     18  C   LIG d   1       6.730  -2.051  -4.465  0.00  0.00     0.111 A 
ATOM     19  N   LIG d   1       6.593  -0.722  -5.036  0.00  0.00    -0.200 N 
ATOM     20  C   LIG d   1       6.233  -0.493  -6.298  0.00  0.00     0.254 A 
ATOM     21  O   LIG d   1       6.156   0.661  -6.665  0.00  0.00    -0.272 OA
ATOM     22  H   LIG d   1       1.805  -1.049  -9.410  0.00  0.00     0.062 H 
ATOM     23  H   LIG d   1       0.133  -1.991 -10.950  0.00  0.00     0.062 H 
ATOM     24  H   LIG d   1       0.290  -4.279 -11.751  0.00  0.00     0.062 H 
ATOM     25  H   LIG d   1       2.136  -5.770 -11.064  0.00  0.00     0.064 H 
ATOM     26  H   LIG d   1       4.315  -0.579  -8.351  0.00  0.00     0.034 H 
ATOM     27  H   LIG d   1       3.815  -1.368  -6.835  0.00  0.00     0.034 H 
ATOM     28  H   LIG d   1       7.737  -2.161  -4.062  0.00  0.00     0.058 H 
ATOM     29  H   LIG d   1       6.010  -2.164  -3.654  0.00  0.00     0.058 H 
ENDROOT
BRANCH  19  30
ATOM     30  N   LIG d   1       6.854   0.381  -4.213  0.00  0.00    -0.139 N 
ATOM     31  C   LIG d   1       8.081   0.938  -4.202  0.00  0.00     0.305 C 
ATOM     32  O   LIG d   1       8.309   1.896  -3.488  0.00  0.00    -0.265 OA
ATOM     33  C   LIG d   1       5.879   0.884  -3.431  0.00  0.00     0.305 C 
ATOM     34  O   LIG d   1       6.106   1.841  -2.715  0.00  0.00    -0.265 OA
BRANCH  31  35
ATOM     35  C   LIG d   1       9.142   0.390  -5.053  0.00  0.00     0.191 A 
ATOM     36  O   LIG d   1       9.817  -0.757  -4.837  0.00  0.00    -0.458 OA
ATOM     37  C   LIG d   1      10.709  -0.940  -5.820  0.00  0.00     0.093 A 
ATOM     38  C   LIG d   1      10.624   0.098  -6.682  0.00  0.00    -0.023 A 
ATOM     39  H   LIG d   1      11.387  -1.775  -5.908  0.00  0.00     0.103 H 
ATOM     40  C   LIG d   1       9.624   0.955  -6.200  0.00  0.00    -0.011 A 
ATOM     41  H   LIG d   1      11.216   0.242  -7.574  0.00  0.00     0.065 H 
ATOM     42  H   LIG d   1       9.297   1.882  -6.647  0.00  0.00     0.066 H 
ENDBRANCH  31  35
BRANCH  33  43
ATOM     43  C   LIG d   1       4.545   0.277  -3.441  0.00  0.00     0.191 A 
ATOM     44  O   LIG d   1       3.598   0.461  -4.385  0.00  0.00    -0.458 OA
ATOM     45  C   LIG d   1       2.510  -0.252  -4.067  0.00  0.00     0.093 A 
ATOM     46  C   LIG d   1       2.740  -0.901  -2.903  0.00  0.00    -0.023 A 
ATOM     47  H   LIG d   1       1.597  -0.297  -4.642  0.00  0.00     0.103 H 
ATOM     48  C   LIG d   1       4.040  -0.569  -2.495  0.00  0.00    -0.011 A 
ATOM     49  H   LIG d   1       2.051  -1.552  -2.385  0.00  0.00     0.065 H 
ATOM     50  H   LIG d   1       4.544  -0.915  -1.605  0.00  0.00     0.066 H 
ENDBRANCH  33  43
ENDBRANCH  19  30
BRANCH   1  51
ATOM     51  C   LIG d   1       7.241  -4.102  -8.610  0.00  0.00    -0.038 C 
ATOM     52  H   LIG d   1       7.513  -5.141  -8.797  0.00  0.00     0.025 H 
ATOM     53  H   LIG d   1       6.985  -3.619  -9.554  0.00  0.00     0.025 H 
ATOM     54  H   LIG d   1       8.081  -3.583  -8.151  0.00  0.00     0.025 H 
ENDBRANCH   1  51
BRANCH   1  55
ATOM     55  C   LIG d   1       5.945  -5.352  -6.866  0.00  0.00    -0.038 C 
ATOM     56  H   LIG d   1       6.314  -5.180  -5.855  0.00  0.00     0.025 H 
ATOM     57  H   LIG d   1       4.907  -5.681  -6.824  0.00  0.00     0.025 H 
ATOM     58  H   LIG d   1       6.550  -6.120  -7.350  0.00  0.00     0.025 H 
ENDBRANCH   1  55
TORSDOF 5
ENDMDL
MODEL 7
REMARK VINA RESULT:      -6.8      3.773      6.251
REMARK  5 active torsions:
REMARK  status: ('A' for Active; 'I' for Inactive)
REMARK    1  A    between atoms: C_1  and  C_2 
REMARK    2  A    between atoms: C_2  and  C_38 
REMARK    3  A    between atoms: N_20  and  N_23 
REMARK       I    between atoms: N_23  and  C_24 
REMARK       I    between atoms: N_23  and  C_31 
REMARK    4  A    between atoms: C_24  and  C_26 
REMARK    5  A    between atoms: C_31  and  C_33 
ROOT
ATOM      1  C   LIG d   1       7.758  -3.018  -4.736  0.00  0.00     0.073 C 
ATOM      2  C   LIG d   1       6.818  -1.957  -4.212  0.00  0.00     0.044 A 
ATOM      3  C   LIG d   1       5.473  -2.085  -4.215  0.00  0.00    -0.015 A 
ATOM      4  C   LIG d   1       4.931  -0.873  -3.635  0.00  0.00     0.003 A 
ATOM      5  C   LIG d   1       3.625  -0.446  -3.381  0.00  0.00    -0.052 A 
ATOM      6  C   LIG d   1       3.477   0.794  -2.808  0.00  0.00    -0.061 A 
ATOM      7  C   LIG d   1       4.564   1.592  -2.493  0.00  0.00    -0.060 A 
ATOM      8  C   LIG d   1       5.868   1.195  -2.732  0.00  0.00    -0.038 A 
ATOM      9  C   LIG d   1       6.049  -0.059  -3.312  0.00  0.00     0.047 A 
ATOM     10  N   LIG d   1       7.170  -0.747  -3.675  0.00  0.00    -0.356 N 
ATOM     11  H   LIG d   1       8.080  -0.427  -3.570  0.00  0.00     0.166 HD
ATOM     12  C   LIG d   1       4.727  -3.285  -4.740  0.00  0.00     0.002 C 
ATOM     13  C   LIG d   1       5.698  -4.463  -4.851  0.00  0.00     0.109 A 
ATOM     14  H   LIG d   1       5.916  -4.813  -3.843  0.00  0.00     0.060 H 
ATOM     15  N   LIG d   1       6.944  -4.009  -5.470  0.00  0.00    -0.278 N 
ATOM     16  C   LIG d   1       7.366  -4.442  -6.660  0.00  0.00     0.236 A 
ATOM     17  O   LIG d   1       8.375  -3.946  -7.116  0.00  0.00    -0.274 OA
ATOM     18  C   LIG d   1       6.680  -5.495  -7.468  0.00  0.00     0.111 A 
ATOM     19  N   LIG d   1       5.507  -6.023  -6.793  0.00  0.00    -0.200 N 
ATOM     20  C   LIG d   1       5.061  -5.574  -5.621  0.00  0.00     0.254 A 
ATOM     21  O   LIG d   1       4.072  -6.097  -5.152  0.00  0.00    -0.272 OA
ATOM     22  H   LIG d   1       2.772  -1.061  -3.624  0.00  0.00     0.062 H 
ATOM     23  H   LIG d   1       2.482   1.157  -2.598  0.00  0.00     0.062 H 
ATOM     24  H   LIG d   1       4.388   2.559  -2.045  0.00  0.00     0.062 H 
ATOM     25  H   LIG d   1       6.707   1.827  -2.481  0.00  0.00     0.064 H 
ATOM     26  H   LIG d   1       3.918  -3.540  -4.055  0.00  0.00     0.034 H 
ATOM     27  H   LIG d   1       4.315  -3.056  -5.722  0.00  0.00     0.034 H 
ATOM     28  H   LIG d   1       7.380  -6.310  -7.653  0.00  0.00     0.058 H 
ATOM     29  H   LIG d   1       6.376  -5.064  -8.423  0.00  0.00     0.058 H 
ENDROOT
BRANCH  19  30
ATOM     30  N   LIG d   1       4.805  -7.066  -7.411  0.00  0.00    -0.139 N 
ATOM     31  C   LIG d   1       3.955  -6.800  -8.423  0.00  0.00     0.305 C 
ATOM     32  O   LIG d   1       3.345  -7.705  -8.961  0.00  0.00    -0.265 OA
ATOM     33  C   LIG d   1       4.977  -8.335  -6.993  0.00  0.00     0.305 C 
ATOM     34  O   LIG d   1       4.366  -9.241  -7.529  0.00  0.00    -0.265 OA
BRANCH  31  35
ATOM     35  C   LIG d   1       3.768  -5.419  -8.879  0.00  0.00     0.191 A 
ATOM     36  O   LIG d   1       3.259  -4.406  -8.147  0.00  0.00    -0.458 OA
ATOM     37  C   LIG d   1       3.240  -3.289  -8.887  0.00  0.00     0.093 A 
ATOM     38  C   LIG d   1       3.732  -3.573 -10.114  0.00  0.00    -0.023 A 
ATOM     39  H   LIG d   1       2.887  -2.323  -8.560  0.00  0.00     0.103 H 
ATOM     40  C   LIG d   1       4.073  -4.934 -10.119  0.00  0.00    -0.011 A 
ATOM     41  H   LIG d   1       3.841  -2.882 -10.937  0.00  0.00     0.065 H 
ATOM     42  H   LIG d   1       4.494  -5.491 -10.943  0.00  0.00     0.066 H 
ENDBRANCH  31  35
BRANCH  33  43
ATOM     43  C   LIG d   1       5.899  -8.625  -5.891  0.00  0.00     0.191 A 
ATOM     44  O   LIG d   1       7.241  -8.488  -5.924  0.00  0.00    -0.458 OA
ATOM     45  C   LIG d   1       7.753  -8.842  -4.738  0.00  0.00     0.093 A 
ATOM     46  C   LIG d   1       6.742  -9.222  -3.924  0.00  0.00    -0.023 A 
ATOM     47  H   LIG d   1       8.800  -8.830  -4.476  0.00  0.00     0.103 H 
ATOM     48  C   LIG d   1       5.551  -9.087  -4.654  0.00  0.00    -0.011 A 
ATOM     49  H   LIG d   1       6.834  -9.566  -2.905  0.00  0.00     0.065 H 
ATOM     50  H   LIG d   1       4.553  -9.305  -4.303  0.00  0.00     0.066 H 
ENDBRANCH  33  43
ENDBRANCH  19  30
BRANCH   1  51
ATOM     51  C   LIG d   1       8.476  -3.699  -3.568  0.00  0.00    -0.038 C 
ATOM     52  H   LIG d   1       8.402  -4.782  -3.677  0.00  0.00     0.025 H 
ATOM     53  H   LIG d   1       9.526  -3.406  -3.568  0.00  0.00     0.025 H 
ATOM     54  H   LIG d   1       8.013  -3.395  -2.630  0.00  0.00     0.025 H 
ENDBRANCH   1  51
BRANCH   1  55
ATOM     55  C   LIG d   1       8.783  -2.386  -5.681  0.00  0.00    -0.038 C 
ATOM     56  H   LIG d   1       8.796  -1.306  -5.532  0.00  0.00     0.025 H 
ATOM     57  H   LIG d   1       9.772  -2.795  -5.470  0.00  0.00     0.025 H 
ATOM     58  H   LIG d   1       8.511  -2.608  -6.713  0.00  0.00     0.025 H 
ENDBRANCH   1  55
TORSDOF 5
ENDMDL
MODEL 8
REMARK VINA RESULT:      -6.8      3.818      6.542
REMARK  5 active torsions:
REMARK  status: ('A' for Active; 'I' for Inactive)
REMARK    1  A    between atoms: C_1  and  C_2 
REMARK    2  A    between atoms: C_2  and  C_38 
REMARK    3  A    between atoms: N_20  and  N_23 
REMARK       I    between atoms: N_23  and  C_24 
REMARK       I    between atoms: N_23  and  C_31 
REMARK    4  A    between atoms: C_24  and  C_26 
REMARK    5  A    between atoms: C_31  and  C_33 
ROOT
ATOM      1  C   LIG d   1       7.756  -3.000  -4.683  0.00  0.00     0.073 C 
ATOM      2  C   LIG d   1       6.791  -1.963  -4.155  0.00  0.00     0.044 A 
ATOM      3  C   LIG d   1       5.449  -2.120  -4.166  0.00  0.00    -0.015 A 
ATOM      4  C   LIG d   1       4.878  -0.925  -3.578  0.00  0.00     0.003 A 
ATOM      5  C   LIG d   1       3.562  -0.528  -3.328  0.00  0.00    -0.052 A 
ATOM      6  C   LIG d   1       3.384   0.703  -2.745  0.00  0.00    -0.061 A 
ATOM      7  C   LIG d   1       4.452   1.521  -2.417  0.00  0.00    -0.060 A 
ATOM      8  C   LIG d   1       5.766   1.154  -2.653  0.00  0.00    -0.038 A 
ATOM      9  C   LIG d   1       5.976  -0.091  -3.243  0.00  0.00     0.047 A 
ATOM     10  N   LIG d   1       7.114  -0.751  -3.606  0.00  0.00    -0.356 N 
ATOM     11  H   LIG d   1       8.016  -0.412  -3.492  0.00  0.00     0.166 HD
ATOM     12  C   LIG d   1       4.731  -3.330  -4.705  0.00  0.00     0.002 C 
ATOM     13  C   LIG d   1       5.727  -4.487  -4.822  0.00  0.00     0.109 A 
ATOM     14  H   LIG d   1       5.948  -4.841  -3.816  0.00  0.00     0.060 H 
ATOM     15  N   LIG d   1       6.967  -4.001  -5.430  0.00  0.00    -0.278 N 
ATOM     16  C   LIG d   1       7.405  -4.414  -6.622  0.00  0.00     0.236 A 
ATOM     17  O   LIG d   1       8.405  -3.893  -7.068  0.00  0.00    -0.274 OA
ATOM     18  C   LIG d   1       6.745  -5.474  -7.442  0.00  0.00     0.111 A 
ATOM     19  N   LIG d   1       5.580  -6.034  -6.779  0.00  0.00    -0.200 N 
ATOM     20  C   LIG d   1       5.119  -5.604  -5.605  0.00  0.00     0.254 A 
ATOM     21  O   LIG d   1       4.139  -6.152  -5.146  0.00  0.00    -0.272 OA
ATOM     22  H   LIG d   1       2.723  -1.159  -3.581  0.00  0.00     0.062 H 
ATOM     23  H   LIG d   1       2.381   1.043  -2.537  0.00  0.00     0.062 H 
ATOM     24  H   LIG d   1       4.253   2.481  -1.961  0.00  0.00     0.062 H 
ATOM     25  H   LIG d   1       6.589   1.802  -2.391  0.00  0.00     0.064 H 
ATOM     26  H   LIG d   1       3.924  -3.609  -4.027  0.00  0.00     0.034 H 
ATOM     27  H   LIG d   1       4.320  -3.102  -5.688  0.00  0.00     0.034 H 
ATOM     28  H   LIG d   1       7.463  -6.273  -7.631  0.00  0.00     0.058 H 
ATOM     29  H   LIG d   1       6.437  -5.042  -8.395  0.00  0.00     0.058 H 
ENDROOT
BRANCH  19  30
ATOM     30  N   LIG d   1       4.903  -7.086  -7.409  0.00  0.00    -0.139 N 
ATOM     31  C   LIG d   1       5.095  -8.354  -6.995  0.00  0.00     0.305 C 
ATOM     32  O   LIG d   1       4.507  -9.268  -7.542  0.00  0.00    -0.265 OA
ATOM     33  C   LIG d   1       4.063  -6.830  -8.431  0.00  0.00     0.305 C 
ATOM     34  O   LIG d   1       3.475  -7.744  -8.979  0.00  0.00    -0.265 OA
BRANCH  31  35
ATOM     35  C   LIG d   1       6.010  -8.632  -5.884  0.00  0.00     0.191 A 
ATOM     36  O   LIG d   1       7.352  -8.498  -5.910  0.00  0.00    -0.458 OA
ATOM     37  C   LIG d   1       7.856  -8.838  -4.717  0.00  0.00     0.093 A 
ATOM     38  C   LIG d   1       6.840  -9.206  -3.905  0.00  0.00    -0.023 A 
ATOM     39  H   LIG d   1       8.902  -8.826  -4.449  0.00  0.00     0.103 H 
ATOM     40  C   LIG d   1       5.654  -9.078  -4.643  0.00  0.00    -0.011 A 
ATOM     41  H   LIG d   1       6.926  -9.539  -2.881  0.00  0.00     0.065 H 
ATOM     42  H   LIG d   1       4.653  -9.290  -4.297  0.00  0.00     0.066 H 
ENDBRANCH  31  35
BRANCH  33  43
ATOM     43  C   LIG d   1       3.856  -5.452  -8.882  0.00  0.00     0.191 A 
ATOM     44  O   LIG d   1       3.284  -4.461  -8.166  0.00  0.00    -0.458 OA
ATOM     45  C   LIG d   1       3.266  -3.339  -8.897  0.00  0.00     0.093 A 
ATOM     46  C   LIG d   1       3.822  -3.595 -10.103  0.00  0.00    -0.023 A 
ATOM     47  H   LIG d   1       2.870  -2.386  -8.578  0.00  0.00     0.103 H 
ATOM     48  C   LIG d   1       4.202  -4.946 -10.103  0.00  0.00    -0.011 A 
ATOM     49  H   LIG d   1       3.948  -2.893 -10.914  0.00  0.00     0.065 H 
ATOM     50  H   LIG d   1       4.678  -5.481 -10.911  0.00  0.00     0.066 H 
ENDBRANCH  33  43
ENDBRANCH  19  30
BRANCH   1  51
ATOM     51  C   LIG d   1       8.482  -3.675  -3.518  0.00  0.00    -0.038 C 
ATOM     52  H   LIG d   1       8.431  -4.758  -3.636  0.00  0.00     0.025 H 
ATOM     53  H   LIG d   1       9.526  -3.360  -3.509  0.00  0.00     0.025 H 
ATOM     54  H   LIG d   1       8.008  -3.389  -2.579  0.00  0.00     0.025 H 
ENDBRANCH   1  51
BRANCH   1  55
ATOM     55  C   LIG d   1       8.772  -2.337  -5.617  0.00  0.00    -0.038 C 
ATOM     56  H   LIG d   1       8.761  -1.259  -5.458  0.00  0.00     0.025 H 
ATOM     57  H   LIG d   1       9.768  -2.727  -5.404  0.00  0.00     0.025 H 
ATOM     58  H   LIG d   1       8.510  -2.556  -6.652  0.00  0.00     0.025 H 
ENDBRANCH   1  55
TORSDOF 5
ENDMDL
MODEL 9
REMARK VINA RESULT:      -6.8      3.128      7.022
REMARK  5 active torsions:
REMARK  status: ('A' for Active; 'I' for Inactive)
REMARK    1  A    between atoms: C_1  and  C_2 
REMARK    2  A    between atoms: C_2  and  C_38 
REMARK    3  A    between atoms: N_20  and  N_23 
REMARK       I    between atoms: N_23  and  C_24 
REMARK       I    between atoms: N_23  and  C_31 
REMARK    4  A    between atoms: C_24  and  C_26 
REMARK    5  A    between atoms: C_31  and  C_33 
ROOT
ATOM      1  C   LIG d   1       5.363  -3.814  -8.208  0.00  0.00     0.073 C 
ATOM      2  C   LIG d   1       4.215  -3.325  -9.060  0.00  0.00     0.044 A 
ATOM      3  C   LIG d   1       3.751  -2.056  -9.029  0.00  0.00    -0.015 A 
ATOM      4  C   LIG d   1       2.660  -1.980  -9.980  0.00  0.00     0.003 A 
ATOM      5  C   LIG d   1       1.817  -0.938 -10.373  0.00  0.00    -0.052 A 
ATOM      6  C   LIG d   1       0.868  -1.230 -11.322  0.00  0.00    -0.061 A 
ATOM      7  C   LIG d   1       0.744  -2.496 -11.871  0.00  0.00    -0.060 A 
ATOM      8  C   LIG d   1       1.566  -3.546 -11.502  0.00  0.00    -0.038 A 
ATOM      9  C   LIG d   1       2.539  -3.278 -10.541  0.00  0.00     0.047 A 
ATOM     10  N   LIG d   1       3.493  -4.063  -9.961  0.00  0.00    -0.356 N 
ATOM     11  H   LIG d   1       3.639  -5.001 -10.157  0.00  0.00     0.166 HD
ATOM     12  C   LIG d   1       4.299  -0.964  -8.147  0.00  0.00     0.002 C 
ATOM     13  C   LIG d   1       5.685  -1.380  -7.646  0.00  0.00     0.109 A 
ATOM     14  H   LIG d   1       6.380  -1.303  -8.481  0.00  0.00     0.060 H 
ATOM     15  N   LIG d   1       5.641  -2.772  -7.198  0.00  0.00    -0.278 N 
ATOM     16  C   LIG d   1       5.832  -3.136  -5.927  0.00  0.00     0.236 A 
ATOM     17  O   LIG d   1       5.701  -4.309  -5.649  0.00  0.00    -0.274 OA
ATOM     18  C   LIG d   1       6.195  -2.194  -4.826  0.00  0.00     0.111 A 
ATOM     19  N   LIG d   1       6.351  -0.830  -5.301  0.00  0.00    -0.200 N 
ATOM     20  C   LIG d   1       6.130  -0.455  -6.560  0.00  0.00     0.254 A 
ATOM     21  O   LIG d   1       6.297   0.713  -6.841  0.00  0.00    -0.272 OA
ATOM     22  H   LIG d   1       1.906   0.052  -9.950  0.00  0.00     0.062 H 
ATOM     23  H   LIG d   1       0.198  -0.450 -11.650  0.00  0.00     0.062 H 
ATOM     24  H   LIG d   1      -0.021  -2.669 -12.614  0.00  0.00     0.062 H 
ATOM     25  H   LIG d   1       1.459  -4.529 -11.939  0.00  0.00     0.064 H 
ATOM     26  H   LIG d   1       4.379  -0.039  -8.719  0.00  0.00     0.034 H 
ATOM     27  H   LIG d   1       3.634  -0.813  -7.298  0.00  0.00     0.034 H 
ATOM     28  H   LIG d   1       7.133  -2.522  -4.376  0.00  0.00     0.058 H 
ATOM     29  H   LIG d   1       5.412  -2.219  -4.068  0.00  0.00     0.058 H 
ENDROOT
BRANCH  19  30
ATOM     30  N   LIG d   1       6.756   0.147  -4.382  0.00  0.00    -0.139 N 
ATOM     31  C   LIG d   1       5.852   0.713  -3.558  0.00  0.00     0.305 C 
ATOM     32  O   LIG d   1       6.203   1.561  -2.760  0.00  0.00    -0.265 OA
ATOM     33  C   LIG d   1       8.049   0.521  -4.323  0.00  0.00     0.305 C 
ATOM     34  O   LIG d   1       8.401   1.369  -3.525  0.00  0.00    -0.265 OA
BRANCH  31  35
ATOM     35  C   LIG d   1       4.445   0.307  -3.623  0.00  0.00     0.191 A 
ATOM     36  O   LIG d   1       3.567   0.643  -4.590  0.00  0.00    -0.458 OA
ATOM     37  C   LIG d   1       2.377   0.090  -4.322  0.00  0.00     0.093 A 
ATOM     38  C   LIG d   1       2.472  -0.608  -3.168  0.00  0.00    -0.023 A 
ATOM     39  H   LIG d   1       1.486   0.188  -4.925  0.00  0.00     0.103 H 
ATOM     40  C   LIG d   1       3.792  -0.475  -2.713  0.00  0.00    -0.011 A 
ATOM     41  H   LIG d   1       1.680  -1.162  -2.686  0.00  0.00     0.065 H 
ATOM     42  H   LIG d   1       4.212  -0.908  -1.817  0.00  0.00     0.066 H 
ENDBRANCH  31  35
BRANCH  33  43
ATOM     43  C   LIG d   1       9.032  -0.094  -5.219  0.00  0.00     0.191 A 
ATOM     44  O   LIG d   1       9.501  -1.357  -5.135  0.00  0.00    -0.458 OA
ATOM     45  C   LIG d   1      10.381  -1.571  -6.121  0.00  0.00     0.093 A 
ATOM     46  C   LIG d   1      10.498  -0.440  -6.852  0.00  0.00    -0.023 A 
ATOM     47  H   LIG d   1      10.914  -2.493  -6.300  0.00  0.00     0.103 H 
ATOM     48  C   LIG d   1       9.638   0.511  -6.283  0.00  0.00    -0.011 A 
ATOM     49  H   LIG d   1      11.134  -0.295  -7.713  0.00  0.00     0.065 H 
ATOM     50  H   LIG d   1       9.485   1.526  -6.621  0.00  0.00     0.066 H 
ENDBRANCH  33  43
ENDBRANCH  19  30
BRANCH   1  51
ATOM     51  C   LIG d   1       6.601  -4.035  -9.080  0.00  0.00    -0.038 C 
ATOM     52  H   LIG d   1       7.233  -3.148  -9.046  0.00  0.00     0.025 H 
ATOM     53  H   LIG d   1       7.159  -4.894  -8.707  0.00  0.00     0.025 H 
ATOM     54  H   LIG d   1       6.292  -4.222 -10.109  0.00  0.00     0.025 H 
ENDBRANCH   1  51
BRANCH   1  55
ATOM     55  C   LIG d   1       4.975  -5.121  -7.513  0.00  0.00    -0.038 C 
ATOM     56  H   LIG d   1       5.323  -5.966  -8.108  0.00  0.00     0.025 H 
ATOM     57  H   LIG d   1       5.434  -5.157  -6.525  0.00  0.00     0.025 H 
ATOM     58  H   LIG d   1       3.890  -5.170  -7.411  0.00  0.00     0.025 H 
ENDBRANCH   1  55
TORSDOF 5
ENDMDL
