MODEL 1
REMARK VINA RESULT:      -6.7      0.000      0.000
REMARK  14 active torsions:
REMARK  status: ('A' for Active; 'I' for Inactive)
REMARK    1  A    between atoms: C_1  and  O_2 
REMARK    2  A    between atoms: O_2  and  C_3 
REMARK    3  A    between atoms: C_7  and  O_35 
REMARK    4  A    between atoms: C_8  and  C_9 
REMARK    5  A    between atoms: C_9  and  O_11 
REMARK    6  A    between atoms: O_11  and  C_12 
REMARK    7  A    between atoms: C_20  and  C_21 
REMARK    8  A    between atoms: C_23  and  O_31 
REMARK    9  A    between atoms: C_24  and  O_29 
REMARK   10  A    between atoms: C_25  and  O_27 
REMARK   11  A    between atoms: O_27  and  C_28 
REMARK   12  A    between atoms: O_29  and  C_30 
REMARK   13  A    between atoms: O_31  and  C_32 
REMARK   14  A    between atoms: O_35  and  C_36 
ROOT
ATOM      1  C   LIG d   1       7.786   0.754  -6.030  0.00  0.00     0.136 A 
ATOM      2  C   LIG d   1       7.974   1.097  -7.366  0.00  0.00    -0.018 A 
ATOM      3  C   LIG d   1       8.619   2.256  -7.693  0.00  0.00    -0.044 A 
ATOM      4  C   LIG d   1       9.085   3.100  -6.685  0.00  0.00     0.068 A 
ATOM      5  C   LIG d   1       8.907   2.762  -5.335  0.00  0.00     0.143 A 
ATOM      6  C   LIG d   1       8.248   1.580  -5.019  0.00  0.00     0.024 A 
ATOM      7  O   LIG d   1       9.444   3.722  -4.550  0.00  0.00    -0.451 OA
ATOM      8  C   LIG d   1       9.997   4.718  -5.281  0.00  0.00     0.176 A 
ATOM      9  C   LIG d   1      10.616   5.823  -4.791  0.00  0.00    -0.008 C 
ATOM     10  C   LIG d   1       9.809   4.385  -6.700  0.00  0.00     0.232 A 
ATOM     11  O   LIG d   1      10.165   5.029  -7.672  0.00  0.00    -0.283 OA
ATOM     12  H   LIG d   1       7.609   0.445  -8.147  0.00  0.00     0.065 H 
ATOM     13  H   LIG d   1       8.764   2.520  -8.731  0.00  0.00     0.063 H 
ATOM     14  H   LIG d   1       8.096   1.305  -3.985  0.00  0.00     0.069 H 
ATOM     15  H   LIG d   1      11.112   6.507  -5.464  0.00  0.00     0.066 H 
ENDROOT
BRANCH   9  16
ATOM     16  C   LIG d   1      10.609   6.090  -3.349  0.00  0.00    -0.014 A 
ATOM     17  C   LIG d   1      11.641   5.599  -2.539  0.00  0.00    -0.009 A 
ATOM     18  C   LIG d   1      11.630   5.851  -1.181  0.00  0.00     0.166 A 
ATOM     19  H   LIG d   1      12.444   5.023  -2.975  0.00  0.00     0.066 H 
ATOM     20  C   LIG d   1      10.595   6.594  -0.616  0.00  0.00     0.203 A 
ATOM     21  C   LIG d   1       9.567   7.083  -1.418  0.00  0.00     0.166 A 
ATOM     22  C   LIG d   1       9.573   6.839  -2.778  0.00  0.00    -0.009 A 
ATOM     23  H   LIG d   1       8.778   7.224  -3.399  0.00  0.00     0.066 H 
BRANCH  18  24
ATOM     24  O   LIG d   1      12.632   5.375  -0.393  0.00  0.00    -0.491 OA
BRANCH  24  25
ATOM     25  C   LIG d   1      13.971   5.660  -0.803  0.00  0.00     0.079 C 
ATOM     26  H   LIG d   1      14.648   5.510   0.037  0.00  0.00     0.066 H 
ATOM     27  H   LIG d   1      14.250   4.995  -1.620  0.00  0.00     0.066 H 
ATOM     28  H   LIG d   1      14.034   6.695  -1.140  0.00  0.00     0.066 H 
ENDBRANCH  24  25
ENDBRANCH  18  24
BRANCH  20  29
ATOM     29  O   LIG d   1      10.588   6.839   0.721  0.00  0.00    -0.488 OA
BRANCH  29  30
ATOM     30  C   LIG d   1      11.376   7.939   1.182  0.00  0.00     0.079 C 
ATOM     31  H   LIG d   1      11.153   8.130   2.232  0.00  0.00     0.066 H 
ATOM     32  H   LIG d   1      12.434   7.699   1.073  0.00  0.00     0.066 H 
ATOM     33  H   LIG d   1      11.141   8.826   0.593  0.00  0.00     0.066 H 
ENDBRANCH  29  30
ENDBRANCH  20  29
BRANCH  21  34
ATOM     34  O   LIG d   1       8.558   7.808  -0.862  0.00  0.00    -0.491 OA
BRANCH  34  35
ATOM     35  C   LIG d   1       8.674   9.231  -0.920  0.00  0.00     0.079 C 
ATOM     36  H   LIG d   1       7.821   9.685  -0.417  0.00  0.00     0.066 H 
ATOM     37  H   LIG d   1       9.594   9.541  -0.425  0.00  0.00     0.066 H 
ATOM     38  H   LIG d   1       8.696   9.551  -1.961  0.00  0.00     0.066 H 
ENDBRANCH  34  35
ENDBRANCH  21  34
ENDBRANCH   9  16
BRANCH   1  39
ATOM     39  O   LIG d   1       7.144  -0.400  -5.716  0.00  0.00    -0.422 OA
BRANCH  39  40
ATOM     40  C   LIG d   1       5.801  -0.346  -5.612  0.00  0.00     0.352 C 
ATOM     41  O   LIG d   1       5.147   0.207  -6.474  0.00  0.00    -0.244 OA
BRANCH  40  42
ATOM     42  C   LIG d   1       5.127  -0.954  -4.455  0.00  0.00     0.142 A 
ATOM     43  C   LIG d   1       4.905  -2.340  -4.414  0.00  0.00     0.138 A 
ATOM     44  C   LIG d   1       4.274  -2.903  -3.317  0.00  0.00    -0.019 A 
ATOM     45  C   LIG d   1       3.853  -2.103  -2.270  0.00  0.00    -0.055 A 
ATOM     46  H   LIG d   1       4.106  -3.968  -3.282  0.00  0.00     0.065 H 
ATOM     47  C   LIG d   1       4.061  -0.737  -2.302  0.00  0.00    -0.019 A 
ATOM     48  H   LIG d   1       3.357  -2.551  -1.421  0.00  0.00     0.062 H 
ATOM     49  C   LIG d   1       4.696  -0.153  -3.386  0.00  0.00     0.138 A 
ATOM     50  H   LIG d   1       3.728  -0.123  -1.478  0.00  0.00     0.065 H 
BRANCH  43  51
ATOM     51  O   LIG d   1       5.312  -3.124  -5.443  0.00  0.00    -0.494 OA
BRANCH  51  52
ATOM     52  C   LIG d   1       6.396  -4.020  -5.187  0.00  0.00     0.079 C 
ATOM     53  H   LIG d   1       6.878  -4.286  -6.127  0.00  0.00     0.066 H 
ATOM     54  H   LIG d   1       7.120  -3.536  -4.531  0.00  0.00     0.066 H 
ATOM     55  H   LIG d   1       6.016  -4.922  -4.705  0.00  0.00     0.066 H 
ENDBRANCH  51  52
ENDBRANCH  43  51
BRANCH  49  56
ATOM     56  O   LIG d   1       4.898   1.188  -3.415  0.00  0.00    -0.494 OA
BRANCH  56  57
ATOM     57  C   LIG d   1       3.802   2.017  -3.028  0.00  0.00     0.079 C 
ATOM     58  H   LIG d   1       2.896   1.681  -3.532  0.00  0.00     0.066 H 
ATOM     59  H   LIG d   1       3.663   1.956  -1.949  0.00  0.00     0.066 H 
ATOM     60  H   LIG d   1       4.010   3.050  -3.308  0.00  0.00     0.066 H 
ENDBRANCH  56  57
ENDBRANCH  49  56
ENDBRANCH  40  42
ENDBRANCH  39  40
ENDBRANCH   1  39
TORSDOF 14
ENDMDL
MODEL 2
REMARK VINA RESULT:      -6.7      0.378      2.074
REMARK  14 active torsions:
REMARK  status: ('A' for Active; 'I' for Inactive)
REMARK    1  A    between atoms: C_1  and  O_2 
REMARK    2  A    between atoms: O_2  and  C_3 
REMARK    3  A    between atoms: C_7  and  O_35 
REMARK    4  A    between atoms: C_8  and  C_9 
REMARK    5  A    between atoms: C_9  and  O_11 
REMARK    6  A    between atoms: O_11  and  C_12 
REMARK    7  A    between atoms: C_20  and  C_21 
REMARK    8  A    between atoms: C_23  and  O_31 
REMARK    9  A    between atoms: C_24  and  O_29 
REMARK   10  A    between atoms: C_25  and  O_27 
REMARK   11  A    between atoms: O_27  and  C_28 
REMARK   12  A    between atoms: O_29  and  C_30 
REMARK   13  A    between atoms: O_31  and  C_32 
REMARK   14  A    between atoms: O_35  and  C_36 
ROOT
ATOM      1  C   LIG d   1       7.847   0.775  -5.996  0.00  0.00     0.136 A 
ATOM      2  C   LIG d   1       8.028   1.119  -7.333  0.00  0.00    -0.018 A 
ATOM      3  C   LIG d   1       8.656   2.286  -7.662  0.00  0.00    -0.044 A 
ATOM      4  C   LIG d   1       9.114   3.137  -6.656  0.00  0.00     0.068 A 
ATOM      5  C   LIG d   1       8.944   2.798  -5.305  0.00  0.00     0.143 A 
ATOM      6  C   LIG d   1       8.301   1.607  -4.987  0.00  0.00     0.024 A 
ATOM      7  O   LIG d   1       9.470   3.766  -4.522  0.00  0.00    -0.451 OA
ATOM      8  C   LIG d   1      10.009   4.767  -5.256  0.00  0.00     0.176 A 
ATOM      9  C   LIG d   1      10.615   5.881  -4.768  0.00  0.00    -0.008 C 
ATOM     10  C   LIG d   1       9.822   4.431  -6.674  0.00  0.00     0.232 A 
ATOM     11  O   LIG d   1      10.168   5.079  -7.647  0.00  0.00    -0.283 OA
ATOM     12  H   LIG d   1       7.669   0.462  -8.112  0.00  0.00     0.065 H 
ATOM     13  H   LIG d   1       8.796   2.552  -8.700  0.00  0.00     0.063 H 
ATOM     14  H   LIG d   1       8.155   1.331  -3.953  0.00  0.00     0.069 H 
ATOM     15  H   LIG d   1      11.100   6.571  -5.443  0.00  0.00     0.066 H 
ENDROOT
BRANCH   9  16
ATOM     16  C   LIG d   1      10.608   6.149  -3.326  0.00  0.00    -0.014 A 
ATOM     17  C   LIG d   1       9.564   6.888  -2.754  0.00  0.00    -0.009 A 
ATOM     18  C   LIG d   1       9.562   7.138  -1.395  0.00  0.00     0.166 A 
ATOM     19  H   LIG d   1       8.763   7.262  -3.374  0.00  0.00     0.066 H 
ATOM     20  C   LIG d   1      10.595   6.657  -0.594  0.00  0.00     0.203 A 
ATOM     21  C   LIG d   1      11.635   5.923  -1.159  0.00  0.00     0.166 A 
ATOM     22  C   LIG d   1      11.642   5.663  -2.516  0.00  0.00    -0.009 A 
ATOM     23  H   LIG d   1      12.446   5.088  -2.952  0.00  0.00     0.066 H 
BRANCH  18  24
ATOM     24  O   LIG d   1       8.549   7.856  -0.838  0.00  0.00    -0.491 OA
BRANCH  24  25
ATOM     25  C   LIG d   1       8.654   9.280  -0.898  0.00  0.00     0.079 C 
ATOM     26  H   LIG d   1       7.751   9.692  -1.349  0.00  0.00     0.066 H 
ATOM     27  H   LIG d   1       8.772   9.678   0.109  0.00  0.00     0.066 H 
ATOM     28  H   LIG d   1       9.519   9.554  -1.501  0.00  0.00     0.066 H 
ENDBRANCH  24  25
ENDBRANCH  18  24
BRANCH  20  29
ATOM     29  O   LIG d   1      10.589   6.906   0.742  0.00  0.00    -0.488 OA
BRANCH  29  30
ATOM     30  C   LIG d   1      11.376   8.008   1.201  0.00  0.00     0.079 C 
ATOM     31  H   LIG d   1      11.859   7.742   2.141  0.00  0.00     0.066 H 
ATOM     32  H   LIG d   1      12.136   8.246   0.456  0.00  0.00     0.066 H 
ATOM     33  H   LIG d   1      10.733   8.875   1.354  0.00  0.00     0.066 H 
ENDBRANCH  29  30
ENDBRANCH  20  29
BRANCH  21  34
ATOM     34  O   LIG d   1      12.641   5.454  -0.373  0.00  0.00    -0.491 OA
BRANCH  34  35
ATOM     35  C   LIG d   1      13.970   5.858  -0.710  0.00  0.00     0.079 C 
ATOM     36  H   LIG d   1      14.238   5.448  -1.683  0.00  0.00     0.066 H 
ATOM     37  H   LIG d   1      14.020   6.946  -0.747  0.00  0.00     0.066 H 
ATOM     38  H   LIG d   1      14.664   5.488   0.045  0.00  0.00     0.066 H 
ENDBRANCH  34  35
ENDBRANCH  21  34
ENDBRANCH   9  16
BRANCH   1  39
ATOM     39  O   LIG d   1       7.221  -0.387  -5.679  0.00  0.00    -0.422 OA
BRANCH  39  40
ATOM     40  C   LIG d   1       5.875  -0.359  -5.611  0.00  0.00     0.352 C 
ATOM     41  O   LIG d   1       5.233   0.186  -6.488  0.00  0.00    -0.244 OA
BRANCH  40  42
ATOM     42  C   LIG d   1       5.182  -0.986  -4.476  0.00  0.00     0.142 A 
ATOM     43  C   LIG d   1       5.010  -2.379  -4.434  0.00  0.00     0.138 A 
ATOM     44  C   LIG d   1       4.360  -2.959  -3.357  0.00  0.00    -0.019 A 
ATOM     45  C   LIG d   1       3.872  -2.171  -2.331  0.00  0.00    -0.055 A 
ATOM     46  H   LIG d   1       4.230  -4.030  -3.321  0.00  0.00     0.065 H 
ATOM     47  C   LIG d   1       4.031  -0.798  -2.364  0.00  0.00    -0.019 A 
ATOM     48  H   LIG d   1       3.362  -2.632  -1.498  0.00  0.00     0.062 H 
ATOM     49  C   LIG d   1       4.683  -0.196  -3.428  0.00  0.00     0.138 A 
ATOM     50  H   LIG d   1       3.647  -0.192  -1.556  0.00  0.00     0.065 H 
BRANCH  43  51
ATOM     51  O   LIG d   1       5.482  -3.153  -5.443  0.00  0.00    -0.494 OA
BRANCH  51  52
ATOM     52  C   LIG d   1       4.514  -3.747  -6.311  0.00  0.00     0.079 C 
ATOM     53  H   LIG d   1       4.832  -3.629  -7.346  0.00  0.00     0.066 H 
ATOM     54  H   LIG d   1       4.422  -4.809  -6.078  0.00  0.00     0.066 H 
ATOM     55  H   LIG d   1       3.550  -3.259  -6.169  0.00  0.00     0.066 H 
ENDBRANCH  51  52
ENDBRANCH  43  51
BRANCH  49  56
ATOM     56  O   LIG d   1       4.838   1.151  -3.458  0.00  0.00    -0.494 OA
BRANCH  56  57
ATOM     57  C   LIG d   1       3.712   1.941  -3.073  0.00  0.00     0.079 C 
ATOM     58  H   LIG d   1       3.947   2.488  -2.160  0.00  0.00     0.066 H 
ATOM     59  H   LIG d   1       3.474   2.647  -3.869  0.00  0.00     0.066 H 
ATOM     60  H   LIG d   1       2.854   1.292  -2.896  0.00  0.00     0.066 H 
ENDBRANCH  56  57
ENDBRANCH  49  56
ENDBRANCH  40  42
ENDBRANCH  39  40
ENDBRANCH   1  39
TORSDOF 14
ENDMDL
MODEL 3
REMARK VINA RESULT:      -6.7      0.047      2.967
REMARK  14 active torsions:
REMARK  status: ('A' for Active; 'I' for Inactive)
REMARK    1  A    between atoms: C_1  and  O_2 
REMARK    2  A    between atoms: O_2  and  C_3 
REMARK    3  A    between atoms: C_7  and  O_35 
REMARK    4  A    between atoms: C_8  and  C_9 
REMARK    5  A    between atoms: C_9  and  O_11 
REMARK    6  A    between atoms: O_11  and  C_12 
REMARK    7  A    between atoms: C_20  and  C_21 
REMARK    8  A    between atoms: C_23  and  O_31 
REMARK    9  A    between atoms: C_24  and  O_29 
REMARK   10  A    between atoms: C_25  and  O_27 
REMARK   11  A    between atoms: O_27  and  C_28 
REMARK   12  A    between atoms: O_29  and  C_30 
REMARK   13  A    between atoms: O_31  and  C_32 
REMARK   14  A    between atoms: O_35  and  C_36 
ROOT
ATOM      1  C   LIG d   1       7.795   0.745  -6.009  0.00  0.00     0.136 A 
ATOM      2  C   LIG d   1       7.983   1.083  -7.346  0.00  0.00    -0.018 A 
ATOM      3  C   LIG d   1       8.626   2.242  -7.676  0.00  0.00    -0.044 A 
ATOM      4  C   LIG d   1       9.091   3.091  -6.671  0.00  0.00     0.068 A 
ATOM      5  C   LIG d   1       8.912   2.758  -5.320  0.00  0.00     0.143 A 
ATOM      6  C   LIG d   1       8.255   1.575  -5.000  0.00  0.00     0.024 A 
ATOM      7  O   LIG d   1       9.448   3.721  -4.538  0.00  0.00    -0.451 OA
ATOM      8  C   LIG d   1      10.000   4.715  -5.273  0.00  0.00     0.176 A 
ATOM      9  C   LIG d   1      10.617   5.823  -4.787  0.00  0.00    -0.008 C 
ATOM     10  C   LIG d   1       9.813   4.377  -6.691  0.00  0.00     0.232 A 
ATOM     11  O   LIG d   1      10.168   5.018  -7.664  0.00  0.00    -0.283 OA
ATOM     12  H   LIG d   1       7.618   0.429  -8.124  0.00  0.00     0.065 H 
ATOM     13  H   LIG d   1       8.771   2.504  -8.715  0.00  0.00     0.063 H 
ATOM     14  H   LIG d   1       8.104   1.303  -3.966  0.00  0.00     0.069 H 
ATOM     15  H   LIG d   1      11.112   6.505  -5.462  0.00  0.00     0.066 H 
ENDROOT
BRANCH   9  16
ATOM     16  C   LIG d   1      10.609   6.095  -3.345  0.00  0.00    -0.014 A 
ATOM     17  C   LIG d   1       9.562   6.830  -2.774  0.00  0.00    -0.009 A 
ATOM     18  C   LIG d   1       9.558   7.084  -1.417  0.00  0.00     0.166 A 
ATOM     19  H   LIG d   1       8.758   7.198  -3.395  0.00  0.00     0.066 H 
ATOM     20  C   LIG d   1      10.595   6.610  -0.615  0.00  0.00     0.203 A 
ATOM     21  C   LIG d   1      11.638   5.880  -1.178  0.00  0.00     0.166 A 
ATOM     22  C   LIG d   1      11.646   5.616  -2.535  0.00  0.00    -0.009 A 
ATOM     23  H   LIG d   1      12.453   5.045  -2.969  0.00  0.00     0.066 H 
BRANCH  18  24
ATOM     24  O   LIG d   1       8.542   7.797  -0.861  0.00  0.00    -0.491 OA
BRANCH  24  25
ATOM     25  C   LIG d   1       8.636   9.221  -0.931  0.00  0.00     0.079 C 
ATOM     26  H   LIG d   1       7.696   9.630  -1.302  0.00  0.00     0.066 H 
ATOM     27  H   LIG d   1       8.840   9.621   0.062  0.00  0.00     0.066 H 
ATOM     28  H   LIG d   1       9.445   9.499  -1.607  0.00  0.00     0.066 H 
ENDBRANCH  24  25
ENDBRANCH  18  24
BRANCH  20  29
ATOM     29  O   LIG d   1      10.588   6.863   0.721  0.00  0.00    -0.488 OA
BRANCH  29  30
ATOM     30  C   LIG d   1      11.377   7.964   1.177  0.00  0.00     0.079 C 
ATOM     31  H   LIG d   1      11.086   8.866   0.639  0.00  0.00     0.066 H 
ATOM     32  H   LIG d   1      11.214   8.109   2.246  0.00  0.00     0.066 H 
ATOM     33  H   LIG d   1      12.431   7.755   0.995  0.00  0.00     0.066 H 
ENDBRANCH  29  30
ENDBRANCH  20  29
BRANCH  21  34
ATOM     34  O   LIG d   1      12.647   5.419  -0.391  0.00  0.00    -0.491 OA
BRANCH  34  35
ATOM     35  C   LIG d   1      13.968   5.466  -0.935  0.00  0.00     0.079 C 
ATOM     36  H   LIG d   1      14.322   6.496  -0.941  0.00  0.00     0.066 H 
ATOM     37  H   LIG d   1      14.634   4.856  -0.324  0.00  0.00     0.066 H 
ATOM     38  H   LIG d   1      13.955   5.079  -1.954  0.00  0.00     0.066 H 
ENDBRANCH  34  35
ENDBRANCH  21  34
ENDBRANCH   9  16
BRANCH   1  39
ATOM     39  O   LIG d   1       7.154  -0.409  -5.690  0.00  0.00    -0.422 OA
BRANCH  39  40
ATOM     40  C   LIG d   1       5.811  -0.358  -5.593  0.00  0.00     0.352 C 
ATOM     41  O   LIG d   1       5.161   0.197  -6.458  0.00  0.00    -0.244 OA
BRANCH  40  42
ATOM     42  C   LIG d   1       5.132  -0.972  -4.443  0.00  0.00     0.142 A 
ATOM     43  C   LIG d   1       4.697  -0.177  -3.371  0.00  0.00     0.138 A 
ATOM     44  C   LIG d   1       4.054  -0.765  -2.294  0.00  0.00    -0.019 A 
ATOM     45  C   LIG d   1       3.850  -2.133  -2.269  0.00  0.00    -0.055 A 
ATOM     46  H   LIG d   1       3.716  -0.156  -1.471  0.00  0.00     0.065 H 
ATOM     47  C   LIG d   1       4.277  -2.926  -3.317  0.00  0.00    -0.019 A 
ATOM     48  H   LIG d   1       3.352  -2.584  -1.423  0.00  0.00     0.062 H 
ATOM     49  C   LIG d   1       4.918  -2.359  -4.406  0.00  0.00     0.138 A 
ATOM     50  H   LIG d   1       4.112  -3.993  -3.286  0.00  0.00     0.065 H 
BRANCH  43  51
ATOM     51  O   LIG d   1       4.903   1.164  -3.391  0.00  0.00    -0.494 OA
BRANCH  51  52
ATOM     52  C   LIG d   1       3.813   1.994  -2.986  0.00  0.00     0.079 C 
ATOM     53  H   LIG d   1       3.804   2.903  -3.587  0.00  0.00     0.066 H 
ATOM     54  H   LIG d   1       2.875   1.456  -3.128  0.00  0.00     0.066 H 
ATOM     55  H   LIG d   1       3.925   2.254  -1.934  0.00  0.00     0.066 H 
ENDBRANCH  51  52
ENDBRANCH  43  51
BRANCH  49  56
ATOM     56  O   LIG d   1       5.337  -3.140  -5.433  0.00  0.00    -0.494 OA
BRANCH  56  57
ATOM     57  C   LIG d   1       6.423  -4.029  -5.169  0.00  0.00     0.079 C 
ATOM     58  H   LIG d   1       6.975  -3.679  -4.295  0.00  0.00     0.066 H 
ATOM     59  H   LIG d   1       6.036  -5.030  -4.978  0.00  0.00     0.066 H 
ATOM     60  H   LIG d   1       7.090  -4.056  -6.031  0.00  0.00     0.066 H 
ENDBRANCH  56  57
ENDBRANCH  49  56
ENDBRANCH  40  42
ENDBRANCH  39  40
ENDBRANCH   1  39
TORSDOF 14
ENDMDL
MODEL 4
REMARK VINA RESULT:      -6.5      6.059     12.807
REMARK  14 active torsions:
REMARK  status: ('A' for Active; 'I' for Inactive)
REMARK    1  A    between atoms: C_1  and  O_2 
REMARK    2  A    between atoms: O_2  and  C_3 
REMARK    3  A    between atoms: C_7  and  O_35 
REMARK    4  A    between atoms: C_8  and  C_9 
REMARK    5  A    between atoms: C_9  and  O_11 
REMARK    6  A    between atoms: O_11  and  C_12 
REMARK    7  A    between atoms: C_20  and  C_21 
REMARK    8  A    between atoms: C_23  and  O_31 
REMARK    9  A    between atoms: C_24  and  O_29 
REMARK   10  A    between atoms: C_25  and  O_27 
REMARK   11  A    between atoms: O_27  and  C_28 
REMARK   12  A    between atoms: O_29  and  C_30 
REMARK   13  A    between atoms: O_31  and  C_32 
REMARK   14  A    between atoms: O_35  and  C_36 
ROOT
ATOM      1  C   LIG d   1       4.083  -0.008  -7.863  0.00  0.00     0.136 A 
ATOM      2  C   LIG d   1       4.572   0.646  -8.991  0.00  0.00    -0.018 A 
ATOM      3  C   LIG d   1       4.173   0.255 -10.238  0.00  0.00    -0.044 A 
ATOM      4  C   LIG d   1       3.277  -0.805 -10.381  0.00  0.00     0.068 A 
ATOM      5  C   LIG d   1       2.772  -1.467  -9.251  0.00  0.00     0.143 A 
ATOM      6  C   LIG d   1       3.189  -1.058  -7.990  0.00  0.00     0.024 A 
ATOM      7  O   LIG d   1       1.924  -2.446  -9.637  0.00  0.00    -0.451 OA
ATOM      8  C   LIG d   1       1.801  -2.501 -10.984  0.00  0.00     0.176 A 
ATOM      9  C   LIG d   1       1.026  -3.371 -11.683  0.00  0.00    -0.008 C 
ATOM     10  C   LIG d   1       2.657  -1.450 -11.553  0.00  0.00     0.232 A 
ATOM     11  O   LIG d   1       2.822  -1.177 -12.729  0.00  0.00    -0.283 OA
ATOM     12  H   LIG d   1       5.269   1.463  -8.881  0.00  0.00     0.065 H 
ATOM     13  H   LIG d   1       4.553   0.763 -11.112  0.00  0.00     0.063 H 
ATOM     14  H   LIG d   1       2.816  -1.559  -7.108  0.00  0.00     0.069 H 
ATOM     15  H   LIG d   1       0.924  -3.263 -12.752  0.00  0.00     0.066 H 
ENDROOT
BRANCH   9  16
ATOM     16  C   LIG d   1       0.329  -4.457 -10.985  0.00  0.00    -0.014 A 
ATOM     17  C   LIG d   1      -0.989  -4.277 -10.545  0.00  0.00    -0.009 A 
ATOM     18  C   LIG d   1      -1.641  -5.302  -9.888  0.00  0.00     0.166 A 
ATOM     19  H   LIG d   1      -1.494  -3.338 -10.718  0.00  0.00     0.066 H 
ATOM     20  C   LIG d   1      -0.991  -6.513  -9.663  0.00  0.00     0.203 A 
ATOM     21  C   LIG d   1       0.320  -6.696 -10.098  0.00  0.00     0.166 A 
ATOM     22  C   LIG d   1       0.977  -5.678 -10.761  0.00  0.00    -0.009 A 
ATOM     23  H   LIG d   1       1.991  -5.822 -11.103  0.00  0.00     0.066 H 
BRANCH  18  24
ATOM     24  O   LIG d   1      -2.921  -5.129  -9.460  0.00  0.00    -0.491 OA
BRANCH  24  25
ATOM     25  C   LIG d   1      -3.883  -4.730 -10.438  0.00  0.00     0.079 C 
ATOM     26  H   LIG d   1      -3.979  -5.511 -11.193  0.00  0.00     0.066 H 
ATOM     27  H   LIG d   1      -4.847  -4.571  -9.955  0.00  0.00     0.066 H 
ATOM     28  H   LIG d   1      -3.557  -3.804 -10.911  0.00  0.00     0.066 H 
ENDBRANCH  24  25
ENDBRANCH  18  24
BRANCH  20  29
ATOM     29  O   LIG d   1      -1.636  -7.519  -9.015  0.00  0.00    -0.488 OA
BRANCH  29  30
ATOM     30  C   LIG d   1      -2.462  -8.376  -9.807  0.00  0.00     0.079 C 
ATOM     31  H   LIG d   1      -2.693  -7.885 -10.753  0.00  0.00     0.066 H 
ATOM     32  H   LIG d   1      -1.935  -9.310 -10.001  0.00  0.00     0.066 H 
ATOM     33  H   LIG d   1      -3.388  -8.585  -9.271  0.00  0.00     0.066 H 
ENDBRANCH  29  30
ENDBRANCH  20  29
BRANCH  21  34
ATOM     34  O   LIG d   1       0.950  -7.881  -9.877  0.00  0.00    -0.491 OA
BRANCH  34  35
ATOM     35  C   LIG d   1       2.372  -7.896 -10.020  0.00  0.00     0.079 C 
ATOM     36  H   LIG d   1       2.806  -7.091  -9.427  0.00  0.00     0.066 H 
ATOM     37  H   LIG d   1       2.762  -8.853  -9.674  0.00  0.00     0.066 H 
ATOM     38  H   LIG d   1       2.632  -7.756 -11.069  0.00  0.00     0.066 H 
ENDBRANCH  34  35
ENDBRANCH  21  34
ENDBRANCH   9  16
BRANCH   1  39
ATOM     39  O   LIG d   1       4.486   0.388  -6.629  0.00  0.00    -0.422 OA
BRANCH  39  40
ATOM     40  C   LIG d   1       5.274  -0.461  -5.940  0.00  0.00     0.352 C 
ATOM     41  O   LIG d   1       6.241  -0.964  -6.477  0.00  0.00    -0.244 OA
BRANCH  40  42
ATOM     42  C   LIG d   1       4.963  -0.780  -4.539  0.00  0.00     0.142 A 
ATOM     43  C   LIG d   1       5.249   0.145  -3.522  0.00  0.00     0.138 A 
ATOM     44  C   LIG d   1       4.948  -0.164  -2.206  0.00  0.00    -0.019 A 
ATOM     45  C   LIG d   1       4.377  -1.384  -1.891  0.00  0.00    -0.055 A 
ATOM     46  H   LIG d   1       5.163   0.547  -1.423  0.00  0.00     0.065 H 
ATOM     47  C   LIG d   1       4.096  -2.305  -2.882  0.00  0.00    -0.019 A 
ATOM     48  H   LIG d   1       4.150  -1.619  -0.861  0.00  0.00     0.062 H 
ATOM     49  C   LIG d   1       4.383  -2.015  -4.206  0.00  0.00     0.138 A 
ATOM     50  H   LIG d   1       3.650  -3.254  -2.624  0.00  0.00     0.065 H 
BRANCH  43  51
ATOM     51  O   LIG d   1       5.815   1.339  -3.829  0.00  0.00    -0.494 OA
BRANCH  51  52
ATOM     52  C   LIG d   1       7.231   1.445  -3.672  0.00  0.00     0.079 C 
ATOM     53  H   LIG d   1       7.491   2.463  -3.384  0.00  0.00     0.066 H 
ATOM     54  H   LIG d   1       7.564   0.752  -2.898  0.00  0.00     0.066 H 
ATOM     55  H   LIG d   1       7.721   1.198  -4.615  0.00  0.00     0.066 H 
ENDBRANCH  51  52
ENDBRANCH  43  51
BRANCH  49  56
ATOM     56  O   LIG d   1       4.107  -2.921  -5.177  0.00  0.00    -0.494 OA
BRANCH  56  57
ATOM     57  C   LIG d   1       4.928  -4.088  -5.227  0.00  0.00     0.079 C 
ATOM     58  H   LIG d   1       4.412  -4.917  -4.741  0.00  0.00     0.066 H 
ATOM     59  H   LIG d   1       5.132  -4.345  -6.267  0.00  0.00     0.066 H 
ATOM     60  H   LIG d   1       5.869  -3.894  -4.711  0.00  0.00     0.066 H 
ENDBRANCH  56  57
ENDBRANCH  49  56
ENDBRANCH  40  42
ENDBRANCH  39  40
ENDBRANCH   1  39
TORSDOF 14
ENDMDL
MODEL 5
REMARK VINA RESULT:      -6.5      6.025     12.614
REMARK  14 active torsions:
REMARK  status: ('A' for Active; 'I' for Inactive)
REMARK    1  A    between atoms: C_1  and  O_2 
REMARK    2  A    between atoms: O_2  and  C_3 
REMARK    3  A    between atoms: C_7  and  O_35 
REMARK    4  A    between atoms: C_8  and  C_9 
REMARK    5  A    between atoms: C_9  and  O_11 
REMARK    6  A    between atoms: O_11  and  C_12 
REMARK    7  A    between atoms: C_20  and  C_21 
REMARK    8  A    between atoms: C_23  and  O_31 
REMARK    9  A    between atoms: C_24  and  O_29 
REMARK   10  A    between atoms: C_25  and  O_27 
REMARK   11  A    between atoms: O_27  and  C_28 
REMARK   12  A    between atoms: O_29  and  C_30 
REMARK   13  A    between atoms: O_31  and  C_32 
REMARK   14  A    between atoms: O_35  and  C_36 
ROOT
ATOM      1  C   LIG d   1       4.072   0.012  -7.841  0.00  0.00     0.136 A 
ATOM      2  C   LIG d   1       4.527   0.719  -8.951  0.00  0.00    -0.018 A 
ATOM      3  C   LIG d   1       4.135   0.352 -10.206  0.00  0.00    -0.044 A 
ATOM      4  C   LIG d   1       3.279  -0.736 -10.377  0.00  0.00     0.068 A 
ATOM      5  C   LIG d   1       2.808  -1.453  -9.266  0.00  0.00     0.143 A 
ATOM      6  C   LIG d   1       3.218  -1.067  -7.995  0.00  0.00     0.024 A 
ATOM      7  O   LIG d   1       1.995  -2.450  -9.677  0.00  0.00    -0.451 OA
ATOM      8  C   LIG d   1       1.864  -2.468 -11.024  0.00  0.00     0.176 A 
ATOM      9  C   LIG d   1       1.118  -3.345 -11.746  0.00  0.00    -0.008 C 
ATOM     10  C   LIG d   1       2.675  -1.368 -11.565  0.00  0.00     0.232 A 
ATOM     11  O   LIG d   1       2.821  -1.053 -12.733  0.00  0.00    -0.283 OA
ATOM     12  H   LIG d   1       5.194   1.559  -8.819  0.00  0.00     0.065 H 
ATOM     13  H   LIG d   1       4.489   0.902 -11.067  0.00  0.00     0.063 H 
ATOM     14  H   LIG d   1       2.871  -1.609  -7.127  0.00  0.00     0.069 H 
ATOM     15  H   LIG d   1       1.004  -3.208 -12.811  0.00  0.00     0.066 H 
ENDROOT
BRANCH   9  16
ATOM     16  C   LIG d   1       0.468  -4.478 -11.078  0.00  0.00    -0.014 A 
ATOM     17  C   LIG d   1       1.130  -5.709 -10.980  0.00  0.00    -0.009 A 
ATOM     18  C   LIG d   1       0.514  -6.774 -10.352  0.00  0.00     0.166 A 
ATOM     19  H   LIG d   1       2.120  -5.826 -11.397  0.00  0.00     0.066 H 
ATOM     20  C   LIG d   1      -0.763  -6.625  -9.815  0.00  0.00     0.203 A 
ATOM     21  C   LIG d   1      -1.424  -5.404  -9.911  0.00  0.00     0.166 A 
ATOM     22  C   LIG d   1      -0.813  -4.332 -10.533  0.00  0.00    -0.009 A 
ATOM     23  H   LIG d   1      -1.325  -3.383 -10.602  0.00  0.00     0.066 H 
BRANCH  18  24
ATOM     24  O   LIG d   1       1.156  -7.970 -10.256  0.00  0.00    -0.491 OA
BRANCH  24  25
ATOM     25  C   LIG d   1       2.533  -7.938  -9.877  0.00  0.00     0.079 C 
ATOM     26  H   LIG d   1       3.069  -8.739 -10.386  0.00  0.00     0.066 H 
ATOM     27  H   LIG d   1       2.965  -6.977 -10.154  0.00  0.00     0.066 H 
ATOM     28  H   LIG d   1       2.615  -8.075  -8.798  0.00  0.00     0.066 H 
ENDBRANCH  24  25
ENDBRANCH  18  24
BRANCH  20  29
ATOM     29  O   LIG d   1      -1.365  -7.676  -9.198  0.00  0.00    -0.488 OA
BRANCH  29  30
ATOM     30  C   LIG d   1      -2.255  -8.469  -9.987  0.00  0.00     0.079 C 
ATOM     31  H   LIG d   1      -2.412  -9.432  -9.500  0.00  0.00     0.066 H 
ATOM     32  H   LIG d   1      -3.209  -7.952 -10.087  0.00  0.00     0.066 H 
ATOM     33  H   LIG d   1      -1.821  -8.627 -10.975  0.00  0.00     0.066 H 
ENDBRANCH  29  30
ENDBRANCH  20  29
BRANCH  21  34
ATOM     34  O   LIG d   1      -2.671  -5.263  -9.385  0.00  0.00    -0.491 OA
BRANCH  34  35
ATOM     35  C   LIG d   1      -3.666  -4.671 -10.223  0.00  0.00     0.079 C 
ATOM     36  H   LIG d   1      -3.203  -3.919 -10.861  0.00  0.00     0.066 H 
ATOM     37  H   LIG d   1      -4.123  -5.442 -10.844  0.00  0.00     0.066 H 
ATOM     38  H   LIG d   1      -4.430  -4.203  -9.603  0.00  0.00     0.066 H 
ENDBRANCH  34  35
ENDBRANCH  21  34
ENDBRANCH   9  16
BRANCH   1  39
ATOM     39  O   LIG d   1       4.469   0.384  -6.597  0.00  0.00    -0.422 OA
BRANCH  39  40
ATOM     40  C   LIG d   1       5.252  -0.479  -5.919  0.00  0.00     0.352 C 
ATOM     41  O   LIG d   1       6.211  -0.987  -6.467  0.00  0.00    -0.244 OA
BRANCH  40  42
ATOM     42  C   LIG d   1       4.946  -0.806  -4.519  0.00  0.00     0.142 A 
ATOM     43  C   LIG d   1       5.223   0.119  -3.500  0.00  0.00     0.138 A 
ATOM     44  C   LIG d   1       4.927  -0.199  -2.184  0.00  0.00    -0.019 A 
ATOM     45  C   LIG d   1       4.370  -1.425  -1.873  0.00  0.00    -0.055 A 
ATOM     46  H   LIG d   1       5.135   0.512  -1.399  0.00  0.00     0.065 H 
ATOM     47  C   LIG d   1       4.097  -2.346  -2.867  0.00  0.00    -0.019 A 
ATOM     48  H   LIG d   1       4.146  -1.666  -0.844  0.00  0.00     0.062 H 
ATOM     49  C   LIG d   1       4.380  -2.048  -4.190  0.00  0.00     0.138 A 
ATOM     50  H   LIG d   1       3.661  -3.301  -2.612  0.00  0.00     0.065 H 
BRANCH  43  51
ATOM     51  O   LIG d   1       5.776   1.320  -3.803  0.00  0.00    -0.494 OA
BRANCH  51  52
ATOM     52  C   LIG d   1       7.195   1.431  -3.677  0.00  0.00     0.079 C 
ATOM     53  H   LIG d   1       7.462   2.465  -3.462  0.00  0.00     0.066 H 
ATOM     54  H   LIG d   1       7.539   0.790  -2.865  0.00  0.00     0.066 H 
ATOM     55  H   LIG d   1       7.668   1.120  -4.609  0.00  0.00     0.066 H 
ENDBRANCH  51  52
ENDBRANCH  43  51
BRANCH  49  56
ATOM     56  O   LIG d   1       4.112  -2.953  -5.165  0.00  0.00    -0.494 OA
BRANCH  56  57
ATOM     57  C   LIG d   1       4.905  -4.141  -5.181  0.00  0.00     0.079 C 
ATOM     58  H   LIG d   1       4.265  -5.003  -5.369  0.00  0.00     0.066 H 
ATOM     59  H   LIG d   1       5.656  -4.066  -5.968  0.00  0.00     0.066 H 
ATOM     60  H   LIG d   1       5.402  -4.261  -4.218  0.00  0.00     0.066 H 
ENDBRANCH  56  57
ENDBRANCH  49  56
ENDBRANCH  40  42
ENDBRANCH  39  40
ENDBRANCH   1  39
TORSDOF 14
ENDMDL
MODEL 6
REMARK VINA RESULT:      -6.5      6.080     12.693
REMARK  14 active torsions:
REMARK  status: ('A' for Active; 'I' for Inactive)
REMARK    1  A    between atoms: C_1  and  O_2 
REMARK    2  A    between atoms: O_2  and  C_3 
REMARK    3  A    between atoms: C_7  and  O_35 
REMARK    4  A    between atoms: C_8  and  C_9 
REMARK    5  A    between atoms: C_9  and  O_11 
REMARK    6  A    between atoms: O_11  and  C_12 
REMARK    7  A    between atoms: C_20  and  C_21 
REMARK    8  A    between atoms: C_23  and  O_31 
REMARK    9  A    between atoms: C_24  and  O_29 
REMARK   10  A    between atoms: C_25  and  O_27 
REMARK   11  A    between atoms: O_27  and  C_28 
REMARK   12  A    between atoms: O_29  and  C_30 
REMARK   13  A    between atoms: O_31  and  C_32 
REMARK   14  A    between atoms: O_35  and  C_36 
ROOT
ATOM      1  C   LIG d   1       4.081   0.004  -7.873  0.00  0.00     0.136 A 
ATOM      2  C   LIG d   1       4.561   0.667  -9.000  0.00  0.00    -0.018 A 
ATOM      3  C   LIG d   1       4.156   0.282 -10.246  0.00  0.00    -0.044 A 
ATOM      4  C   LIG d   1       3.263  -0.780 -10.390  0.00  0.00     0.068 A 
ATOM      5  C   LIG d   1       2.768  -1.452  -9.262  0.00  0.00     0.143 A 
ATOM      6  C   LIG d   1       3.191  -1.048  -8.000  0.00  0.00     0.024 A 
ATOM      7  O   LIG d   1       1.922  -2.431  -9.649  0.00  0.00    -0.451 OA
ATOM      8  C   LIG d   1       1.790  -2.479 -10.995  0.00  0.00     0.176 A 
ATOM      9  C   LIG d   1       1.015  -3.348 -11.694  0.00  0.00    -0.008 C 
ATOM     10  C   LIG d   1       2.639  -1.421 -11.562  0.00  0.00     0.232 A 
ATOM     11  O   LIG d   1       2.795  -1.141 -12.738  0.00  0.00    -0.283 OA
ATOM     12  H   LIG d   1       5.256   1.487  -8.888  0.00  0.00     0.065 H 
ATOM     13  H   LIG d   1       4.529   0.797 -11.120  0.00  0.00     0.063 H 
ATOM     14  H   LIG d   1       2.826  -1.556  -7.120  0.00  0.00     0.069 H 
ATOM     15  H   LIG d   1       0.906  -3.234 -12.763  0.00  0.00     0.066 H 
ENDROOT
BRANCH   9  16
ATOM     16  C   LIG d   1       0.327  -4.441 -10.999  0.00  0.00    -0.014 A 
ATOM     17  C   LIG d   1      -0.986  -4.266 -10.541  0.00  0.00    -0.009 A 
ATOM     18  C   LIG d   1      -1.630  -5.298  -9.886  0.00  0.00     0.166 A 
ATOM     19  H   LIG d   1      -1.493  -3.326 -10.699  0.00  0.00     0.066 H 
ATOM     20  C   LIG d   1      -0.976  -6.511  -9.681  0.00  0.00     0.203 A 
ATOM     21  C   LIG d   1       0.329  -6.688 -10.134  0.00  0.00     0.166 A 
ATOM     22  C   LIG d   1       0.978  -5.664 -10.795  0.00  0.00    -0.009 A 
ATOM     23  H   LIG d   1       1.988  -5.804 -11.151  0.00  0.00     0.066 H 
BRANCH  18  24
ATOM     24  O   LIG d   1      -2.904  -5.129  -9.441  0.00  0.00    -0.491 OA
BRANCH  24  25
ATOM     25  C   LIG d   1      -3.918  -4.947 -10.432  0.00  0.00     0.079 C 
ATOM     26  H   LIG d   1      -4.468  -5.879 -10.565  0.00  0.00     0.066 H 
ATOM     27  H   LIG d   1      -4.604  -4.163 -10.111  0.00  0.00     0.066 H 
ATOM     28  H   LIG d   1      -3.455  -4.660 -11.376  0.00  0.00     0.066 H 
ENDBRANCH  24  25
ENDBRANCH  18  24
BRANCH  20  29
ATOM     29  O   LIG d   1      -1.614  -7.523  -9.036  0.00  0.00    -0.488 OA
BRANCH  29  30
ATOM     30  C   LIG d   1      -2.429  -8.388  -9.831  0.00  0.00     0.079 C 
ATOM     31  H   LIG d   1      -2.399  -9.396  -9.417  0.00  0.00     0.066 H 
ATOM     32  H   LIG d   1      -3.456  -8.023  -9.827  0.00  0.00     0.066 H 
ATOM     33  H   LIG d   1      -2.052  -8.403 -10.854  0.00  0.00     0.066 H 
ENDBRANCH  29  30
ENDBRANCH  20  29
BRANCH  21  34
ATOM     34  O   LIG d   1       0.962  -7.875  -9.932  0.00  0.00    -0.491 OA
BRANCH  34  35
ATOM     35  C   LIG d   1       2.278  -8.009 -10.474  0.00  0.00     0.079 C 
ATOM     36  H   LIG d   1       2.711  -8.954 -10.147  0.00  0.00     0.066 H 
ATOM     37  H   LIG d   1       2.226  -7.991 -11.563  0.00  0.00     0.066 H 
ATOM     38  H   LIG d   1       2.899  -7.184 -10.126  0.00  0.00     0.066 H 
ENDBRANCH  34  35
ENDBRANCH  21  34
ENDBRANCH   9  16
BRANCH   1  39
ATOM     39  O   LIG d   1       4.490   0.394  -6.638  0.00  0.00    -0.422 OA
BRANCH  39  40
ATOM     40  C   LIG d   1       5.279  -0.460  -5.956  0.00  0.00     0.352 C 
ATOM     41  O   LIG d   1       6.250  -0.954  -6.495  0.00  0.00    -0.244 OA
BRANCH  40  42
ATOM     42  C   LIG d   1       4.964  -0.795  -4.559  0.00  0.00     0.142 A 
ATOM     43  C   LIG d   1       4.389  -2.036  -4.242  0.00  0.00     0.138 A 
ATOM     44  C   LIG d   1       4.102  -2.343  -2.922  0.00  0.00    -0.019 A 
ATOM     45  C   LIG d   1       4.370  -1.428  -1.920  0.00  0.00    -0.055 A 
ATOM     46  H   LIG d   1       3.664  -3.298  -2.675  0.00  0.00     0.065 H 
ATOM     47  C   LIG d   1       4.931  -0.201  -2.221  0.00  0.00    -0.019 A 
ATOM     48  H   LIG d   1       4.138  -1.674  -0.894  0.00  0.00     0.062 H 
ATOM     49  C   LIG d   1       5.232   0.125  -3.534  0.00  0.00     0.138 A 
ATOM     50  H   LIG d   1       5.136   0.506  -1.431  0.00  0.00     0.065 H 
BRANCH  43  51
ATOM     51  O   LIG d   1       4.120  -2.932  -5.224  0.00  0.00    -0.494 OA
BRANCH  51  52
ATOM     52  C   LIG d   1       4.948  -4.095  -5.285  0.00  0.00     0.079 C 
ATOM     53  H   LIG d   1       5.393  -4.174  -6.276  0.00  0.00     0.066 H 
ATOM     54  H   LIG d   1       5.738  -4.019  -4.537  0.00  0.00     0.066 H 
ATOM     55  H   LIG d   1       4.345  -4.982  -5.086  0.00  0.00     0.066 H 
ENDBRANCH  51  52
ENDBRANCH  43  51
BRANCH  49  56
ATOM     56  O   LIG d   1       5.782   1.330  -3.827  0.00  0.00    -0.494 OA
BRANCH  56  57
ATOM     57  C   LIG d   1       7.199   1.445  -3.693  0.00  0.00     0.079 C 
ATOM     58  H   LIG d   1       7.667   1.343  -4.672  0.00  0.00     0.066 H 
ATOM     59  H   LIG d   1       7.446   2.420  -3.271  0.00  0.00     0.066 H 
ATOM     60  H   LIG d   1       7.568   0.661  -3.031  0.00  0.00     0.066 H 
ENDBRANCH  56  57
ENDBRANCH  49  56
ENDBRANCH  40  42
ENDBRANCH  39  40
ENDBRANCH   1  39
TORSDOF 14
ENDMDL
MODEL 7
REMARK VINA RESULT:      -6.4      1.318      2.397
REMARK  14 active torsions:
REMARK  status: ('A' for Active; 'I' for Inactive)
REMARK    1  A    between atoms: C_1  and  O_2 
REMARK    2  A    between atoms: O_2  and  C_3 
REMARK    3  A    between atoms: C_7  and  O_35 
REMARK    4  A    between atoms: C_8  and  C_9 
REMARK    5  A    between atoms: C_9  and  O_11 
REMARK    6  A    between atoms: O_11  and  C_12 
REMARK    7  A    between atoms: C_20  and  C_21 
REMARK    8  A    between atoms: C_23  and  O_31 
REMARK    9  A    between atoms: C_24  and  O_29 
REMARK   10  A    between atoms: C_25  and  O_27 
REMARK   11  A    between atoms: O_27  and  C_28 
REMARK   12  A    between atoms: O_29  and  C_30 
REMARK   13  A    between atoms: O_31  and  C_32 
REMARK   14  A    between atoms: O_35  and  C_36 
ROOT
ATOM      1  C   LIG d   1       7.690   0.446  -4.585  0.00  0.00     0.136 A 
ATOM      2  C   LIG d   1       7.787   0.580  -5.967  0.00  0.00    -0.018 A 
ATOM      3  C   LIG d   1       8.391   1.678  -6.510  0.00  0.00    -0.044 A 
ATOM      4  C   LIG d   1       8.908   2.670  -5.677  0.00  0.00     0.068 A 
ATOM      5  C   LIG d   1       8.823   2.543  -4.282  0.00  0.00     0.143 A 
ATOM      6  C   LIG d   1       8.204   1.420  -3.746  0.00  0.00     0.024 A 
ATOM      7  O   LIG d   1       9.395   3.616  -3.691  0.00  0.00    -0.451 OA
ATOM      8  C   LIG d   1       9.885   4.489  -4.601  0.00  0.00     0.176 A 
ATOM      9  C   LIG d   1      10.517   5.660  -4.329  0.00  0.00    -0.008 C 
ATOM     10  C   LIG d   1       9.610   3.941  -5.937  0.00  0.00     0.232 A 
ATOM     11  O   LIG d   1       9.893   4.429  -7.017  0.00  0.00    -0.283 OA
ATOM     12  H   LIG d   1       7.381  -0.186  -6.613  0.00  0.00     0.065 H 
ATOM     13  H   LIG d   1       8.465   1.780  -7.583  0.00  0.00     0.063 H 
ATOM     14  H   LIG d   1       8.124   1.307  -2.674  0.00  0.00     0.069 H 
ATOM     15  H   LIG d   1      10.958   6.234  -5.130  0.00  0.00     0.066 H 
ENDROOT
BRANCH   9  16
ATOM     16  C   LIG d   1      10.599   6.146  -2.947  0.00  0.00    -0.014 A 
ATOM     17  C   LIG d   1      11.711   5.829  -2.156  0.00  0.00    -0.009 A 
ATOM     18  C   LIG d   1      11.784   6.288  -0.855  0.00  0.00     0.166 A 
ATOM     19  H   LIG d   1      12.510   5.226  -2.563  0.00  0.00     0.066 H 
ATOM     20  C   LIG d   1      10.754   7.064  -0.329  0.00  0.00     0.203 A 
ATOM     21  C   LIG d   1       9.647   7.381  -1.112  0.00  0.00     0.166 A 
ATOM     22  C   LIG d   1       9.568   6.931  -2.416  0.00  0.00    -0.009 A 
ATOM     23  H   LIG d   1       8.711   7.182  -3.024  0.00  0.00     0.066 H 
BRANCH  18  24
ATOM     24  O   LIG d   1      12.864   5.981  -0.086  0.00  0.00    -0.491 OA
BRANCH  24  25
ATOM     25  C   LIG d   1      14.104   5.773  -0.764  0.00  0.00     0.079 C 
ATOM     26  H   LIG d   1      13.965   5.043  -1.562  0.00  0.00     0.066 H 
ATOM     27  H   LIG d   1      14.449   6.715  -1.189  0.00  0.00     0.066 H 
ATOM     28  H   LIG d   1      14.846   5.401  -0.056  0.00  0.00     0.066 H 
ENDBRANCH  24  25
ENDBRANCH  18  24
BRANCH  20  29
ATOM     29  O   LIG d   1      10.830   7.513   0.952  0.00  0.00    -0.488 OA
BRANCH  29  30
ATOM     30  C   LIG d   1      11.581   8.708   1.177  0.00  0.00     0.079 C 
ATOM     31  H   LIG d   1      11.752   9.215   0.227  0.00  0.00     0.066 H 
ATOM     32  H   LIG d   1      11.025   9.366   1.845  0.00  0.00     0.066 H 
ATOM     33  H   LIG d   1      12.539   8.455   1.631  0.00  0.00     0.066 H 
ENDBRANCH  29  30
ENDBRANCH  20  29
BRANCH  21  34
ATOM     34  O   LIG d   1       8.644   8.140  -0.594  0.00  0.00    -0.491 OA
BRANCH  34  35
ATOM     35  C   LIG d   1       8.677   9.541  -0.879  0.00  0.00     0.079 C 
ATOM     36  H   LIG d   1       8.444   9.703  -1.931  0.00  0.00     0.066 H 
ATOM     37  H   LIG d   1       7.940  10.054  -0.261  0.00  0.00     0.066 H 
ATOM     38  H   LIG d   1       9.670   9.932  -0.661  0.00  0.00     0.066 H 
ENDBRANCH  34  35
ENDBRANCH  21  34
ENDBRANCH   9  16
BRANCH   1  39
ATOM     39  O   LIG d   1       7.087  -0.649  -4.055  0.00  0.00    -0.422 OA
BRANCH  39  40
ATOM     40  C   LIG d   1       6.121  -1.233  -4.792  0.00  0.00     0.352 C 
ATOM     41  O   LIG d   1       6.345  -2.279  -5.368  0.00  0.00    -0.244 OA
BRANCH  40  42
ATOM     42  C   LIG d   1       4.796  -0.604  -4.898  0.00  0.00     0.142 A 
ATOM     43  C   LIG d   1       4.116  -0.188  -3.742  0.00  0.00     0.138 A 
ATOM     44  C   LIG d   1       2.870   0.408  -3.854  0.00  0.00    -0.019 A 
ATOM     45  C   LIG d   1       2.292   0.582  -5.098  0.00  0.00    -0.055 A 
ATOM     46  H   LIG d   1       2.347   0.732  -2.968  0.00  0.00     0.065 H 
ATOM     47  C   LIG d   1       2.950   0.171  -6.243  0.00  0.00    -0.019 A 
ATOM     48  H   LIG d   1       1.318   1.043  -5.176  0.00  0.00     0.062 H 
ATOM     49  C   LIG d   1       4.199  -0.421  -6.155  0.00  0.00     0.138 A 
ATOM     50  H   LIG d   1       2.488   0.313  -7.209  0.00  0.00     0.065 H 
BRANCH  43  51
ATOM     51  O   LIG d   1       4.679  -0.364  -2.521  0.00  0.00    -0.494 OA
BRANCH  51  52
ATOM     52  C   LIG d   1       4.653   0.751  -1.628  0.00  0.00     0.079 C 
ATOM     53  H   LIG d   1       5.665   0.970  -1.288  0.00  0.00     0.066 H 
ATOM     54  H   LIG d   1       4.247   1.621  -2.145  0.00  0.00     0.066 H 
ATOM     55  H   LIG d   1       4.025   0.514  -0.769  0.00  0.00     0.066 H 
ENDBRANCH  51  52
ENDBRANCH  43  51
BRANCH  49  56
ATOM     56  O   LIG d   1       4.842  -0.825  -7.279  0.00  0.00    -0.494 OA
BRANCH  56  57
ATOM     57  C   LIG d   1       4.140  -1.721  -8.141  0.00  0.00     0.079 C 
ATOM     58  H   LIG d   1       4.211  -1.366  -9.170  0.00  0.00     0.066 H 
ATOM     59  H   LIG d   1       4.580  -2.716  -8.068  0.00  0.00     0.066 H 
ATOM     60  H   LIG d   1       3.092  -1.766  -7.844  0.00  0.00     0.066 H 
ENDBRANCH  56  57
ENDBRANCH  49  56
ENDBRANCH  40  42
ENDBRANCH  39  40
ENDBRANCH   1  39
TORSDOF 14
ENDMDL
MODEL 8
REMARK VINA RESULT:      -6.3      6.438     12.832
REMARK  14 active torsions:
REMARK  status: ('A' for Active; 'I' for Inactive)
REMARK    1  A    between atoms: C_1  and  O_2 
REMARK    2  A    between atoms: O_2  and  C_3 
REMARK    3  A    between atoms: C_7  and  O_35 
REMARK    4  A    between atoms: C_8  and  C_9 
REMARK    5  A    between atoms: C_9  and  O_11 
REMARK    6  A    between atoms: O_11  and  C_12 
REMARK    7  A    between atoms: C_20  and  C_21 
REMARK    8  A    between atoms: C_23  and  O_31 
REMARK    9  A    between atoms: C_24  and  O_29 
REMARK   10  A    between atoms: C_25  and  O_27 
REMARK   11  A    between atoms: O_27  and  C_28 
REMARK   12  A    between atoms: O_29  and  C_30 
REMARK   13  A    between atoms: O_31  and  C_32 
REMARK   14  A    between atoms: O_35  and  C_36 
ROOT
ATOM      1  C   LIG d   1       3.424   0.234  -8.266  0.00  0.00     0.136 A 
ATOM      2  C   LIG d   1       3.933   0.818  -9.423  0.00  0.00    -0.018 A 
ATOM      3  C   LIG d   1       3.596   0.319 -10.649  0.00  0.00    -0.044 A 
ATOM      4  C   LIG d   1       2.743  -0.782 -10.741  0.00  0.00     0.068 A 
ATOM      5  C   LIG d   1       2.219  -1.375  -9.583  0.00  0.00     0.143 A 
ATOM      6  C   LIG d   1       2.573  -0.856  -8.343  0.00  0.00     0.024 A 
ATOM      7  O   LIG d   1       1.421  -2.411  -9.922  0.00  0.00    -0.451 OA
ATOM      8  C   LIG d   1       1.352  -2.573 -11.264  0.00  0.00     0.176 A 
ATOM      9  C   LIG d   1       0.635  -3.522 -11.921  0.00  0.00    -0.008 C 
ATOM     10  C   LIG d   1       2.192  -1.537 -11.882  0.00  0.00     0.232 A 
ATOM     11  O   LIG d   1       2.392  -1.348 -13.069  0.00  0.00    -0.283 OA
ATOM     12  H   LIG d   1       4.597   1.667  -9.351  0.00  0.00     0.065 H 
ATOM     13  H   LIG d   1       3.992   0.773 -11.546  0.00  0.00     0.063 H 
ATOM     14  H   LIG d   1       2.184  -1.302  -7.439  0.00  0.00     0.069 H 
ATOM     15  H   LIG d   1       0.570  -3.499 -12.999  0.00  0.00     0.066 H 
ENDROOT
BRANCH   9  16
ATOM     16  C   LIG d   1      -0.050  -4.577 -11.167  0.00  0.00    -0.014 A 
ATOM     17  C   LIG d   1       0.619  -5.770 -10.863  0.00  0.00    -0.009 A 
ATOM     18  C   LIG d   1      -0.030  -6.762 -10.153  0.00  0.00     0.166 A 
ATOM     19  H   LIG d   1       1.640  -5.915 -11.184  0.00  0.00     0.066 H 
ATOM     20  C   LIG d   1      -1.348  -6.577  -9.740  0.00  0.00     0.203 A 
ATOM     21  C   LIG d   1      -2.016  -5.393 -10.041  0.00  0.00     0.166 A 
ATOM     22  C   LIG d   1      -1.373  -4.394 -10.745  0.00  0.00    -0.009 A 
ATOM     23  H   LIG d   1      -1.891  -3.474 -10.973  0.00  0.00     0.066 H 
BRANCH  18  24
ATOM     24  O   LIG d   1       0.619  -7.921  -9.858  0.00  0.00    -0.491 OA
BRANCH  24  25
ATOM     25  C   LIG d   1       0.919  -8.793 -10.949  0.00  0.00     0.079 C 
ATOM     26  H   LIG d   1       0.821  -8.247 -11.888  0.00  0.00     0.066 H 
ATOM     27  H   LIG d   1       1.938  -9.164 -10.848  0.00  0.00     0.066 H 
ATOM     28  H   LIG d   1       0.224  -9.633 -10.943  0.00  0.00     0.066 H 
ENDBRANCH  24  25
ENDBRANCH  18  24
BRANCH  20  29
ATOM     29  O   LIG d   1      -1.982  -7.556  -9.042  0.00  0.00    -0.488 OA
BRANCH  29  30
ATOM     30  C   LIG d   1      -2.698  -8.534  -9.800  0.00  0.00     0.079 C 
ATOM     31  H   LIG d   1      -2.515  -8.375 -10.863  0.00  0.00     0.066 H 
ATOM     32  H   LIG d   1      -2.358  -9.531  -9.518  0.00  0.00     0.066 H 
ATOM     33  H   LIG d   1      -3.765  -8.442  -9.597  0.00  0.00     0.066 H 
ENDBRANCH  29  30
ENDBRANCH  20  29
BRANCH  21  34
ATOM     34  O   LIG d   1      -3.302  -5.217  -9.634  0.00  0.00    -0.491 OA
BRANCH  34  35
ATOM     35  C   LIG d   1      -4.126  -4.367 -10.435  0.00  0.00     0.079 C 
ATOM     36  H   LIG d   1      -3.656  -3.387 -10.526  0.00  0.00     0.066 H 
ATOM     37  H   LIG d   1      -4.245  -4.805 -11.426  0.00  0.00     0.066 H 
ATOM     38  H   LIG d   1      -5.103  -4.260  -9.964  0.00  0.00     0.066 H 
ENDBRANCH  34  35
ENDBRANCH  21  34
ENDBRANCH   9  16
BRANCH   1  39
ATOM     39  O   LIG d   1       3.766   0.737  -7.052  0.00  0.00    -0.422 OA
BRANCH  39  40
ATOM     40  C   LIG d   1       4.806   0.158  -6.420  0.00  0.00     0.352 C 
ATOM     41  O   LIG d   1       5.943   0.398  -6.777  0.00  0.00    -0.244 OA
BRANCH  40  42
ATOM     42  C   LIG d   1       4.567  -0.762  -5.299  0.00  0.00     0.142 A 
ATOM     43  C   LIG d   1       4.837  -2.132  -5.438  0.00  0.00     0.138 A 
ATOM     44  C   LIG d   1       4.612  -2.990  -4.374  0.00  0.00    -0.019 A 
ATOM     45  C   LIG d   1       4.113  -2.501  -3.180  0.00  0.00    -0.055 A 
ATOM     46  H   LIG d   1       4.823  -4.043  -4.477  0.00  0.00     0.065 H 
ATOM     47  C   LIG d   1       3.838  -1.154  -3.033  0.00  0.00    -0.019 A 
ATOM     48  H   LIG d   1       3.936  -3.178  -2.357  0.00  0.00     0.062 H 
ATOM     49  C   LIG d   1       4.061  -0.278  -4.082  0.00  0.00     0.138 A 
ATOM     50  H   LIG d   1       3.449  -0.784  -2.096  0.00  0.00     0.065 H 
BRANCH  43  51
ATOM     51  O   LIG d   1       5.321  -2.614  -6.610  0.00  0.00    -0.494 OA
BRANCH  51  52
ATOM     52  C   LIG d   1       4.594  -3.682  -7.221  0.00  0.00     0.079 C 
ATOM     53  H   LIG d   1       4.918  -4.632  -6.798  0.00  0.00     0.066 H 
ATOM     54  H   LIG d   1       3.527  -3.548  -7.037  0.00  0.00     0.066 H 
ATOM     55  H   LIG d   1       4.779  -3.680  -8.296  0.00  0.00     0.066 H 
ENDBRANCH  51  52
ENDBRANCH  43  51
BRANCH  49  56
ATOM     56  O   LIG d   1       3.790   1.043  -3.935  0.00  0.00    -0.494 OA
BRANCH  56  57
ATOM     57  C   LIG d   1       3.818   1.567  -2.607  0.00  0.00     0.079 C 
ATOM     58  H   LIG d   1       2.903   1.284  -2.085  0.00  0.00     0.066 H 
ATOM     59  H   LIG d   1       4.680   1.164  -2.076  0.00  0.00     0.066 H 
ATOM     60  H   LIG d   1       3.891   2.654  -2.645  0.00  0.00     0.066 H 
ENDBRANCH  56  57
ENDBRANCH  49  56
ENDBRANCH  40  42
ENDBRANCH  39  40
ENDBRANCH   1  39
TORSDOF 14
ENDMDL
MODEL 9
REMARK VINA RESULT:      -6.2      2.114      3.280
REMARK  14 active torsions:
REMARK  status: ('A' for Active; 'I' for Inactive)
REMARK    1  A    between atoms: C_1  and  O_2 
REMARK    2  A    between atoms: O_2  and  C_3 
REMARK    3  A    between atoms: C_7  and  O_35 
REMARK    4  A    between atoms: C_8  and  C_9 
REMARK    5  A    between atoms: C_9  and  O_11 
REMARK    6  A    between atoms: O_11  and  C_12 
REMARK    7  A    between atoms: C_20  and  C_21 
REMARK    8  A    between atoms: C_23  and  O_31 
REMARK    9  A    between atoms: C_24  and  O_29 
REMARK   10  A    between atoms: C_25  and  O_27 
REMARK   11  A    between atoms: O_27  and  C_28 
REMARK   12  A    between atoms: O_29  and  C_30 
REMARK   13  A    between atoms: O_31  and  C_32 
REMARK   14  A    between atoms: O_35  and  C_36 
ROOT
ATOM      1  C   LIG d   1       6.718  -1.356  -3.733  0.00  0.00     0.136 A 
ATOM      2  C   LIG d   1       7.424  -2.131  -4.649  0.00  0.00    -0.018 A 
ATOM      3  C   LIG d   1       8.523  -1.618  -5.278  0.00  0.00    -0.044 A 
ATOM      4  C   LIG d   1       8.936  -0.314  -5.004  0.00  0.00     0.068 A 
ATOM      5  C   LIG d   1       8.235   0.474  -4.078  0.00  0.00     0.143 A 
ATOM      6  C   LIG d   1       7.118  -0.062  -3.448  0.00  0.00     0.024 A 
ATOM      7  O   LIG d   1       8.822   1.687  -3.976  0.00  0.00    -0.451 OA
ATOM      8  C   LIG d   1       9.905   1.791  -4.780  0.00  0.00     0.176 A 
ATOM      9  C   LIG d   1      10.709   2.878  -4.906  0.00  0.00    -0.008 C 
ATOM     10  C   LIG d   1      10.055   0.513  -5.492  0.00  0.00     0.232 A 
ATOM     11  O   LIG d   1      10.909   0.208  -6.306  0.00  0.00    -0.283 OA
ATOM     12  H   LIG d   1       7.101  -3.139  -4.865  0.00  0.00     0.065 H 
ATOM     13  H   LIG d   1       9.070  -2.221  -5.989  0.00  0.00     0.063 H 
ATOM     14  H   LIG d   1       6.563   0.531  -2.735  0.00  0.00     0.069 H 
ATOM     15  H   LIG d   1      11.607   2.819  -5.503  0.00  0.00     0.066 H 
ENDROOT
BRANCH   9  16
ATOM     16  C   LIG d   1      10.357   4.134  -4.233  0.00  0.00    -0.014 A 
ATOM     17  C   LIG d   1      10.579   4.279  -2.857  0.00  0.00    -0.009 A 
ATOM     18  C   LIG d   1      10.246   5.462  -2.227  0.00  0.00     0.166 A 
ATOM     19  H   LIG d   1      11.011   3.467  -2.290  0.00  0.00     0.066 H 
ATOM     20  C   LIG d   1       9.689   6.510  -2.958  0.00  0.00     0.203 A 
ATOM     21  C   LIG d   1       9.465   6.369  -4.325  0.00  0.00     0.166 A 
ATOM     22  C   LIG d   1       9.802   5.191  -4.964  0.00  0.00    -0.009 A 
ATOM     23  H   LIG d   1       9.633   5.084  -6.026  0.00  0.00     0.066 H 
BRANCH  18  24
ATOM     24  O   LIG d   1      10.461   5.605  -0.892  0.00  0.00    -0.491 OA
BRANCH  24  25
ATOM     25  C   LIG d   1      11.799   5.416  -0.427  0.00  0.00     0.079 C 
ATOM     26  H   LIG d   1      11.868   5.722   0.617  0.00  0.00     0.066 H 
ATOM     27  H   LIG d   1      12.070   4.364  -0.517  0.00  0.00     0.066 H 
ATOM     28  H   LIG d   1      12.480   6.019  -1.028  0.00  0.00     0.066 H 
ENDBRANCH  24  25
ENDBRANCH  18  24
BRANCH  20  29
ATOM     29  O   LIG d   1       9.361   7.672  -2.333  0.00  0.00    -0.488 OA
BRANCH  29  30
ATOM     30  C   LIG d   1      10.367   8.687  -2.283  0.00  0.00     0.079 C 
ATOM     31  H   LIG d   1      10.489   9.026  -1.254  0.00  0.00     0.066 H 
ATOM     32  H   LIG d   1      11.311   8.281  -2.646  0.00  0.00     0.066 H 
ATOM     33  H   LIG d   1      10.067   9.527  -2.910  0.00  0.00     0.066 H 
ENDBRANCH  29  30
ENDBRANCH  20  29
BRANCH  21  34
ATOM     34  O   LIG d   1       8.922   7.394  -5.034  0.00  0.00    -0.491 OA
BRANCH  34  35
ATOM     35  C   LIG d   1       9.704   7.931  -6.103  0.00  0.00     0.079 C 
ATOM     36  H   LIG d   1      10.347   8.724  -5.720  0.00  0.00     0.066 H 
ATOM     37  H   LIG d   1      10.319   7.142  -6.534  0.00  0.00     0.066 H 
ATOM     38  H   LIG d   1       9.043   8.336  -6.869  0.00  0.00     0.066 H 
ENDBRANCH  34  35
ENDBRANCH  21  34
ENDBRANCH   9  16
BRANCH   1  39
ATOM     39  O   LIG d   1       5.626  -1.875  -3.114  0.00  0.00    -0.422 OA
BRANCH  39  40
ATOM     40  C   LIG d   1       4.593  -2.243  -3.899  0.00  0.00     0.352 C 
ATOM     41  O   LIG d   1       4.191  -3.389  -3.875  0.00  0.00    -0.244 OA
BRANCH  40  42
ATOM     42  C   LIG d   1       3.954  -1.258  -4.783  0.00  0.00     0.142 A 
ATOM     43  C   LIG d   1       4.106  -1.353  -6.175  0.00  0.00     0.138 A 
ATOM     44  C   LIG d   1       3.495  -0.422  -6.999  0.00  0.00    -0.019 A 
ATOM     45  C   LIG d   1       2.746   0.605  -6.454  0.00  0.00    -0.055 A 
ATOM     46  H   LIG d   1       3.607  -0.496  -8.070  0.00  0.00     0.065 H 
ATOM     47  C   LIG d   1       2.594   0.712  -5.084  0.00  0.00    -0.019 A 
ATOM     48  H   LIG d   1       2.277   1.329  -7.104  0.00  0.00     0.062 H 
ATOM     49  C   LIG d   1       3.191  -0.211  -4.241  0.00  0.00     0.138 A 
ATOM     50  H   LIG d   1       2.006   1.518  -4.670  0.00  0.00     0.065 H 
BRANCH  43  51
ATOM     51  O   LIG d   1       4.845  -2.356  -6.712  0.00  0.00    -0.494 OA
BRANCH  51  52
ATOM     52  C   LIG d   1       5.593  -2.051  -7.891  0.00  0.00     0.079 C 
ATOM     53  H   LIG d   1       5.147  -2.558  -8.746  0.00  0.00     0.066 H 
ATOM     54  H   LIG d   1       5.580  -0.974  -8.061  0.00  0.00     0.066 H 
ATOM     55  H   LIG d   1       6.623  -2.386  -7.765  0.00  0.00     0.066 H 
ENDBRANCH  51  52
ENDBRANCH  43  51
BRANCH  49  56
ATOM     56  O   LIG d   1       3.041  -0.103  -2.897  0.00  0.00    -0.494 OA
BRANCH  56  57
ATOM     57  C   LIG d   1       3.689   0.998  -2.259  0.00  0.00     0.079 C 
ATOM     58  H   LIG d   1       4.141   0.662  -1.326  0.00  0.00     0.066 H 
ATOM     59  H   LIG d   1       4.462   1.395  -2.917  0.00  0.00     0.066 H 
ATOM     60  H   LIG d   1       2.957   1.778  -2.047  0.00  0.00     0.066 H 
ENDBRANCH  56  57
ENDBRANCH  49  56
ENDBRANCH  40  42
ENDBRANCH  39  40
ENDBRANCH   1  39
TORSDOF 14
ENDMDL
