MODEL 1
REMARK VINA RESULT:      -6.6      0.000      0.000
REMARK  8 active torsions:
REMARK  status: ('A' for Active; 'I' for Inactive)
REMARK    1  A    between atoms: C_1  and  C_2 
REMARK    2  A    between atoms: C_4  and  C_21 
REMARK    3  A    between atoms: C_5  and  C_20 
REMARK    4  A    between atoms: C_6  and  O_8 
REMARK    5  A    between atoms: O_8  and  C_9 
REMARK    6  A    between atoms: C_9  and  C_11 
REMARK    7  A    between atoms: C_11  and  C_12 
REMARK    8  A    between atoms: C_11  and  C_16 
ROOT
ATOM      1  C   LIG d   1       4.321  -2.618  -7.389  0.00  0.00    -0.047 A 
ATOM      2  C   LIG d   1       3.780  -2.111  -8.557  0.00  0.00    -0.055 A 
ATOM      3  C   LIG d   1       3.305  -0.814  -8.596  0.00  0.00    -0.044 A 
ATOM      4  C   LIG d   1       3.370  -0.020  -7.467  0.00  0.00    -0.005 A 
ATOM      5  C   LIG d   1       3.911  -0.525  -6.294  0.00  0.00     0.135 A 
ATOM      6  C   LIG d   1       4.382  -1.831  -6.256  0.00  0.00    -0.016 A 
ATOM      7  H   LIG d   1       3.730  -2.730  -9.441  0.00  0.00     0.062 H 
ATOM      8  H   LIG d   1       4.800  -2.228  -5.344  0.00  0.00     0.066 H 
ENDROOT
BRANCH   5   9
ATOM      9  O   LIG d   1       3.976   0.254  -5.182  0.00  0.00    -0.425 OA
BRANCH   9  10
ATOM     10  C   LIG d   1       3.084   0.031  -4.204  0.00  0.00     0.333 C 
ATOM     11  O   LIG d   1       1.915  -0.118  -4.473  0.00  0.00    -0.249 OA
BRANCH  10  12
ATOM     12  C   LIG d   1       3.541  -0.033  -2.768  0.00  0.00     0.245 C 
ATOM     13  H   LIG d   1       2.673  -0.023  -2.110  0.00  0.00     0.059 H 
BRANCH  12  14
ATOM     14  C   LIG d   1       4.338  -1.320  -2.543  0.00  0.00     0.411 C 
ATOM     15  F   LIG d   1       5.561  -1.234  -3.217  0.00  0.00    -0.170 F 
ATOM     16  F   LIG d   1       4.570  -1.491  -1.175  0.00  0.00    -0.170 F 
ATOM     17  F   LIG d   1       3.611  -2.410  -3.034  0.00  0.00    -0.170 F 
ENDBRANCH  12  14
BRANCH  12  18
ATOM     18  C   LIG d   1       4.427   1.176  -2.461  0.00  0.00     0.411 C 
ATOM     19  F   LIG d   1       5.679   1.002  -3.060  0.00  0.00    -0.170 F 
ATOM     20  F   LIG d   1       3.826   2.334  -2.966  0.00  0.00    -0.170 F 
ATOM     21  F   LIG d   1       4.585   1.298  -1.076  0.00  0.00    -0.170 F 
ENDBRANCH  12  18
ENDBRANCH  10  12
ENDBRANCH   9  10
ENDBRANCH   5   9
BRANCH   4  22
ATOM     22  C   LIG d   1       2.853   1.395  -7.509  0.00  0.00    -0.036 C 
ATOM     23  H   LIG d   1       3.688   2.091  -7.432  0.00  0.00     0.028 H 
ATOM     24  H   LIG d   1       2.327   1.563  -8.449  0.00  0.00     0.028 H 
ATOM     25  H   LIG d   1       2.167   1.557  -6.676  0.00  0.00     0.028 H 
ENDBRANCH   4  22
BRANCH   3  26
ATOM     26  C   LIG d   1       2.717  -0.264  -9.869  0.00  0.00    -0.039 C 
ATOM     27  H   LIG d   1       1.966  -0.956 -10.251  0.00  0.00     0.028 H 
ATOM     28  H   LIG d   1       2.253   0.702  -9.669  0.00  0.00     0.028 H 
ATOM     29  H   LIG d   1       3.507  -0.141 -10.611  0.00  0.00     0.028 H 
ENDBRANCH   3  26
BRANCH   1  30
ATOM     30  C   LIG d   1       4.838  -4.033  -7.351  0.00  0.00    -0.040 C 
ATOM     31  H   LIG d   1       4.206  -4.633  -6.695  0.00  0.00     0.028 H 
ATOM     32  H   LIG d   1       4.819  -4.454  -8.356  0.00  0.00     0.028 H 
ATOM     33  H   LIG d   1       5.860  -4.036  -6.974  0.00  0.00     0.028 H 
ENDBRANCH   1  30
TORSDOF 8
ENDMDL
MODEL 2
REMARK VINA RESULT:      -6.5      0.791      2.233
REMARK  8 active torsions:
REMARK  status: ('A' for Active; 'I' for Inactive)
REMARK    1  A    between atoms: C_1  and  C_2 
REMARK    2  A    between atoms: C_4  and  C_21 
REMARK    3  A    between atoms: C_5  and  C_20 
REMARK    4  A    between atoms: C_6  and  O_8 
REMARK    5  A    between atoms: O_8  and  C_9 
REMARK    6  A    between atoms: C_9  and  C_11 
REMARK    7  A    between atoms: C_11  and  C_12 
REMARK    8  A    between atoms: C_11  and  C_16 
ROOT
ATOM      1  C   LIG d   1       3.960  -2.702  -7.892  0.00  0.00    -0.047 A 
ATOM      2  C   LIG d   1       3.266  -2.182  -8.970  0.00  0.00    -0.055 A 
ATOM      3  C   LIG d   1       2.914  -0.846  -8.988  0.00  0.00    -0.044 A 
ATOM      4  C   LIG d   1       3.256  -0.026  -7.930  0.00  0.00    -0.005 A 
ATOM      5  C   LIG d   1       3.952  -0.545  -6.847  0.00  0.00     0.135 A 
ATOM      6  C   LIG d   1       4.299  -1.889  -6.829  0.00  0.00    -0.016 A 
ATOM      7  H   LIG d   1       2.999  -2.821  -9.798  0.00  0.00     0.062 H 
ATOM      8  H   LIG d   1       4.837  -2.296  -5.986  0.00  0.00     0.066 H 
ENDROOT
BRANCH   5   9
ATOM      9  O   LIG d   1       4.289   0.260  -5.805  0.00  0.00    -0.425 OA
BRANCH   9  10
ATOM     10  C   LIG d   1       3.639   0.091  -4.643  0.00  0.00     0.333 C 
ATOM     11  O   LIG d   1       2.436   0.194  -4.603  0.00  0.00    -0.249 OA
BRANCH  10  12
ATOM     12  C   LIG d   1       4.410  -0.228  -3.387  0.00  0.00     0.245 C 
ATOM     13  H   LIG d   1       5.432  -0.501  -3.648  0.00  0.00     0.059 H 
BRANCH  12  14
ATOM     14  C   LIG d   1       4.427   1.000  -2.474  0.00  0.00     0.411 C 
ATOM     15  F   LIG d   1       4.626   0.594  -1.150  0.00  0.00    -0.170 F 
ATOM     16  F   LIG d   1       5.465   1.855  -2.862  0.00  0.00    -0.170 F 
ATOM     17  F   LIG d   1       3.205   1.673  -2.577  0.00  0.00    -0.170 F 
ENDBRANCH  12  14
BRANCH  12  18
ATOM     18  C   LIG d   1       3.740  -1.396  -2.660  0.00  0.00     0.411 C 
ATOM     19  F   LIG d   1       4.470  -1.709  -1.508  0.00  0.00    -0.170 F 
ATOM     20  F   LIG d   1       2.437  -1.036  -2.302  0.00  0.00    -0.170 F 
ATOM     21  F   LIG d   1       3.701  -2.510  -3.505  0.00  0.00    -0.170 F 
ENDBRANCH  12  18
ENDBRANCH  10  12
ENDBRANCH   9  10
ENDBRANCH   5   9
BRANCH   4  22
ATOM     22  C   LIG d   1       2.873   1.432  -7.950  0.00  0.00    -0.036 C 
ATOM     23  H   LIG d   1       2.046   1.581  -8.644  0.00  0.00     0.028 H 
ATOM     24  H   LIG d   1       2.568   1.741  -6.951  0.00  0.00     0.028 H 
ATOM     25  H   LIG d   1       3.729   2.028  -8.269  0.00  0.00     0.028 H 
ENDBRANCH   4  22
BRANCH   3  26
ATOM     26  C   LIG d   1       2.158  -0.282 -10.163  0.00  0.00    -0.039 C 
ATOM     27  H   LIG d   1       2.851  -0.090 -10.982  0.00  0.00     0.028 H 
ATOM     28  H   LIG d   1       1.402  -0.998 -10.486  0.00  0.00     0.028 H 
ATOM     29  H   LIG d   1       1.674   0.650  -9.870  0.00  0.00     0.028 H 
ENDBRANCH   3  26
BRANCH   1  30
ATOM     30  C   LIG d   1       4.342  -4.160  -7.876  0.00  0.00    -0.040 C 
ATOM     31  H   LIG d   1       4.938  -4.390  -8.760  0.00  0.00     0.028 H 
ATOM     32  H   LIG d   1       4.926  -4.373  -6.980  0.00  0.00     0.028 H 
ATOM     33  H   LIG d   1       3.441  -4.772  -7.876  0.00  0.00     0.028 H 
ENDBRANCH   1  30
TORSDOF 8
ENDMDL
MODEL 3
REMARK VINA RESULT:      -6.4      0.553      2.315
REMARK  8 active torsions:
REMARK  status: ('A' for Active; 'I' for Inactive)
REMARK    1  A    between atoms: C_1  and  C_2 
REMARK    2  A    between atoms: C_4  and  C_21 
REMARK    3  A    between atoms: C_5  and  C_20 
REMARK    4  A    between atoms: C_6  and  O_8 
REMARK    5  A    between atoms: O_8  and  C_9 
REMARK    6  A    between atoms: C_9  and  C_11 
REMARK    7  A    between atoms: C_11  and  C_12 
REMARK    8  A    between atoms: C_11  and  C_16 
ROOT
ATOM      1  C   LIG d   1       2.767  -0.689  -8.429  0.00  0.00    -0.047 A 
ATOM      2  C   LIG d   1       3.448  -1.841  -8.779  0.00  0.00    -0.055 A 
ATOM      3  C   LIG d   1       4.384  -2.381  -7.917  0.00  0.00    -0.044 A 
ATOM      4  C   LIG d   1       4.640  -1.771  -6.704  0.00  0.00    -0.005 A 
ATOM      5  C   LIG d   1       3.959  -0.616  -6.351  0.00  0.00     0.135 A 
ATOM      6  C   LIG d   1       3.024  -0.072  -7.221  0.00  0.00    -0.016 A 
ATOM      7  H   LIG d   1       3.248  -2.319  -9.726  0.00  0.00     0.062 H 
ATOM      8  H   LIG d   1       2.495   0.830  -6.951  0.00  0.00     0.066 H 
ENDROOT
BRANCH   5   9
ATOM      9  O   LIG d   1       4.210  -0.014  -5.158  0.00  0.00    -0.425 OA
BRANCH   9  10
ATOM     10  C   LIG d   1       3.251  -0.053  -4.220  0.00  0.00     0.333 C 
ATOM     11  O   LIG d   1       2.087  -0.070  -4.544  0.00  0.00    -0.249 OA
BRANCH  10  12
ATOM     12  C   LIG d   1       3.626  -0.075  -2.760  0.00  0.00     0.245 C 
ATOM     13  H   LIG d   1       2.723  -0.033  -2.152  0.00  0.00     0.059 H 
BRANCH  12  14
ATOM     14  C   LIG d   1       4.391  -1.364  -2.449  0.00  0.00     0.411 C 
ATOM     15  F   LIG d   1       5.699  -1.258  -2.934  0.00  0.00    -0.170 F 
ATOM     16  F   LIG d   1       4.422  -1.565  -1.065  0.00  0.00    -0.170 F 
ATOM     17  F   LIG d   1       3.751  -2.445  -3.064  0.00  0.00    -0.170 F 
ENDBRANCH  12  14
BRANCH  12  18
ATOM     18  C   LIG d   1       4.511   1.133  -2.443  0.00  0.00     0.411 C 
ATOM     19  F   LIG d   1       4.663   1.249  -1.057  0.00  0.00    -0.170 F 
ATOM     20  F   LIG d   1       5.765   0.961  -3.037  0.00  0.00    -0.170 F 
ATOM     21  F   LIG d   1       3.912   2.293  -2.946  0.00  0.00    -0.170 F 
ENDBRANCH  12  18
ENDBRANCH  10  12
ENDBRANCH   9  10
ENDBRANCH   5   9
BRANCH   4  22
ATOM     22  C   LIG d   1       5.661  -2.361  -5.764  0.00  0.00    -0.036 C 
ATOM     23  H   LIG d   1       5.159  -2.994  -5.033  0.00  0.00     0.028 H 
ATOM     24  H   LIG d   1       6.375  -2.957  -6.331  0.00  0.00     0.028 H 
ATOM     25  H   LIG d   1       6.187  -1.557  -5.249  0.00  0.00     0.028 H 
ENDBRANCH   4  22
BRANCH   3  26
ATOM     26  C   LIG d   1       5.124  -3.636  -8.300  0.00  0.00    -0.039 C 
ATOM     27  H   LIG d   1       5.509  -4.119  -7.403  0.00  0.00     0.028 H 
ATOM     28  H   LIG d   1       4.446  -4.315  -8.817  0.00  0.00     0.028 H 
ATOM     29  H   LIG d   1       5.954  -3.381  -8.960  0.00  0.00     0.028 H 
ENDBRANCH   3  26
BRANCH   1  30
ATOM     30  C   LIG d   1       1.746  -0.103  -9.371  0.00  0.00    -0.040 C 
ATOM     31  H   LIG d   1       1.063   0.538  -8.814  0.00  0.00     0.028 H 
ATOM     32  H   LIG d   1       2.254   0.487 -10.135  0.00  0.00     0.028 H 
ATOM     33  H   LIG d   1       1.185  -0.907  -9.845  0.00  0.00     0.028 H 
ENDBRANCH   1  30
TORSDOF 8
ENDMDL
MODEL 4
REMARK VINA RESULT:      -6.3      1.357      2.096
REMARK  8 active torsions:
REMARK  status: ('A' for Active; 'I' for Inactive)
REMARK    1  A    between atoms: C_1  and  C_2 
REMARK    2  A    between atoms: C_4  and  C_21 
REMARK    3  A    between atoms: C_5  and  C_20 
REMARK    4  A    between atoms: C_6  and  O_8 
REMARK    5  A    between atoms: O_8  and  C_9 
REMARK    6  A    between atoms: C_9  and  C_11 
REMARK    7  A    between atoms: C_11  and  C_12 
REMARK    8  A    between atoms: C_11  and  C_16 
ROOT
ATOM      1  C   LIG d   1       4.297  -2.834  -7.845  0.00  0.00    -0.047 A 
ATOM      2  C   LIG d   1       3.324  -2.409  -8.733  0.00  0.00    -0.055 A 
ATOM      3  C   LIG d   1       2.843  -1.115  -8.668  0.00  0.00    -0.044 A 
ATOM      4  C   LIG d   1       3.334  -0.242  -7.716  0.00  0.00    -0.005 A 
ATOM      5  C   LIG d   1       4.308  -0.665  -6.823  0.00  0.00     0.135 A 
ATOM      6  C   LIG d   1       4.785  -1.967  -6.887  0.00  0.00    -0.016 A 
ATOM      7  H   LIG d   1       2.941  -3.090  -9.479  0.00  0.00     0.062 H 
ATOM      8  H   LIG d   1       5.541  -2.301  -6.192  0.00  0.00     0.066 H 
ENDROOT
BRANCH   5   9
ATOM      9  O   LIG d   1       4.792   0.192  -5.886  0.00  0.00    -0.425 OA
BRANCH   9  10
ATOM     10  C   LIG d   1       4.986  -0.278  -4.644  0.00  0.00     0.333 C 
ATOM     11  O   LIG d   1       6.028  -0.063  -4.071  0.00  0.00    -0.249 OA
BRANCH  10  12
ATOM     12  C   LIG d   1       3.904  -1.078  -3.963  0.00  0.00     0.245 C 
ATOM     13  H   LIG d   1       3.534  -1.843  -4.645  0.00  0.00     0.059 H 
BRANCH  12  14
ATOM     14  C   LIG d   1       4.473  -1.743  -2.709  0.00  0.00     0.411 C 
ATOM     15  F   LIG d   1       3.595  -2.740  -2.270  0.00  0.00    -0.170 F 
ATOM     16  F   LIG d   1       5.715  -2.313  -3.007  0.00  0.00    -0.170 F 
ATOM     17  F   LIG d   1       4.629  -0.783  -1.703  0.00  0.00    -0.170 F 
ENDBRANCH  12  14
BRANCH  12  18
ATOM     18  C   LIG d   1       2.754  -0.147  -3.570  0.00  0.00     0.411 C 
ATOM     19  F   LIG d   1       2.043  -0.708  -2.504  0.00  0.00    -0.170 F 
ATOM     20  F   LIG d   1       3.270   1.095  -3.185  0.00  0.00    -0.170 F 
ATOM     21  F   LIG d   1       1.898   0.023  -4.664  0.00  0.00    -0.170 F 
ENDBRANCH  12  18
ENDBRANCH  10  12
ENDBRANCH   9  10
ENDBRANCH   5   9
BRANCH   4  22
ATOM     22  C   LIG d   1       2.810   1.169  -7.645  0.00  0.00    -0.036 C 
ATOM     23  H   LIG d   1       3.229   1.670  -6.772  0.00  0.00     0.028 H 
ATOM     24  H   LIG d   1       3.098   1.710  -8.546  0.00  0.00     0.028 H 
ATOM     25  H   LIG d   1       1.723   1.150  -7.566  0.00  0.00     0.028 H 
ENDBRANCH   4  22
BRANCH   3  26
ATOM     26  C   LIG d   1       1.785  -0.655  -9.636  0.00  0.00    -0.039 C 
ATOM     27  H   LIG d   1       1.489   0.365  -9.393  0.00  0.00     0.028 H 
ATOM     28  H   LIG d   1       2.182  -0.688 -10.651  0.00  0.00     0.028 H 
ATOM     29  H   LIG d   1       0.917  -1.312  -9.565  0.00  0.00     0.028 H 
ENDBRANCH   3  26
BRANCH   1  30
ATOM     30  C   LIG d   1       4.819  -4.246  -7.919  0.00  0.00    -0.040 C 
ATOM     31  H   LIG d   1       4.037  -4.902  -8.303  0.00  0.00     0.028 H 
ATOM     32  H   LIG d   1       5.681  -4.280  -8.586  0.00  0.00     0.028 H 
ATOM     33  H   LIG d   1       5.115  -4.577  -6.925  0.00  0.00     0.028 H 
ENDBRANCH   1  30
TORSDOF 8
ENDMDL
MODEL 5
REMARK VINA RESULT:      -6.2      3.205      4.681
REMARK  8 active torsions:
REMARK  status: ('A' for Active; 'I' for Inactive)
REMARK    1  A    between atoms: C_1  and  C_2 
REMARK    2  A    between atoms: C_4  and  C_21 
REMARK    3  A    between atoms: C_5  and  C_20 
REMARK    4  A    between atoms: C_6  and  O_8 
REMARK    5  A    between atoms: O_8  and  C_9 
REMARK    6  A    between atoms: C_9  and  C_11 
REMARK    7  A    between atoms: C_11  and  C_12 
REMARK    8  A    between atoms: C_11  and  C_16 
ROOT
ATOM      1  C   LIG d   1       8.723   2.172  -4.498  0.00  0.00    -0.047 A 
ATOM      2  C   LIG d   1       8.934   2.535  -5.816  0.00  0.00    -0.055 A 
ATOM      3  C   LIG d   1       8.279   1.866  -6.833  0.00  0.00    -0.044 A 
ATOM      4  C   LIG d   1       7.412   0.833  -6.534  0.00  0.00    -0.005 A 
ATOM      5  C   LIG d   1       7.198   0.466  -5.214  0.00  0.00     0.135 A 
ATOM      6  C   LIG d   1       7.862   1.136  -4.195  0.00  0.00    -0.016 A 
ATOM      7  H   LIG d   1       9.611   3.344  -6.050  0.00  0.00     0.062 H 
ATOM      8  H   LIG d   1       7.700   0.850  -3.166  0.00  0.00     0.066 H 
ENDROOT
BRANCH   5   9
ATOM      9  O   LIG d   1       6.345  -0.550  -4.918  0.00  0.00    -0.425 OA
BRANCH   9  10
ATOM     10  C   LIG d   1       5.187  -0.243  -4.314  0.00  0.00     0.333 C 
ATOM     11  O   LIG d   1       4.242   0.128  -4.969  0.00  0.00    -0.249 OA
BRANCH  10  12
ATOM     12  C   LIG d   1       5.065  -0.361  -2.815  0.00  0.00     0.245 C 
ATOM     13  H   LIG d   1       6.054  -0.500  -2.380  0.00  0.00     0.059 H 
BRANCH  12  14
ATOM     14  C   LIG d   1       4.434   0.915  -2.254  0.00  0.00     0.411 C 
ATOM     15  F   LIG d   1       4.727   1.019  -0.890  0.00  0.00    -0.170 F 
ATOM     16  F   LIG d   1       4.951   2.026  -2.928  0.00  0.00    -0.170 F 
ATOM     17  F   LIG d   1       3.047   0.866  -2.430  0.00  0.00    -0.170 F 
ENDBRANCH  12  14
BRANCH  12  18
ATOM     18  C   LIG d   1       4.182  -1.562  -2.469  0.00  0.00     0.411 C 
ATOM     19  F   LIG d   1       2.843  -1.248  -2.727  0.00  0.00    -0.170 F 
ATOM     20  F   LIG d   1       4.562  -2.660  -3.248  0.00  0.00    -0.170 F 
ATOM     21  F   LIG d   1       4.334  -1.876  -1.114  0.00  0.00    -0.170 F 
ENDBRANCH  12  18
ENDBRANCH  10  12
ENDBRANCH   9  10
ENDBRANCH   5   9
BRANCH   4  22
ATOM     22  C   LIG d   1       6.697   0.104  -7.643  0.00  0.00    -0.036 C 
ATOM     23  H   LIG d   1       7.425  -0.253  -8.372  0.00  0.00     0.028 H 
ATOM     24  H   LIG d   1       6.153  -0.744  -7.229  0.00  0.00     0.028 H 
ATOM     25  H   LIG d   1       5.996   0.782  -8.132  0.00  0.00     0.028 H 
ENDBRANCH   4  22
BRANCH   3  26
ATOM     26  C   LIG d   1       8.511   2.264  -8.267  0.00  0.00    -0.039 C 
ATOM     27  H   LIG d   1       8.928   1.420  -8.815  0.00  0.00     0.028 H 
ATOM     28  H   LIG d   1       7.564   2.560  -8.720  0.00  0.00     0.028 H 
ATOM     29  H   LIG d   1       9.208   3.101  -8.304  0.00  0.00     0.028 H 
ENDBRANCH   3  26
BRANCH   1  30
ATOM     30  C   LIG d   1       9.438   2.904  -3.391  0.00  0.00    -0.040 C 
ATOM     31  H   LIG d   1       8.720   3.192  -2.623  0.00  0.00     0.028 H 
ATOM     32  H   LIG d   1      10.195   2.252  -2.955  0.00  0.00     0.028 H 
ATOM     33  H   LIG d   1       9.915   3.796  -3.795  0.00  0.00     0.028 H 
ENDBRANCH   1  30
TORSDOF 8
ENDMDL
MODEL 6
REMARK VINA RESULT:      -6.2      1.166      3.309
REMARK  8 active torsions:
REMARK  status: ('A' for Active; 'I' for Inactive)
REMARK    1  A    between atoms: C_1  and  C_2 
REMARK    2  A    between atoms: C_4  and  C_21 
REMARK    3  A    between atoms: C_5  and  C_20 
REMARK    4  A    between atoms: C_6  and  O_8 
REMARK    5  A    between atoms: O_8  and  C_9 
REMARK    6  A    between atoms: C_9  and  C_11 
REMARK    7  A    between atoms: C_11  and  C_12 
REMARK    8  A    between atoms: C_11  and  C_16 
ROOT
ATOM      1  C   LIG d   1       3.224   0.789  -8.295  0.00  0.00    -0.047 A 
ATOM      2  C   LIG d   1       3.500  -0.166  -9.257  0.00  0.00    -0.055 A 
ATOM      3  C   LIG d   1       3.933  -1.424  -8.882  0.00  0.00    -0.044 A 
ATOM      4  C   LIG d   1       4.091  -1.730  -7.544  0.00  0.00    -0.005 A 
ATOM      5  C   LIG d   1       3.816  -0.775  -6.576  0.00  0.00     0.135 A 
ATOM      6  C   LIG d   1       3.387   0.490  -6.957  0.00  0.00    -0.016 A 
ATOM      7  H   LIG d   1       3.375   0.071 -10.303  0.00  0.00     0.062 H 
ATOM      8  H   LIG d   1       3.176   1.237  -6.206  0.00  0.00     0.066 H 
ENDROOT
BRANCH   5   9
ATOM      9  O   LIG d   1       3.971  -1.074  -5.260  0.00  0.00    -0.425 OA
BRANCH   9  10
ATOM     10  C   LIG d   1       5.060  -0.603  -4.631  0.00  0.00     0.333 C 
ATOM     11  O   LIG d   1       6.025  -0.257  -5.270  0.00  0.00    -0.249 OA
BRANCH  10  12
ATOM     12  C   LIG d   1       5.079  -0.508  -3.126  0.00  0.00     0.245 C 
ATOM     13  H   LIG d   1       6.088  -0.699  -2.764  0.00  0.00     0.059 H 
BRANCH  12  14
ATOM     14  C   LIG d   1       4.638   0.893  -2.698  0.00  0.00     0.411 C 
ATOM     15  F   LIG d   1       4.326   0.887  -1.334  0.00  0.00    -0.170 F 
ATOM     16  F   LIG d   1       5.676   1.800  -2.935  0.00  0.00    -0.170 F 
ATOM     17  F   LIG d   1       3.510   1.271  -3.433  0.00  0.00    -0.170 F 
ENDBRANCH  12  14
BRANCH  12  18
ATOM     18  C   LIG d   1       4.121  -1.547  -2.538  0.00  0.00     0.411 C 
ATOM     19  F   LIG d   1       2.803  -1.098  -2.677  0.00  0.00    -0.170 F 
ATOM     20  F   LIG d   1       4.274  -2.760  -3.218  0.00  0.00    -0.170 F 
ATOM     21  F   LIG d   1       4.410  -1.732  -1.182  0.00  0.00    -0.170 F 
ENDBRANCH  12  18
ENDBRANCH  10  12
ENDBRANCH   9  10
ENDBRANCH   5   9
BRANCH   4  22
ATOM     22  C   LIG d   1       4.562  -3.102  -7.135  0.00  0.00    -0.036 C 
ATOM     23  H   LIG d   1       5.536  -3.023  -6.652  0.00  0.00     0.028 H 
ATOM     24  H   LIG d   1       3.847  -3.540  -6.439  0.00  0.00     0.028 H 
ATOM     25  H   LIG d   1       4.645  -3.736  -8.018  0.00  0.00     0.028 H 
ENDBRANCH   4  22
BRANCH   3  26
ATOM     26  C   LIG d   1       4.232  -2.462  -9.932  0.00  0.00    -0.039 C 
ATOM     27  H   LIG d   1       4.325  -3.440  -9.460  0.00  0.00     0.028 H 
ATOM     28  H   LIG d   1       3.422  -2.485 -10.661  0.00  0.00     0.028 H 
ATOM     29  H   LIG d   1       5.166  -2.211 -10.436  0.00  0.00     0.028 H 
ENDBRANCH   3  26
BRANCH   1  30
ATOM     30  C   LIG d   1       2.752   2.159  -8.708  0.00  0.00    -0.040 C 
ATOM     31  H   LIG d   1       3.531   2.652  -9.290  0.00  0.00     0.028 H 
ATOM     32  H   LIG d   1       1.851   2.065  -9.314  0.00  0.00     0.028 H 
ATOM     33  H   LIG d   1       2.533   2.751  -7.820  0.00  0.00     0.028 H 
ENDBRANCH   1  30
TORSDOF 8
ENDMDL
MODEL 7
REMARK VINA RESULT:      -6.1      1.921      3.105
REMARK  8 active torsions:
REMARK  status: ('A' for Active; 'I' for Inactive)
REMARK    1  A    between atoms: C_1  and  C_2 
REMARK    2  A    between atoms: C_4  and  C_21 
REMARK    3  A    between atoms: C_5  and  C_20 
REMARK    4  A    between atoms: C_6  and  O_8 
REMARK    5  A    between atoms: O_8  and  C_9 
REMARK    6  A    between atoms: C_9  and  C_11 
REMARK    7  A    between atoms: C_11  and  C_12 
REMARK    8  A    between atoms: C_11  and  C_16 
ROOT
ATOM      1  C   LIG d   1       6.875   0.760  -7.597  0.00  0.00    -0.047 A 
ATOM      2  C   LIG d   1       6.208   1.091  -8.763  0.00  0.00    -0.055 A 
ATOM      3  C   LIG d   1       4.866   0.791  -8.903  0.00  0.00    -0.044 A 
ATOM      4  C   LIG d   1       4.187   0.161  -7.878  0.00  0.00    -0.005 A 
ATOM      5  C   LIG d   1       4.853  -0.173  -6.707  0.00  0.00     0.135 A 
ATOM      6  C   LIG d   1       6.203   0.124  -6.572  0.00  0.00    -0.016 A 
ATOM      7  H   LIG d   1       6.737   1.585  -9.565  0.00  0.00     0.062 H 
ATOM      8  H   LIG d   1       6.725  -0.138  -5.664  0.00  0.00     0.066 H 
ENDROOT
BRANCH   5   9
ATOM      9  O   LIG d   1       4.188  -0.793  -5.698  0.00  0.00    -0.425 OA
BRANCH   9  10
ATOM     10  C   LIG d   1       3.854  -0.063  -4.622  0.00  0.00     0.333 C 
ATOM     11  O   LIG d   1       3.029   0.814  -4.718  0.00  0.00    -0.249 OA
BRANCH  10  12
ATOM     12  C   LIG d   1       4.511  -0.337  -3.292  0.00  0.00     0.245 C 
ATOM     13  H   LIG d   1       5.574  -0.523  -3.444  0.00  0.00     0.059 H 
BRANCH  12  14
ATOM     14  C   LIG d   1       4.330   0.874  -2.375  0.00  0.00     0.411 C 
ATOM     15  F   LIG d   1       2.965   1.094  -2.157  0.00  0.00    -0.170 F 
ATOM     16  F   LIG d   1       4.964   0.631  -1.152  0.00  0.00    -0.170 F 
ATOM     17  F   LIG d   1       4.893   2.004  -2.978  0.00  0.00    -0.170 F 
ENDBRANCH  12  14
BRANCH  12  18
ATOM     18  C   LIG d   1       3.866  -1.566  -2.649  0.00  0.00     0.411 C 
ATOM     19  F   LIG d   1       2.476  -1.404  -2.623  0.00  0.00    -0.170 F 
ATOM     20  F   LIG d   1       4.189  -2.706  -3.393  0.00  0.00    -0.170 F 
ATOM     21  F   LIG d   1       4.343  -1.712  -1.341  0.00  0.00    -0.170 F 
ENDBRANCH  12  18
ENDBRANCH  10  12
ENDBRANCH   9  10
ENDBRANCH   5   9
BRANCH   4  22
ATOM     22  C   LIG d   1       2.724  -0.165  -8.030  0.00  0.00    -0.036 C 
ATOM     23  H   LIG d   1       2.436  -0.069  -9.077  0.00  0.00     0.028 H 
ATOM     24  H   LIG d   1       2.542  -1.186  -7.697  0.00  0.00     0.028 H 
ATOM     25  H   LIG d   1       2.133   0.524  -7.426  0.00  0.00     0.028 H 
ENDBRANCH   4  22
BRANCH   3  26
ATOM     26  C   LIG d   1       4.142   1.153 -10.174  0.00  0.00    -0.039 C 
ATOM     27  H   LIG d   1       4.835   1.640 -10.860  0.00  0.00     0.028 H 
ATOM     28  H   LIG d   1       3.747   0.249 -10.637  0.00  0.00     0.028 H 
ATOM     29  H   LIG d   1       3.321   1.831  -9.944  0.00  0.00     0.028 H 
ENDBRANCH   3  26
BRANCH   1  30
ATOM     30  C   LIG d   1       8.338   1.088  -7.447  0.00  0.00    -0.040 C 
ATOM     31  H   LIG d   1       8.634   1.792  -8.226  0.00  0.00     0.028 H 
ATOM     32  H   LIG d   1       8.512   1.536  -6.469  0.00  0.00     0.028 H 
ATOM     33  H   LIG d   1       8.926   0.176  -7.540  0.00  0.00     0.028 H 
ENDBRANCH   1  30
TORSDOF 8
ENDMDL
MODEL 8
REMARK VINA RESULT:      -6.1      2.015      3.021
REMARK  8 active torsions:
REMARK  status: ('A' for Active; 'I' for Inactive)
REMARK    1  A    between atoms: C_1  and  C_2 
REMARK    2  A    between atoms: C_4  and  C_21 
REMARK    3  A    between atoms: C_5  and  C_20 
REMARK    4  A    between atoms: C_6  and  O_8 
REMARK    5  A    between atoms: O_8  and  C_9 
REMARK    6  A    between atoms: C_9  and  C_11 
REMARK    7  A    between atoms: C_11  and  C_12 
REMARK    8  A    between atoms: C_11  and  C_16 
ROOT
ATOM      1  C   LIG d   1       3.390  -0.305  -8.376  0.00  0.00    -0.047 A 
ATOM      2  C   LIG d   1       4.289   0.636  -8.844  0.00  0.00    -0.055 A 
ATOM      3  C   LIG d   1       5.527   0.771  -8.244  0.00  0.00    -0.044 A 
ATOM      4  C   LIG d   1       5.868  -0.034  -7.175  0.00  0.00    -0.005 A 
ATOM      5  C   LIG d   1       4.969  -0.978  -6.702  0.00  0.00     0.135 A 
ATOM      6  C   LIG d   1       3.724  -1.108  -7.303  0.00  0.00    -0.016 A 
ATOM      7  H   LIG d   1       4.024   1.265  -9.681  0.00  0.00     0.062 H 
ATOM      8  H   LIG d   1       3.020  -1.839  -6.935  0.00  0.00     0.066 H 
ENDROOT
BRANCH   5   9
ATOM      9  O   LIG d   1       5.303  -1.771  -5.650  0.00  0.00    -0.425 OA
BRANCH   9  10
ATOM     10  C   LIG d   1       4.562  -1.681  -4.534  0.00  0.00     0.333 C 
ATOM     11  O   LIG d   1       3.993  -2.658  -4.105  0.00  0.00    -0.249 OA
BRANCH  10  12
ATOM     12  C   LIG d   1       4.439  -0.361  -3.816  0.00  0.00     0.245 C 
ATOM     13  H   LIG d   1       4.785   0.440  -4.468  0.00  0.00     0.059 H 
BRANCH  12  14
ATOM     14  C   LIG d   1       2.976  -0.120  -3.441  0.00  0.00     0.411 C 
ATOM     15  F   LIG d   1       2.231   0.119  -4.600  0.00  0.00    -0.170 F 
ATOM     16  F   LIG d   1       2.471  -1.247  -2.785  0.00  0.00    -0.170 F 
ATOM     17  F   LIG d   1       2.890   0.991  -2.593  0.00  0.00    -0.170 F 
ENDBRANCH  12  14
BRANCH  12  18
ATOM     18  C   LIG d   1       5.294  -0.391  -2.547  0.00  0.00     0.411 C 
ATOM     19  F   LIG d   1       4.613  -1.086  -1.541  0.00  0.00    -0.170 F 
ATOM     20  F   LIG d   1       6.508  -1.031  -2.816  0.00  0.00    -0.170 F 
ATOM     21  F   LIG d   1       5.542   0.920  -2.122  0.00  0.00    -0.170 F 
ENDBRANCH  12  18
ENDBRANCH  10  12
ENDBRANCH   9  10
ENDBRANCH   5   9
BRANCH   4  22
ATOM     22  C   LIG d   1       7.218   0.113  -6.521  0.00  0.00    -0.036 C 
ATOM     23  H   LIG d   1       7.521   1.160  -6.541  0.00  0.00     0.028 H 
ATOM     24  H   LIG d   1       7.161  -0.227  -5.487  0.00  0.00     0.028 H 
ATOM     25  H   LIG d   1       7.951  -0.488  -7.060  0.00  0.00     0.028 H 
ENDBRANCH   4  22
BRANCH   3  26
ATOM     26  C   LIG d   1       6.504   1.797  -8.756  0.00  0.00    -0.039 C 
ATOM     27  H   LIG d   1       7.472   1.325  -8.923  0.00  0.00     0.028 H 
ATOM     28  H   LIG d   1       6.136   2.213  -9.694  0.00  0.00     0.028 H 
ATOM     29  H   LIG d   1       6.611   2.596  -8.023  0.00  0.00     0.028 H 
ENDBRANCH   3  26
BRANCH   1  30
ATOM     30  C   LIG d   1       2.041  -0.450  -9.033  0.00  0.00    -0.040 C 
ATOM     31  H   LIG d   1       1.924  -1.470  -9.400  0.00  0.00     0.028 H 
ATOM     32  H   LIG d   1       1.258  -0.234  -8.307  0.00  0.00     0.028 H 
ATOM     33  H   LIG d   1       1.967   0.247  -9.867  0.00  0.00     0.028 H 
ENDBRANCH   1  30
TORSDOF 8
ENDMDL
MODEL 9
REMARK VINA RESULT:      -6.1      2.217      2.986
REMARK  8 active torsions:
REMARK  status: ('A' for Active; 'I' for Inactive)
REMARK    1  A    between atoms: C_1  and  C_2 
REMARK    2  A    between atoms: C_4  and  C_21 
REMARK    3  A    between atoms: C_5  and  C_20 
REMARK    4  A    between atoms: C_6  and  O_8 
REMARK    5  A    between atoms: O_8  and  C_9 
REMARK    6  A    between atoms: C_9  and  C_11 
REMARK    7  A    between atoms: C_11  and  C_12 
REMARK    8  A    between atoms: C_11  and  C_16 
ROOT
ATOM      1  C   LIG d   1       6.729   1.215  -8.452  0.00  0.00    -0.047 A 
ATOM      2  C   LIG d   1       5.649   1.772  -9.114  0.00  0.00    -0.055 A 
ATOM      3  C   LIG d   1       4.362   1.387  -8.788  0.00  0.00    -0.044 A 
ATOM      4  C   LIG d   1       4.152   0.445  -7.800  0.00  0.00    -0.005 A 
ATOM      5  C   LIG d   1       5.232  -0.116  -7.135  0.00  0.00     0.135 A 
ATOM      6  C   LIG d   1       6.524   0.268  -7.468  0.00  0.00    -0.016 A 
ATOM      7  H   LIG d   1       5.812   2.510  -9.886  0.00  0.00     0.062 H 
ATOM      8  H   LIG d   1       7.367  -0.170  -6.955  0.00  0.00     0.066 H 
ENDROOT
BRANCH   5   9
ATOM      9  O   LIG d   1       5.027  -1.043  -6.162  0.00  0.00    -0.425 OA
BRANCH   9  10
ATOM     10  C   LIG d   1       4.827  -0.607  -4.909  0.00  0.00     0.333 C 
ATOM     11  O   LIG d   1       5.492   0.303  -4.472  0.00  0.00    -0.249 OA
BRANCH  10  12
ATOM     12  C   LIG d   1       3.773  -1.253  -4.045  0.00  0.00     0.245 C 
ATOM     13  H   LIG d   1       3.030  -1.734  -4.679  0.00  0.00     0.059 H 
BRANCH  12  14
ATOM     14  C   LIG d   1       4.427  -2.298  -3.140  0.00  0.00     0.411 C 
ATOM     15  F   LIG d   1       4.669  -3.465  -3.873  0.00  0.00    -0.170 F 
ATOM     16  F   LIG d   1       5.637  -1.798  -2.647  0.00  0.00    -0.170 F 
ATOM     17  F   LIG d   1       3.572  -2.588  -2.071  0.00  0.00    -0.170 F 
ENDBRANCH  12  14
BRANCH  12  18
ATOM     18  C   LIG d   1       3.095  -0.184  -3.185  0.00  0.00     0.411 C 
ATOM     19  F   LIG d   1       1.864  -0.666  -2.726  0.00  0.00    -0.170 F 
ATOM     20  F   LIG d   1       3.912   0.122  -2.091  0.00  0.00    -0.170 F 
ATOM     21  F   LIG d   1       2.889   0.969  -3.950  0.00  0.00    -0.170 F 
ENDBRANCH  12  18
ENDBRANCH  10  12
ENDBRANCH   9  10
ENDBRANCH   5   9
BRANCH   4  22
ATOM     22  C   LIG d   1       2.748   0.026  -7.444  0.00  0.00    -0.036 C 
ATOM     23  H   LIG d   1       2.391   0.624  -6.606  0.00  0.00     0.028 H 
ATOM     24  H   LIG d   1       2.094   0.179  -8.302  0.00  0.00     0.028 H 
ATOM     25  H   LIG d   1       2.743  -1.028  -7.167  0.00  0.00     0.028 H 
ENDBRANCH   4  22
BRANCH   3  26
ATOM     26  C   LIG d   1       3.189   1.996  -9.510  0.00  0.00    -0.039 C 
ATOM     27  H   LIG d   1       3.441   2.134 -10.561  0.00  0.00     0.028 H 
ATOM     28  H   LIG d   1       2.327   1.334  -9.427  0.00  0.00     0.028 H 
ATOM     29  H   LIG d   1       2.949   2.962  -9.065  0.00  0.00     0.028 H 
ENDBRANCH   3  26
BRANCH   1  30
ATOM     30  C   LIG d   1       8.131   1.637  -8.810  0.00  0.00    -0.040 C 
ATOM     31  H   LIG d   1       8.092   2.432  -9.556  0.00  0.00     0.028 H 
ATOM     32  H   LIG d   1       8.639   2.002  -7.918  0.00  0.00     0.028 H 
ATOM     33  H   LIG d   1       8.674   0.785  -9.216  0.00  0.00     0.028 H 
ENDBRANCH   1  30
TORSDOF 8
ENDMDL
