MODEL 1
REMARK VINA RESULT:      -5.3      0.000      0.000
REMARK  4 active torsions:
REMARK  status: ('A' for Active; 'I' for Inactive)
REMARK    1  A    between atoms: CD1_1  and  CG1_2 
REMARK    2  A    between atoms: CG1_2  and  CB_3 
REMARK    3  A    between atoms: CB_3  and  CG2_5 
REMARK    4  A    between atoms: CB_3  and  CA_6 
REMARK       I    between atoms: CA_6  and  C_8 
REMARK       I    between atoms: CA_6  and  N_35 
REMARK       I    between atoms: C_8  and  N_10 
REMARK       I    between atoms: CA_14  and  C_16 
ROOT
ATOM      1  CA  ILE d   1       5.314  -1.668  -5.621  0.00  0.00     0.056 C 
ATOM      2  HA  ILE d   1       5.786  -2.255  -6.410  0.00  0.00     0.095 H 
ATOM      3  C   ILE d   1       4.316  -0.718  -6.232  0.00  0.00     0.265 C 
ATOM      4  O   ILE d   1       4.012   0.301  -5.647  0.00  0.00    -0.269 OA
ATOM      5  H1  ILE d   1       5.928  -0.351  -4.164  0.00  0.00     0.200 HD
ATOM      6  H2  ILE d   1       7.057  -1.514  -4.535  0.00  0.00     0.200 HD
ATOM      7  N   ILE d   1       6.349  -0.889  -4.918  0.00  0.00     0.228 N 
ATOM      8  H3  ILE d   1       6.795  -0.244  -5.581  0.00  0.00     0.200 HD
ATOM      9  N   PRO d   2       3.762  -0.999  -7.427  0.00  0.00    -0.289 N 
ATOM     10  CD  PRO d   2       4.119  -2.137  -8.293  0.00  0.00     0.016 C 
ATOM     11  CG  PRO d   2       2.862  -2.382  -9.166  0.00  0.00    -0.035 C 
ATOM     12  CB  PRO d   2       2.369  -0.932  -9.414  0.00  0.00    -0.028 C 
ATOM     13  CA  PRO d   2       2.701  -0.221  -8.084  0.00  0.00     0.066 C 
ATOM     14  HA  PRO d   2       1.817  -0.188  -7.448  0.00  0.00     0.056 H 
ATOM     15  C   PRO d   2       3.188   1.179  -8.359  0.00  0.00     0.062 C 
ATOM     16  O   PRO d   2       4.307   1.503  -8.041  0.00  0.00    -0.548 OA
ATOM     17  HD1 PRO d   2       4.339  -3.019  -7.690  0.00  0.00     0.046 H 
ATOM     18  HD2 PRO d   2       4.973  -1.883  -8.920  0.00  0.00     0.046 H 
ATOM     19  HG1 PRO d   2       3.127  -2.870 -10.104  0.00  0.00     0.028 H 
ATOM     20  HG2 PRO d   2       2.116  -2.961  -8.623  0.00  0.00     0.028 H 
ATOM     21  HB1 PRO d   2       2.912  -0.475 -10.241  0.00  0.00     0.029 H 
ATOM     22  HB2 PRO d   2       1.295  -0.917  -9.601  0.00  0.00     0.029 H 
ATOM     23  OXT PRO d   2       2.376   2.065  -8.957  0.00  0.00    -0.548 OA
ENDROOT
BRANCH   1  24
ATOM     24  CB  ILE d   1       4.597  -2.605  -4.647  0.00  0.00     0.007 C 
ATOM     25  HB  ILE d   1       3.519  -2.493  -4.762  0.00  0.00     0.036 H 
BRANCH  24  26
ATOM     26  CG1 ILE d   1       4.997  -2.253  -3.213  0.00  0.00    -0.048 C 
ATOM     27 1HG1 ILE d   1       5.536  -3.090  -2.771  0.00  0.00     0.027 H 
ATOM     28 2HG1 ILE d   1       5.637  -1.371  -3.221  0.00  0.00     0.027 H 
BRANCH  26  29
ATOM     29  CD1 ILE d   1       3.739  -1.963  -2.390  0.00  0.00    -0.065 C 
ATOM     30 1HD1 ILE d   1       3.879  -1.040  -1.827  0.00  0.00     0.023 H 
ATOM     31 2HD1 ILE d   1       2.885  -1.856  -3.058  0.00  0.00     0.023 H 
ATOM     32 3HD1 ILE d   1       3.561  -2.787  -1.699  0.00  0.00     0.023 H 
ENDBRANCH  26  29
ENDBRANCH  24  26
BRANCH  24  33
ATOM     33  CG2 ILE d   1       4.993  -4.052  -4.947  0.00  0.00    -0.057 C 
ATOM     34 1HG2 ILE d   1       5.889  -4.308  -4.383  0.00  0.00     0.023 H 
ATOM     35 2HG2 ILE d   1       4.179  -4.719  -4.658  0.00  0.00     0.023 H 
ATOM     36 3HG2 ILE d   1       5.190  -4.162  -6.013  0.00  0.00     0.023 H 
ENDBRANCH  24  33
ENDBRANCH   1  24
TORSDOF 7
ENDMDL
MODEL 2
REMARK VINA RESULT:      -5.2      4.048      5.104
REMARK  4 active torsions:
REMARK  status: ('A' for Active; 'I' for Inactive)
REMARK    1  A    between atoms: CD1_1  and  CG1_2 
REMARK    2  A    between atoms: CG1_2  and  CB_3 
REMARK    3  A    between atoms: CB_3  and  CG2_5 
REMARK    4  A    between atoms: CB_3  and  CA_6 
REMARK       I    between atoms: CA_6  and  C_8 
REMARK       I    between atoms: CA_6  and  N_35 
REMARK       I    between atoms: C_8  and  N_10 
REMARK       I    between atoms: CA_14  and  C_16 
ROOT
ATOM      1  CA  ILE d   1       4.308  -1.563  -4.224  0.00  0.00     0.056 C 
ATOM      2  HA  ILE d   1       4.455  -1.053  -5.176  0.00  0.00     0.095 H 
ATOM      3  C   ILE d   1       4.602  -3.032  -4.390  0.00  0.00     0.265 C 
ATOM      4  O   ILE d   1       4.098  -3.840  -3.639  0.00  0.00    -0.269 OA
ATOM      5  H1  ILE d   1       2.756  -1.852  -2.903  0.00  0.00     0.200 HD
ATOM      6  H2  ILE d   1       2.676  -0.410  -3.727  0.00  0.00     0.200 HD
ATOM      7  N   ILE d   1       2.905  -1.400  -3.803  0.00  0.00     0.228 N 
ATOM      8  H3  ILE d   1       2.290  -1.833  -4.502  0.00  0.00     0.200 HD
ATOM      9  N   PRO d   2       5.422  -3.448  -5.375  0.00  0.00    -0.289 N 
ATOM     10  CD  PRO d   2       6.011  -2.593  -6.421  0.00  0.00     0.016 C 
ATOM     11  CG  PRO d   2       7.286  -3.344  -6.878  0.00  0.00    -0.035 C 
ATOM     12  CB  PRO d   2       6.817  -4.822  -6.809  0.00  0.00    -0.028 C 
ATOM     13  CA  PRO d   2       5.877  -4.830  -5.584  0.00  0.00     0.066 C 
ATOM     14  HA  PRO d   2       6.416  -5.180  -4.703  0.00  0.00     0.056 H 
ATOM     15  C   PRO d   2       4.695  -5.725  -5.851  0.00  0.00     0.062 C 
ATOM     16  O   PRO d   2       3.579  -5.263  -5.868  0.00  0.00    -0.548 OA
ATOM     17  HD1 PRO d   2       6.272  -1.617  -6.011  0.00  0.00     0.046 H 
ATOM     18  HD2 PRO d   2       5.317  -2.481  -7.255  0.00  0.00     0.046 H 
ATOM     19  HG1 PRO d   2       7.558  -3.068  -7.896  0.00  0.00     0.028 H 
ATOM     20  HG2 PRO d   2       8.113  -3.164  -6.191  0.00  0.00     0.028 H 
ATOM     21  HB1 PRO d   2       6.274  -5.097  -7.713  0.00  0.00     0.029 H 
ATOM     22  HB2 PRO d   2       7.665  -5.488  -6.648  0.00  0.00     0.029 H 
ATOM     23  OXT PRO d   2       4.882  -7.036  -6.071  0.00  0.00    -0.548 OA
ENDROOT
BRANCH   1  24
ATOM     24  CB  ILE d   1       5.252  -0.970  -3.176  0.00  0.00     0.007 C 
ATOM     25  HB  ILE d   1       6.008  -1.709  -2.908  0.00  0.00     0.036 H 
BRANCH  24  26
ATOM     26  CG1 ILE d   1       4.453  -0.583  -1.930  0.00  0.00    -0.048 C 
ATOM     27 1HG1 ILE d   1       3.404  -0.832  -2.080  0.00  0.00     0.027 H 
ATOM     28 2HG1 ILE d   1       4.838  -1.127  -1.068  0.00  0.00     0.027 H 
BRANCH  26  29
ATOM     29  CD1 ILE d   1       4.590   0.922  -1.685  0.00  0.00    -0.065 C 
ATOM     30 1HD1 ILE d   1       5.623   1.155  -1.427  0.00  0.00     0.023 H 
ATOM     31 2HD1 ILE d   1       4.309   1.464  -2.587  0.00  0.00     0.023 H 
ATOM     32 3HD1 ILE d   1       3.935   1.217  -0.865  0.00  0.00     0.023 H 
ENDBRANCH  26  29
ENDBRANCH  24  26
BRANCH  24  33
ATOM     33  CG2 ILE d   1       5.935   0.272  -3.750  0.00  0.00    -0.057 C 
ATOM     34 1HG2 ILE d   1       6.680  -0.029  -4.486  0.00  0.00     0.023 H 
ATOM     35 2HG2 ILE d   1       5.190   0.910  -4.228  0.00  0.00     0.023 H 
ATOM     36 3HG2 ILE d   1       6.422   0.825  -2.946  0.00  0.00     0.023 H 
ENDBRANCH  24  33
ENDBRANCH   1  24
TORSDOF 7
ENDMDL
MODEL 3
REMARK VINA RESULT:      -5.1      1.528      1.884
REMARK  4 active torsions:
REMARK  status: ('A' for Active; 'I' for Inactive)
REMARK    1  A    between atoms: CD1_1  and  CG1_2 
REMARK    2  A    between atoms: CG1_2  and  CB_3 
REMARK    3  A    between atoms: CB_3  and  CG2_5 
REMARK    4  A    between atoms: CB_3  and  CA_6 
REMARK       I    between atoms: CA_6  and  C_8 
REMARK       I    between atoms: CA_6  and  N_35 
REMARK       I    between atoms: C_8  and  N_10 
REMARK       I    between atoms: CA_14  and  C_16 
ROOT
ATOM      1  CA  ILE d   1       5.603  -0.309  -4.514  0.00  0.00     0.056 C 
ATOM      2  HA  ILE d   1       6.555  -0.163  -5.025  0.00  0.00     0.095 H 
ATOM      3  C   ILE d   1       4.498  -0.421  -5.533  0.00  0.00     0.265 C 
ATOM      4  O   ILE d   1       3.359  -0.144  -5.225  0.00  0.00    -0.269 OA
ATOM      5  H1  ILE d   1       4.463   0.724  -3.147  0.00  0.00     0.200 HD
ATOM      6  H2  ILE d   1       6.099   0.971  -2.980  0.00  0.00     0.200 HD
ATOM      7  N   ILE d   1       5.340   0.854  -3.649  0.00  0.00     0.228 N 
ATOM      8  H3  ILE d   1       5.271   1.699  -4.229  0.00  0.00     0.200 HD
ATOM      9  N   PRO d   2       4.777  -0.829  -6.787  0.00  0.00    -0.289 N 
ATOM     10  CD  PRO d   2       6.124  -1.091  -7.326  0.00  0.00     0.016 C 
ATOM     11  CG  PRO d   2       5.898  -2.080  -8.497  0.00  0.00    -0.035 C 
ATOM     12  CB  PRO d   2       4.564  -1.556  -9.093  0.00  0.00    -0.028 C 
ATOM     13  CA  PRO d   2       3.788  -1.086  -7.844  0.00  0.00     0.066 C 
ATOM     14  HA  PRO d   2       3.095  -1.863  -7.522  0.00  0.00     0.056 H 
ATOM     15  C   PRO d   2       3.032   0.179  -8.156  0.00  0.00     0.062 C 
ATOM     16  O   PRO d   2       3.287   1.199  -7.561  0.00  0.00    -0.548 OA
ATOM     17  HD1 PRO d   2       6.756  -1.546  -6.562  0.00  0.00     0.046 H 
ATOM     18  HD2 PRO d   2       6.573  -0.167  -7.690  0.00  0.00     0.046 H 
ATOM     19  HG1 PRO d   2       6.705  -2.012  -9.226  0.00  0.00     0.028 H 
ATOM     20  HG2 PRO d   2       5.788  -3.100  -8.131  0.00  0.00     0.028 H 
ATOM     21  HB1 PRO d   2       4.746  -0.721  -9.770  0.00  0.00     0.029 H 
ATOM     22  HB2 PRO d   2       4.028  -2.357  -9.601  0.00  0.00     0.029 H 
ATOM     23  OXT PRO d   2       2.074   0.173  -9.098  0.00  0.00    -0.548 OA
ENDROOT
BRANCH   1  24
ATOM     24  CB  ILE d   1       5.662  -1.591  -3.682  0.00  0.00     0.007 C 
ATOM     25  HB  ILE d   1       5.161  -2.397  -4.220  0.00  0.00     0.036 H 
BRANCH  24  26
ATOM     26  CG1 ILE d   1       4.964  -1.362  -2.341  0.00  0.00    -0.048 C 
ATOM     27 1HG1 ILE d   1       5.623  -1.669  -1.530  0.00  0.00     0.027 H 
ATOM     28 2HG1 ILE d   1       4.723  -0.304  -2.233  0.00  0.00     0.027 H 
BRANCH  26  29
ATOM     29  CD1 ILE d   1       3.675  -2.186  -2.290  0.00  0.00    -0.065 C 
ATOM     30 1HD1 ILE d   1       2.960  -1.786  -3.009  0.00  0.00     0.023 H 
ATOM     31 2HD1 ILE d   1       3.897  -3.224  -2.537  0.00  0.00     0.023 H 
ATOM     32 3HD1 ILE d   1       3.250  -2.133  -1.287  0.00  0.00     0.023 H 
ENDBRANCH  26  29
ENDBRANCH  24  26
BRANCH  24  33
ATOM     33  CG2 ILE d   1       7.123  -1.974  -3.437  0.00  0.00    -0.057 C 
ATOM     34 1HG2 ILE d   1       7.609  -1.198  -2.847  0.00  0.00     0.023 H 
ATOM     35 2HG2 ILE d   1       7.165  -2.921  -2.898  0.00  0.00     0.023 H 
ATOM     36 3HG2 ILE d   1       7.636  -2.078  -4.393  0.00  0.00     0.023 H 
ENDBRANCH  24  33
ENDBRANCH   1  24
TORSDOF 7
ENDMDL
MODEL 4
REMARK VINA RESULT:      -5.0      3.177      5.153
REMARK  4 active torsions:
REMARK  status: ('A' for Active; 'I' for Inactive)
REMARK    1  A    between atoms: CD1_1  and  CG1_2 
REMARK    2  A    between atoms: CG1_2  and  CB_3 
REMARK    3  A    between atoms: CB_3  and  CG2_5 
REMARK    4  A    between atoms: CB_3  and  CA_6 
REMARK       I    between atoms: CA_6  and  C_8 
REMARK       I    between atoms: CA_6  and  N_35 
REMARK       I    between atoms: C_8  and  N_10 
REMARK       I    between atoms: CA_14  and  C_16 
ROOT
ATOM      1  CA  ILE d   1       6.040  -0.476  -6.495  0.00  0.00     0.056 C 
ATOM      2  HA  ILE d   1       5.095  -0.977  -6.709  0.00  0.00     0.095 H 
ATOM      3  C   ILE d   1       6.066  -0.051  -5.049  0.00  0.00     0.265 C 
ATOM      4  O   ILE d   1       6.770   0.874  -4.702  0.00  0.00    -0.269 OA
ATOM      5  H1  ILE d   1       7.042   1.187  -7.176  0.00  0.00     0.200 HD
ATOM      6  H2  ILE d   1       6.095   0.455  -8.330  0.00  0.00     0.200 HD
ATOM      7  N   ILE d   1       6.154   0.719  -7.349  0.00  0.00     0.228 N 
ATOM      8  H3  ILE d   1       5.387   1.366  -7.129  0.00  0.00     0.200 HD
ATOM      9  N   PRO d   2       5.306  -0.696  -4.142  0.00  0.00    -0.289 N 
ATOM     10  CD  PRO d   2       4.328  -1.757  -4.441  0.00  0.00     0.016 C 
ATOM     11  CG  PRO d   2       4.205  -2.566  -3.126  0.00  0.00    -0.035 C 
ATOM     12  CB  PRO d   2       4.309  -1.443  -2.059  0.00  0.00    -0.028 C 
ATOM     13  CA  PRO d   2       5.316  -0.458  -2.692  0.00  0.00     0.066 C 
ATOM     14  HA  PRO d   2       6.315  -0.639  -2.293  0.00  0.00     0.056 H 
ATOM     15  C   PRO d   2       4.898   0.960  -2.402  0.00  0.00     0.062 C 
ATOM     16  O   PRO d   2       4.617   1.705  -3.310  0.00  0.00    -0.548 OA
ATOM     17  HD1 PRO d   2       4.694  -2.396  -5.246  0.00  0.00     0.046 H 
ATOM     18  HD2 PRO d   2       3.366  -1.321  -4.710  0.00  0.00     0.046 H 
ATOM     19  HG1 PRO d   2       3.241  -3.071  -3.066  0.00  0.00     0.028 H 
ATOM     20  HG2 PRO d   2       5.025  -3.277  -3.025  0.00  0.00     0.028 H 
ATOM     21  HB1 PRO d   2       3.343  -0.962  -1.910  0.00  0.00     0.029 H 
ATOM     22  HB2 PRO d   2       4.695  -1.838  -1.120  0.00  0.00     0.029 H 
ATOM     23  OXT PRO d   2       4.837   1.395  -1.133  0.00  0.00    -0.548 OA
ENDROOT
BRANCH   1  24
ATOM     24  CB  ILE d   1       7.199  -1.438  -6.765  0.00  0.00     0.007 C 
ATOM     25  HB  ILE d   1       7.615  -1.780  -5.817  0.00  0.00     0.036 H 
BRANCH  24  26
ATOM     26  CG1 ILE d   1       8.283  -0.718  -7.569  0.00  0.00    -0.048 C 
ATOM     27 1HG1 ILE d   1       8.537  -1.310  -8.447  0.00  0.00     0.027 H 
ATOM     28 2HG1 ILE d   1       7.914   0.259  -7.882  0.00  0.00     0.027 H 
BRANCH  26  29
ATOM     29  CD1 ILE d   1       9.528  -0.537  -6.697  0.00  0.00    -0.065 C 
ATOM     30 1HD1 ILE d   1       9.283  -0.771  -5.661  0.00  0.00     0.023 H 
ATOM     31 2HD1 ILE d   1      10.315  -1.205  -7.045  0.00  0.00     0.023 H 
ATOM     32 3HD1 ILE d   1       9.871   0.495  -6.765  0.00  0.00     0.023 H 
ENDBRANCH  26  29
ENDBRANCH  24  26
BRANCH  24  33
ATOM     33  CG2 ILE d   1       6.689  -2.641  -7.559  0.00  0.00    -0.057 C 
ATOM     34 1HG2 ILE d   1       6.795  -3.545  -6.960  0.00  0.00     0.023 H 
ATOM     35 2HG2 ILE d   1       5.637  -2.493  -7.809  0.00  0.00     0.023 H 
ATOM     36 3HG2 ILE d   1       7.268  -2.743  -8.477  0.00  0.00     0.023 H 
ENDBRANCH  24  33
ENDBRANCH   1  24
TORSDOF 7
ENDMDL
MODEL 5
REMARK VINA RESULT:      -4.9      2.030      5.460
REMARK  4 active torsions:
REMARK  status: ('A' for Active; 'I' for Inactive)
REMARK    1  A    between atoms: CD1_1  and  CG1_2 
REMARK    2  A    between atoms: CG1_2  and  CB_3 
REMARK    3  A    between atoms: CB_3  and  CG2_5 
REMARK    4  A    between atoms: CB_3  and  CA_6 
REMARK       I    between atoms: CA_6  and  C_8 
REMARK       I    between atoms: CA_6  and  N_35 
REMARK       I    between atoms: C_8  and  N_10 
REMARK       I    between atoms: CA_14  and  C_16 
ROOT
ATOM      1  CA  ILE d   1       3.839  -0.484  -7.360  0.00  0.00     0.056 C 
ATOM      2  HA  ILE d   1       4.235  -1.439  -7.706  0.00  0.00     0.095 H 
ATOM      3  C   ILE d   1       4.045  -0.366  -5.871  0.00  0.00     0.265 C 
ATOM      4  O   ILE d   1       3.324   0.356  -5.215  0.00  0.00    -0.269 OA
ATOM      5  H1  ILE d   1       2.014   0.467  -7.352  0.00  0.00     0.200 HD
ATOM      6  H2  ILE d   1       2.235  -0.551  -8.649  0.00  0.00     0.200 HD
ATOM      7  N   ILE d   1       2.395  -0.429  -7.650  0.00  0.00     0.228 N 
ATOM      8  H3  ILE d   1       1.919  -1.182  -7.140  0.00  0.00     0.200 HD
ATOM      9  N   PRO d   2       5.028  -1.063  -5.269  0.00  0.00    -0.289 N 
ATOM     10  CD  PRO d   2       5.901  -2.055  -5.921  0.00  0.00     0.016 C 
ATOM     11  CG  PRO d   2       7.182  -2.090  -5.051  0.00  0.00    -0.035 C 
ATOM     12  CB  PRO d   2       6.594  -1.921  -3.625  0.00  0.00    -0.028 C 
ATOM     13  CA  PRO d   2       5.407  -0.960  -3.852  0.00  0.00     0.066 C 
ATOM     14  HA  PRO d   2       5.706   0.062  -3.622  0.00  0.00     0.056 H 
ATOM     15  C   PRO d   2       4.246  -1.364  -2.981  0.00  0.00     0.062 C 
ATOM     16  O   PRO d   2       3.203  -1.705  -3.483  0.00  0.00    -0.548 OA
ATOM     17  HD1 PRO d   2       6.142  -1.739  -6.937  0.00  0.00     0.046 H 
ATOM     18  HD2 PRO d   2       5.422  -3.034  -5.932  0.00  0.00     0.046 H 
ATOM     19  HG1 PRO d   2       7.696  -3.046  -5.151  0.00  0.00     0.028 H 
ATOM     20  HG2 PRO d   2       7.847  -1.263  -5.300  0.00  0.00     0.028 H 
ATOM     21  HB1 PRO d   2       6.246  -2.877  -3.235  0.00  0.00     0.029 H 
ATOM     22  HB2 PRO d   2       7.329  -1.474  -2.956  0.00  0.00     0.029 H 
ATOM     23  OXT PRO d   2       4.373  -1.344  -1.644  0.00  0.00    -0.548 OA
ENDROOT
BRANCH   1  24
ATOM     24  CB  ILE d   1       4.570   0.658  -8.068  0.00  0.00     0.007 C 
ATOM     25  HB  ILE d   1       5.201   1.186  -7.351  0.00  0.00     0.036 H 
BRANCH  24  26
ATOM     26  CG1 ILE d   1       3.547   1.629  -8.660  0.00  0.00    -0.048 C 
ATOM     27 1HG1 ILE d   1       2.551   1.195  -8.588  0.00  0.00     0.027 H 
ATOM     28 2HG1 ILE d   1       3.576   2.569  -8.108  0.00  0.00     0.027 H 
BRANCH  26  29
ATOM     29  CD1 ILE d   1       3.884   1.892 -10.130  0.00  0.00    -0.065 C 
ATOM     30 1HD1 ILE d   1       4.472   1.061 -10.521  0.00  0.00     0.023 H 
ATOM     31 2HD1 ILE d   1       2.962   1.986 -10.703  0.00  0.00     0.023 H 
ATOM     32 3HD1 ILE d   1       4.459   2.814 -10.210  0.00  0.00     0.023 H 
ENDBRANCH  26  29
ENDBRANCH  24  26
BRANCH  24  33
ATOM     33  CG2 ILE d   1       5.441   0.089  -9.189  0.00  0.00    -0.057 C 
ATOM     34 1HG2 ILE d   1       6.491   0.170  -8.911  0.00  0.00     0.023 H 
ATOM     35 2HG2 ILE d   1       5.187  -0.960  -9.350  0.00  0.00     0.023 H 
ATOM     36 3HG2 ILE d   1       5.264   0.650 -10.107  0.00  0.00     0.023 H 
ENDBRANCH  24  33
ENDBRANCH   1  24
TORSDOF 7
ENDMDL
MODEL 6
REMARK VINA RESULT:      -4.8      2.417      3.092
REMARK  4 active torsions:
REMARK  status: ('A' for Active; 'I' for Inactive)
REMARK    1  A    between atoms: CD1_1  and  CG1_2 
REMARK    2  A    between atoms: CG1_2  and  CB_3 
REMARK    3  A    between atoms: CB_3  and  CG2_5 
REMARK    4  A    between atoms: CB_3  and  CA_6 
REMARK       I    between atoms: CA_6  and  C_8 
REMARK       I    between atoms: CA_6  and  N_35 
REMARK       I    between atoms: C_8  and  N_10 
REMARK       I    between atoms: CA_14  and  C_16 
ROOT
ATOM      1  CA  ILE d   1       3.751  -1.225  -5.658  0.00  0.00     0.056 C 
ATOM      2  HA  ILE d   1       2.780  -1.239  -6.154  0.00  0.00     0.095 H 
ATOM      3  C   ILE d   1       4.777  -0.620  -6.580  0.00  0.00     0.265 C 
ATOM      4  O   ILE d   1       5.951  -0.896  -6.446  0.00  0.00    -0.269 OA
ATOM      5  H1  ILE d   1       5.044  -2.612  -4.857  0.00  0.00     0.200 HD
ATOM      6  H2  ILE d   1       3.442  -3.048  -4.751  0.00  0.00     0.200 HD
ATOM      7  N   ILE d   1       4.148  -2.609  -5.341  0.00  0.00     0.228 N 
ATOM      8  H3  ILE d   1       4.236  -3.143  -6.213  0.00  0.00     0.200 HD
ATOM      9  N   PRO d   2       4.392   0.226  -7.556  0.00  0.00    -0.289 N 
ATOM     10  CD  PRO d   2       2.998   0.561  -7.901  0.00  0.00     0.016 C 
ATOM     11  CG  PRO d   2       3.081   1.949  -8.583  0.00  0.00    -0.035 C 
ATOM     12  CB  PRO d   2       4.406   1.825  -9.381  0.00  0.00    -0.028 C 
ATOM     13  CA  PRO d   2       5.291   0.968  -8.452  0.00  0.00     0.066 C 
ATOM     14  HA  PRO d   2       5.949   1.610  -7.867  0.00  0.00     0.056 H 
ATOM     15  C   PRO d   2       6.110   0.003  -9.269  0.00  0.00     0.062 C 
ATOM     16  O   PRO d   2       5.964  -1.187  -9.125  0.00  0.00    -0.548 OA
ATOM     17  HD1 PRO d   2       2.387   0.617  -7.000  0.00  0.00     0.046 H 
ATOM     18  HD2 PRO d   2       2.591  -0.178  -8.591  0.00  0.00     0.046 H 
ATOM     19  HG1 PRO d   2       2.235   2.106  -9.253  0.00  0.00     0.028 H 
ATOM     20  HG2 PRO d   2       3.144   2.746  -7.843  0.00  0.00     0.028 H 
ATOM     21  HB1 PRO d   2       4.239   1.316 -10.331  0.00  0.00     0.029 H 
ATOM     22  HB2 PRO d   2       4.853   2.806  -9.542  0.00  0.00     0.029 H 
ATOM     23  OXT PRO d   2       7.003   0.467 -10.158  0.00  0.00    -0.548 OA
ENDROOT
BRANCH   1  24
ATOM     24  CB  ILE d   1       3.658  -0.390  -4.379  0.00  0.00     0.007 C 
ATOM     25  HB  ILE d   1       4.606   0.123  -4.211  0.00  0.00     0.036 H 
BRANCH  24  26
ATOM     26  CG1 ILE d   1       3.354  -1.306  -3.192  0.00  0.00    -0.048 C 
ATOM     27 1HG1 ILE d   1       2.327  -1.149  -2.867  0.00  0.00     0.027 H 
ATOM     28 2HG1 ILE d   1       3.488  -2.345  -3.492  0.00  0.00     0.027 H 
BRANCH  26  29
ATOM     29  CD1 ILE d   1       4.309  -0.980  -2.041  0.00  0.00    -0.065 C 
ATOM     30 1HD1 ILE d   1       4.167  -1.703  -1.237  0.00  0.00     0.023 H 
ATOM     31 2HD1 ILE d   1       5.338  -1.030  -2.397  0.00  0.00     0.023 H 
ATOM     32 3HD1 ILE d   1       4.100   0.022  -1.669  0.00  0.00     0.023 H 
ENDBRANCH  26  29
ENDBRANCH  24  26
BRANCH  24  33
ATOM     33  CG2 ILE d   1       2.540   0.644  -4.525  0.00  0.00    -0.057 C 
ATOM     34 1HG2 ILE d   1       2.114   0.861  -3.546  0.00  0.00     0.023 H 
ATOM     35 2HG2 ILE d   1       2.946   1.560  -4.956  0.00  0.00     0.023 H 
ATOM     36 3HG2 ILE d   1       1.763   0.249  -5.180  0.00  0.00     0.023 H 
ENDBRANCH  24  33
ENDBRANCH   1  24
TORSDOF 7
ENDMDL
MODEL 7
REMARK VINA RESULT:      -4.8      3.689      5.414
REMARK  4 active torsions:
REMARK  status: ('A' for Active; 'I' for Inactive)
REMARK    1  A    between atoms: CD1_1  and  CG1_2 
REMARK    2  A    between atoms: CG1_2  and  CB_3 
REMARK    3  A    between atoms: CB_3  and  CG2_5 
REMARK    4  A    between atoms: CB_3  and  CA_6 
REMARK       I    between atoms: CA_6  and  C_8 
REMARK       I    between atoms: CA_6  and  N_35 
REMARK       I    between atoms: C_8  and  N_10 
REMARK       I    between atoms: CA_14  and  C_16 
ROOT
ATOM      1  CA  ILE d   1       4.465  -1.593  -4.604  0.00  0.00     0.056 C 
ATOM      2  HA  ILE d   1       5.298  -0.892  -4.532  0.00  0.00     0.095 H 
ATOM      3  C   ILE d   1       4.978  -2.937  -5.054  0.00  0.00     0.265 C 
ATOM      4  O   ILE d   1       4.234  -3.712  -5.618  0.00  0.00    -0.269 OA
ATOM      5  H1  ILE d   1       2.704  -1.724  -5.661  0.00  0.00     0.200 HD
ATOM      6  H2  ILE d   1       3.174  -0.163  -5.332  0.00  0.00     0.200 HD
ATOM      7  N   ILE d   1       3.500  -1.091  -5.598  0.00  0.00     0.228 N 
ATOM      8  H3  ILE d   1       3.957  -1.036  -6.515  0.00  0.00     0.200 HD
ATOM      9  N   PRO d   2       6.263  -3.278  -4.831  0.00  0.00    -0.289 N 
ATOM     10  CD  PRO d   2       7.298  -2.397  -4.260  0.00  0.00     0.016 C 
ATOM     11  CG  PRO d   2       8.343  -3.361  -3.645  0.00  0.00    -0.035 C 
ATOM     12  CB  PRO d   2       8.341  -4.521  -4.675  0.00  0.00    -0.028 C 
ATOM     13  CA  PRO d   2       6.863  -4.588  -5.117  0.00  0.00     0.066 C 
ATOM     14  HA  PRO d   2       6.342  -5.365  -4.558  0.00  0.00     0.056 H 
ATOM     15  C   PRO d   2       6.782  -4.878  -6.594  0.00  0.00     0.062 C 
ATOM     16  O   PRO d   2       6.275  -4.075  -7.340  0.00  0.00    -0.548 OA
ATOM     17  HD1 PRO d   2       6.869  -1.759  -3.486  0.00  0.00     0.046 H 
ATOM     18  HD2 PRO d   2       7.754  -1.791  -5.043  0.00  0.00     0.046 H 
ATOM     19  HG1 PRO d   2       9.324  -2.889  -3.590  0.00  0.00     0.028 H 
ATOM     20  HG2 PRO d   2       8.024  -3.710  -2.663  0.00  0.00     0.028 H 
ATOM     21  HB1 PRO d   2       8.986  -4.286  -5.522  0.00  0.00     0.029 H 
ATOM     22  HB2 PRO d   2       8.645  -5.455  -4.204  0.00  0.00     0.029 H 
ATOM     23  OXT PRO d   2       7.274  -6.029  -7.079  0.00  0.00    -0.548 OA
ENDROOT
BRANCH   1  24
ATOM     24  CB  ILE d   1       3.798  -1.734  -3.234  0.00  0.00     0.007 C 
ATOM     25  HB  ILE d   1       3.352  -2.725  -3.148  0.00  0.00     0.036 H 
BRANCH  24  26
ATOM     26  CG1 ILE d   1       2.710  -0.669  -3.086  0.00  0.00    -0.048 C 
ATOM     27 1HG1 ILE d   1       2.279  -0.451  -4.062  0.00  0.00     0.027 H 
ATOM     28 2HG1 ILE d   1       1.931  -1.036  -2.417  0.00  0.00     0.027 H 
BRANCH  26  29
ATOM     29  CD1 ILE d   1       3.322   0.607  -2.502  0.00  0.00    -0.065 C 
ATOM     30 1HD1 ILE d   1       4.341   0.724  -2.875  0.00  0.00     0.023 H 
ATOM     31 2HD1 ILE d   1       2.724   1.467  -2.803  0.00  0.00     0.023 H 
ATOM     32 3HD1 ILE d   1       3.339   0.537  -1.415  0.00  0.00     0.023 H 
ENDBRANCH  26  29
ENDBRANCH  24  26
BRANCH  24  33
ATOM     33  CG2 ILE d   1       4.846  -1.550  -2.135  0.00  0.00    -0.057 C 
ATOM     34 1HG2 ILE d   1       4.557  -0.719  -1.492  0.00  0.00     0.023 H 
ATOM     35 2HG2 ILE d   1       4.914  -2.462  -1.541  0.00  0.00     0.023 H 
ATOM     36 3HG2 ILE d   1       5.815  -1.339  -2.588  0.00  0.00     0.023 H 
ENDBRANCH  24  33
ENDBRANCH   1  24
TORSDOF 7
ENDMDL
MODEL 8
REMARK VINA RESULT:      -4.8      2.842      4.316
REMARK  4 active torsions:
REMARK  status: ('A' for Active; 'I' for Inactive)
REMARK    1  A    between atoms: CD1_1  and  CG1_2 
REMARK    2  A    between atoms: CG1_2  and  CB_3 
REMARK    3  A    between atoms: CB_3  and  CG2_5 
REMARK    4  A    between atoms: CB_3  and  CA_6 
REMARK       I    between atoms: CA_6  and  C_8 
REMARK       I    between atoms: CA_6  and  N_35 
REMARK       I    between atoms: C_8  and  N_10 
REMARK       I    between atoms: CA_14  and  C_16 
ROOT
ATOM      1  CA  ILE d   1       6.976  -2.066  -5.445  0.00  0.00     0.056 C 
ATOM      2  HA  ILE d   1       6.468  -3.021  -5.312  0.00  0.00     0.095 H 
ATOM      3  C   ILE d   1       6.021  -0.942  -5.130  0.00  0.00     0.265 C 
ATOM      4  O   ILE d   1       6.195   0.155  -5.616  0.00  0.00    -0.269 OA
ATOM      5  H1  ILE d   1       7.909  -1.065  -6.982  0.00  0.00     0.200 HD
ATOM      6  H2  ILE d   1       8.026  -2.720  -7.090  0.00  0.00     0.200 HD
ATOM      7  N   ILE d   1       7.413  -1.944  -6.847  0.00  0.00     0.228 N 
ATOM      8  H3  ILE d   1       6.590  -1.962  -7.460  0.00  0.00     0.200 HD
ATOM      9  N   PRO d   2       4.972  -1.158  -4.312  0.00  0.00    -0.289 N 
ATOM     10  CD  PRO d   2       4.580  -2.460  -3.744  0.00  0.00     0.016 C 
ATOM     11  CG  PRO d   2       3.785  -2.111  -2.461  0.00  0.00    -0.035 C 
ATOM     12  CB  PRO d   2       3.020  -0.836  -2.906  0.00  0.00    -0.028 C 
ATOM     13  CA  PRO d   2       4.031  -0.133  -3.837  0.00  0.00     0.066 C 
ATOM     14  HA  PRO d   2       4.570   0.638  -3.287  0.00  0.00     0.056 H 
ATOM     15  C   PRO d   2       3.309   0.481  -5.008  0.00  0.00     0.062 C 
ATOM     16  O   PRO d   2       3.550   0.107  -6.131  0.00  0.00    -0.548 OA
ATOM     17  HD1 PRO d   2       5.464  -3.048  -3.494  0.00  0.00     0.046 H 
ATOM     18  HD2 PRO d   2       3.948  -3.005  -4.446  0.00  0.00     0.046 H 
ATOM     19  HG1 PRO d   2       3.092  -2.911  -2.201  0.00  0.00     0.028 H 
ATOM     20  HG2 PRO d   2       4.458  -1.893  -1.632  0.00  0.00     0.028 H 
ATOM     21  HB1 PRO d   2       2.114  -1.101  -3.452  0.00  0.00     0.029 H 
ATOM     22  HB2 PRO d   2       2.785  -0.208  -2.048  0.00  0.00     0.029 H 
ATOM     23  OXT PRO d   2       2.398   1.446  -4.802  0.00  0.00    -0.548 OA
ENDROOT
BRANCH   1  24
ATOM     24  CB  ILE d   1       8.178  -1.992  -4.502  0.00  0.00     0.007 C 
ATOM     25  HB  ILE d   1       8.020  -1.197  -3.773  0.00  0.00     0.036 H 
BRANCH  24  26
ATOM     26  CG1 ILE d   1       9.443  -1.699  -5.310  0.00  0.00    -0.048 C 
ATOM     27 1HG1 ILE d   1       9.232  -1.823  -6.372  0.00  0.00     0.027 H 
ATOM     28 2HG1 ILE d   1       9.768  -0.677  -5.119  0.00  0.00     0.027 H 
BRANCH  26  29
ATOM     29  CD1 ILE d   1      10.550  -2.671  -4.894  0.00  0.00    -0.065 C 
ATOM     30 1HD1 ILE d   1      11.467  -2.430  -5.432  0.00  0.00     0.023 H 
ATOM     31 2HD1 ILE d   1      10.725  -2.585  -3.822  0.00  0.00     0.023 H 
ATOM     32 3HD1 ILE d   1      10.246  -3.690  -5.133  0.00  0.00     0.023 H 
ENDBRANCH  26  29
ENDBRANCH  24  26
BRANCH  24  33
ATOM     33  CG2 ILE d   1       8.336  -3.327  -3.772  0.00  0.00    -0.057 C 
ATOM     34 1HG2 ILE d   1       9.345  -3.402  -3.365  0.00  0.00     0.023 H 
ATOM     35 2HG2 ILE d   1       7.611  -3.385  -2.959  0.00  0.00     0.023 H 
ATOM     36 3HG2 ILE d   1       8.164  -4.146  -4.470  0.00  0.00     0.023 H 
ENDBRANCH  24  33
ENDBRANCH   1  24
TORSDOF 7
ENDMDL
MODEL 9
REMARK VINA RESULT:      -4.5      2.961      4.349
REMARK  4 active torsions:
REMARK  status: ('A' for Active; 'I' for Inactive)
REMARK    1  A    between atoms: CD1_1  and  CG1_2 
REMARK    2  A    between atoms: CG1_2  and  CB_3 
REMARK    3  A    between atoms: CB_3  and  CG2_5 
REMARK    4  A    between atoms: CB_3  and  CA_6 
REMARK       I    between atoms: CA_6  and  C_8 
REMARK       I    between atoms: CA_6  and  N_35 
REMARK       I    between atoms: C_8  and  N_10 
REMARK       I    between atoms: CA_14  and  C_16 
ROOT
ATOM      1  CA  ILE d   1       3.716  -0.307  -4.152  0.00  0.00     0.056 C 
ATOM      2  HA  ILE d   1       4.117   0.699  -4.025  0.00  0.00     0.095 H 
ATOM      3  C   ILE d   1       4.640  -1.107  -5.035  0.00  0.00     0.265 C 
ATOM      4  O   ILE d   1       4.211  -2.052  -5.663  0.00  0.00    -0.269 OA
ATOM      5  H1  ILE d   1       1.996  -1.151  -4.904  0.00  0.00     0.200 HD
ATOM      6  H2  ILE d   1       1.769   0.355  -4.235  0.00  0.00     0.200 HD
ATOM      7  N   ILE d   1       2.394  -0.219  -4.797  0.00  0.00     0.228 N 
ATOM      8  H3  ILE d   1       2.499   0.208  -5.725  0.00  0.00     0.200 HD
ATOM      9  N   PRO d   2       5.942  -0.773  -5.127  0.00  0.00    -0.289 N 
ATOM     10  CD  PRO d   2       6.571   0.409  -4.510  0.00  0.00     0.016 C 
ATOM     11  CG  PRO d   2       8.067   0.033  -4.364  0.00  0.00    -0.035 C 
ATOM     12  CB  PRO d   2       8.309  -0.783  -5.662  0.00  0.00    -0.028 C 
ATOM     13  CA  PRO d   2       6.971  -1.526  -5.859  0.00  0.00     0.066 C 
ATOM     14  HA  PRO d   2       7.043  -2.538  -5.461  0.00  0.00     0.056 H 
ATOM     15  C   PRO d   2       6.623  -1.576  -7.325  0.00  0.00     0.062 C 
ATOM     16  O   PRO d   2       5.618  -1.038  -7.726  0.00  0.00    -0.548 OA
ATOM     17  HD1 PRO d   2       6.133   0.604  -3.530  0.00  0.00     0.046 H 
ATOM     18  HD2 PRO d   2       6.459   1.279  -5.156  0.00  0.00     0.046 H 
ATOM     19  HG1 PRO d   2       8.693   0.924  -4.341  0.00  0.00     0.028 H 
ATOM     20  HG2 PRO d   2       8.231  -0.582  -3.480  0.00  0.00     0.028 H 
ATOM     21  HB1 PRO d   2       8.509  -0.119  -6.503  0.00  0.00     0.029 H 
ATOM     22  HB2 PRO d   2       9.126  -1.491  -5.525  0.00  0.00     0.029 H 
ATOM     23  OXT PRO d   2       7.430  -2.218  -8.184  0.00  0.00    -0.548 OA
ENDROOT
BRANCH   1  24
ATOM     24  CB  ILE d   1       3.600  -0.987  -2.786  0.00  0.00     0.007 C 
ATOM     25  HB  ILE d   1       2.556  -0.997  -2.473  0.00  0.00     0.036 H 
BRANCH  24  26
ATOM     26  CG1 ILE d   1       4.434  -0.216  -1.761  0.00  0.00    -0.048 C 
ATOM     27 1HG1 ILE d   1       4.164  -0.539  -0.757  0.00  0.00     0.027 H 
ATOM     28 2HG1 ILE d   1       5.492  -0.409  -1.934  0.00  0.00     0.027 H 
BRANCH  26  29
ATOM     29  CD1 ILE d   1       4.159   1.283  -1.905  0.00  0.00    -0.065 C 
ATOM     30 1HD1 ILE d   1       3.926   1.705  -0.927  0.00  0.00     0.023 H 
ATOM     31 2HD1 ILE d   1       5.041   1.777  -2.313  0.00  0.00     0.023 H 
ATOM     32 3HD1 ILE d   1       3.315   1.434  -2.577  0.00  0.00     0.023 H 
ENDBRANCH  26  29
ENDBRANCH  24  26
BRANCH  24  33
ATOM     33  CG2 ILE d   1       4.116  -2.423  -2.886  0.00  0.00    -0.057 C 
ATOM     34 1HG2 ILE d   1       5.175  -2.413  -3.139  0.00  0.00     0.023 H 
ATOM     35 2HG2 ILE d   1       3.976  -2.927  -1.928  0.00  0.00     0.023 H 
ATOM     36 3HG2 ILE d   1       3.562  -2.956  -3.659  0.00  0.00     0.023 H 
ENDBRANCH  24  33
ENDBRANCH   1  24
TORSDOF 7
ENDMDL
MODEL 10
REMARK VINA RESULT:      -4.4     12.613     14.121
REMARK  4 active torsions:
REMARK  status: ('A' for Active; 'I' for Inactive)
REMARK    1  A    between atoms: CD1_1  and  CG1_2 
REMARK    2  A    between atoms: CG1_2  and  CB_3 
REMARK    3  A    between atoms: CB_3  and  CG2_5 
REMARK    4  A    between atoms: CB_3  and  CA_6 
REMARK       I    between atoms: CA_6  and  C_8 
REMARK       I    between atoms: CA_6  and  N_35 
REMARK       I    between atoms: C_8  and  N_10 
REMARK       I    between atoms: CA_14  and  C_16 
ROOT
ATOM      1  CA  ILE d   1       9.162  11.166  -3.141  0.00  0.00     0.056 C 
ATOM      2  HA  ILE d   1       9.220  10.702  -4.127  0.00  0.00     0.095 H 
ATOM      3  C   ILE d   1       9.608  10.177  -2.094  0.00  0.00     0.265 C 
ATOM      4  O   ILE d   1       9.221  10.290  -0.950  0.00  0.00    -0.269 OA
ATOM      5  H1  ILE d   1       7.696  12.004  -1.964  0.00  0.00     0.200 HD
ATOM      6  H2  ILE d   1       7.432  12.185  -3.596  0.00  0.00     0.200 HD
ATOM      7  N   ILE d   1       7.764  11.549  -2.873  0.00  0.00     0.228 N 
ATOM      8  H3  ILE d   1       7.177  10.707  -2.871  0.00  0.00     0.200 HD
ATOM      9  N   PRO d   2      10.435   9.168  -2.430  0.00  0.00    -0.289 N 
ATOM     10  CD  PRO d   2      10.892   8.848  -3.795  0.00  0.00     0.016 C 
ATOM     11  CG  PRO d   2      12.225   8.085  -3.599  0.00  0.00    -0.035 C 
ATOM     12  CB  PRO d   2      11.923   7.253  -2.324  0.00  0.00    -0.028 C 
ATOM     13  CA  PRO d   2      11.032   8.202  -1.495  0.00  0.00     0.066 C 
ATOM     14  HA  PRO d   2      11.634   8.728  -0.754  0.00  0.00     0.056 H 
ATOM     15  C   PRO d   2       9.945   7.416  -0.808  0.00  0.00     0.062 C 
ATOM     16  O   PRO d   2       8.786   7.633  -1.067  0.00  0.00    -0.548 OA
ATOM     17  HD1 PRO d   2      11.059   9.764  -4.363  0.00  0.00     0.046 H 
ATOM     18  HD2 PRO d   2      10.162   8.216  -4.300  0.00  0.00     0.046 H 
ATOM     19  HG1 PRO d   2      12.431   7.435  -4.449  0.00  0.00     0.028 H 
ATOM     20  HG2 PRO d   2      13.050   8.776  -3.428  0.00  0.00     0.028 H 
ATOM     21  HB1 PRO d   2      11.383   6.341  -2.577  0.00  0.00     0.029 H 
ATOM     22  HB2 PRO d   2      12.843   7.023  -1.788  0.00  0.00     0.029 H 
ATOM     23  OXT PRO d   2      10.267   6.473   0.092  0.00  0.00    -0.548 OA
ENDROOT
BRANCH   1  24
ATOM     24  CB  ILE d   1      10.070  12.396  -3.101  0.00  0.00     0.007 C 
ATOM     25  HB  ILE d   1      10.841  12.254  -2.343  0.00  0.00     0.036 H 
BRANCH  24  26
ATOM     26  CG1 ILE d   1       9.239  13.633  -2.759  0.00  0.00    -0.048 C 
ATOM     27 1HG1 ILE d   1       9.284  14.341  -3.586  0.00  0.00     0.027 H 
ATOM     28 2HG1 ILE d   1       8.203  13.339  -2.588  0.00  0.00     0.027 H 
BRANCH  26  29
ATOM     29  CD1 ILE d   1       9.798  14.289  -1.494  0.00  0.00    -0.065 C 
ATOM     30 1HD1 ILE d   1      10.687  14.867  -1.748  0.00  0.00     0.023 H 
ATOM     31 2HD1 ILE d   1       9.045  14.950  -1.064  0.00  0.00     0.023 H 
ATOM     32 3HD1 ILE d   1      10.060  13.517  -0.771  0.00  0.00     0.023 H 
ENDBRANCH  26  29
ENDBRANCH  24  26
BRANCH  24  33
ATOM     33  CG2 ILE d   1      10.730  12.587  -4.468  0.00  0.00    -0.057 C 
ATOM     34 1HG2 ILE d   1      11.800  12.394  -4.386  0.00  0.00     0.023 H 
ATOM     35 2HG2 ILE d   1      10.290  11.893  -5.185  0.00  0.00     0.023 H 
ATOM     36 3HG2 ILE d   1      10.571  13.610  -4.809  0.00  0.00     0.023 H 
ENDBRANCH  24  33
ENDBRANCH   1  24
TORSDOF 7
ENDMDL
