MODEL 1
REMARK VINA RESULT:      -7.3      0.000      0.000
REMARK  8 active torsions:
REMARK  status: ('A' for Active; 'I' for Inactive)
REMARK    1  A    between atoms: C_1  and  C_2 
REMARK    2  A    between atoms: C_2  and  O_3 
REMARK    3  A    between atoms: O_3  and  C_4 
REMARK    4  A    between atoms: C_4  and  C_6 
REMARK    5  A    between atoms: C_10  and  N_12 
REMARK       I    between atoms: N_12  and  C_13 
REMARK    6  A    between atoms: C_13  and  C_15 
REMARK    7  A    between atoms: C_29  and  C_41 
REMARK    8  A    between atoms: C_34  and  C_36 
ROOT
ATOM      1  C   LIG d   1       9.259   2.228  -6.938  0.00  0.00     0.080 C 
ATOM      2  H   LIG d   1       8.891   2.908  -7.707  0.00  0.00     0.043 H 
ATOM      3  C   LIG d   1      10.194   1.121  -7.559  0.00  0.00     0.090 C 
ATOM      4  H   LIG d   1      10.807   1.432  -8.406  0.00  0.00     0.065 H 
ATOM      5  C   LIG d   1      10.953   0.611  -6.328  0.00  0.00    -0.056 C 
ATOM      6  C   LIG d   1      10.061  -0.085  -5.639  0.00  0.00    -0.051 C 
ATOM      7  C   LIG d   1       8.788  -0.058  -6.465  0.00  0.00     0.119 C 
ATOM      8  C   LIG d   1       8.139   1.391  -6.375  0.00  0.00     0.084 C 
ATOM      9  H   LIG d   1       7.277   1.450  -7.040  0.00  0.00     0.043 H 
ATOM     10  C   LIG d   1       7.662   1.369  -4.980  0.00  0.00     0.224 C 
ATOM     11  O   LIG d   1       7.596   2.316  -4.225  0.00  0.00    -0.275 OA
ATOM     12  N   LIG d   1       7.304   0.062  -4.694  0.00  0.00    -0.284 N 
ATOM     13  C   LIG d   1       7.656  -0.781  -5.823  0.00  0.00     0.069 C 
ATOM     14  H   LIG d   1       6.805  -0.737  -6.505  0.00  0.00     0.054 H 
ATOM     15  C   LIG d   1       7.892  -2.229  -5.498  0.00  0.00     0.036 C 
ATOM     16  H   LIG d   1       8.893  -2.505  -5.827  0.00  0.00     0.039 H 
ATOM     17  C   LIG d   1       7.768  -2.513  -4.033  0.00  0.00     0.140 C 
ATOM     18  O   LIG d   1       8.523  -3.295  -3.506  0.00  0.00    -0.297 OA
ATOM     19  C   LIG d   1       6.707  -1.832  -3.213  0.00  0.00     0.032 C 
ATOM     20  C   LIG d   1       6.780  -0.336  -3.396  0.00  0.00     0.091 C 
ATOM     21  H   LIG d   1       7.454   0.022  -2.617  0.00  0.00     0.059 H 
ATOM     22  O   LIG d   1       9.236   0.013  -7.817  0.00  0.00    -0.359 OA
ATOM     23  H   LIG d   1      11.990   0.783  -6.077  0.00  0.00     0.060 H 
ATOM     24  H   LIG d   1      10.210  -0.573  -4.687  0.00  0.00     0.060 H 
ATOM     25  H   LIG d   1       5.723  -2.145  -3.562  0.00  0.00     0.036 H 
ATOM     26  H   LIG d   1       6.824  -2.111  -2.166  0.00  0.00     0.036 H 
ENDROOT
BRANCH   1  27
ATOM     27  C   LIG d   1       9.969   2.987  -5.845  0.00  0.00     0.224 C 
ATOM     28  N   LIG d   1       9.661   4.278  -5.612  0.00  0.00    -0.285 N 
ATOM     29  H   LIG d   1       8.937   4.700  -6.100  0.00  0.00     0.155 HD
ATOM     30  O   LIG d   1      10.817   2.435  -5.176  0.00  0.00    -0.275 OA
BRANCH  28  31
ATOM     31  C   LIG d   1      10.386   5.010  -4.664  0.00  0.00     0.034 A 
ATOM     32  C   LIG d   1      11.710   5.350  -4.914  0.00  0.00    -0.040 A 
ATOM     33  C   LIG d   1      12.430   6.073  -3.982  0.00  0.00    -0.059 A 
ATOM     34  H   LIG d   1      12.177   5.048  -5.840  0.00  0.00     0.064 H 
ATOM     35  C   LIG d   1      11.840   6.462  -2.797  0.00  0.00    -0.048 A 
ATOM     36  H   LIG d   1      13.459   6.336  -4.182  0.00  0.00     0.062 H 
ATOM     37  C   LIG d   1      10.510   6.125  -2.537  0.00  0.00     0.061 A 
ATOM     38  H   LIG d   1      12.406   7.028  -2.072  0.00  0.00     0.063 H 
ATOM     39  C   LIG d   1       9.785   5.389  -3.474  0.00  0.00    -0.026 A 
ATOM     40  H   LIG d   1       8.758   5.121  -3.276  0.00  0.00     0.064 H 
BRANCH  37  41
ATOM     41  C   LIG d   1       9.876   6.539  -1.268  0.00  0.00     0.339 C 
ATOM     42  O   LIG d   1      10.261   6.072  -0.215  0.00  0.00    -0.245 OA
BRANCH  41  43
ATOM     43  O   LIG d   1       8.868   7.433  -1.280  0.00  0.00    -0.461 OA
BRANCH  43  44
ATOM     44  C   LIG d   1       9.154   8.741  -0.779  0.00  0.00     0.090 C 
ATOM     45  H   LIG d   1       9.853   8.666   0.054  0.00  0.00     0.070 H 
ATOM     46  H   LIG d   1       8.230   9.208  -0.437  0.00  0.00     0.070 H 
BRANCH  44  47
ATOM     47  C   LIG d   1       9.774   9.589  -1.891  0.00  0.00    -0.031 C 
ATOM     48  H   LIG d   1       9.170  10.483  -2.044  0.00  0.00     0.026 H 
ATOM     49  H   LIG d   1      10.786   9.878  -1.606  0.00  0.00     0.026 H 
ATOM     50  H   LIG d   1       9.807   9.010  -2.814  0.00  0.00     0.026 H 
ENDBRANCH  44  47
ENDBRANCH  43  44
ENDBRANCH  41  43
ENDBRANCH  37  41
ENDBRANCH  28  31
ENDBRANCH   1  27
BRANCH  15  51
ATOM     51  C   LIG d   1       6.870  -3.079  -6.256  0.00  0.00    -0.054 C 
ATOM     52  H   LIG d   1       6.076  -2.440  -6.638  0.00  0.00     0.024 H 
ATOM     53  H   LIG d   1       7.363  -3.584  -7.087  0.00  0.00     0.024 H 
ATOM     54  H   LIG d   1       6.445  -3.822  -5.581  0.00  0.00     0.024 H 
ENDBRANCH  15  51
BRANCH  20  55
ATOM     55  C   LIG d   1       5.426   0.296  -3.198  0.00  0.00     0.126 A 
ATOM     56  O   LIG d   1       4.471   0.415  -4.134  0.00  0.00    -0.466 OA
ATOM     57  C   LIG d   1       3.399   1.025  -3.604  0.00  0.00     0.092 A 
ATOM     58  C   LIG d   1       3.665   1.311  -2.318  0.00  0.00    -0.024 A 
ATOM     59  H   LIG d   1       2.480   1.251  -4.125  0.00  0.00     0.103 H 
ATOM     60  C   LIG d   1       4.973   0.841  -2.056  0.00  0.00    -0.019 A 
ATOM     61  H   LIG d   1       3.007   1.804  -1.619  0.00  0.00     0.065 H 
ATOM     62  H   LIG d   1       5.505   0.906  -1.118  0.00  0.00     0.065 H 
ENDBRANCH  20  55
TORSDOF 8
ENDMDL
MODEL 2
REMARK VINA RESULT:      -7.2      6.472      9.407
REMARK  8 active torsions:
REMARK  status: ('A' for Active; 'I' for Inactive)
REMARK    1  A    between atoms: C_1  and  C_2 
REMARK    2  A    between atoms: C_2  and  O_3 
REMARK    3  A    between atoms: O_3  and  C_4 
REMARK    4  A    between atoms: C_4  and  C_6 
REMARK    5  A    between atoms: C_10  and  N_12 
REMARK       I    between atoms: N_12  and  C_13 
REMARK    6  A    between atoms: C_13  and  C_15 
REMARK    7  A    between atoms: C_29  and  C_41 
REMARK    8  A    between atoms: C_34  and  C_36 
ROOT
ATOM      1  C   LIG d   1       2.999   1.552  -8.821  0.00  0.00     0.080 C 
ATOM      2  H   LIG d   1       2.106   2.147  -8.631  0.00  0.00     0.043 H 
ATOM      3  C   LIG d   1       4.125   2.422  -9.501  0.00  0.00     0.090 C 
ATOM      4  H   LIG d   1       4.173   3.467  -9.195  0.00  0.00     0.065 H 
ATOM      5  C   LIG d   1       5.383   1.584  -9.239  0.00  0.00    -0.056 C 
ATOM      6  C   LIG d   1       5.271   0.537 -10.043  0.00  0.00    -0.051 C 
ATOM      7  C   LIG d   1       3.994   0.758 -10.834  0.00  0.00     0.119 C 
ATOM      8  C   LIG d   1       2.743   0.514  -9.883  0.00  0.00     0.084 C 
ATOM      9  H   LIG d   1       1.823   0.763 -10.414  0.00  0.00     0.043 H 
ATOM     10  C   LIG d   1       2.822  -0.951  -9.731  0.00  0.00     0.224 C 
ATOM     11  O   LIG d   1       2.506  -1.591  -8.751  0.00  0.00    -0.275 OA
ATOM     12  N   LIG d   1       3.325  -1.456 -10.918  0.00  0.00    -0.284 N 
ATOM     13  C   LIG d   1       3.692  -0.348 -11.784  0.00  0.00     0.069 C 
ATOM     14  H   LIG d   1       2.785  -0.081 -12.327  0.00  0.00     0.054 H 
ATOM     15  C   LIG d   1       4.750  -0.653 -12.806  0.00  0.00     0.036 C 
ATOM     16  H   LIG d   1       5.579   0.042 -12.673  0.00  0.00     0.039 H 
ATOM     17  C   LIG d   1       5.268  -2.054 -12.694  0.00  0.00     0.140 C 
ATOM     18  O   LIG d   1       6.443  -2.275 -12.861  0.00  0.00    -0.297 OA
ATOM     19  C   LIG d   1       4.332  -3.187 -12.375  0.00  0.00     0.032 C 
ATOM     20  C   LIG d   1       3.537  -2.880 -11.131  0.00  0.00     0.091 C 
ATOM     21  H   LIG d   1       4.123  -3.278 -10.302  0.00  0.00     0.059 H 
ATOM     22  O   LIG d   1       3.879   2.175 -10.947  0.00  0.00    -0.359 OA
ATOM     23  H   LIG d   1       6.185   1.801  -8.550  0.00  0.00     0.060 H 
ATOM     24  H   LIG d   1       5.948  -0.300 -10.121  0.00  0.00     0.060 H 
ATOM     25  H   LIG d   1       3.616  -3.303 -13.188  0.00  0.00     0.036 H 
ATOM     26  H   LIG d   1       4.905  -4.108 -12.266  0.00  0.00     0.036 H 
ENDROOT
BRANCH   1  27
ATOM     27  C   LIG d   1       3.500   0.913  -7.551  0.00  0.00     0.224 C 
ATOM     28  N   LIG d   1       2.624   0.438  -6.644  0.00  0.00    -0.285 N 
ATOM     29  H   LIG d   1       1.673   0.446  -6.839  0.00  0.00     0.155 HD
ATOM     30  O   LIG d   1       4.693   0.828  -7.345  0.00  0.00    -0.275 OA
BRANCH  28  31
ATOM     31  C   LIG d   1       3.084  -0.066  -5.423  0.00  0.00     0.034 A 
ATOM     32  C   LIG d   1       2.748   0.574  -4.236  0.00  0.00    -0.040 A 
ATOM     33  C   LIG d   1       3.200   0.079  -3.027  0.00  0.00    -0.059 A 
ATOM     34  H   LIG d   1       2.131   1.460  -4.259  0.00  0.00     0.064 H 
ATOM     35  C   LIG d   1       3.989  -1.053  -2.990  0.00  0.00    -0.048 A 
ATOM     36  H   LIG d   1       2.934   0.580  -2.107  0.00  0.00     0.062 H 
ATOM     37  C   LIG d   1       4.332  -1.702  -4.177  0.00  0.00     0.061 A 
ATOM     38  H   LIG d   1       4.338  -1.436  -2.043  0.00  0.00     0.063 H 
ATOM     39  C   LIG d   1       3.882  -1.200  -5.398  0.00  0.00    -0.026 A 
ATOM     40  H   LIG d   1       4.149  -1.695  -6.320  0.00  0.00     0.064 H 
BRANCH  37  41
ATOM     41  C   LIG d   1       5.178  -2.914  -4.141  0.00  0.00     0.339 C 
ATOM     42  O   LIG d   1       6.361  -2.821  -3.883  0.00  0.00    -0.245 OA
BRANCH  41  43
ATOM     43  O   LIG d   1       4.636  -4.120  -4.397  0.00  0.00    -0.461 OA
BRANCH  43  44
ATOM     44  C   LIG d   1       4.975  -4.734  -5.642  0.00  0.00     0.090 C 
ATOM     45  H   LIG d   1       6.029  -4.558  -5.859  0.00  0.00     0.070 H 
ATOM     46  H   LIG d   1       4.364  -4.303  -6.436  0.00  0.00     0.070 H 
BRANCH  44  47
ATOM     47  C   LIG d   1       4.715  -6.239  -5.558  0.00  0.00    -0.031 C 
ATOM     48  H   LIG d   1       4.258  -6.475  -4.597  0.00  0.00     0.026 H 
ATOM     49  H   LIG d   1       4.042  -6.537  -6.363  0.00  0.00     0.026 H 
ATOM     50  H   LIG d   1       5.658  -6.777  -5.655  0.00  0.00     0.026 H 
ENDBRANCH  44  47
ENDBRANCH  43  44
ENDBRANCH  41  43
ENDBRANCH  37  41
ENDBRANCH  28  31
ENDBRANCH   1  27
BRANCH  15  51
ATOM     51  C   LIG d   1       4.159  -0.454 -14.204  0.00  0.00    -0.054 C 
ATOM     52  H   LIG d   1       3.868   0.587 -14.332  0.00  0.00     0.024 H 
ATOM     53  H   LIG d   1       4.904  -0.718 -14.954  0.00  0.00     0.024 H 
ATOM     54  H   LIG d   1       3.283  -1.093 -14.321  0.00  0.00     0.024 H 
ENDBRANCH  15  51
BRANCH  20  55
ATOM     55  C   LIG d   1       2.201  -3.575 -11.163  0.00  0.00     0.126 A 
ATOM     56  O   LIG d   1       1.776  -4.500 -10.288  0.00  0.00    -0.466 OA
ATOM     57  C   LIG d   1       0.537  -4.897 -10.622  0.00  0.00     0.092 A 
ATOM     58  C   LIG d   1       0.161  -4.231 -11.727  0.00  0.00    -0.024 A 
ATOM     59  H   LIG d   1      -0.055  -5.630 -10.095  0.00  0.00     0.103 H 
ATOM     60  C   LIG d   1       1.234  -3.378 -12.076  0.00  0.00    -0.019 A 
ATOM     61  H   LIG d   1      -0.779  -4.327 -12.249  0.00  0.00     0.065 H 
ATOM     62  H   LIG d   1       1.269  -2.698 -12.916  0.00  0.00     0.065 H 
ENDBRANCH  20  55
TORSDOF 8
ENDMDL
MODEL 3
REMARK VINA RESULT:      -7.1      1.930      8.075
REMARK  8 active torsions:
REMARK  status: ('A' for Active; 'I' for Inactive)
REMARK    1  A    between atoms: C_1  and  C_2 
REMARK    2  A    between atoms: C_2  and  O_3 
REMARK    3  A    between atoms: O_3  and  C_4 
REMARK    4  A    between atoms: C_4  and  C_6 
REMARK    5  A    between atoms: C_10  and  N_12 
REMARK       I    between atoms: N_12  and  C_13 
REMARK    6  A    between atoms: C_13  and  C_15 
REMARK    7  A    between atoms: C_29  and  C_41 
REMARK    8  A    between atoms: C_34  and  C_36 
ROOT
ATOM      1  C   LIG d   1       9.975   1.225  -5.441  0.00  0.00     0.080 C 
ATOM      2  H   LIG d   1      10.545   0.345  -5.142  0.00  0.00     0.043 H 
ATOM      3  C   LIG d   1      10.123   1.497  -6.987  0.00  0.00     0.090 C 
ATOM      4  H   LIG d   1      10.212   0.615  -7.622  0.00  0.00     0.065 H 
ATOM      5  C   LIG d   1       8.926   2.413  -7.269  0.00  0.00    -0.056 C 
ATOM      6  C   LIG d   1       9.245   3.574  -6.717  0.00  0.00    -0.051 C 
ATOM      7  C   LIG d   1      10.644   3.396  -6.158  0.00  0.00     0.119 C 
ATOM      8  C   LIG d   1      10.574   2.480  -4.859  0.00  0.00     0.084 C 
ATOM      9  H   LIG d   1      11.583   2.266  -4.504  0.00  0.00     0.043 H 
ATOM     10  C   LIG d   1       9.929   3.419  -3.922  0.00  0.00     0.224 C 
ATOM     11  O   LIG d   1       9.167   3.132  -3.024  0.00  0.00    -0.275 OA
ATOM     12  N   LIG d   1      10.360   4.691  -4.261  0.00  0.00    -0.284 N 
ATOM     13  C   LIG d   1      11.162   4.610  -5.469  0.00  0.00     0.069 C 
ATOM     14  H   LIG d   1      12.179   4.396  -5.139  0.00  0.00     0.054 H 
ATOM     15  C   LIG d   1      11.217   5.866  -6.292  0.00  0.00     0.036 C 
ATOM     16  H   LIG d   1      10.869   5.643  -7.301  0.00  0.00     0.039 H 
ATOM     17  C   LIG d   1      10.371   6.962  -5.720  0.00  0.00     0.140 C 
ATOM     18  O   LIG d   1       9.745   7.685  -6.457  0.00  0.00    -0.297 OA
ATOM     19  C   LIG d   1      10.296   7.167  -4.231  0.00  0.00     0.032 C 
ATOM     20  C   LIG d   1       9.926   5.878  -3.541  0.00  0.00     0.091 C 
ATOM     21  H   LIG d   1       8.837   5.879  -3.482  0.00  0.00     0.059 H 
ATOM     22  O   LIG d   1      11.263   2.451  -7.028  0.00  0.00    -0.359 OA
ATOM     23  H   LIG d   1       8.020   2.165  -7.803  0.00  0.00     0.060 H 
ATOM     24  H   LIG d   1       8.635   4.465  -6.675  0.00  0.00     0.060 H 
ATOM     25  H   LIG d   1      11.278   7.455  -3.857  0.00  0.00     0.036 H 
ATOM     26  H   LIG d   1       9.580   7.958  -4.011  0.00  0.00     0.036 H 
ENDROOT
BRANCH   1  27
ATOM     27  C   LIG d   1       8.526   1.086  -5.051  0.00  0.00     0.224 C 
ATOM     28  N   LIG d   1       8.198   0.589  -3.842  0.00  0.00    -0.285 N 
ATOM     29  H   LIG d   1       8.894   0.384  -3.197  0.00  0.00     0.155 HD
ATOM     30  O   LIG d   1       7.654   1.421  -5.825  0.00  0.00    -0.275 OA
BRANCH  28  31
ATOM     31  C   LIG d   1       6.855   0.369  -3.516  0.00  0.00     0.034 A 
ATOM     32  C   LIG d   1       6.096   1.396  -2.968  0.00  0.00    -0.040 A 
ATOM     33  C   LIG d   1       4.769   1.183  -2.645  0.00  0.00    -0.059 A 
ATOM     34  H   LIG d   1       6.545   2.362  -2.793  0.00  0.00     0.064 H 
ATOM     35  C   LIG d   1       4.188  -0.049  -2.864  0.00  0.00    -0.048 A 
ATOM     36  H   LIG d   1       4.183   1.986  -2.220  0.00  0.00     0.062 H 
ATOM     37  C   LIG d   1       4.943  -1.087  -3.414  0.00  0.00     0.061 A 
ATOM     38  H   LIG d   1       3.151  -0.210  -2.612  0.00  0.00     0.063 H 
ATOM     39  C   LIG d   1       6.284  -0.875  -3.734  0.00  0.00    -0.026 A 
ATOM     40  H   LIG d   1       6.874  -1.676  -4.155  0.00  0.00     0.064 H 
BRANCH  37  41
ATOM     41  C   LIG d   1       4.325  -2.409  -3.650  0.00  0.00     0.339 C 
ATOM     42  O   LIG d   1       3.824  -3.019  -2.726  0.00  0.00    -0.245 OA
BRANCH  41  43
ATOM     43  O   LIG d   1       4.318  -2.938  -4.888  0.00  0.00    -0.461 OA
BRANCH  43  44
ATOM     44  C   LIG d   1       4.840  -4.261  -5.032  0.00  0.00     0.090 C 
ATOM     45  H   LIG d   1       4.380  -4.741  -5.896  0.00  0.00     0.070 H 
ATOM     46  H   LIG d   1       4.616  -4.839  -4.134  0.00  0.00     0.070 H 
BRANCH  44  47
ATOM     47  C   LIG d   1       6.355  -4.194  -5.231  0.00  0.00    -0.031 C 
ATOM     48  H   LIG d   1       6.774  -5.198  -5.169  0.00  0.00     0.026 H 
ATOM     49  H   LIG d   1       6.574  -3.768  -6.210  0.00  0.00     0.026 H 
ATOM     50  H   LIG d   1       6.796  -3.567  -4.455  0.00  0.00     0.026 H 
ENDBRANCH  44  47
ENDBRANCH  43  44
ENDBRANCH  41  43
ENDBRANCH  37  41
ENDBRANCH  28  31
ENDBRANCH   1  27
BRANCH  15  51
ATOM     51  C   LIG d   1      12.667   6.348  -6.365  0.00  0.00    -0.054 C 
ATOM     52  H   LIG d   1      13.297   5.548  -6.752  0.00  0.00     0.024 H 
ATOM     53  H   LIG d   1      12.730   7.212  -7.026  0.00  0.00     0.024 H 
ATOM     54  H   LIG d   1      13.007   6.628  -5.368  0.00  0.00     0.024 H 
ENDBRANCH  15  51
BRANCH  20  55
ATOM     55  C   LIG d   1      10.490   5.837  -2.144  0.00  0.00     0.126 A 
ATOM     56  O   LIG d   1      11.545   5.110  -1.744  0.00  0.00    -0.466 OA
ATOM     57  C   LIG d   1      11.765   5.322  -0.436  0.00  0.00     0.092 A 
ATOM     58  C   LIG d   1      10.839   6.185   0.016  0.00  0.00    -0.024 A 
ATOM     59  H   LIG d   1      12.550   4.871   0.153  0.00  0.00     0.103 H 
ATOM     60  C   LIG d   1      10.017   6.518  -1.085  0.00  0.00    -0.019 A 
ATOM     61  H   LIG d   1      10.743   6.555   1.026  0.00  0.00     0.065 H 
ATOM     62  H   LIG d   1       9.171   7.190  -1.077  0.00  0.00     0.065 H 
ENDBRANCH  20  55
TORSDOF 8
ENDMDL
MODEL 4
REMARK VINA RESULT:      -6.8      5.952     11.172
REMARK  8 active torsions:
REMARK  status: ('A' for Active; 'I' for Inactive)
REMARK    1  A    between atoms: C_1  and  C_2 
REMARK    2  A    between atoms: C_2  and  O_3 
REMARK    3  A    between atoms: O_3  and  C_4 
REMARK    4  A    between atoms: C_4  and  C_6 
REMARK    5  A    between atoms: C_10  and  N_12 
REMARK       I    between atoms: N_12  and  C_13 
REMARK    6  A    between atoms: C_13  and  C_15 
REMARK    7  A    between atoms: C_29  and  C_41 
REMARK    8  A    between atoms: C_34  and  C_36 
ROOT
ATOM      1  C   LIG d   1       4.361  -0.567  -9.376  0.00  0.00     0.080 C 
ATOM      2  H   LIG d   1       5.051  -0.533 -10.219  0.00  0.00     0.043 H 
ATOM      3  C   LIG d   1       4.054   0.882  -8.835  0.00  0.00     0.090 C 
ATOM      4  H   LIG d   1       4.027   1.676  -9.582  0.00  0.00     0.065 H 
ATOM      5  C   LIG d   1       2.764   0.663  -8.036  0.00  0.00    -0.056 C 
ATOM      6  C   LIG d   1       3.140  -0.001  -6.953  0.00  0.00    -0.051 C 
ATOM      7  C   LIG d   1       4.649  -0.134  -7.052  0.00  0.00     0.119 C 
ATOM      8  C   LIG d   1       5.006  -1.205  -8.173  0.00  0.00     0.084 C 
ATOM      9  H   LIG d   1       6.086  -1.238  -8.320  0.00  0.00     0.043 H 
ATOM     10  C   LIG d   1       4.581  -2.439  -7.487  0.00  0.00     0.224 C 
ATOM     11  O   LIG d   1       4.119  -3.431  -8.010  0.00  0.00    -0.275 OA
ATOM     12  N   LIG d   1       4.809  -2.252  -6.134  0.00  0.00    -0.284 N 
ATOM     13  C   LIG d   1       5.250  -0.885  -5.916  0.00  0.00     0.069 C 
ATOM     14  H   LIG d   1       6.331  -0.894  -6.058  0.00  0.00     0.054 H 
ATOM     15  C   LIG d   1       4.985  -0.335  -4.543  0.00  0.00     0.036 C 
ATOM     16  H   LIG d   1       4.389   0.573  -4.636  0.00  0.00     0.039 H 
ATOM     17  C   LIG d   1       4.255  -1.306  -3.668  0.00  0.00     0.140 C 
ATOM     18  O   LIG d   1       3.400  -0.910  -2.912  0.00  0.00    -0.297 OA
ATOM     19  C   LIG d   1       4.581  -2.774  -3.724  0.00  0.00     0.032 C 
ATOM     20  C   LIG d   1       4.508  -3.275  -5.144  0.00  0.00     0.091 C 
ATOM     21  H   LIG d   1       3.481  -3.613  -5.285  0.00  0.00     0.059 H 
ATOM     22  O   LIG d   1       5.069   1.032  -7.757  0.00  0.00    -0.359 OA
ATOM     23  H   LIG d   1       1.766   0.981  -8.299  0.00  0.00     0.060 H 
ATOM     24  H   LIG d   1       2.505  -0.370  -6.162  0.00  0.00     0.060 H 
ATOM     25  H   LIG d   1       5.605  -2.929  -3.385  0.00  0.00     0.036 H 
ATOM     26  H   LIG d   1       3.899  -3.320  -3.073  0.00  0.00     0.036 H 
ENDROOT
BRANCH   1  27
ATOM     27  C   LIG d   1       3.089  -1.285  -9.752  0.00  0.00     0.224 C 
ATOM     28  N   LIG d   1       3.134  -2.342 -10.587  0.00  0.00    -0.285 N 
ATOM     29  H   LIG d   1       3.989  -2.682 -10.893  0.00  0.00     0.155 HD
ATOM     30  O   LIG d   1       2.026  -0.911  -9.303  0.00  0.00    -0.275 OA
BRANCH  28  31
ATOM     31  C   LIG d   1       1.946  -2.948 -11.013  0.00  0.00     0.034 A 
ATOM     32  C   LIG d   1       1.192  -2.364 -12.024  0.00  0.00    -0.040 A 
ATOM     33  C   LIG d   1       0.019  -2.959 -12.449  0.00  0.00    -0.059 A 
ATOM     34  H   LIG d   1       1.524  -1.443 -12.479  0.00  0.00     0.064 H 
ATOM     35  C   LIG d   1      -0.412  -4.136 -11.872  0.00  0.00    -0.048 A 
ATOM     36  H   LIG d   1      -0.563  -2.501 -13.236  0.00  0.00     0.062 H 
ATOM     37  C   LIG d   1       0.339  -4.730 -10.855  0.00  0.00     0.061 A 
ATOM     38  H   LIG d   1      -1.328  -4.598 -12.207  0.00  0.00     0.063 H 
ATOM     39  C   LIG d   1       1.519  -4.126 -10.422  0.00  0.00    -0.026 A 
ATOM     40  H   LIG d   1       2.101  -4.579  -9.632  0.00  0.00     0.064 H 
BRANCH  37  41
ATOM     41  C   LIG d   1      -0.121  -5.990 -10.234  0.00  0.00     0.339 C 
ATOM     42  O   LIG d   1       0.640  -6.641  -9.547  0.00  0.00    -0.245 OA
BRANCH  41  43
ATOM     43  O   LIG d   1      -1.383  -6.417 -10.432  0.00  0.00    -0.461 OA
BRANCH  43  44
ATOM     44  C   LIG d   1      -2.289  -6.298  -9.333  0.00  0.00     0.090 C 
ATOM     45  H   LIG d   1      -1.741  -5.994  -8.441  0.00  0.00     0.070 H 
ATOM     46  H   LIG d   1      -2.769  -7.260  -9.154  0.00  0.00     0.070 H 
BRANCH  44  47
ATOM     47  C   LIG d   1      -3.353  -5.249  -9.661  0.00  0.00    -0.031 C 
ATOM     48  H   LIG d   1      -3.812  -4.897  -8.737  0.00  0.00     0.026 H 
ATOM     49  H   LIG d   1      -2.889  -4.410 -10.179  0.00  0.00     0.026 H 
ATOM     50  H   LIG d   1      -4.117  -5.694 -10.300  0.00  0.00     0.026 H 
ENDBRANCH  44  47
ENDBRANCH  43  44
ENDBRANCH  41  43
ENDBRANCH  37  41
ENDBRANCH  28  31
ENDBRANCH   1  27
BRANCH  15  51
ATOM     51  C   LIG d   1       6.321   0.017  -3.885  0.00  0.00    -0.054 C 
ATOM     52  H   LIG d   1       6.177   0.838  -3.184  0.00  0.00     0.024 H 
ATOM     53  H   LIG d   1       6.704  -0.854  -3.352  0.00  0.00     0.024 H 
ATOM     54  H   LIG d   1       7.035   0.316  -4.652  0.00  0.00     0.024 H 
ENDBRANCH  15  51
BRANCH  20  55
ATOM     55  C   LIG d   1       5.438  -4.443  -5.349  0.00  0.00     0.126 A 
ATOM     56  O   LIG d   1       5.066  -5.706  -5.615  0.00  0.00    -0.466 OA
ATOM     57  C   LIG d   1       6.158  -6.478  -5.739  0.00  0.00     0.092 A 
ATOM     58  C   LIG d   1       7.244  -5.711  -5.541  0.00  0.00    -0.024 A 
ATOM     59  H   LIG d   1       6.162  -7.536  -5.955  0.00  0.00     0.103 H 
ATOM     60  C   LIG d   1       6.780  -4.399  -5.290  0.00  0.00    -0.019 A 
ATOM     61  H   LIG d   1       8.274  -6.035  -5.569  0.00  0.00     0.065 H 
ATOM     62  H   LIG d   1       7.388  -3.529  -5.089  0.00  0.00     0.065 H 
ENDBRANCH  20  55
TORSDOF 8
ENDMDL
MODEL 5
REMARK VINA RESULT:      -6.8      2.129      7.540
REMARK  8 active torsions:
REMARK  status: ('A' for Active; 'I' for Inactive)
REMARK    1  A    between atoms: C_1  and  C_2 
REMARK    2  A    between atoms: C_2  and  O_3 
REMARK    3  A    between atoms: O_3  and  C_4 
REMARK    4  A    between atoms: C_4  and  C_6 
REMARK    5  A    between atoms: C_10  and  N_12 
REMARK       I    between atoms: N_12  and  C_13 
REMARK    6  A    between atoms: C_13  and  C_15 
REMARK    7  A    between atoms: C_29  and  C_41 
REMARK    8  A    between atoms: C_34  and  C_36 
ROOT
ATOM      1  C   LIG d   1      10.985   2.106  -6.182  0.00  0.00     0.080 C 
ATOM      2  H   LIG d   1      11.792   1.453  -5.850  0.00  0.00     0.043 H 
ATOM      3  C   LIG d   1      11.073   2.372  -7.734  0.00  0.00     0.090 C 
ATOM      4  H   LIG d   1      11.443   1.545  -8.341  0.00  0.00     0.065 H 
ATOM      5  C   LIG d   1       9.658   2.865  -8.058  0.00  0.00    -0.056 C 
ATOM      6  C   LIG d   1       9.592   4.082  -7.538  0.00  0.00    -0.051 C 
ATOM      7  C   LIG d   1      10.966   4.359  -6.956  0.00  0.00     0.119 C 
ATOM      8  C   LIG d   1      11.154   3.499  -5.631  0.00  0.00     0.084 C 
ATOM      9  H   LIG d   1      12.172   3.616  -5.258  0.00  0.00     0.043 H 
ATOM     10  C   LIG d   1      10.232   4.215  -4.731  0.00  0.00     0.224 C 
ATOM     11  O   LIG d   1       9.578   3.729  -3.834  0.00  0.00    -0.275 OA
ATOM     12  N   LIG d   1      10.256   5.549  -5.103  0.00  0.00    -0.284 N 
ATOM     13  C   LIG d   1      11.070   5.690  -6.298  0.00  0.00     0.069 C 
ATOM     14  H   LIG d   1      12.095   5.809  -5.949  0.00  0.00     0.054 H 
ATOM     15  C   LIG d   1      10.751   6.881  -7.158  0.00  0.00     0.036 C 
ATOM     16  H   LIG d   1      10.510   6.536  -8.163  0.00  0.00     0.039 H 
ATOM     17  C   LIG d   1       9.596   7.675  -6.629  0.00  0.00     0.140 C 
ATOM     18  O   LIG d   1       8.793   8.152  -7.395  0.00  0.00    -0.297 OA
ATOM     19  C   LIG d   1       9.431   7.884  -5.148  0.00  0.00     0.032 C 
ATOM     20  C   LIG d   1       9.462   6.562  -4.424  0.00  0.00     0.091 C 
ATOM     21  H   LIG d   1       8.426   6.227  -4.378  0.00  0.00     0.059 H 
ATOM     22  O   LIG d   1      11.864   3.630  -7.790  0.00  0.00    -0.359 OA
ATOM     23  H   LIG d   1       8.884   2.337  -8.595  0.00  0.00     0.060 H 
ATOM     24  H   LIG d   1       8.736   4.741  -7.529  0.00  0.00     0.060 H 
ATOM     25  H   LIG d   1      10.268   8.471  -4.771  0.00  0.00     0.036 H 
ATOM     26  H   LIG d   1       8.502   8.420  -4.961  0.00  0.00     0.036 H 
ENDROOT
BRANCH   1  27
ATOM     27  C   LIG d   1       9.641   1.535  -5.805  0.00  0.00     0.224 C 
ATOM     28  N   LIG d   1       9.483   0.908  -4.623  0.00  0.00    -0.285 N 
ATOM     29  H   LIG d   1      10.215   0.883  -3.986  0.00  0.00     0.155 HD
ATOM     30  O   LIG d   1       8.703   1.641  -6.567  0.00  0.00    -0.275 OA
BRANCH  28  31
ATOM     31  C   LIG d   1       8.264   0.294  -4.315  0.00  0.00     0.034 A 
ATOM     32  C   LIG d   1       8.060  -1.044  -4.631  0.00  0.00    -0.040 A 
ATOM     33  C   LIG d   1       6.859  -1.655  -4.328  0.00  0.00    -0.059 A 
ATOM     34  H   LIG d   1       8.844  -1.607  -5.116  0.00  0.00     0.064 H 
ATOM     35  C   LIG d   1       5.852  -0.942  -3.709  0.00  0.00    -0.048 A 
ATOM     36  H   LIG d   1       6.706  -2.696  -4.575  0.00  0.00     0.062 H 
ATOM     37  C   LIG d   1       6.048   0.403  -3.387  0.00  0.00     0.061 A 
ATOM     38  H   LIG d   1       4.916  -1.424  -3.473  0.00  0.00     0.063 H 
ATOM     39  C   LIG d   1       7.258   1.022  -3.699  0.00  0.00    -0.026 A 
ATOM     40  H   LIG d   1       7.412   2.063  -3.457  0.00  0.00     0.064 H 
BRANCH  37  41
ATOM     41  C   LIG d   1       4.972   1.170  -2.725  0.00  0.00     0.339 C 
ATOM     42  O   LIG d   1       5.043   1.414  -1.537  0.00  0.00    -0.245 OA
BRANCH  41  43
ATOM     43  O   LIG d   1       3.911   1.596  -3.438  0.00  0.00    -0.461 OA
BRANCH  43  44
ATOM     44  C   LIG d   1       2.829   0.677  -3.605  0.00  0.00     0.090 C 
ATOM     45  H   LIG d   1       1.923   1.100  -3.170  0.00  0.00     0.070 H 
ATOM     46  H   LIG d   1       3.069  -0.261  -3.103  0.00  0.00     0.070 H 
BRANCH  44  47
ATOM     47  C   LIG d   1       2.607   0.416  -5.096  0.00  0.00    -0.031 C 
ATOM     48  H   LIG d   1       3.561   0.469  -5.620  0.00  0.00     0.026 H 
ATOM     49  H   LIG d   1       2.173  -0.575  -5.230  0.00  0.00     0.026 H 
ATOM     50  H   LIG d   1       1.928   1.168  -5.499  0.00  0.00     0.026 H 
ENDBRANCH  44  47
ENDBRANCH  43  44
ENDBRANCH  41  43
ENDBRANCH  37  41
ENDBRANCH  28  31
ENDBRANCH   1  27
BRANCH  15  51
ATOM     51  C   LIG d   1      11.983   7.785  -7.227  0.00  0.00    -0.054 C 
ATOM     52  H   LIG d   1      12.600   7.495  -8.077  0.00  0.00     0.024 H 
ATOM     53  H   LIG d   1      11.666   8.822  -7.344  0.00  0.00     0.024 H 
ATOM     54  H   LIG d   1      12.560   7.683  -6.308  0.00  0.00     0.024 H 
ENDBRANCH  15  51
BRANCH  20  55
ATOM     55  C   LIG d   1       9.982   6.732  -3.019  0.00  0.00     0.126 A 
ATOM     56  O   LIG d   1      11.263   6.611  -2.636  0.00  0.00    -0.466 OA
ATOM     57  C   LIG d   1      11.358   6.833  -1.315  0.00  0.00     0.092 A 
ATOM     58  C   LIG d   1      10.128   7.088  -0.838  0.00  0.00    -0.024 A 
ATOM     59  H   LIG d   1      12.268   6.805  -0.734  0.00  0.00     0.103 H 
ATOM     60  C   LIG d   1       9.240   7.023  -1.937  0.00  0.00    -0.019 A 
ATOM     61  H   LIG d   1       9.867   7.303   0.188  0.00  0.00     0.065 H 
ATOM     62  H   LIG d   1       8.171   7.179  -1.911  0.00  0.00     0.065 H 
ENDBRANCH  20  55
TORSDOF 8
ENDMDL
MODEL 6
REMARK VINA RESULT:      -6.7      5.528      9.323
REMARK  8 active torsions:
REMARK  status: ('A' for Active; 'I' for Inactive)
REMARK    1  A    between atoms: C_1  and  C_2 
REMARK    2  A    between atoms: C_2  and  O_3 
REMARK    3  A    between atoms: O_3  and  C_4 
REMARK    4  A    between atoms: C_4  and  C_6 
REMARK    5  A    between atoms: C_10  and  N_12 
REMARK       I    between atoms: N_12  and  C_13 
REMARK    6  A    between atoms: C_13  and  C_15 
REMARK    7  A    between atoms: C_29  and  C_41 
REMARK    8  A    between atoms: C_34  and  C_36 
ROOT
ATOM      1  C   LIG d   1      10.394  -6.227  -4.261  0.00  0.00     0.080 C 
ATOM      2  H   LIG d   1      11.080  -6.060  -5.091  0.00  0.00     0.043 H 
ATOM      3  C   LIG d   1      11.175  -6.634  -2.952  0.00  0.00     0.090 C 
ATOM      4  H   LIG d   1      12.155  -6.176  -2.818  0.00  0.00     0.065 H 
ATOM      5  C   LIG d   1      10.141  -6.349  -1.857  0.00  0.00    -0.056 C 
ATOM      6  C   LIG d   1       9.232  -7.305  -1.987  0.00  0.00    -0.051 C 
ATOM      7  C   LIG d   1       9.731  -8.201  -3.105  0.00  0.00     0.119 C 
ATOM      8  C   LIG d   1       9.547  -7.452  -4.496  0.00  0.00     0.084 C 
ATOM      9  H   LIG d   1       9.990  -8.046  -5.296  0.00  0.00     0.043 H 
ATOM     10  C   LIG d   1       8.079  -7.505  -4.621  0.00  0.00     0.224 C 
ATOM     11  O   LIG d   1       7.370  -6.674  -5.145  0.00  0.00    -0.275 OA
ATOM     12  N   LIG d   1       7.664  -8.685  -4.026  0.00  0.00    -0.284 N 
ATOM     13  C   LIG d   1       8.810  -9.330  -3.409  0.00  0.00     0.069 C 
ATOM     14  H   LIG d   1       9.270  -9.933  -4.193  0.00  0.00     0.054 H 
ATOM     15  C   LIG d   1       8.492 -10.253  -2.267  0.00  0.00     0.036 C 
ATOM     16  H   LIG d   1       9.039  -9.923  -1.384  0.00  0.00     0.039 H 
ATOM     17  C   LIG d   1       7.029 -10.285  -1.947  0.00  0.00     0.140 C 
ATOM     18  O   LIG d   1       6.666 -10.341  -0.797  0.00  0.00    -0.297 OA
ATOM     19  C   LIG d   1       6.008 -10.248  -3.052  0.00  0.00     0.032 C 
ATOM     20  C   LIG d   1       6.263  -9.076  -3.965  0.00  0.00     0.091 C 
ATOM     21  H   LIG d   1       5.683  -8.250  -3.553  0.00  0.00     0.059 H 
ATOM     22  O   LIG d   1      11.152  -8.120  -3.026  0.00  0.00    -0.359 OA
ATOM     23  H   LIG d   1      10.151  -5.545  -1.136  0.00  0.00     0.060 H 
ATOM     24  H   LIG d   1       8.323  -7.422  -1.414  0.00  0.00     0.060 H 
ATOM     25  H   LIG d   1       6.100 -11.149  -3.658  0.00  0.00     0.036 H 
ATOM     26  H   LIG d   1       5.009 -10.206  -2.619  0.00  0.00     0.036 H 
ENDROOT
BRANCH   1  27
ATOM     27  C   LIG d   1       9.533  -5.012  -4.022  0.00  0.00     0.224 C 
ATOM     28  N   LIG d   1       8.963  -4.376  -5.064  0.00  0.00    -0.285 N 
ATOM     29  H   LIG d   1       9.050  -4.738  -5.960  0.00  0.00     0.155 HD
ATOM     30  O   LIG d   1       9.355  -4.608  -2.892  0.00  0.00    -0.275 OA
BRANCH  28  31
ATOM     31  C   LIG d   1       8.244  -3.193  -4.853  0.00  0.00     0.034 A 
ATOM     32  C   LIG d   1       8.841  -1.964  -5.104  0.00  0.00    -0.040 A 
ATOM     33  C   LIG d   1       8.136  -0.793  -4.898  0.00  0.00    -0.059 A 
ATOM     34  H   LIG d   1       9.859  -1.924  -5.460  0.00  0.00     0.064 H 
ATOM     35  C   LIG d   1       6.834  -0.837  -4.441  0.00  0.00    -0.048 A 
ATOM     36  H   LIG d   1       8.604   0.160  -5.095  0.00  0.00     0.062 H 
ATOM     37  C   LIG d   1       6.226  -2.068  -4.187  0.00  0.00     0.061 A 
ATOM     38  H   LIG d   1       6.286   0.080  -4.283  0.00  0.00     0.063 H 
ATOM     39  C   LIG d   1       6.939  -3.249  -4.388  0.00  0.00    -0.026 A 
ATOM     40  H   LIG d   1       6.475  -4.204  -4.188  0.00  0.00     0.064 H 
BRANCH  37  41
ATOM     41  C   LIG d   1       4.832  -2.118  -3.697  0.00  0.00     0.339 C 
ATOM     42  O   LIG d   1       4.235  -3.176  -3.671  0.00  0.00    -0.245 OA
BRANCH  41  43
ATOM     43  O   LIG d   1       4.223  -0.991  -3.282  0.00  0.00    -0.461 OA
BRANCH  43  44
ATOM     44  C   LIG d   1       4.307  -0.682  -1.890  0.00  0.00     0.090 C 
ATOM     45  H   LIG d   1       5.122  -1.249  -1.440  0.00  0.00     0.070 H 
ATOM     46  H   LIG d   1       3.368  -0.947  -1.402  0.00  0.00     0.070 H 
BRANCH  44  47
ATOM     47  C   LIG d   1       4.569   0.815  -1.714  0.00  0.00    -0.031 C 
ATOM     48  H   LIG d   1       4.497   1.312  -2.681  0.00  0.00     0.026 H 
ATOM     49  H   LIG d   1       3.828   1.235  -1.033  0.00  0.00     0.026 H 
ATOM     50  H   LIG d   1       5.567   0.963  -1.301  0.00  0.00     0.026 H 
ENDBRANCH  44  47
ENDBRANCH  43  44
ENDBRANCH  41  43
ENDBRANCH  37  41
ENDBRANCH  28  31
ENDBRANCH   1  27
BRANCH  15  51
ATOM     51  C   LIG d   1       8.950 -11.667  -2.631  0.00  0.00    -0.054 C 
ATOM     52  H   LIG d   1       9.661 -11.619  -3.454  0.00  0.00     0.024 H 
ATOM     53  H   LIG d   1       9.425 -12.129  -1.765  0.00  0.00     0.024 H 
ATOM     54  H   LIG d   1       8.087 -12.262  -2.931  0.00  0.00     0.024 H 
ENDBRANCH  15  51
BRANCH  20  55
ATOM     55  C   LIG d   1       5.775  -9.367  -5.361  0.00  0.00     0.126 A 
ATOM     56  O   LIG d   1       4.780  -8.726  -5.995  0.00  0.00    -0.466 OA
ATOM     57  C   LIG d   1       4.622  -9.247  -7.222  0.00  0.00     0.092 A 
ATOM     58  C   LIG d   1       5.514 -10.240  -7.380  0.00  0.00    -0.024 A 
ATOM     59  H   LIG d   1       3.897  -8.927  -7.955  0.00  0.00     0.103 H 
ATOM     60  C   LIG d   1       6.258 -10.318  -6.180  0.00  0.00    -0.019 A 
ATOM     61  H   LIG d   1       5.639 -10.860  -8.256  0.00  0.00     0.065 H 
ATOM     62  H   LIG d   1       7.061 -11.008  -5.963  0.00  0.00     0.065 H 
ENDBRANCH  20  55
TORSDOF 8
ENDMDL
MODEL 7
REMARK VINA RESULT:      -6.7      5.686      8.730
REMARK  8 active torsions:
REMARK  status: ('A' for Active; 'I' for Inactive)
REMARK    1  A    between atoms: C_1  and  C_2 
REMARK    2  A    between atoms: C_2  and  O_3 
REMARK    3  A    between atoms: O_3  and  C_4 
REMARK    4  A    between atoms: C_4  and  C_6 
REMARK    5  A    between atoms: C_10  and  N_12 
REMARK       I    between atoms: N_12  and  C_13 
REMARK    6  A    between atoms: C_13  and  C_15 
REMARK    7  A    between atoms: C_29  and  C_41 
REMARK    8  A    between atoms: C_34  and  C_36 
ROOT
ATOM      1  C   LIG d   1       2.897   1.008  -8.496  0.00  0.00     0.080 C 
ATOM      2  H   LIG d   1       1.877   1.334  -8.296  0.00  0.00     0.043 H 
ATOM      3  C   LIG d   1       3.737   2.156  -9.178  0.00  0.00     0.090 C 
ATOM      4  H   LIG d   1       3.499   3.173  -8.865  0.00  0.00     0.065 H 
ATOM      5  C   LIG d   1       5.177   1.693  -8.930  0.00  0.00    -0.056 C 
ATOM      6  C   LIG d   1       5.350   0.658  -9.740  0.00  0.00    -0.051 C 
ATOM      7  C   LIG d   1       4.055   0.524 -10.520  0.00  0.00     0.119 C 
ATOM      8  C   LIG d   1       2.926  -0.057  -9.562  0.00  0.00     0.084 C 
ATOM      9  H   LIG d   1       1.969  -0.067 -10.085  0.00  0.00     0.043 H 
ATOM     10  C   LIG d   1       3.405  -1.444  -9.419  0.00  0.00     0.224 C 
ATOM     11  O   LIG d   1       3.284  -2.151  -8.442  0.00  0.00    -0.275 OA
ATOM     12  N   LIG d   1       4.017  -1.787 -10.613  0.00  0.00    -0.284 N 
ATOM     13  C   LIG d   1       4.059  -0.619 -11.474  0.00  0.00     0.069 C 
ATOM     14  H   LIG d   1       3.109  -0.608 -12.009  0.00  0.00     0.054 H 
ATOM     15  C   LIG d   1       5.151  -0.618 -12.506  0.00  0.00     0.036 C 
ATOM     16  H   LIG d   1       5.760   0.277 -12.375  0.00  0.00     0.039 H 
ATOM     17  C   LIG d   1       6.034  -1.824 -12.406  0.00  0.00     0.140 C 
ATOM     18  O   LIG d   1       7.224  -1.714 -12.582  0.00  0.00    -0.297 OA
ATOM     19  C   LIG d   1       5.447  -3.172 -12.088  0.00  0.00     0.032 C 
ATOM     20  C   LIG d   1       4.608  -3.098 -10.836  0.00  0.00     0.091 C 
ATOM     21  H   LIG d   1       5.288  -3.325 -10.014  0.00  0.00     0.059 H 
ATOM     22  O   LIG d   1       3.556   1.856 -10.624  0.00  0.00    -0.359 OA
ATOM     23  H   LIG d   1       5.896   2.118  -8.245  0.00  0.00     0.060 H 
ATOM     24  H   LIG d   1       6.230   0.039  -9.827  0.00  0.00     0.060 H 
ATOM     25  H   LIG d   1       4.783  -3.476 -12.896  0.00  0.00     0.036 H 
ATOM     26  H   LIG d   1       6.250  -3.901 -11.988  0.00  0.00     0.036 H 
ENDROOT
BRANCH   1  27
ATOM     27  C   LIG d   1       3.565   0.525  -7.233  0.00  0.00     0.224 C 
ATOM     28  N   LIG d   1       2.839  -0.097  -6.283  0.00  0.00    -0.285 N 
ATOM     29  H   LIG d   1       1.902  -0.295  -6.440  0.00  0.00     0.155 HD
ATOM     30  O   LIG d   1       4.754   0.698  -7.072  0.00  0.00    -0.275 OA
BRANCH  28  31
ATOM     31  C   LIG d   1       3.437  -0.457  -5.070  0.00  0.00     0.034 A 
ATOM     32  C   LIG d   1       2.813  -0.146  -3.868  0.00  0.00    -0.040 A 
ATOM     33  C   LIG d   1       3.399  -0.501  -2.667  0.00  0.00    -0.059 A 
ATOM     34  H   LIG d   1       1.867   0.374  -3.873  0.00  0.00     0.064 H 
ATOM     35  C   LIG d   1       4.608  -1.166  -2.653  0.00  0.00    -0.048 A 
ATOM     36  H   LIG d   1       2.908  -0.258  -1.736  0.00  0.00     0.062 H 
ATOM     37  C   LIG d   1       5.243  -1.483  -3.856  0.00  0.00     0.061 A 
ATOM     38  H   LIG d   1       5.061  -1.442  -1.714  0.00  0.00     0.063 H 
ATOM     39  C   LIG d   1       4.655  -1.119  -5.068  0.00  0.00    -0.026 A 
ATOM     40  H   LIG d   1       5.145  -1.357  -6.000  0.00  0.00     0.064 H 
BRANCH  37  41
ATOM     41  C   LIG d   1       6.538  -2.194  -3.845  0.00  0.00     0.339 C 
ATOM     42  O   LIG d   1       7.134  -2.354  -2.799  0.00  0.00    -0.245 OA
BRANCH  41  43
ATOM     43  O   LIG d   1       7.059  -2.664  -4.995  0.00  0.00    -0.461 OA
BRANCH  43  44
ATOM     44  C   LIG d   1       8.334  -2.151  -5.388  0.00  0.00     0.090 C 
ATOM     45  H   LIG d   1       8.882  -2.919  -5.935  0.00  0.00     0.070 H 
ATOM     46  H   LIG d   1       8.899  -1.866  -4.500  0.00  0.00     0.070 H 
BRANCH  44  47
ATOM     47  C   LIG d   1       8.139  -0.927  -6.284  0.00  0.00    -0.031 C 
ATOM     48  H   LIG d   1       9.048  -0.326  -6.281  0.00  0.00     0.026 H 
ATOM     49  H   LIG d   1       7.920  -1.252  -7.301  0.00  0.00     0.026 H 
ATOM     50  H   LIG d   1       7.308  -0.330  -5.907  0.00  0.00     0.026 H 
ENDBRANCH  44  47
ENDBRANCH  43  44
ENDBRANCH  41  43
ENDBRANCH  37  41
ENDBRANCH  28  31
ENDBRANCH   1  27
BRANCH  15  51
ATOM     51  C   LIG d   1       4.517  -0.583 -13.898  0.00  0.00    -0.054 C 
ATOM     52  H   LIG d   1       3.452  -0.796 -13.819  0.00  0.00     0.024 H 
ATOM     53  H   LIG d   1       4.658   0.405 -14.337  0.00  0.00     0.024 H 
ATOM     54  H   LIG d   1       4.991  -1.333 -14.532  0.00  0.00     0.024 H 
ENDBRANCH  15  51
BRANCH  20  55
ATOM     55  C   LIG d   1       3.513  -4.133 -10.863  0.00  0.00     0.126 A 
ATOM     56  O   LIG d   1       3.352  -5.129  -9.978  0.00  0.00    -0.466 OA
ATOM     57  C   LIG d   1       2.271  -5.853 -10.310  0.00  0.00     0.092 A 
ATOM     58  C   LIG d   1       1.734  -5.327 -11.425  0.00  0.00    -0.024 A 
ATOM     59  H   LIG d   1       1.899  -6.715  -9.776  0.00  0.00     0.103 H 
ATOM     60  C   LIG d   1       2.535  -4.217 -11.781  0.00  0.00    -0.019 A 
ATOM     61  H   LIG d   1       0.858  -5.682 -11.947  0.00  0.00     0.065 H 
ATOM     62  H   LIG d   1       2.388  -3.563 -12.628  0.00  0.00     0.065 H 
ENDBRANCH  20  55
TORSDOF 8
ENDMDL
MODEL 8
REMARK VINA RESULT:      -6.4      6.268     11.053
REMARK  8 active torsions:
REMARK  status: ('A' for Active; 'I' for Inactive)
REMARK    1  A    between atoms: C_1  and  C_2 
REMARK    2  A    between atoms: C_2  and  O_3 
REMARK    3  A    between atoms: O_3  and  C_4 
REMARK    4  A    between atoms: C_4  and  C_6 
REMARK    5  A    between atoms: C_10  and  N_12 
REMARK       I    between atoms: N_12  and  C_13 
REMARK    6  A    between atoms: C_13  and  C_15 
REMARK    7  A    between atoms: C_29  and  C_41 
REMARK    8  A    between atoms: C_34  and  C_36 
ROOT
ATOM      1  C   LIG d   1       4.387  -0.520  -9.347  0.00  0.00     0.080 C 
ATOM      2  H   LIG d   1       5.076  -0.488 -10.191  0.00  0.00     0.043 H 
ATOM      3  C   LIG d   1       4.090   0.930  -8.803  0.00  0.00     0.090 C 
ATOM      4  H   LIG d   1       4.065   1.726  -9.548  0.00  0.00     0.065 H 
ATOM      5  C   LIG d   1       2.800   0.717  -8.001  0.00  0.00    -0.056 C 
ATOM      6  C   LIG d   1       3.176   0.049  -6.920  0.00  0.00    -0.051 C 
ATOM      7  C   LIG d   1       4.683  -0.092  -7.023  0.00  0.00     0.119 C 
ATOM      8  C   LIG d   1       5.031  -1.163  -8.147  0.00  0.00     0.084 C 
ATOM      9  H   LIG d   1       6.111  -1.202  -8.296  0.00  0.00     0.043 H 
ATOM     10  C   LIG d   1       4.601  -2.397  -7.462  0.00  0.00     0.224 C 
ATOM     11  O   LIG d   1       4.133  -3.385  -7.985  0.00  0.00    -0.275 OA
ATOM     12  N   LIG d   1       4.834  -2.213  -6.110  0.00  0.00    -0.284 N 
ATOM     13  C   LIG d   1       5.283  -0.849  -5.890  0.00  0.00     0.069 C 
ATOM     14  H   LIG d   1       6.363  -0.863  -6.034  0.00  0.00     0.054 H 
ATOM     15  C   LIG d   1       5.024  -0.300  -4.515  0.00  0.00     0.036 C 
ATOM     16  H   LIG d   1       4.433   0.612  -4.605  0.00  0.00     0.039 H 
ATOM     17  C   LIG d   1       4.291  -1.269  -3.640  0.00  0.00     0.140 C 
ATOM     18  O   LIG d   1       3.440  -0.870  -2.882  0.00  0.00    -0.297 OA
ATOM     19  C   LIG d   1       4.609  -2.738  -3.699  0.00  0.00     0.032 C 
ATOM     20  C   LIG d   1       4.530  -3.236  -5.121  0.00  0.00     0.091 C 
ATOM     21  H   LIG d   1       3.500  -3.568  -5.259  0.00  0.00     0.059 H 
ATOM     22  O   LIG d   1       5.108   1.073  -7.727  0.00  0.00    -0.359 OA
ATOM     23  H   LIG d   1       1.804   1.040  -8.261  0.00  0.00     0.060 H 
ATOM     24  H   LIG d   1       2.540  -0.319  -6.128  0.00  0.00     0.060 H 
ATOM     25  H   LIG d   1       5.633  -2.900  -3.364  0.00  0.00     0.036 H 
ATOM     26  H   LIG d   1       3.926  -3.282  -3.048  0.00  0.00     0.036 H 
ENDROOT
BRANCH   1  27
ATOM     27  C   LIG d   1       3.110  -1.230  -9.721  0.00  0.00     0.224 C 
ATOM     28  N   LIG d   1       3.150  -2.303 -10.535  0.00  0.00    -0.285 N 
ATOM     29  H   LIG d   1       4.005  -2.661 -10.825  0.00  0.00     0.155 HD
ATOM     30  O   LIG d   1       2.048  -0.834  -9.290  0.00  0.00    -0.275 OA
BRANCH  28  31
ATOM     31  C   LIG d   1       1.960  -2.904 -10.960  0.00  0.00     0.034 A 
ATOM     32  C   LIG d   1       1.473  -4.027 -10.301  0.00  0.00    -0.040 A 
ATOM     33  C   LIG d   1       0.298  -4.623 -10.717  0.00  0.00    -0.059 A 
ATOM     34  H   LIG d   1       2.017  -4.434  -9.461  0.00  0.00     0.064 H 
ATOM     35  C   LIG d   1      -0.401  -4.108 -11.790  0.00  0.00    -0.048 A 
ATOM     36  H   LIG d   1      -0.076  -5.495 -10.200  0.00  0.00     0.062 H 
ATOM     37  C   LIG d   1       0.080  -2.980 -12.459  0.00  0.00     0.061 A 
ATOM     38  H   LIG d   1      -1.319  -4.576 -12.110  0.00  0.00     0.063 H 
ATOM     39  C   LIG d   1       1.269  -2.382 -12.043  0.00  0.00    -0.026 A 
ATOM     40  H   LIG d   1       1.648  -1.513 -12.560  0.00  0.00     0.064 H 
BRANCH  37  41
ATOM     41  C   LIG d   1      -0.666  -2.427 -13.608  0.00  0.00     0.339 C 
ATOM     42  O   LIG d   1      -0.084  -2.172 -14.644  0.00  0.00    -0.245 OA
BRANCH  41  43
ATOM     43  O   LIG d   1      -1.990  -2.204 -13.507  0.00  0.00    -0.461 OA
BRANCH  43  44
ATOM     44  C   LIG d   1      -2.501  -1.028 -14.140  0.00  0.00     0.090 C 
ATOM     45  H   LIG d   1      -3.527  -1.207 -14.465  0.00  0.00     0.070 H 
ATOM     46  H   LIG d   1      -1.884  -0.786 -15.006  0.00  0.00     0.070 H 
BRANCH  44  47
ATOM     47  C   LIG d   1      -2.473   0.138 -13.151  0.00  0.00    -0.031 C 
ATOM     48  H   LIG d   1      -2.834   1.040 -13.644  0.00  0.00     0.026 H 
ATOM     49  H   LIG d   1      -3.114  -0.093 -12.300  0.00  0.00     0.026 H 
ATOM     50  H   LIG d   1      -1.452   0.296 -12.805  0.00  0.00     0.026 H 
ENDBRANCH  44  47
ENDBRANCH  43  44
ENDBRANCH  41  43
ENDBRANCH  37  41
ENDBRANCH  28  31
ENDBRANCH   1  27
BRANCH  15  51
ATOM     51  C   LIG d   1       6.364   0.044  -3.860  0.00  0.00    -0.054 C 
ATOM     52  H   LIG d   1       7.103   0.255  -4.631  0.00  0.00     0.024 H 
ATOM     53  H   LIG d   1       6.242   0.920  -3.223  0.00  0.00     0.024 H 
ATOM     54  H   LIG d   1       6.699  -0.800  -3.256  0.00  0.00     0.024 H 
ENDBRANCH  15  51
BRANCH  20  55
ATOM     55  C   LIG d   1       5.453  -4.409  -5.330  0.00  0.00     0.126 A 
ATOM     56  O   LIG d   1       5.073  -5.668  -5.605  0.00  0.00    -0.466 OA
ATOM     57  C   LIG d   1       6.160  -6.446  -5.730  0.00  0.00     0.092 A 
ATOM     58  C   LIG d   1       7.251  -5.688  -5.524  0.00  0.00    -0.024 A 
ATOM     59  H   LIG d   1       6.158  -7.502  -5.953  0.00  0.00     0.103 H 
ATOM     60  C   LIG d   1       6.795  -4.374  -5.266  0.00  0.00    -0.019 A 
ATOM     61  H   LIG d   1       8.279  -6.018  -5.551  0.00  0.00     0.065 H 
ATOM     62  H   LIG d   1       7.408  -3.509  -5.059  0.00  0.00     0.065 H 
ENDBRANCH  20  55
TORSDOF 8
ENDMDL
MODEL 9
REMARK VINA RESULT:      -6.4      2.157      8.053
REMARK  8 active torsions:
REMARK  status: ('A' for Active; 'I' for Inactive)
REMARK    1  A    between atoms: C_1  and  C_2 
REMARK    2  A    between atoms: C_2  and  O_3 
REMARK    3  A    between atoms: O_3  and  C_4 
REMARK    4  A    between atoms: C_4  and  C_6 
REMARK    5  A    between atoms: C_10  and  N_12 
REMARK       I    between atoms: N_12  and  C_13 
REMARK    6  A    between atoms: C_13  and  C_15 
REMARK    7  A    between atoms: C_29  and  C_41 
REMARK    8  A    between atoms: C_34  and  C_36 
ROOT
ATOM      1  C   LIG d   1      10.329   1.637  -5.184  0.00  0.00     0.080 C 
ATOM      2  H   LIG d   1      10.800   0.706  -4.868  0.00  0.00     0.043 H 
ATOM      3  C   LIG d   1      10.668   1.960  -6.690  0.00  0.00     0.090 C 
ATOM      4  H   LIG d   1      10.769   1.101  -7.353  0.00  0.00     0.065 H 
ATOM      5  C   LIG d   1       9.575   2.971  -7.058  0.00  0.00    -0.056 C 
ATOM      6  C   LIG d   1       9.907   4.083  -6.418  0.00  0.00    -0.051 C 
ATOM      7  C   LIG d   1      11.219   3.781  -5.717  0.00  0.00     0.119 C 
ATOM      8  C   LIG d   1      10.940   2.821  -4.480  0.00  0.00     0.084 C 
ATOM      9  H   LIG d   1      11.886   2.520  -4.027  0.00  0.00     0.043 H 
ATOM     10  C   LIG d   1      10.258   3.764  -3.576  0.00  0.00     0.224 C 
ATOM     11  O   LIG d   1       9.382   3.497  -2.782  0.00  0.00    -0.275 OA
ATOM     12  N   LIG d   1      10.809   5.014  -3.803  0.00  0.00    -0.284 N 
ATOM     13  C   LIG d   1      11.736   4.925  -4.918  0.00  0.00     0.069 C 
ATOM     14  H   LIG d   1      12.692   4.625  -4.488  0.00  0.00     0.054 H 
ATOM     15  C   LIG d   1      11.967   6.207  -5.667  0.00  0.00     0.036 C 
ATOM     16  H   LIG d   1      11.722   6.050  -6.718  0.00  0.00     0.039 H 
ATOM     17  C   LIG d   1      11.138   7.337  -5.139  0.00  0.00     0.140 C 
ATOM     18  O   LIG d   1      10.649   8.133  -5.905  0.00  0.00    -0.297 OA
ATOM     19  C   LIG d   1      10.909   7.486  -3.660  0.00  0.00     0.032 C 
ATOM     20  C   LIG d   1      10.377   6.200  -3.078  0.00  0.00     0.091 C 
ATOM     21  H   LIG d   1       9.291   6.277  -3.140  0.00  0.00     0.059 H 
ATOM     22  O   LIG d   1      11.868   2.830  -6.559  0.00  0.00    -0.359 OA
ATOM     23  H   LIG d   1       8.721   2.811  -7.699  0.00  0.00     0.060 H 
ATOM     24  H   LIG d   1       9.358   5.012  -6.400  0.00  0.00     0.060 H 
ATOM     25  H   LIG d   1      11.859   7.687  -3.167  0.00  0.00     0.036 H 
ATOM     26  H   LIG d   1      10.227   8.317  -3.482  0.00  0.00     0.036 H 
ENDROOT
BRANCH   1  27
ATOM     27  C   LIG d   1       8.838   1.587  -4.964  0.00  0.00     0.224 C 
ATOM     28  N   LIG d   1       8.312   0.677  -4.120  0.00  0.00    -0.285 N 
ATOM     29  H   LIG d   1       8.897   0.099  -3.604  0.00  0.00     0.155 HD
ATOM     30  O   LIG d   1       8.112   2.365  -5.546  0.00  0.00    -0.275 OA
BRANCH  28  31
ATOM     31  C   LIG d   1       6.923   0.566  -3.988  0.00  0.00     0.034 A 
ATOM     32  C   LIG d   1       6.294   1.039  -2.843  0.00  0.00    -0.040 A 
ATOM     33  C   LIG d   1       4.923   0.932  -2.709  0.00  0.00    -0.059 A 
ATOM     34  H   LIG d   1       6.879   1.492  -2.057  0.00  0.00     0.064 H 
ATOM     35  C   LIG d   1       4.168   0.354  -3.709  0.00  0.00    -0.048 A 
ATOM     36  H   LIG d   1       4.438   1.303  -1.817  0.00  0.00     0.062 H 
ATOM     37  C   LIG d   1       4.792  -0.126  -4.863  0.00  0.00     0.061 A 
ATOM     38  H   LIG d   1       3.098   0.273  -3.600  0.00  0.00     0.063 H 
ATOM     39  C   LIG d   1       6.177  -0.023  -4.997  0.00  0.00    -0.026 A 
ATOM     40  H   LIG d   1       6.664  -0.397  -5.885  0.00  0.00     0.064 H 
BRANCH  37  41
ATOM     41  C   LIG d   1       3.988  -0.746  -5.937  0.00  0.00     0.339 C 
ATOM     42  O   LIG d   1       4.286  -1.845  -6.361  0.00  0.00    -0.245 OA
BRANCH  41  43
ATOM     43  O   LIG d   1       2.926  -0.093  -6.446  0.00  0.00    -0.461 OA
BRANCH  43  44
ATOM     44  C   LIG d   1       2.832  -0.016  -7.870  0.00  0.00     0.090 C 
ATOM     45  H   LIG d   1       1.875  -0.428  -8.194  0.00  0.00     0.070 H 
ATOM     46  H   LIG d   1       3.644  -0.589  -8.318  0.00  0.00     0.070 H 
BRANCH  44  47
ATOM     47  C   LIG d   1       2.934   1.446  -8.310  0.00  0.00    -0.031 C 
ATOM     48  H   LIG d   1       3.474   1.503  -9.255  0.00  0.00     0.026 H 
ATOM     49  H   LIG d   1       1.932   1.857  -8.438  0.00  0.00     0.026 H 
ATOM     50  H   LIG d   1       3.468   2.017  -7.551  0.00  0.00     0.026 H 
ENDBRANCH  44  47
ENDBRANCH  43  44
ENDBRANCH  41  43
ENDBRANCH  37  41
ENDBRANCH  28  31
ENDBRANCH   1  27
BRANCH  15  51
ATOM     51  C   LIG d   1      13.446   6.585  -5.556  0.00  0.00    -0.054 C 
ATOM     52  H   LIG d   1      13.874   6.677  -6.553  0.00  0.00     0.024 H 
ATOM     53  H   LIG d   1      13.539   7.536  -5.031  0.00  0.00     0.024 H 
ATOM     54  H   LIG d   1      13.978   5.811  -5.003  0.00  0.00     0.024 H 
ENDBRANCH  15  51
BRANCH  20  55
ATOM     55  C   LIG d   1      10.775   6.061  -1.631  0.00  0.00     0.126 A 
ATOM     56  O   LIG d   1      10.025   6.411  -0.573  0.00  0.00    -0.466 OA
ATOM     57  C   LIG d   1      10.695   6.143   0.559  0.00  0.00     0.092 A 
ATOM     58  C   LIG d   1      11.892   5.626   0.232  0.00  0.00    -0.024 A 
ATOM     59  H   LIG d   1      10.335   6.317   1.562  0.00  0.00     0.103 H 
ATOM     60  C   LIG d   1      11.943   5.573  -1.181  0.00  0.00    -0.019 A 
ATOM     61  H   LIG d   1      12.666   5.310   0.916  0.00  0.00     0.065 H 
ATOM     62  H   LIG d   1      12.764   5.209  -1.782  0.00  0.00     0.065 H 
ENDBRANCH  20  55
TORSDOF 8
ENDMDL
MODEL 10
REMARK VINA RESULT:      -6.4      3.632      5.362
REMARK  8 active torsions:
REMARK  status: ('A' for Active; 'I' for Inactive)
REMARK    1  A    between atoms: C_1  and  C_2 
REMARK    2  A    between atoms: C_2  and  O_3 
REMARK    3  A    between atoms: O_3  and  C_4 
REMARK    4  A    between atoms: C_4  and  C_6 
REMARK    5  A    between atoms: C_10  and  N_12 
REMARK       I    between atoms: N_12  and  C_13 
REMARK    6  A    between atoms: C_13  and  C_15 
REMARK    7  A    between atoms: C_29  and  C_41 
REMARK    8  A    between atoms: C_34  and  C_36 
ROOT
ATOM      1  C   LIG d   1       3.965   0.301  -9.087  0.00  0.00     0.080 C 
ATOM      2  H   LIG d   1       3.043   0.875  -9.183  0.00  0.00     0.043 H 
ATOM      3  C   LIG d   1       4.165  -0.661 -10.321  0.00  0.00     0.090 C 
ATOM      4  H   LIG d   1       3.804  -0.290 -11.280  0.00  0.00     0.065 H 
ATOM      5  C   LIG d   1       5.662  -0.982 -10.241  0.00  0.00    -0.056 C 
ATOM      6  C   LIG d   1       5.785  -1.787  -9.196  0.00  0.00    -0.051 C 
ATOM      7  C   LIG d   1       4.376  -2.008  -8.676  0.00  0.00     0.119 C 
ATOM      8  C   LIG d   1       3.873  -0.685  -7.951  0.00  0.00     0.084 C 
ATOM      9  H   LIG d   1       2.829  -0.800  -7.659  0.00  0.00     0.043 H 
ATOM     10  C   LIG d   1       4.713  -0.725  -6.740  0.00  0.00     0.224 C 
ATOM     11  O   LIG d   1       5.150   0.230  -6.134  0.00  0.00    -0.275 OA
ATOM     12  N   LIG d   1       4.908  -2.059  -6.425  0.00  0.00    -0.284 N 
ATOM     13  C   LIG d   1       4.324  -2.881  -7.471  0.00  0.00     0.069 C 
ATOM     14  H   LIG d   1       3.276  -3.010  -7.199  0.00  0.00     0.054 H 
ATOM     15  C   LIG d   1       4.917  -4.253  -7.620  0.00  0.00     0.036 C 
ATOM     16  H   LIG d   1       5.277  -4.373  -8.642  0.00  0.00     0.039 H 
ATOM     17  C   LIG d   1       6.055  -4.490  -6.674  0.00  0.00     0.140 C 
ATOM     18  O   LIG d   1       7.024  -5.111  -7.043  0.00  0.00    -0.297 OA
ATOM     19  C   LIG d   1       5.999  -3.959  -5.268  0.00  0.00     0.032 C 
ATOM     20  C   LIG d   1       5.694  -2.482  -5.275  0.00  0.00     0.091 C 
ATOM     21  H   LIG d   1       6.662  -1.982  -5.305  0.00  0.00     0.059 H 
ATOM     22  O   LIG d   1       3.547  -1.924  -9.833  0.00  0.00    -0.359 OA
ATOM     23  H   LIG d   1       6.445  -0.629 -10.895  0.00  0.00     0.060 H 
ATOM     24  H   LIG d   1       6.699  -2.200  -8.796  0.00  0.00     0.060 H 
ATOM     25  H   LIG d   1       5.187  -4.447  -4.730  0.00  0.00     0.036 H 
ATOM     26  H   LIG d   1       6.942  -4.169  -4.765  0.00  0.00     0.036 H 
ENDROOT
BRANCH   1  27
ATOM     27  C   LIG d   1       5.152   1.215  -8.915  0.00  0.00     0.224 C 
ATOM     28  N   LIG d   1       6.387   0.695  -8.771  0.00  0.00    -0.285 N 
ATOM     29  H   LIG d   1       6.522  -0.264  -8.845  0.00  0.00     0.155 HD
ATOM     30  O   LIG d   1       4.996   2.418  -8.905  0.00  0.00    -0.275 OA
BRANCH  28  31
ATOM     31  C   LIG d   1       7.475   1.537  -8.514  0.00  0.00     0.034 A 
ATOM     32  C   LIG d   1       8.031   2.287  -9.543  0.00  0.00    -0.040 A 
ATOM     33  C   LIG d   1       9.106   3.120  -9.295  0.00  0.00    -0.059 A 
ATOM     34  H   LIG d   1       7.622   2.218 -10.540  0.00  0.00     0.064 H 
ATOM     35  C   LIG d   1       9.634   3.213  -8.023  0.00  0.00    -0.048 A 
ATOM     36  H   LIG d   1       9.533   3.702 -10.099  0.00  0.00     0.062 H 
ATOM     37  C   LIG d   1       9.082   2.462  -6.983  0.00  0.00     0.061 A 
ATOM     38  H   LIG d   1      10.473   3.866  -7.834  0.00  0.00     0.063 H 
ATOM     39  C   LIG d   1       8.002   1.617  -7.234  0.00  0.00    -0.026 A 
ATOM     40  H   LIG d   1       7.575   1.031  -6.434  0.00  0.00     0.064 H 
BRANCH  37  41
ATOM     41  C   LIG d   1       9.646   2.559  -5.620  0.00  0.00     0.339 C 
ATOM     42  O   LIG d   1      10.355   3.499  -5.321  0.00  0.00    -0.245 OA
BRANCH  41  43
ATOM     43  O   LIG d   1       9.377   1.603  -4.710  0.00  0.00    -0.461 OA
BRANCH  43  44
ATOM     44  C   LIG d   1       8.649   2.001  -3.546  0.00  0.00     0.090 C 
ATOM     45  H   LIG d   1       8.629   3.090  -3.484  0.00  0.00     0.070 H 
ATOM     46  H   LIG d   1       9.136   1.597  -2.658  0.00  0.00     0.070 H 
BRANCH  44  47
ATOM     47  C   LIG d   1       7.218   1.468  -3.631  0.00  0.00    -0.031 C 
ATOM     48  H   LIG d   1       7.214   0.403  -3.401  0.00  0.00     0.026 H 
ATOM     49  H   LIG d   1       6.590   1.997  -2.913  0.00  0.00     0.026 H 
ATOM     50  H   LIG d   1       6.831   1.624  -4.637  0.00  0.00     0.026 H 
ENDBRANCH  44  47
ENDBRANCH  43  44
ENDBRANCH  41  43
ENDBRANCH  37  41
ENDBRANCH  28  31
ENDBRANCH   1  27
BRANCH  15  51
ATOM     51  C   LIG d   1       3.829  -5.295  -7.354  0.00  0.00    -0.054 C 
ATOM     52  H   LIG d   1       2.901  -4.982  -7.831  0.00  0.00     0.024 H 
ATOM     53  H   LIG d   1       4.140  -6.257  -7.760  0.00  0.00     0.024 H 
ATOM     54  H   LIG d   1       3.671  -5.389  -6.279  0.00  0.00     0.024 H 
ENDBRANCH  15  51
BRANCH  20  55
ATOM     55  C   LIG d   1       4.975  -2.077  -4.014  0.00  0.00     0.126 A 
ATOM     56  O   LIG d   1       3.647  -2.113  -3.821  0.00  0.00    -0.466 OA
ATOM     57  C   LIG d   1       3.362  -1.685  -2.581  0.00  0.00     0.092 A 
ATOM     58  C   LIG d   1       4.514  -1.358  -1.970  0.00  0.00    -0.024 A 
ATOM     59  H   LIG d   1       2.375  -1.610  -2.150  0.00  0.00     0.103 H 
ATOM     60  C   LIG d   1       5.554  -1.611  -2.894  0.00  0.00    -0.019 A 
ATOM     61  H   LIG d   1       4.625  -0.976  -0.966  0.00  0.00     0.065 H 
ATOM     62  H   LIG d   1       6.612  -1.459  -2.731  0.00  0.00     0.065 H 
ENDBRANCH  20  55
TORSDOF 8
ENDMDL
