MODEL 1
REMARK VINA RESULT:      -6.2      0.000      0.000
REMARK  8 active torsions:
REMARK  status: ('A' for Active; 'I' for Inactive)
REMARK    1  A    between atoms: C_1  and  C_2 
REMARK    2  A    between atoms: C_3  and  C_12 
REMARK    3  A    between atoms: C_14  and  C_19 
REMARK    4  A    between atoms: C_16  and  C_17 
REMARK    5  A    between atoms: C_16  and  C_18 
REMARK    6  A    between atoms: C_19  and  C_20 
REMARK    7  A    between atoms: C_20  and  N_21 
REMARK       I    between atoms: N_21  and  C_22 
REMARK    8  A    between atoms: C_22  and  C_24 
ROOT
ATOM      1  C   LIG d   1       4.944   0.171  -4.196  0.00  0.00    -0.005 A 
ATOM      2  H   LIG d   1       5.106   1.157  -4.632  0.00  0.00     0.036 H 
ATOM      3  C   LIG d   1       3.535  -0.418  -4.287  0.00  0.00    -0.026 A 
ATOM      4  H   LIG d   1       3.448  -1.496  -4.421  0.00  0.00     0.031 H 
ATOM      5  C   LIG d   1       4.069   0.087  -2.944  0.00  0.00    -0.024 A 
ENDROOT
BRANCH   1   6
ATOM      6  C   LIG d   1       6.105  -0.783  -4.299  0.00  0.00    -0.015 A 
ATOM      7  C   LIG d   1       7.398  -0.494  -4.079  0.00  0.00     0.017 A 
ATOM      8  N   LIG d   1       8.163  -1.613  -4.267  0.00  0.00    -0.358 N 
ATOM      9  C   LIG d   1       7.360  -2.678  -4.607  0.00  0.00     0.047 A 
ATOM     10  H   LIG d   1       9.129  -1.650  -4.173  0.00  0.00     0.166 HD
ATOM     11  C   LIG d   1       6.036  -2.206  -4.640  0.00  0.00     0.003 A 
ATOM     12  C   LIG d   1       7.615  -4.015  -4.901  0.00  0.00    -0.038 A 
ATOM     13  C   LIG d   1       4.993  -3.079  -4.954  0.00  0.00    -0.052 A 
ATOM     14  C   LIG d   1       5.265  -4.389  -5.233  0.00  0.00    -0.061 A 
ATOM     15  H   LIG d   1       3.974  -2.721  -4.976  0.00  0.00     0.062 H 
ATOM     16  C   LIG d   1       6.571  -4.858  -5.207  0.00  0.00    -0.060 A 
ATOM     17  H   LIG d   1       4.457  -5.064  -5.475  0.00  0.00     0.062 H 
ATOM     18  H   LIG d   1       6.770  -5.897  -5.430  0.00  0.00     0.062 H 
ATOM     19  H   LIG d   1       8.628  -4.389  -4.882  0.00  0.00     0.064 H 
BRANCH   7  20
ATOM     20  C   LIG d   1       7.928   0.863  -3.697  0.00  0.00    -0.024 C 
ATOM     21  H   LIG d   1       8.838   1.069  -4.261  0.00  0.00     0.029 H 
ATOM     22  H   LIG d   1       7.180   1.623  -3.924  0.00  0.00     0.029 H 
ATOM     23  H   LIG d   1       8.151   0.879  -2.630  0.00  0.00     0.029 H 
ENDBRANCH   7  20
ENDBRANCH   1   6
BRANCH   5  24
ATOM     24  C   LIG d   1       4.440  -0.961  -1.892  0.00  0.00    -0.059 C 
ATOM     25  H   LIG d   1       3.984  -1.916  -2.156  0.00  0.00     0.024 H 
ATOM     26  H   LIG d   1       5.523  -1.072  -1.858  0.00  0.00     0.024 H 
ATOM     27  H   LIG d   1       4.075  -0.642  -0.916  0.00  0.00     0.024 H 
ENDBRANCH   5  24
BRANCH   5  28
ATOM     28  C   LIG d   1       3.487   1.393  -2.399  0.00  0.00    -0.059 C 
ATOM     29  H   LIG d   1       2.425   1.260  -2.192  0.00  0.00     0.024 H 
ATOM     30  H   LIG d   1       4.006   1.666  -1.480  0.00  0.00     0.024 H 
ATOM     31  H   LIG d   1       3.616   2.184  -3.138  0.00  0.00     0.024 H 
ENDBRANCH   5  28
BRANCH   3  32
ATOM     32  C   LIG d   1       2.461   0.423  -4.982  0.00  0.00    -0.034 C 
ATOM     33  H   LIG d   1       1.479   0.141  -4.603  0.00  0.00     0.028 H 
ATOM     34  H   LIG d   1       2.640   1.478  -4.781  0.00  0.00     0.028 H 
BRANCH  32  35
ATOM     35  C   LIG d   1       2.516   0.173  -6.490  0.00  0.00     0.012 C 
ATOM     36  H   LIG d   1       3.079  -0.740  -6.687  0.00  0.00     0.046 H 
ATOM     37  H   LIG d   1       1.504   0.067  -6.878  0.00  0.00     0.046 H 
BRANCH  35  38
ATOM     38  N   LIG d   1       3.175   1.305  -7.148  0.00  0.00    -0.316 N 
ATOM     39  C   LIG d   1       3.074   1.460  -8.483  0.00  0.00     0.210 C 
ATOM     40  O   LIG d   1       2.439   0.664  -9.139  0.00  0.00    -0.276 OA
ATOM     41  H   LIG d   1       3.684   1.942  -6.622  0.00  0.00     0.149 HD
BRANCH  39  42
ATOM     42  C   LIG d   1       3.752   2.624  -9.159  0.00  0.00     0.012 C 
ATOM     43  H   LIG d   1       3.021   3.179  -9.746  0.00  0.00     0.032 H 
ATOM     44  H   LIG d   1       4.187   3.279  -8.405  0.00  0.00     0.032 H 
ATOM     45  H   LIG d   1       4.539   2.254  -9.817  0.00  0.00     0.032 H 
ENDBRANCH  39  42
ENDBRANCH  35  38
ENDBRANCH  32  35
ENDBRANCH   3  32
TORSDOF 8
ENDMDL
MODEL 2
REMARK VINA RESULT:      -5.9      1.891      4.123
REMARK  8 active torsions:
REMARK  status: ('A' for Active; 'I' for Inactive)
REMARK    1  A    between atoms: C_1  and  C_2 
REMARK    2  A    between atoms: C_3  and  C_12 
REMARK    3  A    between atoms: C_14  and  C_19 
REMARK    4  A    between atoms: C_16  and  C_17 
REMARK    5  A    between atoms: C_16  and  C_18 
REMARK    6  A    between atoms: C_19  and  C_20 
REMARK    7  A    between atoms: C_20  and  N_21 
REMARK       I    between atoms: N_21  and  C_22 
REMARK    8  A    between atoms: C_22  and  C_24 
ROOT
ATOM      1  C   LIG d   1       4.980  -2.246  -6.307  0.00  0.00    -0.005 A 
ATOM      2  H   LIG d   1       4.613  -3.268  -6.413  0.00  0.00     0.036 H 
ATOM      3  C   LIG d   1       4.431  -1.194  -7.272  0.00  0.00    -0.026 A 
ATOM      4  H   LIG d   1       4.287  -0.185  -6.888  0.00  0.00     0.031 H 
ATOM      5  C   LIG d   1       5.870  -1.696  -7.423  0.00  0.00    -0.024 A 
ENDROOT
BRANCH   1   6
ATOM      6  C   LIG d   1       5.280  -1.808  -4.897  0.00  0.00    -0.015 A 
ATOM      7  C   LIG d   1       6.228  -2.310  -4.090  0.00  0.00     0.017 A 
ATOM      8  N   LIG d   1       6.205  -1.661  -2.885  0.00  0.00    -0.358 N 
ATOM      9  C   LIG d   1       5.226  -0.694  -2.893  0.00  0.00     0.047 A 
ATOM     10  H   LIG d   1       6.792  -1.855  -2.137  0.00  0.00     0.166 HD
ATOM     11  C   LIG d   1       4.605  -0.742  -4.154  0.00  0.00     0.003 A 
ATOM     12  C   LIG d   1       4.786   0.232  -1.951  0.00  0.00    -0.038 A 
ATOM     13  C   LIG d   1       3.567   0.143  -4.453  0.00  0.00    -0.052 A 
ATOM     14  C   LIG d   1       3.155   1.048  -3.515  0.00  0.00    -0.061 A 
ATOM     15  H   LIG d   1       3.091   0.112  -5.422  0.00  0.00     0.062 H 
ATOM     16  C   LIG d   1       3.761   1.094  -2.267  0.00  0.00    -0.060 A 
ATOM     17  H   LIG d   1       2.352   1.732  -3.748  0.00  0.00     0.062 H 
ATOM     18  H   LIG d   1       3.424   1.816  -1.537  0.00  0.00     0.062 H 
ATOM     19  H   LIG d   1       5.252   0.277  -0.978  0.00  0.00     0.064 H 
BRANCH   7  20
ATOM     20  C   LIG d   1       7.169  -3.430  -4.451  0.00  0.00    -0.024 C 
ATOM     21  H   LIG d   1       6.748  -4.006  -5.276  0.00  0.00     0.029 H 
ATOM     22  H   LIG d   1       8.131  -3.014  -4.752  0.00  0.00     0.029 H 
ATOM     23  H   LIG d   1       7.308  -4.081  -3.588  0.00  0.00     0.029 H 
ENDBRANCH   7  20
ENDBRANCH   1   6
BRANCH   5  24
ATOM     24  C   LIG d   1       6.996  -0.741  -7.022  0.00  0.00    -0.059 C 
ATOM     25  H   LIG d   1       6.576   0.238  -6.790  0.00  0.00     0.024 H 
ATOM     26  H   LIG d   1       7.508  -1.133  -6.144  0.00  0.00     0.024 H 
ATOM     27  H   LIG d   1       7.704  -0.646  -7.845  0.00  0.00     0.024 H 
ENDBRANCH   5  24
BRANCH   5  28
ATOM     28  C   LIG d   1       6.176  -2.619  -8.604  0.00  0.00    -0.059 C 
ATOM     29  H   LIG d   1       5.972  -3.652  -8.320  0.00  0.00     0.024 H 
ATOM     30  H   LIG d   1       5.550  -2.344  -9.452  0.00  0.00     0.024 H 
ATOM     31  H   LIG d   1       7.225  -2.519  -8.880  0.00  0.00     0.024 H 
ENDBRANCH   5  28
BRANCH   3  32
ATOM     32  C   LIG d   1       3.409  -1.656  -8.314  0.00  0.00    -0.034 C 
ATOM     33  H   LIG d   1       3.925  -1.919  -9.237  0.00  0.00     0.028 H 
ATOM     34  H   LIG d   1       2.872  -2.525  -7.936  0.00  0.00     0.028 H 
BRANCH  32  35
ATOM     35  C   LIG d   1       2.417  -0.524  -8.590  0.00  0.00     0.012 C 
ATOM     36  H   LIG d   1       1.606  -0.897  -9.216  0.00  0.00     0.046 H 
ATOM     37  H   LIG d   1       2.010  -0.159  -7.647  0.00  0.00     0.046 H 
BRANCH  35  38
ATOM     38  N   LIG d   1       3.104   0.569  -9.282  0.00  0.00    -0.316 N 
ATOM     39  C   LIG d   1       3.269   1.757  -8.668  0.00  0.00     0.210 C 
ATOM     40  O   LIG d   1       2.849   1.921  -7.542  0.00  0.00    -0.276 OA
ATOM     41  H   LIG d   1       3.440   0.437 -10.182  0.00  0.00     0.149 HD
BRANCH  39  42
ATOM     42  C   LIG d   1       3.977   2.881  -9.379  0.00  0.00     0.012 C 
ATOM     43  H   LIG d   1       3.438   3.130 -10.293  0.00  0.00     0.032 H 
ATOM     44  H   LIG d   1       4.014   3.756  -8.730  0.00  0.00     0.032 H 
ATOM     45  H   LIG d   1       4.992   2.571  -9.630  0.00  0.00     0.032 H 
ENDBRANCH  39  42
ENDBRANCH  35  38
ENDBRANCH  32  35
ENDBRANCH   3  32
TORSDOF 8
ENDMDL
MODEL 3
REMARK VINA RESULT:      -5.8      2.336      4.862
REMARK  8 active torsions:
REMARK  status: ('A' for Active; 'I' for Inactive)
REMARK    1  A    between atoms: C_1  and  C_2 
REMARK    2  A    between atoms: C_3  and  C_12 
REMARK    3  A    between atoms: C_14  and  C_19 
REMARK    4  A    between atoms: C_16  and  C_17 
REMARK    5  A    between atoms: C_16  and  C_18 
REMARK    6  A    between atoms: C_19  and  C_20 
REMARK    7  A    between atoms: C_20  and  N_21 
REMARK       I    between atoms: N_21  and  C_22 
REMARK    8  A    between atoms: C_22  and  C_24 
ROOT
ATOM      1  C   LIG d   1       6.732  -2.017  -5.982  0.00  0.00    -0.005 A 
ATOM      2  H   LIG d   1       6.311  -2.185  -6.974  0.00  0.00     0.036 H 
ATOM      3  C   LIG d   1       7.885  -1.019  -5.864  0.00  0.00    -0.026 A 
ATOM      4  H   LIG d   1       7.935  -0.411  -4.962  0.00  0.00     0.031 H 
ATOM      5  C   LIG d   1       8.154  -2.520  -5.723  0.00  0.00    -0.024 A 
ENDROOT
BRANCH   1   6
ATOM      6  C   LIG d   1       5.750  -2.084  -4.841  0.00  0.00    -0.015 A 
ATOM      7  C   LIG d   1       4.979  -3.132  -4.512  0.00  0.00     0.017 A 
ATOM      8  N   LIG d   1       4.217  -2.825  -3.417  0.00  0.00    -0.358 N 
ATOM      9  C   LIG d   1       4.497  -1.543  -2.998  0.00  0.00     0.047 A 
ATOM     10  H   LIG d   1       3.576  -3.422  -3.000  0.00  0.00     0.166 HD
ATOM     11  C   LIG d   1       5.470  -1.024  -3.869  0.00  0.00     0.003 A 
ATOM     12  C   LIG d   1       4.019  -0.750  -1.959  0.00  0.00    -0.038 A 
ATOM     13  C   LIG d   1       5.956   0.271  -3.679  0.00  0.00    -0.052 A 
ATOM     14  C   LIG d   1       5.478   1.030  -2.648  0.00  0.00    -0.061 A 
ATOM     15  H   LIG d   1       6.707   0.672  -4.344  0.00  0.00     0.062 H 
ATOM     16  C   LIG d   1       4.512   0.524  -1.789  0.00  0.00    -0.060 A 
ATOM     17  H   LIG d   1       5.854   2.032  -2.501  0.00  0.00     0.062 H 
ATOM     18  H   LIG d   1       4.144   1.137  -0.978  0.00  0.00     0.062 H 
ATOM     19  H   LIG d   1       3.269  -1.136  -1.284  0.00  0.00     0.064 H 
BRANCH   7  20
ATOM     20  C   LIG d   1       4.947  -4.447  -5.246  0.00  0.00    -0.024 C 
ATOM     21  H   LIG d   1       5.372  -4.318  -6.241  0.00  0.00     0.029 H 
ATOM     22  H   LIG d   1       5.530  -5.186  -4.695  0.00  0.00     0.029 H 
ATOM     23  H   LIG d   1       3.916  -4.790  -5.334  0.00  0.00     0.029 H 
ENDBRANCH   7  20
ENDBRANCH   1   6
BRANCH   5  24
ATOM     24  C   LIG d   1       8.470  -3.051  -4.323  0.00  0.00    -0.059 C 
ATOM     25  H   LIG d   1       8.458  -4.141  -4.338  0.00  0.00     0.024 H 
ATOM     26  H   LIG d   1       9.456  -2.703  -4.018  0.00  0.00     0.024 H 
ATOM     27  H   LIG d   1       7.721  -2.689  -3.619  0.00  0.00     0.024 H 
ENDBRANCH   5  24
BRANCH   5  28
ATOM     28  C   LIG d   1       8.877  -3.220  -6.874  0.00  0.00    -0.059 C 
ATOM     29  H   LIG d   1       8.346  -3.028  -7.808  0.00  0.00     0.024 H 
ATOM     30  H   LIG d   1       9.895  -2.839  -6.950  0.00  0.00     0.024 H 
ATOM     31  H   LIG d   1       8.904  -4.293  -6.687  0.00  0.00     0.024 H 
ENDBRANCH   5  28
BRANCH   3  32
ATOM     32  C   LIG d   1       8.361  -0.334  -7.148  0.00  0.00    -0.034 C 
ATOM     33  H   LIG d   1       9.446  -0.411  -7.219  0.00  0.00     0.028 H 
ATOM     34  H   LIG d   1       7.905  -0.820  -8.010  0.00  0.00     0.028 H 
BRANCH  32  35
ATOM     35  C   LIG d   1       7.955   1.141  -7.119  0.00  0.00     0.012 C 
ATOM     36  H   LIG d   1       8.016   1.514  -6.096  0.00  0.00     0.046 H 
ATOM     37  H   LIG d   1       8.627   1.715  -7.756  0.00  0.00     0.046 H 
BRANCH  35  38
ATOM     38  N   LIG d   1       6.581   1.278  -7.608  0.00  0.00    -0.316 N 
ATOM     39  C   LIG d   1       6.340   1.915  -8.770  0.00  0.00     0.210 C 
ATOM     40  O   LIG d   1       7.260   2.374  -9.412  0.00  0.00    -0.276 OA
ATOM     41  H   LIG d   1       5.845   0.910  -7.094  0.00  0.00     0.149 HD
BRANCH  39  42
ATOM     42  C   LIG d   1       4.926   2.055  -9.274  0.00  0.00     0.012 C 
ATOM     43  H   LIG d   1       4.410   1.100  -9.181  0.00  0.00     0.032 H 
ATOM     44  H   LIG d   1       4.404   2.809  -8.684  0.00  0.00     0.032 H 
ATOM     45  H   LIG d   1       4.941   2.359 -10.321  0.00  0.00     0.032 H 
ENDBRANCH  39  42
ENDBRANCH  35  38
ENDBRANCH  32  35
ENDBRANCH   3  32
TORSDOF 8
ENDMDL
MODEL 4
REMARK VINA RESULT:      -5.8      2.183      5.617
REMARK  8 active torsions:
REMARK  status: ('A' for Active; 'I' for Inactive)
REMARK    1  A    between atoms: C_1  and  C_2 
REMARK    2  A    between atoms: C_3  and  C_12 
REMARK    3  A    between atoms: C_14  and  C_19 
REMARK    4  A    between atoms: C_16  and  C_17 
REMARK    5  A    between atoms: C_16  and  C_18 
REMARK    6  A    between atoms: C_19  and  C_20 
REMARK    7  A    between atoms: C_20  and  N_21 
REMARK       I    between atoms: N_21  and  C_22 
REMARK    8  A    between atoms: C_22  and  C_24 
ROOT
ATOM      1  C   LIG d   1       6.302  -1.921  -5.804  0.00  0.00    -0.005 A 
ATOM      2  H   LIG d   1       6.834  -1.682  -6.725  0.00  0.00     0.036 H 
ATOM      3  C   LIG d   1       7.129  -2.424  -4.619  0.00  0.00    -0.026 A 
ATOM      4  H   LIG d   1       6.811  -2.127  -3.620  0.00  0.00     0.031 H 
ATOM      5  C   LIG d   1       6.228  -3.392  -5.390  0.00  0.00    -0.024 A 
ENDROOT
BRANCH   1   6
ATOM      6  C   LIG d   1       5.109  -1.052  -5.500  0.00  0.00    -0.015 A 
ATOM      7  C   LIG d   1       4.077  -0.797  -6.320  0.00  0.00     0.017 A 
ATOM      8  N   LIG d   1       3.183   0.033  -5.700  0.00  0.00    -0.358 N 
ATOM      9  C   LIG d   1       3.622   0.328  -4.429  0.00  0.00     0.047 A 
ATOM     10  H   LIG d   1       2.361   0.363  -6.098  0.00  0.00     0.166 HD
ATOM     11  C   LIG d   1       4.846  -0.339  -4.247  0.00  0.00     0.003 A 
ATOM     12  C   LIG d   1       3.109   1.106  -3.395  0.00  0.00    -0.038 A 
ATOM     13  C   LIG d   1       5.527  -0.227  -3.034  0.00  0.00    -0.052 A 
ATOM     14  C   LIG d   1       5.003   0.538  -2.030  0.00  0.00    -0.061 A 
ATOM     15  H   LIG d   1       6.466  -0.742  -2.889  0.00  0.00     0.062 H 
ATOM     16  C   LIG d   1       3.798   1.203  -2.207  0.00  0.00    -0.060 A 
ATOM     17  H   LIG d   1       5.530   0.624  -1.091  0.00  0.00     0.062 H 
ATOM     18  H   LIG d   1       3.396   1.804  -1.403  0.00  0.00     0.062 H 
ATOM     19  H   LIG d   1       2.172   1.627  -3.523  0.00  0.00     0.064 H 
BRANCH   7  20
ATOM     20  C   LIG d   1       3.932  -1.333  -7.721  0.00  0.00    -0.024 C 
ATOM     21  H   LIG d   1       2.957  -1.808  -7.829  0.00  0.00     0.029 H 
ATOM     22  H   LIG d   1       4.019  -0.513  -8.435  0.00  0.00     0.029 H 
ATOM     23  H   LIG d   1       4.716  -2.066  -7.912  0.00  0.00     0.029 H 
ENDBRANCH   7  20
ENDBRANCH   1   6
BRANCH   5  24
ATOM     24  C   LIG d   1       4.948  -3.868  -4.699  0.00  0.00    -0.059 C 
ATOM     25  H   LIG d   1       5.137  -4.820  -4.203  0.00  0.00     0.024 H 
ATOM     26  H   LIG d   1       4.638  -3.128  -3.962  0.00  0.00     0.024 H 
ATOM     27  H   LIG d   1       4.160  -3.996  -5.441  0.00  0.00     0.024 H 
ENDBRANCH   5  24
BRANCH   5  28
ATOM     28  C   LIG d   1       6.907  -4.417  -6.300  0.00  0.00    -0.059 C 
ATOM     29  H   LIG d   1       7.616  -5.007  -5.718  0.00  0.00     0.024 H 
ATOM     30  H   LIG d   1       6.154  -5.075  -6.733  0.00  0.00     0.024 H 
ATOM     31  H   LIG d   1       7.438  -3.898  -7.099  0.00  0.00     0.024 H 
ENDBRANCH   5  28
BRANCH   3  32
ATOM     32  C   LIG d   1       8.641  -2.555  -4.818  0.00  0.00    -0.034 C 
ATOM     33  H   LIG d   1       9.119  -2.730  -3.855  0.00  0.00     0.028 H 
ATOM     34  H   LIG d   1       8.848  -3.392  -5.485  0.00  0.00     0.028 H 
BRANCH  32  35
ATOM     35  C   LIG d   1       9.188  -1.265  -5.432  0.00  0.00     0.012 C 
ATOM     36  H   LIG d   1      10.235  -1.407  -5.703  0.00  0.00     0.046 H 
ATOM     37  H   LIG d   1       8.613  -1.015  -6.323  0.00  0.00     0.046 H 
BRANCH  35  38
ATOM     38  N   LIG d   1       9.079  -0.177  -4.458  0.00  0.00    -0.316 N 
ATOM     39  C   LIG d   1       8.489   0.983  -4.807  0.00  0.00     0.210 C 
ATOM     40  O   LIG d   1       8.049   1.127  -5.927  0.00  0.00    -0.276 OA
ATOM     41  H   LIG d   1       9.431  -0.292  -3.562  0.00  0.00     0.149 HD
BRANCH  39  42
ATOM     42  C   LIG d   1       8.376   2.103  -3.805  0.00  0.00     0.012 C 
ATOM     43  H   LIG d   1       7.357   2.489  -3.804  0.00  0.00     0.032 H 
ATOM     44  H   LIG d   1       8.624   1.728  -2.812  0.00  0.00     0.032 H 
ATOM     45  H   LIG d   1       9.066   2.903  -4.074  0.00  0.00     0.032 H 
ENDBRANCH  39  42
ENDBRANCH  35  38
ENDBRANCH  32  35
ENDBRANCH   3  32
TORSDOF 8
ENDMDL
MODEL 5
REMARK VINA RESULT:      -5.7      2.703      5.807
REMARK  8 active torsions:
REMARK  status: ('A' for Active; 'I' for Inactive)
REMARK    1  A    between atoms: C_1  and  C_2 
REMARK    2  A    between atoms: C_3  and  C_12 
REMARK    3  A    between atoms: C_14  and  C_19 
REMARK    4  A    between atoms: C_16  and  C_17 
REMARK    5  A    between atoms: C_16  and  C_18 
REMARK    6  A    between atoms: C_19  and  C_20 
REMARK    7  A    between atoms: C_20  and  N_21 
REMARK       I    between atoms: N_21  and  C_22 
REMARK    8  A    between atoms: C_22  and  C_24 
ROOT
ATOM      1  C   LIG d   1       6.151  -3.034  -4.510  0.00  0.00    -0.005 A 
ATOM      2  H   LIG d   1       5.818  -3.827  -3.841  0.00  0.00     0.036 H 
ATOM      3  C   LIG d   1       7.028  -3.434  -5.698  0.00  0.00    -0.026 A 
ATOM      4  H   LIG d   1       6.899  -2.881  -6.628  0.00  0.00     0.031 H 
ATOM      5  C   LIG d   1       7.643  -2.690  -4.510  0.00  0.00    -0.024 A 
ENDROOT
BRANCH   1   6
ATOM      6  C   LIG d   1       5.176  -1.904  -4.715  0.00  0.00    -0.015 A 
ATOM      7  C   LIG d   1       4.517  -1.614  -5.848  0.00  0.00     0.017 A 
ATOM      8  N   LIG d   1       3.718  -0.519  -5.655  0.00  0.00    -0.358 N 
ATOM      9  C   LIG d   1       3.838  -0.076  -4.357  0.00  0.00     0.047 A 
ATOM     10  H   LIG d   1       3.152  -0.117  -6.332  0.00  0.00     0.166 HD
ATOM     11  C   LIG d   1       4.754  -0.924  -3.711  0.00  0.00     0.003 A 
ATOM     12  C   LIG d   1       3.263   0.974  -3.647  0.00  0.00    -0.038 A 
ATOM     13  C   LIG d   1       5.069  -0.715  -2.367  0.00  0.00    -0.052 A 
ATOM     14  C   LIG d   1       4.488   0.318  -1.687  0.00  0.00    -0.061 A 
ATOM     15  H   LIG d   1       5.770  -1.368  -1.866  0.00  0.00     0.062 H 
ATOM     16  C   LIG d   1       3.587   1.162  -2.322  0.00  0.00    -0.060 A 
ATOM     17  H   LIG d   1       4.732   0.479  -0.647  0.00  0.00     0.062 H 
ATOM     18  H   LIG d   1       3.136   1.974  -1.770  0.00  0.00     0.062 H 
ATOM     19  H   LIG d   1       2.560   1.635  -4.132  0.00  0.00     0.064 H 
BRANCH   7  20
ATOM     20  C   LIG d   1       4.647  -2.372  -7.143  0.00  0.00    -0.024 C 
ATOM     21  H   LIG d   1       5.667  -2.742  -7.247  0.00  0.00     0.029 H 
ATOM     22  H   LIG d   1       3.953  -3.214  -7.143  0.00  0.00     0.029 H 
ATOM     23  H   LIG d   1       4.415  -1.710  -7.977  0.00  0.00     0.029 H 
ENDBRANCH   7  20
ENDBRANCH   1   6
BRANCH   5  24
ATOM     24  C   LIG d   1       8.028  -1.224  -4.719  0.00  0.00    -0.059 C 
ATOM     25  H   LIG d   1       7.555  -0.851  -5.628  0.00  0.00     0.024 H 
ATOM     26  H   LIG d   1       7.692  -0.635  -3.866  0.00  0.00     0.024 H 
ATOM     27  H   LIG d   1       9.111  -1.143  -4.814  0.00  0.00     0.024 H 
ENDBRANCH   5  24
BRANCH   5  28
ATOM     28  C   LIG d   1       8.551  -3.485  -3.572  0.00  0.00    -0.059 C 
ATOM     29  H   LIG d   1       8.661  -4.503  -3.947  0.00  0.00     0.024 H 
ATOM     30  H   LIG d   1       9.530  -3.008  -3.523  0.00  0.00     0.024 H 
ATOM     31  H   LIG d   1       8.110  -3.512  -2.576  0.00  0.00     0.024 H 
ENDBRANCH   5  28
BRANCH   3  32
ATOM     32  C   LIG d   1       7.370  -4.918  -5.856  0.00  0.00    -0.034 C 
ATOM     33  H   LIG d   1       7.809  -5.087  -6.838  0.00  0.00     0.028 H 
ATOM     34  H   LIG d   1       8.081  -5.211  -5.084  0.00  0.00     0.028 H 
BRANCH  32  35
ATOM     35  C   LIG d   1       6.095  -5.752  -5.718  0.00  0.00     0.012 C 
ATOM     36  H   LIG d   1       6.341  -6.722  -5.284  0.00  0.00     0.046 H 
ATOM     37  H   LIG d   1       5.389  -5.233  -5.070  0.00  0.00     0.046 H 
BRANCH  35  38
ATOM     38  N   LIG d   1       5.494  -5.947  -7.040  0.00  0.00    -0.316 N 
ATOM     39  C   LIG d   1       4.164  -5.800  -7.203  0.00  0.00     0.210 C 
ATOM     40  O   LIG d   1       3.466  -5.507  -6.257  0.00  0.00    -0.276 OA
ATOM     41  H   LIG d   1       6.053  -6.182  -7.796  0.00  0.00     0.149 HD
BRANCH  39  42
ATOM     42  C   LIG d   1       3.546  -6.000  -8.563  0.00  0.00     0.012 C 
ATOM     43  H   LIG d   1       3.115  -5.060  -8.908  0.00  0.00     0.032 H 
ATOM     44  H   LIG d   1       4.311  -6.329  -9.265  0.00  0.00     0.032 H 
ATOM     45  H   LIG d   1       2.762  -6.755  -8.499  0.00  0.00     0.032 H 
ENDBRANCH  39  42
ENDBRANCH  35  38
ENDBRANCH  32  35
ENDBRANCH   3  32
TORSDOF 8
ENDMDL
MODEL 6
REMARK VINA RESULT:      -5.6      2.980      5.335
REMARK  8 active torsions:
REMARK  status: ('A' for Active; 'I' for Inactive)
REMARK    1  A    between atoms: C_1  and  C_2 
REMARK    2  A    between atoms: C_3  and  C_12 
REMARK    3  A    between atoms: C_14  and  C_19 
REMARK    4  A    between atoms: C_16  and  C_17 
REMARK    5  A    between atoms: C_16  and  C_18 
REMARK    6  A    between atoms: C_19  and  C_20 
REMARK    7  A    between atoms: C_20  and  N_21 
REMARK       I    between atoms: N_21  and  C_22 
REMARK    8  A    between atoms: C_22  and  C_24 
ROOT
ATOM      1  C   LIG d   1       7.829  -1.942  -4.982  0.00  0.00    -0.005 A 
ATOM      2  H   LIG d   1       8.817  -2.258  -4.644  0.00  0.00     0.036 H 
ATOM      3  C   LIG d   1       6.823  -3.036  -5.344  0.00  0.00    -0.026 A 
ATOM      4  H   LIG d   1       5.773  -2.850  -5.117  0.00  0.00     0.031 H 
ATOM      5  C   LIG d   1       7.470  -2.197  -6.448  0.00  0.00    -0.024 A 
ENDROOT
BRANCH   1   6
ATOM      6  C   LIG d   1       7.294  -0.688  -4.341  0.00  0.00    -0.015 A 
ATOM      7  C   LIG d   1       7.773   0.556  -4.499  0.00  0.00     0.017 A 
ATOM      8  N   LIG d   1       7.029   1.438  -3.763  0.00  0.00    -0.358 N 
ATOM      9  C   LIG d   1       6.022   0.767  -3.107  0.00  0.00     0.047 A 
ATOM     10  H   LIG d   1       7.190   2.394  -3.711  0.00  0.00     0.166 HD
ATOM     11  C   LIG d   1       6.142  -0.593  -3.442  0.00  0.00     0.003 A 
ATOM     12  C   LIG d   1       5.004   1.170  -2.247  0.00  0.00    -0.038 A 
ATOM     13  C   LIG d   1       5.237  -1.521  -2.922  0.00  0.00    -0.052 A 
ATOM     14  C   LIG d   1       4.242  -1.102  -2.084  0.00  0.00    -0.061 A 
ATOM     15  H   LIG d   1       5.324  -2.566  -3.181  0.00  0.00     0.062 H 
ATOM     16  C   LIG d   1       4.124   0.238  -1.746  0.00  0.00    -0.060 A 
ATOM     17  H   LIG d   1       3.543  -1.821  -1.682  0.00  0.00     0.062 H 
ATOM     18  H   LIG d   1       3.331   0.554  -1.082  0.00  0.00     0.062 H 
ATOM     19  H   LIG d   1       4.903   2.211  -1.979  0.00  0.00     0.064 H 
BRANCH   7  20
ATOM     20  C   LIG d   1       8.960   0.925  -5.350  0.00  0.00    -0.024 C 
ATOM     21  H   LIG d   1       9.237   1.961  -5.157  0.00  0.00     0.029 H 
ATOM     22  H   LIG d   1       9.799   0.273  -5.105  0.00  0.00     0.029 H 
ATOM     23  H   LIG d   1       8.704   0.807  -6.403  0.00  0.00     0.029 H 
ENDBRANCH   7  20
ENDBRANCH   1   6
BRANCH   5  24
ATOM     24  C   LIG d   1       6.593  -1.158  -7.150  0.00  0.00    -0.059 C 
ATOM     25  H   LIG d   1       5.977  -0.645  -6.411  0.00  0.00     0.024 H 
ATOM     26  H   LIG d   1       7.227  -0.433  -7.660  0.00  0.00     0.024 H 
ATOM     27  H   LIG d   1       5.950  -1.655  -7.876  0.00  0.00     0.024 H 
ENDBRANCH   5  24
BRANCH   5  28
ATOM     28  C   LIG d   1       8.522  -2.875  -7.326  0.00  0.00    -0.059 C 
ATOM     29  H   LIG d   1       9.176  -2.118  -7.761  0.00  0.00     0.024 H 
ATOM     30  H   LIG d   1       9.112  -3.563  -6.722  0.00  0.00     0.024 H 
ATOM     31  H   LIG d   1       8.027  -3.427  -8.125  0.00  0.00     0.024 H 
ENDBRANCH   5  28
BRANCH   3  32
ATOM     32  C   LIG d   1       7.279  -4.491  -5.203  0.00  0.00    -0.034 C 
ATOM     33  H   LIG d   1       8.091  -4.686  -5.903  0.00  0.00     0.028 H 
ATOM     34  H   LIG d   1       7.627  -4.666  -4.185  0.00  0.00     0.028 H 
BRANCH  32  35
ATOM     35  C   LIG d   1       6.106  -5.425  -5.508  0.00  0.00     0.012 C 
ATOM     36  H   LIG d   1       6.463  -6.455  -5.547  0.00  0.00     0.046 H 
ATOM     37  H   LIG d   1       5.353  -5.329  -4.728  0.00  0.00     0.046 H 
BRANCH  35  38
ATOM     38  N   LIG d   1       5.519  -5.063  -6.801  0.00  0.00    -0.316 N 
ATOM     39  C   LIG d   1       4.181  -5.054  -6.954  0.00  0.00     0.210 C 
ATOM     40  O   LIG d   1       3.462  -5.346  -6.023  0.00  0.00    -0.276 OA
ATOM     41  H   LIG d   1       6.094  -4.830  -7.546  0.00  0.00     0.149 HD
BRANCH  39  42
ATOM     42  C   LIG d   1       3.576  -4.682  -8.284  0.00  0.00     0.012 C 
ATOM     43  H   LIG d   1       2.832  -5.425  -8.566  0.00  0.00     0.032 H 
ATOM     44  H   LIG d   1       3.103  -3.704  -8.206  0.00  0.00     0.032 H 
ATOM     45  H   LIG d   1       4.359  -4.647  -9.042  0.00  0.00     0.032 H 
ENDBRANCH  39  42
ENDBRANCH  35  38
ENDBRANCH  32  35
ENDBRANCH   3  32
TORSDOF 8
ENDMDL
MODEL 7
REMARK VINA RESULT:      -5.6      2.538      5.351
REMARK  8 active torsions:
REMARK  status: ('A' for Active; 'I' for Inactive)
REMARK    1  A    between atoms: C_1  and  C_2 
REMARK    2  A    between atoms: C_3  and  C_12 
REMARK    3  A    between atoms: C_14  and  C_19 
REMARK    4  A    between atoms: C_16  and  C_17 
REMARK    5  A    between atoms: C_16  and  C_18 
REMARK    6  A    between atoms: C_19  and  C_20 
REMARK    7  A    between atoms: C_20  and  N_21 
REMARK       I    between atoms: N_21  and  C_22 
REMARK    8  A    between atoms: C_22  and  C_24 
ROOT
ATOM      1  C   LIG d   1       5.890  -2.879  -4.223  0.00  0.00    -0.005 A 
ATOM      2  H   LIG d   1       5.606  -3.727  -3.599  0.00  0.00     0.036 H 
ATOM      3  C   LIG d   1       6.801  -3.155  -5.420  0.00  0.00    -0.026 A 
ATOM      4  H   LIG d   1       6.641  -2.564  -6.321  0.00  0.00     0.031 H 
ATOM      5  C   LIG d   1       7.353  -2.434  -4.188  0.00  0.00    -0.024 A 
ENDROOT
BRANCH   1   6
ATOM      6  C   LIG d   1       4.840  -1.809  -4.379  0.00  0.00    -0.015 A 
ATOM      7  C   LIG d   1       4.215  -1.153  -3.389  0.00  0.00     0.017 A 
ATOM      8  N   LIG d   1       3.328  -0.252  -3.914  0.00  0.00    -0.358 N 
ATOM      9  C   LIG d   1       3.371  -0.300  -5.289  0.00  0.00     0.047 A 
ATOM     10  H   LIG d   1       2.755   0.332  -3.393  0.00  0.00     0.166 HD
ATOM     11  C   LIG d   1       4.321  -1.275  -5.641  0.00  0.00     0.003 A 
ATOM     12  C   LIG d   1       2.694   0.385  -6.293  0.00  0.00    -0.038 A 
ATOM     13  C   LIG d   1       4.585  -1.537  -6.987  0.00  0.00    -0.052 A 
ATOM     14  C   LIG d   1       3.912  -0.848  -7.956  0.00  0.00    -0.061 A 
ATOM     15  H   LIG d   1       5.317  -2.283  -7.261  0.00  0.00     0.062 H 
ATOM     16  C   LIG d   1       2.969   0.111  -7.613  0.00  0.00    -0.060 A 
ATOM     17  H   LIG d   1       4.117  -1.051  -8.997  0.00  0.00     0.062 H 
ATOM     18  H   LIG d   1       2.446   0.648  -8.392  0.00  0.00     0.062 H 
ATOM     19  H   LIG d   1       1.959   1.134  -6.036  0.00  0.00     0.064 H 
BRANCH   7  20
ATOM     20  C   LIG d   1       4.447  -1.382  -1.918  0.00  0.00    -0.024 C 
ATOM     21  H   LIG d   1       5.499  -1.608  -1.746  0.00  0.00     0.029 H 
ATOM     22  H   LIG d   1       4.172  -0.485  -1.362  0.00  0.00     0.029 H 
ATOM     23  H   LIG d   1       3.836  -2.220  -1.580  0.00  0.00     0.029 H 
ENDBRANCH   7  20
ENDBRANCH   1   6
BRANCH   5  24
ATOM     24  C   LIG d   1       7.639  -0.936  -4.316  0.00  0.00    -0.059 C 
ATOM     25  H   LIG d   1       8.145  -0.743  -5.263  0.00  0.00     0.024 H 
ATOM     26  H   LIG d   1       6.700  -0.384  -4.287  0.00  0.00     0.024 H 
ATOM     27  H   LIG d   1       8.276  -0.615  -3.492  0.00  0.00     0.024 H 
ENDBRANCH   5  24
BRANCH   5  28
ATOM     28  C   LIG d   1       8.308  -3.213  -3.282  0.00  0.00    -0.059 C 
ATOM     29  H   LIG d   1       7.748  -3.651  -2.455  0.00  0.00     0.024 H 
ATOM     30  H   LIG d   1       8.788  -4.005  -3.856  0.00  0.00     0.024 H 
ATOM     31  H   LIG d   1       9.067  -2.538  -2.888  0.00  0.00     0.024 H 
ENDBRANCH   5  28
BRANCH   3  32
ATOM     32  C   LIG d   1       7.245  -4.602  -5.651  0.00  0.00    -0.034 C 
ATOM     33  H   LIG d   1       7.849  -4.655  -6.556  0.00  0.00     0.028 H 
ATOM     34  H   LIG d   1       7.835  -4.941  -4.799  0.00  0.00     0.028 H 
BRANCH  32  35
ATOM     35  C   LIG d   1       6.013  -5.495  -5.806  0.00  0.00     0.012 C 
ATOM     36  H   LIG d   1       6.317  -6.542  -5.774  0.00  0.00     0.046 H 
ATOM     37  H   LIG d   1       5.314  -5.294  -4.996  0.00  0.00     0.046 H 
BRANCH  35  38
ATOM     38  N   LIG d   1       5.366  -5.214  -7.091  0.00  0.00    -0.316 N 
ATOM     39  C   LIG d   1       4.024  -5.126  -7.164  0.00  0.00     0.210 C 
ATOM     40  O   LIG d   1       3.351  -5.279  -6.167  0.00  0.00    -0.276 OA
ATOM     41  H   LIG d   1       5.905  -5.091  -7.888  0.00  0.00     0.149 HD
BRANCH  39  42
ATOM     42  C   LIG d   1       3.358  -4.836  -8.484  0.00  0.00     0.012 C 
ATOM     43  H   LIG d   1       3.832  -3.972  -8.949  0.00  0.00     0.032 H 
ATOM     44  H   LIG d   1       3.458  -5.701  -9.139  0.00  0.00     0.032 H 
ATOM     45  H   LIG d   1       2.301  -4.625  -8.320  0.00  0.00     0.032 H 
ENDBRANCH  39  42
ENDBRANCH  35  38
ENDBRANCH  32  35
ENDBRANCH   3  32
TORSDOF 8
ENDMDL
MODEL 8
REMARK VINA RESULT:      -5.5      3.432      5.972
REMARK  8 active torsions:
REMARK  status: ('A' for Active; 'I' for Inactive)
REMARK    1  A    between atoms: C_1  and  C_2 
REMARK    2  A    between atoms: C_3  and  C_12 
REMARK    3  A    between atoms: C_14  and  C_19 
REMARK    4  A    between atoms: C_16  and  C_17 
REMARK    5  A    between atoms: C_16  and  C_18 
REMARK    6  A    between atoms: C_19  and  C_20 
REMARK    7  A    between atoms: C_20  and  N_21 
REMARK       I    between atoms: N_21  and  C_22 
REMARK    8  A    between atoms: C_22  and  C_24 
ROOT
ATOM      1  C   LIG d   1       7.212  -2.328  -5.526  0.00  0.00    -0.005 A 
ATOM      2  H   LIG d   1       6.984  -2.465  -6.584  0.00  0.00     0.036 H 
ATOM      3  C   LIG d   1       8.426  -1.468  -5.170  0.00  0.00    -0.026 A 
ATOM      4  H   LIG d   1       8.362  -0.853  -4.273  0.00  0.00     0.031 H 
ATOM      5  C   LIG d   1       8.483  -2.987  -4.985  0.00  0.00    -0.024 A 
ENDROOT
BRANCH   1   6
ATOM      6  C   LIG d   1       6.018  -2.260  -4.609  0.00  0.00    -0.015 A 
ATOM      7  C   LIG d   1       5.097  -3.220  -4.425  0.00  0.00     0.017 A 
ATOM      8  N   LIG d   1       4.164  -2.801  -3.516  0.00  0.00    -0.358 N 
ATOM      9  C   LIG d   1       4.476  -1.536  -3.072  0.00  0.00     0.047 A 
ATOM     10  H   LIG d   1       3.396  -3.320  -3.227  0.00  0.00     0.166 HD
ATOM     11  C   LIG d   1       5.652  -1.143  -3.736  0.00  0.00     0.003 A 
ATOM     12  C   LIG d   1       3.879  -0.663  -2.168  0.00  0.00    -0.038 A 
ATOM     13  C   LIG d   1       6.214   0.108  -3.474  0.00  0.00    -0.052 A 
ATOM     14  C   LIG d   1       5.614   0.948  -2.578  0.00  0.00    -0.061 A 
ATOM     15  H   LIG d   1       7.120   0.412  -3.978  0.00  0.00     0.062 H 
ATOM     16  C   LIG d   1       4.450   0.566  -1.925  0.00  0.00    -0.060 A 
ATOM     17  H   LIG d   1       6.050   1.915  -2.376  0.00  0.00     0.062 H 
ATOM     18  H   LIG d   1       3.987   1.241  -1.219  0.00  0.00     0.062 H 
ATOM     19  H   LIG d   1       2.974  -0.951  -1.655  0.00  0.00     0.064 H 
BRANCH   7  20
ATOM     20  C   LIG d   1       5.085  -4.554  -5.125  0.00  0.00    -0.024 C 
ATOM     21  H   LIG d   1       5.469  -5.321  -4.453  0.00  0.00     0.029 H 
ATOM     22  H   LIG d   1       4.064  -4.803  -5.416  0.00  0.00     0.029 H 
ATOM     23  H   LIG d   1       5.714  -4.503  -6.014  0.00  0.00     0.029 H 
ENDBRANCH   7  20
ENDBRANCH   1   6
BRANCH   5  24
ATOM     24  C   LIG d   1       8.444  -3.526  -3.554  0.00  0.00    -0.059 C 
ATOM     25  H   LIG d   1       7.983  -2.785  -2.900  0.00  0.00     0.024 H 
ATOM     26  H   LIG d   1       7.860  -4.446  -3.528  0.00  0.00     0.024 H 
ATOM     27  H   LIG d   1       9.459  -3.728  -3.214  0.00  0.00     0.024 H 
ENDBRANCH   5  24
BRANCH   5  28
ATOM     28  C   LIG d   1       9.338  -3.787  -5.969  0.00  0.00    -0.059 C 
ATOM     29  H   LIG d   1      10.096  -4.346  -5.421  0.00  0.00     0.024 H 
ATOM     30  H   LIG d   1       8.704  -4.479  -6.523  0.00  0.00     0.024 H 
ATOM     31  H   LIG d   1       9.824  -3.104  -6.666  0.00  0.00     0.024 H 
ENDBRANCH   5  28
BRANCH   3  32
ATOM     32  C   LIG d   1       9.229  -0.866  -6.326  0.00  0.00    -0.034 C 
ATOM     33  H   LIG d   1       9.660  -1.668  -6.924  0.00  0.00     0.028 H 
ATOM     34  H   LIG d   1       8.571  -0.261  -6.949  0.00  0.00     0.028 H 
BRANCH  32  35
ATOM     35  C   LIG d   1      10.350   0.010  -5.765  0.00  0.00     0.012 C 
ATOM     36  H   LIG d   1      11.195  -0.618  -5.482  0.00  0.00     0.046 H 
ATOM     37  H   LIG d   1      10.667   0.726  -6.523  0.00  0.00     0.046 H 
BRANCH  35  38
ATOM     38  N   LIG d   1       9.862   0.732  -4.586  0.00  0.00    -0.316 N 
ATOM     39  C   LIG d   1       9.808   2.078  -4.595  0.00  0.00     0.210 C 
ATOM     40  O   LIG d   1      10.164   2.693  -5.578  0.00  0.00    -0.276 OA
ATOM     41  H   LIG d   1       9.578   0.240  -3.801  0.00  0.00     0.149 HD
BRANCH  39  42
ATOM     42  C   LIG d   1       9.306   2.820  -3.384  0.00  0.00     0.012 C 
ATOM     43  H   LIG d   1       8.238   2.642  -3.265  0.00  0.00     0.032 H 
ATOM     44  H   LIG d   1       9.834   2.469  -2.498  0.00  0.00     0.032 H 
ATOM     45  H   LIG d   1       9.483   3.888  -3.512  0.00  0.00     0.032 H 
ENDBRANCH  39  42
ENDBRANCH  35  38
ENDBRANCH  32  35
ENDBRANCH   3  32
TORSDOF 8
ENDMDL
MODEL 9
REMARK VINA RESULT:      -5.4      8.085     10.633
REMARK  8 active torsions:
REMARK  status: ('A' for Active; 'I' for Inactive)
REMARK    1  A    between atoms: C_1  and  C_2 
REMARK    2  A    between atoms: C_3  and  C_12 
REMARK    3  A    between atoms: C_14  and  C_19 
REMARK    4  A    between atoms: C_16  and  C_17 
REMARK    5  A    between atoms: C_16  and  C_18 
REMARK    6  A    between atoms: C_19  and  C_20 
REMARK    7  A    between atoms: C_20  and  N_21 
REMARK       I    between atoms: N_21  and  C_22 
REMARK    8  A    between atoms: C_22  and  C_24 
ROOT
ATOM      1  C   LIG d   1       9.790   5.764  -4.157  0.00  0.00    -0.005 A 
ATOM      2  H   LIG d   1       8.805   5.361  -4.396  0.00  0.00     0.036 H 
ATOM      3  C   LIG d   1      10.176   7.105  -4.784  0.00  0.00    -0.026 A 
ATOM      4  H   LIG d   1      10.789   7.781  -4.189  0.00  0.00     0.031 H 
ATOM      5  C   LIG d   1      10.826   5.812  -5.282  0.00  0.00    -0.024 A 
ENDROOT
BRANCH   1   6
ATOM      6  C   LIG d   1      10.287   5.479  -2.763  0.00  0.00    -0.015 A 
ATOM      7  C   LIG d   1      10.631   4.279  -2.269  0.00  0.00     0.017 A 
ATOM      8  N   LIG d   1      11.037   4.411  -0.968  0.00  0.00    -0.358 N 
ATOM      9  C   LIG d   1      10.974   5.733  -0.590  0.00  0.00     0.047 A 
ATOM     10  H   LIG d   1      11.326   3.680  -0.398  0.00  0.00     0.166 HD
ATOM     11  C   LIG d   1      10.504   6.460  -1.698  0.00  0.00     0.003 A 
ATOM     12  C   LIG d   1      11.265   6.406   0.593  0.00  0.00    -0.038 A 
ATOM     13  C   LIG d   1      10.346   7.844  -1.606  0.00  0.00    -0.052 A 
ATOM     14  C   LIG d   1      10.643   8.485  -0.436  0.00  0.00    -0.061 A 
ATOM     15  H   LIG d   1       9.988   8.407  -2.457  0.00  0.00     0.062 H 
ATOM     16  C   LIG d   1      11.101   7.771   0.662  0.00  0.00    -0.060 A 
ATOM     17  H   LIG d   1      10.520   9.556  -0.367  0.00  0.00     0.062 H 
ATOM     18  H   LIG d   1      11.333   8.293   1.580  0.00  0.00     0.062 H 
ATOM     19  H   LIG d   1      11.623   5.859   1.453  0.00  0.00     0.064 H 
BRANCH   7  20
ATOM     20  C   LIG d   1      10.568   2.979  -3.028  0.00  0.00    -0.024 C 
ATOM     21  H   LIG d   1      11.440   2.373  -2.784  0.00  0.00     0.029 H 
ATOM     22  H   LIG d   1       9.662   2.440  -2.750  0.00  0.00     0.029 H 
ATOM     23  H   LIG d   1      10.556   3.184  -4.098  0.00  0.00     0.029 H 
ENDBRANCH   7  20
ENDBRANCH   1   6
BRANCH   5  24
ATOM     24  C   LIG d   1      12.289   5.567  -4.904  0.00  0.00    -0.059 C 
ATOM     25  H   LIG d   1      12.718   6.485  -4.502  0.00  0.00     0.024 H 
ATOM     26  H   LIG d   1      12.342   4.780  -4.152  0.00  0.00     0.024 H 
ATOM     27  H   LIG d   1      12.847   5.263  -5.790  0.00  0.00     0.024 H 
ENDBRANCH   5  24
BRANCH   5  28
ATOM     28  C   LIG d   1      10.402   5.291  -6.656  0.00  0.00    -0.059 C 
ATOM     29  H   LIG d   1      11.286   4.993  -7.221  0.00  0.00     0.024 H 
ATOM     30  H   LIG d   1       9.743   4.432  -6.532  0.00  0.00     0.024 H 
ATOM     31  H   LIG d   1       9.876   6.078  -7.196  0.00  0.00     0.024 H 
ENDBRANCH   5  28
BRANCH   3  32
ATOM     32  C   LIG d   1       9.150   7.778  -5.700  0.00  0.00    -0.034 C 
ATOM     33  H   LIG d   1       9.201   7.330  -6.692  0.00  0.00     0.028 H 
ATOM     34  H   LIG d   1       8.151   7.640  -5.289  0.00  0.00     0.028 H 
BRANCH  32  35
ATOM     35  C   LIG d   1       9.459   9.273  -5.799  0.00  0.00     0.012 C 
ATOM     36  H   LIG d   1      10.526   9.412  -5.979  0.00  0.00     0.046 H 
ATOM     37  H   LIG d   1       8.892   9.708  -6.621  0.00  0.00     0.046 H 
BRANCH  35  38
ATOM     38  N   LIG d   1       9.087   9.932  -4.545  0.00  0.00    -0.316 N 
ATOM     39  C   LIG d   1       9.050  11.278  -4.476  0.00  0.00     0.210 C 
ATOM     40  O   LIG d   1       9.325  11.942  -5.452  0.00  0.00    -0.276 OA
ATOM     41  H   LIG d   1       8.866   9.400  -3.764  0.00  0.00     0.149 HD
BRANCH  39  42
ATOM     42  C   LIG d   1       8.666  11.956  -3.186  0.00  0.00     0.012 C 
ATOM     43  H   LIG d   1       9.386  11.696  -2.410  0.00  0.00     0.032 H 
ATOM     44  H   LIG d   1       8.662  13.036  -3.331  0.00  0.00     0.032 H 
ATOM     45  H   LIG d   1       7.672  11.626  -2.883  0.00  0.00     0.032 H 
ENDBRANCH  39  42
ENDBRANCH  35  38
ENDBRANCH  32  35
ENDBRANCH   3  32
TORSDOF 8
ENDMDL
