MODEL 1
REMARK VINA RESULT:      -6.8      0.000      0.000
REMARK  8 active torsions:
REMARK  status: ('A' for Active; 'I' for Inactive)
REMARK    1  A    between atoms: C_1  and  O_2 
REMARK    2  A    between atoms: O_2  and  C_3 
REMARK    3  A    between atoms: C_6  and  O_25 
REMARK    4  A    between atoms: C_7  and  N_9 
REMARK       I    between atoms: N_9  and  C_10 
REMARK       I    between atoms: C_10  and  N_12 
REMARK    5  A    between atoms: N_12  and  C_13 
REMARK    6  A    between atoms: C_13  and  C_14 
REMARK    7  A    between atoms: C_14  and  C_15 
REMARK    8  A    between atoms: O_25  and  C_26 
ROOT
ATOM      1  N   LIG d   1       3.868  -2.068  -7.012  0.00  0.00    -0.266 N 
ATOM      2  C   LIG d   1       5.181  -2.288  -6.800  0.00  0.00     0.304 C 
ATOM      3  O   LIG d   1       6.005  -1.490  -7.205  0.00  0.00    -0.253 OA
ATOM      4  N   LIG d   1       5.581  -3.391  -6.137  0.00  0.00    -0.299 N 
ATOM      5  H   LIG d   1       3.207  -2.659  -6.619  0.00  0.00     0.157 HD
ATOM      6  H   LIG d   1       4.924  -4.028  -5.814  0.00  0.00     0.150 HD
ENDROOT
BRANCH   1   7
ATOM      7  C   LIG d   1       3.458  -0.984  -7.801  0.00  0.00     0.080 A 
ATOM      8  C   LIG d   1       3.297   0.274  -7.228  0.00  0.00     0.141 A 
ATOM      9  C   LIG d   1       2.892   1.343  -8.010  0.00  0.00    -0.015 A 
ATOM     10  C   LIG d   1       2.646   1.161  -9.358  0.00  0.00    -0.016 A 
ATOM     11  H   LIG d   1       2.767   2.319  -7.566  0.00  0.00     0.066 H 
ATOM     12  C   LIG d   1       2.805  -0.092  -9.932  0.00  0.00     0.122 A 
ATOM     13  H   LIG d   1       2.330   1.997  -9.966  0.00  0.00     0.066 H 
ATOM     14  C   LIG d   1       3.205  -1.166  -9.153  0.00  0.00     0.005 A 
ATOM     15  H   LIG d   1       3.325  -2.142  -9.599  0.00  0.00     0.067 H 
BRANCH   8  16
ATOM     16  O   LIG d   1       3.539   0.454  -5.901  0.00  0.00    -0.493 OA
BRANCH  16  17
ATOM     17  C   LIG d   1       2.401   0.559  -5.042  0.00  0.00     0.079 C 
ATOM     18  H   LIG d   1       1.953   1.545  -5.153  0.00  0.00     0.066 H 
ATOM     19  H   LIG d   1       1.671  -0.204  -5.311  0.00  0.00     0.066 H 
ATOM     20  H   LIG d   1       2.714   0.416  -4.008  0.00  0.00     0.066 H 
ENDBRANCH  16  17
ENDBRANCH   8  16
BRANCH  12  21
ATOM     21  O   LIG d   1       2.563  -0.267 -11.258  0.00  0.00    -0.495 OA
BRANCH  21  22
ATOM     22  C   LIG d   1       3.672  -0.645 -12.076  0.00  0.00     0.079 C 
ATOM     23  H   LIG d   1       4.059  -1.608 -11.740  0.00  0.00     0.066 H 
ATOM     24  H   LIG d   1       3.350  -0.724 -13.113  0.00  0.00     0.066 H 
ATOM     25  H   LIG d   1       4.457   0.109 -11.995  0.00  0.00     0.066 H 
ENDBRANCH  21  22
ENDBRANCH  12  21
ENDBRANCH   1   7
BRANCH   4  26
ATOM     26  C   LIG d   1       7.007  -3.630  -5.906  0.00  0.00     0.017 C 
ATOM     27  H   LIG d   1       7.257  -4.650  -6.198  0.00  0.00     0.047 H 
ATOM     28  H   LIG d   1       7.595  -2.928  -6.498  0.00  0.00     0.047 H 
BRANCH  26  29
ATOM     29  C   LIG d   1       7.323  -3.434  -4.422  0.00  0.00    -0.010 C 
ATOM     30  H   LIG d   1       6.624  -4.016  -3.821  0.00  0.00     0.033 H 
ATOM     31  H   LIG d   1       8.341  -3.766  -4.220  0.00  0.00     0.033 H 
BRANCH  29  32
ATOM     32  C   LIG d   1       7.192  -1.974  -4.069  0.00  0.00    -0.021 A 
ATOM     33  C   LIG d   1       6.111  -1.357  -3.295  0.00  0.00     0.003 A 
ATOM     34  C   LIG d   1       6.420   0.014  -3.222  0.00  0.00     0.047 A 
ATOM     35  C   LIG d   1       4.957  -1.846  -2.683  0.00  0.00    -0.052 A 
ATOM     36  N   LIG d   1       7.596   0.203  -3.912  0.00  0.00    -0.360 N 
ATOM     37  C   LIG d   1       5.564   0.869  -2.534  0.00  0.00    -0.038 A 
ATOM     38  C   LIG d   1       8.041  -0.991  -4.410  0.00  0.00     0.006 A 
ATOM     39  H   LIG d   1       8.042   1.057  -4.029  0.00  0.00     0.165 HD
ATOM     40  H   LIG d   1       8.943  -1.124  -4.990  0.00  0.00     0.081 H 
ATOM     41  C   LIG d   1       4.424   0.366  -1.945  0.00  0.00    -0.060 A 
ATOM     42  H   LIG d   1       5.785   1.923  -2.474  0.00  0.00     0.064 H 
ATOM     43  C   LIG d   1       4.127  -0.988  -2.017  0.00  0.00    -0.061 A 
ATOM     44  H   LIG d   1       3.759   1.032  -1.416  0.00  0.00     0.062 H 
ATOM     45  H   LIG d   1       3.233  -1.365  -1.542  0.00  0.00     0.062 H 
ATOM     46  H   LIG d   1       4.719  -2.898  -2.735  0.00  0.00     0.062 H 
ENDBRANCH  29  32
ENDBRANCH  26  29
ENDBRANCH   4  26
TORSDOF 8
ENDMDL
MODEL 2
REMARK VINA RESULT:      -6.7      1.780      2.545
REMARK  8 active torsions:
REMARK  status: ('A' for Active; 'I' for Inactive)
REMARK    1  A    between atoms: C_1  and  O_2 
REMARK    2  A    between atoms: O_2  and  C_3 
REMARK    3  A    between atoms: C_6  and  O_25 
REMARK    4  A    between atoms: C_7  and  N_9 
REMARK       I    between atoms: N_9  and  C_10 
REMARK       I    between atoms: C_10  and  N_12 
REMARK    5  A    between atoms: N_12  and  C_13 
REMARK    6  A    between atoms: C_13  and  C_14 
REMARK    7  A    between atoms: C_14  and  C_15 
REMARK    8  A    between atoms: O_25  and  C_26 
ROOT
ATOM      1  N   LIG d   1       5.488   1.540  -8.311  0.00  0.00    -0.266 N 
ATOM      2  C   LIG d   1       6.469   0.850  -7.695  0.00  0.00     0.304 C 
ATOM      3  O   LIG d   1       6.461  -0.366  -7.712  0.00  0.00    -0.253 OA
ATOM      4  N   LIG d   1       7.460   1.508  -7.062  0.00  0.00    -0.299 N 
ATOM      5  H   LIG d   1       5.538   2.507  -8.369  0.00  0.00     0.157 HD
ATOM      6  H   LIG d   1       7.467   2.478  -7.048  0.00  0.00     0.150 HD
ENDROOT
BRANCH   1   7
ATOM      7  C   LIG d   1       4.397   0.859  -8.869  0.00  0.00     0.080 A 
ATOM      8  C   LIG d   1       3.301   0.530  -8.075  0.00  0.00     0.141 A 
ATOM      9  C   LIG d   1       2.224  -0.141  -8.628  0.00  0.00    -0.015 A 
ATOM     10  C   LIG d   1       2.236  -0.486  -9.967  0.00  0.00    -0.016 A 
ATOM     11  H   LIG d   1       1.374  -0.397  -8.013  0.00  0.00     0.066 H 
ATOM     12  C   LIG d   1       3.326  -0.160 -10.760  0.00  0.00     0.122 A 
ATOM     13  H   LIG d   1       1.394  -1.010 -10.396  0.00  0.00     0.066 H 
ATOM     14  C   LIG d   1       4.409   0.508 -10.210  0.00  0.00     0.005 A 
ATOM     15  H   LIG d   1       5.260   0.758 -10.827  0.00  0.00     0.067 H 
BRANCH   8  16
ATOM     16  O   LIG d   1       3.289   0.869  -6.757  0.00  0.00    -0.493 OA
BRANCH  16  17
ATOM     17  C   LIG d   1       3.435  -0.193  -5.812  0.00  0.00     0.079 C 
ATOM     18  H   LIG d   1       4.128   0.111  -5.028  0.00  0.00     0.066 H 
ATOM     19  H   LIG d   1       2.466  -0.423  -5.372  0.00  0.00     0.066 H 
ATOM     20  H   LIG d   1       3.824  -1.077  -6.318  0.00  0.00     0.066 H 
ENDBRANCH  16  17
ENDBRANCH   8  16
BRANCH  12  21
ATOM     21  O   LIG d   1       3.334  -0.500 -12.077  0.00  0.00    -0.495 OA
BRANCH  21  22
ATOM     22  C   LIG d   1       2.373  -1.468 -12.503  0.00  0.00     0.079 C 
ATOM     23  H   LIG d   1       1.375  -1.142 -12.211  0.00  0.00     0.066 H 
ATOM     24  H   LIG d   1       2.419  -1.574 -13.586  0.00  0.00     0.066 H 
ATOM     25  H   LIG d   1       2.593  -2.428 -12.034  0.00  0.00     0.066 H 
ENDBRANCH  21  22
ENDBRANCH  12  21
ENDBRANCH   1   7
BRANCH   4  26
ATOM     26  C   LIG d   1       8.526   0.759  -6.393  0.00  0.00     0.017 C 
ATOM     27  H   LIG d   1       8.440  -0.299  -6.644  0.00  0.00     0.047 H 
ATOM     28  H   LIG d   1       9.496   1.134  -6.722  0.00  0.00     0.047 H 
BRANCH  26  29
ATOM     29  C   LIG d   1       8.400   0.935  -4.878  0.00  0.00    -0.010 C 
ATOM     30  H   LIG d   1       9.390   0.898  -4.424  0.00  0.00     0.033 H 
ATOM     31  H   LIG d   1       7.936   1.897  -4.661  0.00  0.00     0.033 H 
BRANCH  29  32
ATOM     32  C   LIG d   1       7.547  -0.172  -4.313  0.00  0.00    -0.021 A 
ATOM     33  C   LIG d   1       6.378  -0.015  -3.443  0.00  0.00     0.003 A 
ATOM     34  C   LIG d   1       5.913  -1.316  -3.180  0.00  0.00     0.047 A 
ATOM     35  C   LIG d   1       5.719   1.086  -2.895  0.00  0.00    -0.052 A 
ATOM     36  N   LIG d   1       6.751  -2.188  -3.838  0.00  0.00    -0.360 N 
ATOM     37  C   LIG d   1       4.793  -1.488  -2.372  0.00  0.00    -0.038 A 
ATOM     38  C   LIG d   1       7.718  -1.490  -4.507  0.00  0.00     0.006 A 
ATOM     39  H   LIG d   1       6.667  -3.155  -3.827  0.00  0.00     0.165 HD
ATOM     40  H   LIG d   1       8.502  -1.932  -5.103  0.00  0.00     0.081 H 
ATOM     41  C   LIG d   1       4.162  -0.388  -1.834  0.00  0.00    -0.060 A 
ATOM     42  H   LIG d   1       4.427  -2.481  -2.158  0.00  0.00     0.064 H 
ATOM     43  C   LIG d   1       4.624   0.894  -2.100  0.00  0.00    -0.061 A 
ATOM     44  H   LIG d   1       3.297  -0.524  -1.203  0.00  0.00     0.062 H 
ATOM     45  H   LIG d   1       4.113   1.746  -1.676  0.00  0.00     0.062 H 
ATOM     46  H   LIG d   1       6.072   2.086  -3.098  0.00  0.00     0.062 H 
ENDBRANCH  29  32
ENDBRANCH  26  29
ENDBRANCH   4  26
TORSDOF 8
ENDMDL
MODEL 3
REMARK VINA RESULT:      -6.6      1.597      2.015
REMARK  8 active torsions:
REMARK  status: ('A' for Active; 'I' for Inactive)
REMARK    1  A    between atoms: C_1  and  O_2 
REMARK    2  A    between atoms: O_2  and  C_3 
REMARK    3  A    between atoms: C_6  and  O_25 
REMARK    4  A    between atoms: C_7  and  N_9 
REMARK       I    between atoms: N_9  and  C_10 
REMARK       I    between atoms: C_10  and  N_12 
REMARK    5  A    between atoms: N_12  and  C_13 
REMARK    6  A    between atoms: C_13  and  C_14 
REMARK    7  A    between atoms: C_14  and  C_15 
REMARK    8  A    between atoms: O_25  and  C_26 
ROOT
ATOM      1  N   LIG d   1       3.377  -1.074  -7.791  0.00  0.00    -0.266 N 
ATOM      2  C   LIG d   1       4.248  -2.027  -7.402  0.00  0.00     0.304 C 
ATOM      3  O   LIG d   1       5.188  -2.319  -8.116  0.00  0.00    -0.253 OA
ATOM      4  N   LIG d   1       4.077  -2.655  -6.222  0.00  0.00    -0.299 N 
ATOM      5  H   LIG d   1       2.675  -0.783  -7.188  0.00  0.00     0.157 HD
ATOM      6  H   LIG d   1       3.327  -2.422  -5.653  0.00  0.00     0.150 HD
ENDROOT
BRANCH   1   7
ATOM      7  C   LIG d   1       3.485  -0.504  -9.067  0.00  0.00     0.080 A 
ATOM      8  C   LIG d   1       4.257   0.639  -9.257  0.00  0.00     0.141 A 
ATOM      9  C   LIG d   1       4.362   1.200 -10.519  0.00  0.00    -0.015 A 
ATOM     10  C   LIG d   1       3.701   0.627 -11.589  0.00  0.00    -0.016 A 
ATOM     11  H   LIG d   1       4.960   2.087 -10.667  0.00  0.00     0.066 H 
ATOM     12  C   LIG d   1       2.931  -0.512 -11.403  0.00  0.00     0.122 A 
ATOM     13  H   LIG d   1       3.785   1.066 -12.573  0.00  0.00     0.066 H 
ATOM     14  C   LIG d   1       2.818  -1.074 -10.141  0.00  0.00     0.005 A 
ATOM     15  H   LIG d   1       2.215  -1.958  -9.995  0.00  0.00     0.067 H 
BRANCH   8  16
ATOM     16  O   LIG d   1       4.907   1.204  -8.204  0.00  0.00    -0.493 OA
BRANCH  16  17
ATOM     17  C   LIG d   1       6.333   1.110  -8.196  0.00  0.00     0.079 C 
ATOM     18  H   LIG d   1       6.654   0.523  -7.337  0.00  0.00     0.066 H 
ATOM     19  H   LIG d   1       6.671   0.626  -9.113  0.00  0.00     0.066 H 
ATOM     20  H   LIG d   1       6.762   2.110  -8.134  0.00  0.00     0.066 H 
ENDBRANCH  16  17
ENDBRANCH   8  16
BRANCH  12  21
ATOM     21  O   LIG d   1       2.283  -1.074 -12.458  0.00  0.00    -0.495 OA
BRANCH  21  22
ATOM     22  C   LIG d   1       1.000  -1.647 -12.201  0.00  0.00     0.079 C 
ATOM     23  H   LIG d   1       0.246  -0.860 -12.189  0.00  0.00     0.066 H 
ATOM     24  H   LIG d   1       0.760  -2.368 -12.981  0.00  0.00     0.066 H 
ATOM     25  H   LIG d   1       1.014  -2.150 -11.233  0.00  0.00     0.066 H 
ENDBRANCH  21  22
ENDBRANCH  12  21
ENDBRANCH   1   7
BRANCH   4  26
ATOM     26  C   LIG d   1       5.024  -3.689  -5.800  0.00  0.00     0.017 C 
ATOM     27  H   LIG d   1       4.682  -4.662  -6.156  0.00  0.00     0.047 H 
ATOM     28  H   LIG d   1       6.008  -3.475  -6.217  0.00  0.00     0.047 H 
BRANCH  26  29
ATOM     29  C   LIG d   1       5.111  -3.708  -4.272  0.00  0.00    -0.010 C 
ATOM     30  H   LIG d   1       4.117  -3.867  -3.853  0.00  0.00     0.033 H 
ATOM     31  H   LIG d   1       5.772  -4.514  -3.956  0.00  0.00     0.033 H 
BRANCH  29  32
ATOM     32  C   LIG d   1       5.656  -2.390  -3.784  0.00  0.00    -0.021 A 
ATOM     33  C   LIG d   1       4.877  -1.267  -3.255  0.00  0.00     0.003 A 
ATOM     34  C   LIG d   1       5.812  -0.268  -2.927  0.00  0.00     0.047 A 
ATOM     35  C   LIG d   1       3.516  -1.047  -3.040  0.00  0.00    -0.052 A 
ATOM     36  N   LIG d   1       7.058  -0.755  -3.249  0.00  0.00    -0.360 N 
ATOM     37  C   LIG d   1       5.362   0.935  -2.390  0.00  0.00    -0.038 A 
ATOM     38  C   LIG d   1       6.946  -2.020  -3.758  0.00  0.00     0.006 A 
ATOM     39  H   LIG d   1       7.892  -0.273  -3.132  0.00  0.00     0.165 HD
ATOM     40  H   LIG d   1       7.773  -2.631  -4.088  0.00  0.00     0.081 H 
ATOM     41  C   LIG d   1       4.013   1.135  -2.194  0.00  0.00    -0.060 A 
ATOM     42  H   LIG d   1       6.067   1.713  -2.138  0.00  0.00     0.064 H 
ATOM     43  C   LIG d   1       3.096   0.143  -2.515  0.00  0.00    -0.061 A 
ATOM     44  H   LIG d   1       3.666   2.070  -1.782  0.00  0.00     0.062 H 
ATOM     45  H   LIG d   1       2.043   0.314  -2.349  0.00  0.00     0.062 H 
ATOM     46  H   LIG d   1       2.797  -1.813  -3.288  0.00  0.00     0.062 H 
ENDBRANCH  29  32
ENDBRANCH  26  29
ENDBRANCH   4  26
TORSDOF 8
ENDMDL
MODEL 4
REMARK VINA RESULT:      -6.5      1.841      2.730
REMARK  8 active torsions:
REMARK  status: ('A' for Active; 'I' for Inactive)
REMARK    1  A    between atoms: C_1  and  O_2 
REMARK    2  A    between atoms: O_2  and  C_3 
REMARK    3  A    between atoms: C_6  and  O_25 
REMARK    4  A    between atoms: C_7  and  N_9 
REMARK       I    between atoms: N_9  and  C_10 
REMARK       I    between atoms: C_10  and  N_12 
REMARK    5  A    between atoms: N_12  and  C_13 
REMARK    6  A    between atoms: C_13  and  C_14 
REMARK    7  A    between atoms: C_14  and  C_15 
REMARK    8  A    between atoms: O_25  and  C_26 
ROOT
ATOM      1  N   LIG d   1       3.308  -1.258  -7.700  0.00  0.00    -0.266 N 
ATOM      2  C   LIG d   1       4.290  -2.056  -7.235  0.00  0.00     0.304 C 
ATOM      3  O   LIG d   1       5.427  -1.925  -7.648  0.00  0.00    -0.253 OA
ATOM      4  N   LIG d   1       4.014  -2.998  -6.312  0.00  0.00    -0.299 N 
ATOM      5  H   LIG d   1       2.420  -1.306  -7.313  0.00  0.00     0.157 HD
ATOM      6  H   LIG d   1       3.107  -3.102  -5.983  0.00  0.00     0.150 HD
ENDROOT
BRANCH   1   7
ATOM      7  C   LIG d   1       3.570  -0.359  -8.743  0.00  0.00     0.080 A 
ATOM      8  C   LIG d   1       2.978  -0.546  -9.989  0.00  0.00     0.141 A 
ATOM      9  C   LIG d   1       3.238   0.344 -11.018  0.00  0.00    -0.015 A 
ATOM     10  C   LIG d   1       4.085   1.417 -10.809  0.00  0.00    -0.016 A 
ATOM     11  H   LIG d   1       2.780   0.200 -11.985  0.00  0.00     0.066 H 
ATOM     12  C   LIG d   1       4.676   1.605  -9.568  0.00  0.00     0.122 A 
ATOM     13  H   LIG d   1       4.286   2.110 -11.613  0.00  0.00     0.066 H 
ATOM     14  C   LIG d   1       4.423   0.714  -8.537  0.00  0.00     0.005 A 
ATOM     15  H   LIG d   1       4.887   0.858  -7.572  0.00  0.00     0.067 H 
BRANCH   8  16
ATOM     16  O   LIG d   1       2.145  -1.601 -10.196  0.00  0.00    -0.493 OA
BRANCH  16  17
ATOM     17  C   LIG d   1       1.281  -1.533 -11.333  0.00  0.00     0.079 C 
ATOM     18  H   LIG d   1       1.346  -2.463 -11.895  0.00  0.00     0.066 H 
ATOM     19  H   LIG d   1       0.254  -1.381 -11.000  0.00  0.00     0.066 H 
ATOM     20  H   LIG d   1       1.583  -0.701 -11.968  0.00  0.00     0.066 H 
ENDBRANCH  16  17
ENDBRANCH   8  16
BRANCH  12  21
ATOM     21  O   LIG d   1       5.508   2.661  -9.365  0.00  0.00    -0.495 OA
BRANCH  21  22
ATOM     22  C   LIG d   1       6.826   2.369  -8.899  0.00  0.00     0.079 C 
ATOM     23  H   LIG d   1       7.280   3.276  -8.500  0.00  0.00     0.066 H 
ATOM     24  H   LIG d   1       6.776   1.613  -8.116  0.00  0.00     0.066 H 
ATOM     25  H   LIG d   1       7.430   1.995  -9.727  0.00  0.00     0.066 H 
ENDBRANCH  21  22
ENDBRANCH  12  21
ENDBRANCH   1   7
BRANCH   4  26
ATOM     26  C   LIG d   1       5.081  -3.864  -5.807  0.00  0.00     0.017 C 
ATOM     27  H   LIG d   1       4.909  -4.887  -6.142  0.00  0.00     0.047 H 
ATOM     28  H   LIG d   1       6.043  -3.515  -6.183  0.00  0.00     0.047 H 
BRANCH  26  29
ATOM     29  C   LIG d   1       5.089  -3.824  -4.277  0.00  0.00    -0.010 C 
ATOM     30  H   LIG d   1       4.071  -3.944  -3.905  0.00  0.00     0.033 H 
ATOM     31  H   LIG d   1       5.713  -4.632  -3.896  0.00  0.00     0.033 H 
BRANCH  29  32
ATOM     32  C   LIG d   1       5.641  -2.501  -3.812  0.00  0.00    -0.021 A 
ATOM     33  C   LIG d   1       4.868  -1.364  -3.303  0.00  0.00     0.003 A 
ATOM     34  C   LIG d   1       5.809  -0.365  -2.992  0.00  0.00     0.047 A 
ATOM     35  C   LIG d   1       3.509  -1.132  -3.094  0.00  0.00    -0.052 A 
ATOM     36  N   LIG d   1       7.053  -0.865  -3.304  0.00  0.00    -0.360 N 
ATOM     37  C   LIG d   1       5.366   0.850  -2.477  0.00  0.00    -0.038 A 
ATOM     38  C   LIG d   1       6.934  -2.138  -3.790  0.00  0.00     0.006 A 
ATOM     39  H   LIG d   1       7.889  -0.386  -3.195  0.00  0.00     0.165 HD
ATOM     40  H   LIG d   1       7.757  -2.760  -4.109  0.00  0.00     0.081 H 
ATOM     41  C   LIG d   1       4.017   1.061  -2.286  0.00  0.00    -0.060 A 
ATOM     42  H   LIG d   1       6.075   1.628  -2.238  0.00  0.00     0.064 H 
ATOM     43  C   LIG d   1       3.095   0.070  -2.591  0.00  0.00    -0.061 A 
ATOM     44  H   LIG d   1       3.676   2.006  -1.891  0.00  0.00     0.062 H 
ATOM     45  H   LIG d   1       2.043   0.250  -2.429  0.00  0.00     0.062 H 
ATOM     46  H   LIG d   1       2.785  -1.899  -3.329  0.00  0.00     0.062 H 
ENDBRANCH  29  32
ENDBRANCH  26  29
ENDBRANCH   4  26
TORSDOF 8
ENDMDL
MODEL 5
REMARK VINA RESULT:      -6.5      1.895      3.607
REMARK  8 active torsions:
REMARK  status: ('A' for Active; 'I' for Inactive)
REMARK    1  A    between atoms: C_1  and  O_2 
REMARK    2  A    between atoms: O_2  and  C_3 
REMARK    3  A    between atoms: C_6  and  O_25 
REMARK    4  A    between atoms: C_7  and  N_9 
REMARK       I    between atoms: N_9  and  C_10 
REMARK       I    between atoms: C_10  and  N_12 
REMARK    5  A    between atoms: N_12  and  C_13 
REMARK    6  A    between atoms: C_13  and  C_14 
REMARK    7  A    between atoms: C_14  and  C_15 
REMARK    8  A    between atoms: O_25  and  C_26 
ROOT
ATOM      1  N   LIG d   1       3.557  -0.790  -6.876  0.00  0.00    -0.266 N 
ATOM      2  C   LIG d   1       3.219  -0.265  -5.681  0.00  0.00     0.304 C 
ATOM      3  O   LIG d   1       2.981   0.924  -5.585  0.00  0.00    -0.253 OA
ATOM      4  N   LIG d   1       3.143  -1.057  -4.594  0.00  0.00    -0.299 N 
ATOM      5  H   LIG d   1       3.666  -1.749  -6.971  0.00  0.00     0.157 HD
ATOM      6  H   LIG d   1       3.332  -2.005  -4.670  0.00  0.00     0.150 HD
ENDROOT
BRANCH   1   7
ATOM      7  C   LIG d   1       3.751   0.050  -7.981  0.00  0.00     0.080 A 
ATOM      8  C   LIG d   1       2.818   0.068  -9.014  0.00  0.00     0.141 A 
ATOM      9  C   LIG d   1       3.012   0.899 -10.105  0.00  0.00    -0.015 A 
ATOM     10  C   LIG d   1       4.131   1.709 -10.170  0.00  0.00    -0.016 A 
ATOM     11  H   LIG d   1       2.289   0.915 -10.907  0.00  0.00     0.066 H 
ATOM     12  C   LIG d   1       5.063   1.692  -9.141  0.00  0.00     0.122 A 
ATOM     13  H   LIG d   1       4.280   2.357 -11.021  0.00  0.00     0.066 H 
ATOM     14  C   LIG d   1       4.875   0.859  -8.050  0.00  0.00     0.005 A 
ATOM     15  H   LIG d   1       5.603   0.842  -7.252  0.00  0.00     0.067 H 
BRANCH   8  16
ATOM     16  O   LIG d   1       1.717  -0.728  -8.952  0.00  0.00    -0.493 OA
BRANCH  16  17
ATOM     17  C   LIG d   1       1.600  -1.753  -9.942  0.00  0.00     0.079 C 
ATOM     18  H   LIG d   1       2.488  -2.383  -9.919  0.00  0.00     0.066 H 
ATOM     19  H   LIG d   1       0.719  -2.360  -9.733  0.00  0.00     0.066 H 
ATOM     20  H   LIG d   1       1.502  -1.296 -10.927  0.00  0.00     0.066 H 
ENDBRANCH  16  17
ENDBRANCH   8  16
BRANCH  12  21
ATOM     21  O   LIG d   1       6.161   2.490  -9.207  0.00  0.00    -0.495 OA
BRANCH  21  22
ATOM     22  C   LIG d   1       7.386   1.951  -8.706  0.00  0.00     0.079 C 
ATOM     23  H   LIG d   1       7.175   1.064  -8.109  0.00  0.00     0.066 H 
ATOM     24  H   LIG d   1       8.033   1.682  -9.541  0.00  0.00     0.066 H 
ATOM     25  H   LIG d   1       7.884   2.696  -8.085  0.00  0.00     0.066 H 
ENDBRANCH  21  22
ENDBRANCH  12  21
ENDBRANCH   1   7
BRANCH   4  26
ATOM     26  C   LIG d   1       2.775  -0.486  -3.296  0.00  0.00     0.017 C 
ATOM     27  H   LIG d   1       2.545   0.573  -3.416  0.00  0.00     0.047 H 
ATOM     28  H   LIG d   1       1.901  -1.007  -2.904  0.00  0.00     0.047 H 
BRANCH  26  29
ATOM     29  C   LIG d   1       3.943  -0.646  -2.320  0.00  0.00    -0.010 C 
ATOM     30  H   LIG d   1       3.706  -0.139  -1.384  0.00  0.00     0.033 H 
ATOM     31  H   LIG d   1       4.114  -1.704  -2.127  0.00  0.00     0.033 H 
BRANCH  29  32
ATOM     32  C   LIG d   1       5.186  -0.038  -2.919  0.00  0.00    -0.021 A 
ATOM     33  C   LIG d   1       6.282  -0.759  -3.570  0.00  0.00     0.003 A 
ATOM     34  C   LIG d   1       7.208   0.222  -3.970  0.00  0.00     0.047 A 
ATOM     35  C   LIG d   1       6.534  -2.105  -3.835  0.00  0.00    -0.052 A 
ATOM     36  N   LIG d   1       6.705   1.441  -3.575  0.00  0.00    -0.360 N 
ATOM     37  C   LIG d   1       8.370  -0.167  -4.629  0.00  0.00    -0.038 A 
ATOM     38  C   LIG d   1       5.500   1.267  -2.951  0.00  0.00     0.006 A 
ATOM     39  H   LIG d   1       7.141   2.296  -3.718  0.00  0.00     0.165 HD
ATOM     40  H   LIG d   1       4.891   2.062  -2.545  0.00  0.00     0.081 H 
ATOM     41  C   LIG d   1       8.603  -1.503  -4.873  0.00  0.00    -0.060 A 
ATOM     42  H   LIG d   1       9.092   0.574  -4.938  0.00  0.00     0.064 H 
ATOM     43  C   LIG d   1       7.684  -2.466  -4.480  0.00  0.00    -0.061 A 
ATOM     44  H   LIG d   1       9.508  -1.803  -5.381  0.00  0.00     0.062 H 
ATOM     45  H   LIG d   1       7.880  -3.508  -4.686  0.00  0.00     0.062 H 
ATOM     46  H   LIG d   1       5.824  -2.860  -3.532  0.00  0.00     0.062 H 
ENDBRANCH  29  32
ENDBRANCH  26  29
ENDBRANCH   4  26
TORSDOF 8
ENDMDL
MODEL 6
REMARK VINA RESULT:      -6.5      6.280      9.352
REMARK  8 active torsions:
REMARK  status: ('A' for Active; 'I' for Inactive)
REMARK    1  A    between atoms: C_1  and  O_2 
REMARK    2  A    between atoms: O_2  and  C_3 
REMARK    3  A    between atoms: C_6  and  O_25 
REMARK    4  A    between atoms: C_7  and  N_9 
REMARK       I    between atoms: N_9  and  C_10 
REMARK       I    between atoms: C_10  and  N_12 
REMARK    5  A    between atoms: N_12  and  C_13 
REMARK    6  A    between atoms: C_13  and  C_14 
REMARK    7  A    between atoms: C_14  and  C_15 
REMARK    8  A    between atoms: O_25  and  C_26 
ROOT
ATOM      1  N   LIG d   1      10.933   4.015  -1.850  0.00  0.00    -0.266 N 
ATOM      2  C   LIG d   1      10.402   3.531  -2.991  0.00  0.00     0.304 C 
ATOM      3  O   LIG d   1      10.083   4.293  -3.884  0.00  0.00    -0.253 OA
ATOM      4  N   LIG d   1      10.227   2.204  -3.143  0.00  0.00    -0.299 N 
ATOM      5  H   LIG d   1      11.264   3.405  -1.172  0.00  0.00     0.157 HD
ATOM      6  H   LIG d   1      10.483   1.596  -2.431  0.00  0.00     0.150 HD
ENDROOT
BRANCH   1   7
ATOM      7  C   LIG d   1      11.007   5.399  -1.643  0.00  0.00     0.080 A 
ATOM      8  C   LIG d   1      12.224   6.061  -1.782  0.00  0.00     0.141 A 
ATOM      9  C   LIG d   1      12.294   7.429  -1.577  0.00  0.00    -0.015 A 
ATOM     10  C   LIG d   1      11.157   8.137  -1.234  0.00  0.00    -0.016 A 
ATOM     11  H   LIG d   1      13.237   7.943  -1.685  0.00  0.00     0.066 H 
ATOM     12  C   LIG d   1       9.943   7.480  -1.094  0.00  0.00     0.122 A 
ATOM     13  H   LIG d   1      11.214   9.204  -1.075  0.00  0.00     0.066 H 
ATOM     14  C   LIG d   1       9.869   6.111  -1.293  0.00  0.00     0.005 A 
ATOM     15  H   LIG d   1       8.925   5.599  -1.180  0.00  0.00     0.067 H 
BRANCH   8  16
ATOM     16  O   LIG d   1      13.343   5.365  -2.119  0.00  0.00    -0.493 OA
BRANCH  16  17
ATOM     17  C   LIG d   1      14.360   5.247  -1.122  0.00  0.00     0.079 C 
ATOM     18  H   LIG d   1      13.921   4.872  -0.198  0.00  0.00     0.066 H 
ATOM     19  H   LIG d   1      15.128   4.554  -1.466  0.00  0.00     0.066 H 
ATOM     20  H   LIG d   1      14.807   6.225  -0.942  0.00  0.00     0.066 H 
ENDBRANCH  16  17
ENDBRANCH   8  16
BRANCH  12  21
ATOM     21  O   LIG d   1       8.827   8.180  -0.758  0.00  0.00    -0.495 OA
BRANCH  21  22
ATOM     22  C   LIG d   1       8.930   9.605  -0.759  0.00  0.00     0.079 C 
ATOM     23  H   LIG d   1       8.983   9.967   0.268  0.00  0.00     0.066 H 
ATOM     24  H   LIG d   1       9.829   9.904  -1.297  0.00  0.00     0.066 H 
ATOM     25  H   LIG d   1       8.054  10.032  -1.249  0.00  0.00     0.066 H 
ENDBRANCH  21  22
ENDBRANCH  12  21
ENDBRANCH   1   7
BRANCH   4  26
ATOM     26  C   LIG d   1       9.651   1.678  -4.383  0.00  0.00     0.017 C 
ATOM     27  H   LIG d   1      10.056   2.228  -5.233  0.00  0.00     0.047 H 
ATOM     28  H   LIG d   1       9.901   0.621  -4.480  0.00  0.00     0.047 H 
BRANCH  26  29
ATOM     29  C   LIG d   1       8.130   1.841  -4.347  0.00  0.00    -0.010 C 
ATOM     30  H   LIG d   1       7.858   2.540  -3.557  0.00  0.00     0.033 H 
ATOM     31  H   LIG d   1       7.784   2.224  -5.307  0.00  0.00     0.033 H 
BRANCH  29  32
ATOM     32  C   LIG d   1       7.488   0.504  -4.079  0.00  0.00    -0.021 A 
ATOM     33  C   LIG d   1       6.295   0.259  -3.264  0.00  0.00     0.003 A 
ATOM     34  C   LIG d   1       6.075  -1.130  -3.308  0.00  0.00     0.047 A 
ATOM     35  C   LIG d   1       5.434   1.078  -2.534  0.00  0.00    -0.052 A 
ATOM     36  N   LIG d   1       7.071  -1.676  -4.086  0.00  0.00    -0.360 N 
ATOM     37  C   LIG d   1       4.992  -1.671  -2.620  0.00  0.00    -0.038 A 
ATOM     38  C   LIG d   1       7.903  -0.688  -4.536  0.00  0.00     0.006 A 
ATOM     39  H   LIG d   1       7.169  -2.621  -4.285  0.00  0.00     0.165 HD
ATOM     40  H   LIG d   1       8.766  -0.843  -5.167  0.00  0.00     0.081 H 
ATOM     41  C   LIG d   1       4.159  -0.843  -1.898  0.00  0.00    -0.060 A 
ATOM     42  H   LIG d   1       4.813  -2.735  -2.641  0.00  0.00     0.064 H 
ATOM     43  C   LIG d   1       4.379   0.527  -1.861  0.00  0.00    -0.061 A 
ATOM     44  H   LIG d   1       3.323  -1.265  -1.361  0.00  0.00     0.062 H 
ATOM     45  H   LIG d   1       3.712   1.161  -1.296  0.00  0.00     0.062 H 
ATOM     46  H   LIG d   1       5.599   2.145  -2.500  0.00  0.00     0.062 H 
ENDBRANCH  29  32
ENDBRANCH  26  29
ENDBRANCH   4  26
TORSDOF 8
ENDMDL
MODEL 7
REMARK VINA RESULT:      -6.4      4.489      6.449
REMARK  8 active torsions:
REMARK  status: ('A' for Active; 'I' for Inactive)
REMARK    1  A    between atoms: C_1  and  O_2 
REMARK    2  A    between atoms: O_2  and  C_3 
REMARK    3  A    between atoms: C_6  and  O_25 
REMARK    4  A    between atoms: C_7  and  N_9 
REMARK       I    between atoms: N_9  and  C_10 
REMARK       I    between atoms: C_10  and  N_12 
REMARK    5  A    between atoms: N_12  and  C_13 
REMARK    6  A    between atoms: C_13  and  C_14 
REMARK    7  A    between atoms: C_14  and  C_15 
REMARK    8  A    between atoms: O_25  and  C_26 
ROOT
ATOM      1  N   LIG d   1       5.956   0.441  -5.066  0.00  0.00    -0.266 N 
ATOM      2  C   LIG d   1       7.232   0.791  -4.810  0.00  0.00     0.304 C 
ATOM      3  O   LIG d   1       7.898   0.136  -4.031  0.00  0.00    -0.253 OA
ATOM      4  N   LIG d   1       7.771   1.866  -5.419  0.00  0.00    -0.299 N 
ATOM      5  H   LIG d   1       5.451   0.911  -5.747  0.00  0.00     0.157 HD
ATOM      6  H   LIG d   1       7.240   2.388  -6.041  0.00  0.00     0.150 HD
ENDROOT
BRANCH   1   7
ATOM      7  C   LIG d   1       5.358  -0.604  -4.347  0.00  0.00     0.080 A 
ATOM      8  C   LIG d   1       4.831  -0.366  -3.081  0.00  0.00     0.141 A 
ATOM      9  C   LIG d   1       4.241  -1.400  -2.373  0.00  0.00    -0.015 A 
ATOM     10  C   LIG d   1       4.175  -2.667  -2.921  0.00  0.00    -0.016 A 
ATOM     11  H   LIG d   1       3.831  -1.216  -1.390  0.00  0.00     0.066 H 
ATOM     12  C   LIG d   1       4.700  -2.907  -4.183  0.00  0.00     0.122 A 
ATOM     13  H   LIG d   1       3.714  -3.472  -2.368  0.00  0.00     0.066 H 
ATOM     14  C   LIG d   1       5.296  -1.877  -4.894  0.00  0.00     0.005 A 
ATOM     15  H   LIG d   1       5.709  -2.065  -5.874  0.00  0.00     0.067 H 
BRANCH   8  16
ATOM     16  O   LIG d   1       4.894   0.880  -2.539  0.00  0.00    -0.493 OA
BRANCH  16  17
ATOM     17  C   LIG d   1       3.656   1.565  -2.338  0.00  0.00     0.079 C 
ATOM     18  H   LIG d   1       2.969   1.319  -3.146  0.00  0.00     0.066 H 
ATOM     19  H   LIG d   1       3.222   1.258  -1.386  0.00  0.00     0.066 H 
ATOM     20  H   LIG d   1       3.834   2.640  -2.325  0.00  0.00     0.066 H 
ENDBRANCH  16  17
ENDBRANCH   8  16
BRANCH  12  21
ATOM     21  O   LIG d   1       4.634  -4.154  -4.721  0.00  0.00    -0.495 OA
BRANCH  21  22
ATOM     22  C   LIG d   1       4.424  -4.242  -6.131  0.00  0.00     0.079 C 
ATOM     23  H   LIG d   1       3.355  -4.212  -6.342  0.00  0.00     0.066 H 
ATOM     24  H   LIG d   1       4.917  -3.406  -6.625  0.00  0.00     0.066 H 
ATOM     25  H   LIG d   1       4.840  -5.180  -6.502  0.00  0.00     0.066 H 
ENDBRANCH  21  22
ENDBRANCH  12  21
ENDBRANCH   1   7
BRANCH   4  26
ATOM     26  C   LIG d   1       9.158   2.246  -5.142  0.00  0.00     0.017 C 
ATOM     27  H   LIG d   1       9.528   1.675  -4.290  0.00  0.00     0.047 H 
ATOM     28  H   LIG d   1       9.774   2.036  -6.017  0.00  0.00     0.047 H 
BRANCH  26  29
ATOM     29  C   LIG d   1       9.222   3.741  -4.821  0.00  0.00    -0.010 C 
ATOM     30  H   LIG d   1       9.768   4.259  -5.609  0.00  0.00     0.033 H 
ATOM     31  H   LIG d   1       8.211   4.142  -4.755  0.00  0.00     0.033 H 
BRANCH  29  32
ATOM     32  C   LIG d   1       9.930   3.942  -3.505  0.00  0.00    -0.021 A 
ATOM     33  C   LIG d   1       9.940   5.166  -2.699  0.00  0.00     0.003 A 
ATOM     34  C   LIG d   1      10.722   4.877  -1.566  0.00  0.00     0.047 A 
ATOM     35  C   LIG d   1       9.366   6.429  -2.847  0.00  0.00    -0.052 A 
ATOM     36  N   LIG d   1      11.155   3.576  -1.692  0.00  0.00    -0.360 N 
ATOM     37  C   LIG d   1      10.912   5.861  -0.601  0.00  0.00    -0.038 A 
ATOM     38  C   LIG d   1      10.674   3.035  -2.852  0.00  0.00     0.006 A 
ATOM     39  H   LIG d   1      11.720   3.113  -1.052  0.00  0.00     0.165 HD
ATOM     40  H   LIG d   1      10.864   2.028  -3.193  0.00  0.00     0.081 H 
ATOM     41  C   LIG d   1      10.344   7.105  -0.771  0.00  0.00    -0.060 A 
ATOM     42  H   LIG d   1      11.513   5.655   0.272  0.00  0.00     0.064 H 
ATOM     43  C   LIG d   1       9.570   7.383  -1.890  0.00  0.00    -0.061 A 
ATOM     44  H   LIG d   1      10.497   7.869  -0.024  0.00  0.00     0.062 H 
ATOM     45  H   LIG d   1       9.126   8.361  -2.004  0.00  0.00     0.062 H 
ATOM     46  H   LIG d   1       8.764   6.652  -3.715  0.00  0.00     0.062 H 
ENDBRANCH  29  32
ENDBRANCH  26  29
ENDBRANCH   4  26
TORSDOF 8
ENDMDL
MODEL 8
REMARK VINA RESULT:      -6.3      1.402      2.345
REMARK  8 active torsions:
REMARK  status: ('A' for Active; 'I' for Inactive)
REMARK    1  A    between atoms: C_1  and  O_2 
REMARK    2  A    between atoms: O_2  and  C_3 
REMARK    3  A    between atoms: C_6  and  O_25 
REMARK    4  A    between atoms: C_7  and  N_9 
REMARK       I    between atoms: N_9  and  C_10 
REMARK       I    between atoms: C_10  and  N_12 
REMARK    5  A    between atoms: N_12  and  C_13 
REMARK    6  A    between atoms: C_13  and  C_14 
REMARK    7  A    between atoms: C_14  and  C_15 
REMARK    8  A    between atoms: O_25  and  C_26 
ROOT
ATOM      1  N   LIG d   1       3.952  -2.052  -6.839  0.00  0.00    -0.266 N 
ATOM      2  C   LIG d   1       5.285  -2.224  -6.730  0.00  0.00     0.304 C 
ATOM      3  O   LIG d   1       6.033  -1.705  -7.537  0.00  0.00    -0.253 OA
ATOM      4  N   LIG d   1       5.789  -2.968  -5.726  0.00  0.00    -0.299 N 
ATOM      5  H   LIG d   1       3.361  -2.395  -6.150  0.00  0.00     0.157 HD
ATOM      6  H   LIG d   1       5.193  -3.381  -5.082  0.00  0.00     0.150 HD
ENDROOT
BRANCH   1   7
ATOM      7  C   LIG d   1       3.420  -1.378  -7.946  0.00  0.00     0.080 A 
ATOM      8  C   LIG d   1       2.979  -2.096  -9.054  0.00  0.00     0.141 A 
ATOM      9  C   LIG d   1       2.454  -1.427 -10.147  0.00  0.00    -0.015 A 
ATOM     10  C   LIG d   1       2.368  -0.047 -10.140  0.00  0.00    -0.016 A 
ATOM     11  H   LIG d   1       2.111  -1.984 -11.007  0.00  0.00     0.066 H 
ATOM     12  C   LIG d   1       2.807   0.671  -9.037  0.00  0.00     0.122 A 
ATOM     13  H   LIG d   1       1.957   0.472 -10.993  0.00  0.00     0.066 H 
ATOM     14  C   LIG d   1       3.338   0.007  -7.943  0.00  0.00     0.005 A 
ATOM     15  H   LIG d   1       3.684   0.567  -7.086  0.00  0.00     0.067 H 
BRANCH   8  16
ATOM     16  O   LIG d   1       3.063  -3.454  -9.063  0.00  0.00    -0.493 OA
BRANCH  16  17
ATOM     17  C   LIG d   1       3.965  -4.043 -10.003  0.00  0.00     0.079 C 
ATOM     18  H   LIG d   1       3.405  -4.650 -10.713  0.00  0.00     0.066 H 
ATOM     19  H   LIG d   1       4.497  -3.256 -10.538  0.00  0.00     0.066 H 
ATOM     20  H   LIG d   1       4.682  -4.670  -9.473  0.00  0.00     0.066 H 
ENDBRANCH  16  17
ENDBRANCH   8  16
BRANCH  12  21
ATOM     21  O   LIG d   1       2.720   2.028  -9.032  0.00  0.00    -0.495 OA
BRANCH  21  22
ATOM     22  C   LIG d   1       3.921   2.756  -9.296  0.00  0.00     0.079 C 
ATOM     23  H   LIG d   1       3.682   3.661  -9.855  0.00  0.00     0.066 H 
ATOM     24  H   LIG d   1       4.398   3.025  -8.355  0.00  0.00     0.066 H 
ATOM     25  H   LIG d   1       4.600   2.136  -9.883  0.00  0.00     0.066 H 
ENDBRANCH  21  22
ENDBRANCH  12  21
ENDBRANCH   1   7
BRANCH   4  26
ATOM     26  C   LIG d   1       7.237  -3.154  -5.608  0.00  0.00     0.017 C 
ATOM     27  H   LIG d   1       7.476  -4.214  -5.703  0.00  0.00     0.047 H 
ATOM     28  H   LIG d   1       7.741  -2.595  -6.396  0.00  0.00     0.047 H 
BRANCH  26  29
ATOM     29  C   LIG d   1       7.706  -2.647  -4.243  0.00  0.00    -0.010 C 
ATOM     30  H   LIG d   1       7.279  -3.269  -3.457  0.00  0.00     0.033 H 
ATOM     31  H   LIG d   1       8.793  -2.692  -4.192  0.00  0.00     0.033 H 
BRANCH  29  32
ATOM     32  C   LIG d   1       7.255  -1.220  -4.054  0.00  0.00    -0.021 A 
ATOM     33  C   LIG d   1       6.124  -0.764  -3.242  0.00  0.00     0.003 A 
ATOM     34  C   LIG d   1       6.096   0.637  -3.369  0.00  0.00     0.047 A 
ATOM     35  C   LIG d   1       5.177  -1.411  -2.448  0.00  0.00    -0.052 A 
ATOM     36  N   LIG d   1       7.130   0.990  -4.206  0.00  0.00    -0.360 N 
ATOM     37  C   LIG d   1       5.118   1.362  -2.695  0.00  0.00    -0.038 A 
ATOM     38  C   LIG d   1       7.809  -0.128  -4.605  0.00  0.00     0.006 A 
ATOM     39  H   LIG d   1       7.345   1.898  -4.474  0.00  0.00     0.165 HD
ATOM     40  H   LIG d   1       8.665  -0.133  -5.264  0.00  0.00     0.081 H 
ATOM     41  C   LIG d   1       4.187   0.702  -1.923  0.00  0.00    -0.060 A 
ATOM     42  H   LIG d   1       5.082   2.437  -2.786  0.00  0.00     0.064 H 
ATOM     43  C   LIG d   1       4.222  -0.680  -1.798  0.00  0.00    -0.061 A 
ATOM     44  H   LIG d   1       3.426   1.266  -1.405  0.00  0.00     0.062 H 
ATOM     45  H   LIG d   1       3.489  -1.181  -1.183  0.00  0.00     0.062 H 
ATOM     46  H   LIG d   1       5.198  -2.486  -2.346  0.00  0.00     0.062 H 
ENDBRANCH  29  32
ENDBRANCH  26  29
ENDBRANCH   4  26
TORSDOF 8
ENDMDL
MODEL 9
REMARK VINA RESULT:      -6.3      6.852     10.002
REMARK  8 active torsions:
REMARK  status: ('A' for Active; 'I' for Inactive)
REMARK    1  A    between atoms: C_1  and  O_2 
REMARK    2  A    between atoms: O_2  and  C_3 
REMARK    3  A    between atoms: C_6  and  O_25 
REMARK    4  A    between atoms: C_7  and  N_9 
REMARK       I    between atoms: N_9  and  C_10 
REMARK       I    between atoms: C_10  and  N_12 
REMARK    5  A    between atoms: N_12  and  C_13 
REMARK    6  A    between atoms: C_13  and  C_14 
REMARK    7  A    between atoms: C_14  and  C_15 
REMARK    8  A    between atoms: O_25  and  C_26 
ROOT
ATOM      1  N   LIG d   1      11.189   4.130  -1.324  0.00  0.00    -0.266 N 
ATOM      2  C   LIG d   1      10.761   3.902  -2.581  0.00  0.00     0.304 C 
ATOM      3  O   LIG d   1      11.070   4.663  -3.477  0.00  0.00    -0.253 OA
ATOM      4  N   LIG d   1       9.991   2.828  -2.846  0.00  0.00    -0.299 N 
ATOM      5  H   LIG d   1      11.013   3.481  -0.625  0.00  0.00     0.157 HD
ATOM      6  H   LIG d   1       9.744   2.220  -2.131  0.00  0.00     0.150 HD
ENDROOT
BRANCH   1   7
ATOM      7  C   LIG d   1      11.891   5.307  -1.025  0.00  0.00     0.080 A 
ATOM      8  C   LIG d   1      11.196   6.473  -0.714  0.00  0.00     0.141 A 
ATOM      9  C   LIG d   1      11.891   7.634  -0.419  0.00  0.00    -0.015 A 
ATOM     10  C   LIG d   1      13.274   7.637  -0.435  0.00  0.00    -0.016 A 
ATOM     11  H   LIG d   1      11.353   8.538  -0.178  0.00  0.00     0.066 H 
ATOM     12  C   LIG d   1      13.969   6.477  -0.745  0.00  0.00     0.122 A 
ATOM     13  H   LIG d   1      13.814   8.543  -0.204  0.00  0.00     0.066 H 
ATOM     14  C   LIG d   1      13.277   5.313  -1.046  0.00  0.00     0.005 A 
ATOM     15  H   LIG d   1      13.818   4.412  -1.292  0.00  0.00     0.067 H 
BRANCH   8  16
ATOM     16  O   LIG d   1       9.836   6.471  -0.698  0.00  0.00    -0.493 OA
BRANCH  16  17
ATOM     17  C   LIG d   1       9.175   7.412  -1.547  0.00  0.00     0.079 C 
ATOM     18  H   LIG d   1       8.111   7.183  -1.586  0.00  0.00     0.066 H 
ATOM     19  H   LIG d   1       9.315   8.418  -1.152  0.00  0.00     0.066 H 
ATOM     20  H   LIG d   1       9.597   7.354  -2.550  0.00  0.00     0.066 H 
ENDBRANCH  16  17
ENDBRANCH   8  16
BRANCH  12  21
ATOM     21  O   LIG d   1      15.328   6.483  -0.759  0.00  0.00    -0.495 OA
BRANCH  21  22
ATOM     22  C   LIG d   1      15.986   5.261  -0.418  0.00  0.00     0.079 C 
ATOM     23  H   LIG d   1      15.886   5.081   0.652  0.00  0.00     0.066 H 
ATOM     24  H   LIG d   1      15.532   4.438  -0.969  0.00  0.00     0.066 H 
ATOM     25  H   LIG d   1      17.043   5.332  -0.678  0.00  0.00     0.066 H 
ENDBRANCH  21  22
ENDBRANCH  12  21
ENDBRANCH   1   7
BRANCH   4  26
ATOM     26  C   LIG d   1       9.526   2.579  -4.211  0.00  0.00     0.017 C 
ATOM     27  H   LIG d   1       9.857   3.389  -4.862  0.00  0.00     0.047 H 
ATOM     28  H   LIG d   1       9.936   1.634  -4.569  0.00  0.00     0.047 H 
BRANCH  26  29
ATOM     29  C   LIG d   1       7.997   2.508  -4.225  0.00  0.00    -0.010 C 
ATOM     30  H   LIG d   1       7.596   3.160  -3.449  0.00  0.00     0.033 H 
ATOM     31  H   LIG d   1       7.627   2.829  -5.198  0.00  0.00     0.033 H 
BRANCH  29  32
ATOM     32  C   LIG d   1       7.558   1.089  -3.964  0.00  0.00    -0.021 A 
ATOM     33  C   LIG d   1       6.364   0.668  -3.227  0.00  0.00     0.003 A 
ATOM     34  C   LIG d   1       6.371  -0.739  -3.248  0.00  0.00     0.047 A 
ATOM     35  C   LIG d   1       5.333   1.350  -2.580  0.00  0.00    -0.052 A 
ATOM     36  N   LIG d   1       7.495  -1.129  -3.941  0.00  0.00    -0.360 N 
ATOM     37  C   LIG d   1       5.342  -1.435  -2.621  0.00  0.00    -0.038 A 
ATOM     38  C   LIG d   1       8.190  -0.028  -4.360  0.00  0.00     0.006 A 
ATOM     39  H   LIG d   1       7.756  -2.049  -4.106  0.00  0.00     0.165 HD
ATOM     40  H   LIG d   1       9.110  -0.053  -4.925  0.00  0.00     0.081 H 
ATOM     41  C   LIG d   1       4.338  -0.741  -1.981  0.00  0.00    -0.060 A 
ATOM     42  H   LIG d   1       5.337  -2.514  -2.626  0.00  0.00     0.064 H 
ATOM     43  C   LIG d   1       4.334   0.647  -1.967  0.00  0.00    -0.061 A 
ATOM     44  H   LIG d   1       3.543  -1.283  -1.491  0.00  0.00     0.062 H 
ATOM     45  H   LIG d   1       3.536   1.175  -1.467  0.00  0.00     0.062 H 
ATOM     46  H   LIG d   1       5.323   2.430  -2.565  0.00  0.00     0.062 H 
ENDBRANCH  29  32
ENDBRANCH  26  29
ENDBRANCH   4  26
TORSDOF 8
ENDMDL
MODEL 10
REMARK VINA RESULT:      -6.2      4.111      6.942
REMARK  8 active torsions:
REMARK  status: ('A' for Active; 'I' for Inactive)
REMARK    1  A    between atoms: C_1  and  O_2 
REMARK    2  A    between atoms: O_2  and  C_3 
REMARK    3  A    between atoms: C_6  and  O_25 
REMARK    4  A    between atoms: C_7  and  N_9 
REMARK       I    between atoms: N_9  and  C_10 
REMARK       I    between atoms: C_10  and  N_12 
REMARK    5  A    between atoms: N_12  and  C_13 
REMARK    6  A    between atoms: C_13  and  C_14 
REMARK    7  A    between atoms: C_14  and  C_15 
REMARK    8  A    between atoms: O_25  and  C_26 
ROOT
ATOM      1  N   LIG d   1      10.243   1.004  -4.500  0.00  0.00    -0.266 N 
ATOM      2  C   LIG d   1       9.137   0.298  -4.809  0.00  0.00     0.304 C 
ATOM      3  O   LIG d   1       8.124   0.875  -5.156  0.00  0.00    -0.253 OA
ATOM      4  N   LIG d   1       9.154  -1.047  -4.734  0.00  0.00    -0.299 N 
ATOM      5  H   LIG d   1      11.074   0.544  -4.304  0.00  0.00     0.157 HD
ATOM      6  H   LIG d   1       9.962  -1.507  -4.457  0.00  0.00     0.150 HD
ENDROOT
BRANCH   1   7
ATOM      7  C   LIG d   1      10.193   2.405  -4.464  0.00  0.00     0.080 A 
ATOM      8  C   LIG d   1      10.323   3.138  -5.640  0.00  0.00     0.141 A 
ATOM      9  C   LIG d   1      10.273   4.521  -5.602  0.00  0.00    -0.015 A 
ATOM     10  C   LIG d   1      10.094   5.175  -4.397  0.00  0.00    -0.016 A 
ATOM     11  H   LIG d   1      10.375   5.091  -6.514  0.00  0.00     0.066 H 
ATOM     12  C   LIG d   1       9.963   4.447  -3.223  0.00  0.00     0.122 A 
ATOM     13  H   LIG d   1      10.054   6.254  -4.369  0.00  0.00     0.066 H 
ATOM     14  C   LIG d   1      10.018   3.062  -3.256  0.00  0.00     0.005 A 
ATOM     15  H   LIG d   1       9.921   2.496  -2.341  0.00  0.00     0.067 H 
BRANCH   8  16
ATOM     16  O   LIG d   1      10.500   2.496  -6.827  0.00  0.00    -0.493 OA
BRANCH  16  17
ATOM     17  C   LIG d   1      11.784   2.611  -7.443  0.00  0.00     0.079 C 
ATOM     18  H   LIG d   1      11.752   3.384  -8.209  0.00  0.00     0.066 H 
ATOM     19  H   LIG d   1      12.526   2.878  -6.690  0.00  0.00     0.066 H 
ATOM     20  H   LIG d   1      12.055   1.659  -7.898  0.00  0.00     0.066 H 
ENDBRANCH  16  17
ENDBRANCH   8  16
BRANCH  12  21
ATOM     21  O   LIG d   1       9.786   5.093  -2.039  0.00  0.00    -0.495 OA
BRANCH  21  22
ATOM     22  C   LIG d   1       9.670   6.516  -2.088  0.00  0.00     0.079 C 
ATOM     23  H   LIG d   1       8.917   6.844  -1.371  0.00  0.00     0.066 H 
ATOM     24  H   LIG d   1      10.629   6.968  -1.841  0.00  0.00     0.066 H 
ATOM     25  H   LIG d   1       9.372   6.822  -3.092  0.00  0.00     0.066 H 
ENDBRANCH  21  22
ENDBRANCH  12  21
ENDBRANCH   1   7
BRANCH   4  26
ATOM     26  C   LIG d   1       7.953  -1.815  -5.069  0.00  0.00     0.017 C 
ATOM     27  H   LIG d   1       7.214  -1.154  -5.524  0.00  0.00     0.047 H 
ATOM     28  H   LIG d   1       8.212  -2.609  -5.771  0.00  0.00     0.047 H 
BRANCH  26  29
ATOM     29  C   LIG d   1       7.370  -2.431  -3.796  0.00  0.00    -0.010 C 
ATOM     30  H   LIG d   1       7.549  -3.507  -3.798  0.00  0.00     0.033 H 
ATOM     31  H   LIG d   1       7.846  -1.984  -2.924  0.00  0.00     0.033 H 
BRANCH  29  32
ATOM     32  C   LIG d   1       5.885  -2.170  -3.746  0.00  0.00    -0.021 A 
ATOM     33  C   LIG d   1       5.229  -0.975  -3.210  0.00  0.00     0.003 A 
ATOM     34  C   LIG d   1       3.847  -1.182  -3.382  0.00  0.00     0.047 A 
ATOM     35  C   LIG d   1       5.690   0.205  -2.626  0.00  0.00    -0.052 A 
ATOM     36  N   LIG d   1       3.691  -2.417  -3.969  0.00  0.00    -0.360 N 
ATOM     37  C   LIG d   1       2.955  -0.199  -2.965  0.00  0.00    -0.038 A 
ATOM     38  C   LIG d   1       4.915  -2.991  -4.178  0.00  0.00     0.006 A 
ATOM     39  H   LIG d   1       2.839  -2.820  -4.199  0.00  0.00     0.165 HD
ATOM     40  H   LIG d   1       5.077  -3.961  -4.626  0.00  0.00     0.081 H 
ATOM     41  C   LIG d   1       3.431   0.955  -2.382  0.00  0.00    -0.060 A 
ATOM     42  H   LIG d   1       1.892  -0.346  -3.086  0.00  0.00     0.064 H 
ATOM     43  C   LIG d   1       4.795   1.155  -2.219  0.00  0.00    -0.061 A 
ATOM     44  H   LIG d   1       2.737   1.714  -2.055  0.00  0.00     0.062 H 
ATOM     45  H   LIG d   1       5.152   2.069  -1.767  0.00  0.00     0.062 H 
ATOM     46  H   LIG d   1       6.749   0.368  -2.495  0.00  0.00     0.062 H 
ENDBRANCH  29  32
ENDBRANCH  26  29
ENDBRANCH   4  26
TORSDOF 8
ENDMDL
