MODEL 1
REMARK VINA RESULT:      -7.8      0.000      0.000
REMARK  6 active torsions:
REMARK  status: ('A' for Active; 'I' for Inactive)
REMARK    1  A    between atoms: C_1  and  C_2 
REMARK    2  A    between atoms: C_19  and  C_21 
REMARK    3  A    between atoms: C_21  and  N_22 
REMARK    4  A    between atoms: N_25  and  C_28 
REMARK    5  A    between atoms: C_28  and  C_30 
REMARK    6  A    between atoms: C_28  and  C_36 
ROOT
ATOM      1  N   LIG d   1       8.951   2.181  -4.827  0.00  0.00     0.238 N 
ATOM      2  C   LIG d   1       7.904   1.979  -3.817  0.00  0.00    -0.019 C 
ATOM      3  C   LIG d   1       6.959   0.867  -4.280  0.00  0.00     0.040 C 
ATOM      4  N   LIG d   1       7.727  -0.368  -4.493  0.00  0.00    -0.281 N 
ATOM      5  C   LIG d   1       8.773  -0.166  -5.503  0.00  0.00     0.040 C 
ATOM      6  C   LIG d   1       9.719   0.946  -5.040  0.00  0.00    -0.019 C 
ATOM      7  H   LIG d   1       8.367   1.693  -2.861  0.00  0.00     0.083 H 
ATOM      8  H   LIG d   1       7.337   2.912  -3.684  0.00  0.00     0.083 H 
ATOM      9  H   LIG d   1       6.190   0.695  -3.512  0.00  0.00     0.048 H 
ATOM     10  H   LIG d   1       6.474   1.166  -5.221  0.00  0.00     0.048 H 
ATOM     11  H   LIG d   1       9.341  -1.099  -5.635  0.00  0.00     0.048 H 
ATOM     12  H   LIG d   1       8.311   0.120  -6.460  0.00  0.00     0.048 H 
ATOM     13  H   LIG d   1      10.487   1.119  -5.808  0.00  0.00     0.083 H 
ATOM     14  H   LIG d   1      10.203   0.649  -4.098  0.00  0.00     0.083 H 
ATOM     15  H   LIG d   1       8.462   2.444  -5.776  0.00  0.00     0.203 HD
ENDROOT
BRANCH   1  16
ATOM     16  C   LIG d   1       9.835   3.293  -4.454  0.00  0.00    -0.018 C 
ATOM     17  H   LIG d   1      10.884   2.964  -4.514  0.00  0.00     0.082 H 
ATOM     18  H   LIG d   1       9.609   3.611  -3.426  0.00  0.00     0.082 H 
BRANCH  16  19
ATOM     19  C   LIG d   1       9.613   4.465  -5.412  0.00  0.00     0.102 C 
ATOM     20  C   LIG d   1       9.231   5.751  -4.620  0.00  0.00     0.015 C 
ATOM     21  C   LIG d   1       9.798   5.576  -3.209  0.00  0.00    -0.039 C 
ATOM     22  H   LIG d   1       8.165   6.004  -4.512  0.00  0.00     0.035 H 
ATOM     23  C   LIG d   1      10.036   6.796  -5.415  0.00  0.00     0.107 C 
ATOM     24  C   LIG d   1       9.899   6.924  -2.501  0.00  0.00    -0.014 C 
ATOM     25  H   LIG d   1      10.798   5.124  -3.279  0.00  0.00     0.028 H 
ATOM     26  H   LIG d   1       9.134   4.911  -2.637  0.00  0.00     0.028 H 
ATOM     27  C   LIG d   1      10.890   7.799  -3.281  0.00  0.00    -0.022 C 
ATOM     28  C   LIG d   1      10.434   6.736  -1.100  0.00  0.00    -0.073 C 
ATOM     29  H   LIG d   1       8.903   7.386  -2.439  0.00  0.00     0.035 H 
ATOM     30  C   LIG d   1      10.285   8.078  -4.657  0.00  0.00    -0.009 C 
ATOM     31  C   LIG d   1      11.109   9.109  -2.525  0.00  0.00    -0.047 C 
ATOM     32  H   LIG d   1       9.327   8.605  -4.536  0.00  0.00     0.031 H 
ATOM     33  H   LIG d   1      10.976   8.703  -5.242  0.00  0.00     0.031 H 
ATOM     34  C   LIG d   1      11.768   8.821  -1.171  0.00  0.00    -0.049 C 
ATOM     35  H   LIG d   1      11.761   9.769  -3.115  0.00  0.00     0.027 H 
ATOM     36  H   LIG d   1      10.140   9.603  -2.360  0.00  0.00     0.027 H 
ATOM     37  C   LIG d   1      10.825   7.969  -0.316  0.00  0.00    -0.032 C 
ATOM     38  H   LIG d   1      12.711   8.277  -1.331  0.00  0.00     0.027 H 
ATOM     39  H   LIG d   1      11.975   9.770  -0.655  0.00  0.00     0.027 H 
ATOM     40  H   LIG d   1      11.338   7.674   0.612  0.00  0.00     0.031 H 
ATOM     41  H   LIG d   1       9.927   8.553  -0.067  0.00  0.00     0.031 H 
ATOM     42  C   LIG d   1      10.555   5.539  -0.580  0.00  0.00    -0.099 C 
ATOM     43  H   LIG d   1      10.266   4.654  -1.165  0.00  0.00     0.053 H 
ATOM     44  H   LIG d   1      10.947   5.420   0.441  0.00  0.00     0.053 H 
ATOM     45  H   LIG d   1       9.532   7.152  -6.326  0.00  0.00     0.074 H 
ATOM     46  O   LIG d   1      11.261   6.089  -5.764  0.00  0.00    -0.461 OA
ATOM     47  C   LIG d   1      10.908   4.831  -6.112  0.00  0.00     0.316 C 
ATOM     48  O   LIG d   1      11.526   4.113  -6.861  0.00  0.00    -0.250 OA
ATOM     49  H   LIG d   1       8.842   4.138  -6.125  0.00  0.00     0.047 H 
BRANCH  27  50
ATOM     50  C   LIG d   1      12.222   7.063  -3.430  0.00  0.00    -0.059 C 
ATOM     51  H   LIG d   1      12.312   6.671  -4.454  0.00  0.00     0.024 H 
ATOM     52  H   LIG d   1      12.261   6.229  -2.714  0.00  0.00     0.024 H 
ATOM     53  H   LIG d   1      13.050   7.758  -3.230  0.00  0.00     0.024 H 
ENDBRANCH  27  50
ENDBRANCH  16  19
ENDBRANCH   1  16
BRANCH   4  54
ATOM     54  C   LIG d   1       6.842  -1.479  -4.866  0.00  0.00     0.061 C 
ATOM     55  H   LIG d   1       6.627  -1.399  -5.942  0.00  0.00     0.056 H 
BRANCH  54  56
ATOM     56  C   LIG d   1       5.564  -1.392  -4.073  0.00  0.00    -0.026 A 
ATOM     57  C   LIG d   1       4.384  -1.035  -4.700  0.00  0.00    -0.057 A 
ATOM     58  C   LIG d   1       3.212  -0.955  -3.973  0.00  0.00    -0.061 A 
ATOM     59  H   LIG d   1       4.379  -0.817  -5.758  0.00  0.00     0.062 H 
ATOM     60  C   LIG d   1       3.218  -1.233  -2.618  0.00  0.00    -0.062 A 
ATOM     61  H   LIG d   1       2.291  -0.676  -4.462  0.00  0.00     0.062 H 
ATOM     62  C   LIG d   1       4.396  -1.590  -1.992  0.00  0.00    -0.061 A 
ATOM     63  H   LIG d   1       2.301  -1.170  -2.050  0.00  0.00     0.062 H 
ATOM     64  C   LIG d   1       5.568  -1.676  -2.719  0.00  0.00    -0.057 A 
ATOM     65  H   LIG d   1       4.402  -1.807  -0.933  0.00  0.00     0.062 H 
ATOM     66  H   LIG d   1       6.489  -1.959  -2.231  0.00  0.00     0.062 H 
ENDBRANCH  54  56
BRANCH  54  67
ATOM     67  C   LIG d   1       7.529  -2.788  -4.570  0.00  0.00    -0.026 A 
ATOM     68  C   LIG d   1       8.473  -2.859  -3.562  0.00  0.00    -0.055 A 
ATOM     69  C   LIG d   1       9.104  -4.059  -3.291  0.00  0.00    -0.043 A 
ATOM     70  H   LIG d   1       8.717  -1.978  -2.987  0.00  0.00     0.062 H 
ATOM     71  C   LIG d   1       8.792  -5.187  -4.027  0.00  0.00     0.041 A 
ATOM     72  H   LIG d   1       9.842  -4.115  -2.503  0.00  0.00     0.063 H 
ATOM     73  C   LIG d   1       7.847  -5.115  -5.036  0.00  0.00    -0.043 A 
ATOM     74 CL   LIG d   1       9.586  -6.693  -3.688  0.00  0.00    -0.084 Cl
ATOM     75  C   LIG d   1       7.213  -3.915  -5.303  0.00  0.00    -0.055 A 
ATOM     76  H   LIG d   1       7.603  -5.995  -5.612  0.00  0.00     0.063 H 
ATOM     77  H   LIG d   1       6.472  -3.860  -6.087  0.00  0.00     0.062 H 
ENDBRANCH  54  67
ENDBRANCH   4  54
TORSDOF 6
ENDMDL
MODEL 2
REMARK VINA RESULT:      -7.6      6.304     11.678
REMARK  6 active torsions:
REMARK  status: ('A' for Active; 'I' for Inactive)
REMARK    1  A    between atoms: C_1  and  C_2 
REMARK    2  A    between atoms: C_19  and  C_21 
REMARK    3  A    between atoms: C_21  and  N_22 
REMARK    4  A    between atoms: N_25  and  C_28 
REMARK    5  A    between atoms: C_28  and  C_30 
REMARK    6  A    between atoms: C_28  and  C_36 
ROOT
ATOM      1  N   LIG d   1       8.539  -5.456  -4.767  0.00  0.00     0.238 N 
ATOM      2  C   LIG d   1       8.857  -4.578  -3.632  0.00  0.00    -0.019 C 
ATOM      3  C   LIG d   1       8.615  -3.121  -4.036  0.00  0.00     0.040 C 
ATOM      4  N   LIG d   1       7.215  -2.955  -4.451  0.00  0.00    -0.281 N 
ATOM      5  C   LIG d   1       6.898  -3.833  -5.585  0.00  0.00     0.040 C 
ATOM      6  C   LIG d   1       7.139  -5.290  -5.182  0.00  0.00    -0.019 C 
ATOM      7  H   LIG d   1       8.211  -4.835  -2.779  0.00  0.00     0.083 H 
ATOM      8  H   LIG d   1       9.910  -4.711  -3.348  0.00  0.00     0.083 H 
ATOM      9  H   LIG d   1       8.825  -2.464  -3.178  0.00  0.00     0.048 H 
ATOM     10  H   LIG d   1       9.281  -2.857  -4.870  0.00  0.00     0.048 H 
ATOM     11  H   LIG d   1       5.844  -3.700  -5.869  0.00  0.00     0.048 H 
ATOM     12  H   LIG d   1       7.543  -3.577  -6.439  0.00  0.00     0.048 H 
ATOM     13  H   LIG d   1       6.931  -5.948  -6.039  0.00  0.00     0.083 H 
ATOM     14  H   LIG d   1       6.475  -5.556  -4.347  0.00  0.00     0.083 H 
ATOM     15  H   LIG d   1       9.181  -5.165  -5.612  0.00  0.00     0.203 HD
ENDROOT
BRANCH   1  16
ATOM     16  C   LIG d   1       8.830  -6.859  -4.444  0.00  0.00    -0.018 C 
ATOM     17  H   LIG d   1       9.199  -7.373  -5.344  0.00  0.00     0.082 H 
ATOM     18  H   LIG d   1       7.913  -7.352  -4.090  0.00  0.00     0.082 H 
BRANCH  16  19
ATOM     19  C   LIG d   1       9.896  -6.920  -3.349  0.00  0.00     0.102 C 
ATOM     20  C   LIG d   1       9.317  -7.575  -2.059  0.00  0.00     0.015 C 
ATOM     21  C   LIG d   1       8.150  -8.457  -2.508  0.00  0.00    -0.039 C 
ATOM     22  H   LIG d   1       8.938  -6.917  -1.262  0.00  0.00     0.035 H 
ATOM     23  C   LIG d   1      10.526  -8.428  -1.633  0.00  0.00     0.107 C 
ATOM     24  C   LIG d   1       7.812  -9.486  -1.433  0.00  0.00    -0.014 C 
ATOM     25  H   LIG d   1       8.431  -8.976  -3.436  0.00  0.00     0.028 H 
ATOM     26  H   LIG d   1       7.272  -7.821  -2.695  0.00  0.00     0.028 H 
ATOM     27  C   LIG d   1       9.029 -10.403  -1.251  0.00  0.00    -0.022 C 
ATOM     28  C   LIG d   1       6.642 -10.333  -1.875  0.00  0.00    -0.073 C 
ATOM     29  H   LIG d   1       7.541  -8.971  -0.499  0.00  0.00     0.035 H 
ATOM     30  C   LIG d   1      10.174  -9.557  -0.694  0.00  0.00    -0.009 C 
ATOM     31  C   LIG d   1       8.675 -11.522  -0.272  0.00  0.00    -0.047 C 
ATOM     32  H   LIG d   1       9.875  -9.126   0.273  0.00  0.00     0.031 H 
ATOM     33  H   LIG d   1      11.063 -10.188  -0.555  0.00  0.00     0.031 H 
ATOM     34  C   LIG d   1       7.566 -12.398  -0.866  0.00  0.00    -0.049 C 
ATOM     35  H   LIG d   1       9.565 -12.140  -0.083  0.00  0.00     0.027 H 
ATOM     36  H   LIG d   1       8.325 -11.084   0.674  0.00  0.00     0.027 H 
ATOM     37  C   LIG d   1       6.299 -11.558  -1.055  0.00  0.00    -0.032 C 
ATOM     38  H   LIG d   1       7.892 -12.793  -1.840  0.00  0.00     0.027 H 
ATOM     39  H   LIG d   1       7.353 -13.234  -0.185  0.00  0.00     0.027 H 
ATOM     40  H   LIG d   1       5.537 -12.156  -1.578  0.00  0.00     0.031 H 
ATOM     41  H   LIG d   1       5.912 -11.251  -0.072  0.00  0.00     0.031 H 
ATOM     42  C   LIG d   1       5.944 -10.017  -2.938  0.00  0.00    -0.099 C 
ATOM     43  H   LIG d   1       6.208  -9.124  -3.523  0.00  0.00     0.053 H 
ATOM     44  H   LIG d   1       5.096 -10.646  -3.247  0.00  0.00     0.053 H 
ATOM     45  H   LIG d   1      11.288  -7.874  -1.065  0.00  0.00     0.074 H 
ATOM     46  O   LIG d   1      11.082  -8.887  -2.899  0.00  0.00    -0.461 OA
ATOM     47  C   LIG d   1      11.026  -7.845  -3.758  0.00  0.00     0.316 C 
ATOM     48  O   LIG d   1      11.761  -7.678  -4.703  0.00  0.00    -0.250 OA
ATOM     49  H   LIG d   1      10.247  -5.888  -3.203  0.00  0.00     0.047 H 
BRANCH  27  50
ATOM     50  C   LIG d   1       9.426 -11.006  -2.600  0.00  0.00    -0.059 C 
ATOM     51  H   LIG d   1       9.062 -12.043  -2.659  0.00  0.00     0.024 H 
ATOM     52  H   LIG d   1      10.522 -10.997  -2.696  0.00  0.00     0.024 H 
ATOM     53  H   LIG d   1       8.981 -10.414  -3.411  0.00  0.00     0.024 H 
ENDBRANCH  27  50
ENDBRANCH  16  19
ENDBRANCH   1  16
BRANCH   4  54
ATOM     54  C   LIG d   1       6.925  -1.552  -4.773  0.00  0.00     0.061 C 
ATOM     55  H   LIG d   1       7.880  -1.009  -4.826  0.00  0.00     0.056 H 
BRANCH  54  56
ATOM     56  C   LIG d   1       6.049  -0.961  -3.700  0.00  0.00    -0.026 A 
ATOM     57  C   LIG d   1       6.015   0.409  -3.511  0.00  0.00    -0.057 A 
ATOM     58  C   LIG d   1       5.212   0.951  -2.527  0.00  0.00    -0.061 A 
ATOM     59  H   LIG d   1       6.618   1.054  -4.133  0.00  0.00     0.062 H 
ATOM     60  C   LIG d   1       4.440   0.125  -1.730  0.00  0.00    -0.062 A 
ATOM     61  H   LIG d   1       5.185   2.021  -2.379  0.00  0.00     0.062 H 
ATOM     62  C   LIG d   1       4.473  -1.243  -1.919  0.00  0.00    -0.061 A 
ATOM     63  H   LIG d   1       3.813   0.550  -0.961  0.00  0.00     0.062 H 
ATOM     64  C   LIG d   1       5.273  -1.786  -2.907  0.00  0.00    -0.057 A 
ATOM     65  H   LIG d   1       3.871  -1.889  -1.297  0.00  0.00     0.062 H 
ATOM     66  H   LIG d   1       5.296  -2.855  -3.057  0.00  0.00     0.062 H 
ENDBRANCH  54  56
BRANCH  54  67
ATOM     67  C   LIG d   1       6.213  -1.479  -6.100  0.00  0.00    -0.026 A 
ATOM     68  C   LIG d   1       4.855  -1.734  -6.170  0.00  0.00    -0.055 A 
ATOM     69  C   LIG d   1       4.203  -1.668  -7.387  0.00  0.00    -0.043 A 
ATOM     70  H   LIG d   1       4.306  -1.984  -5.275  0.00  0.00     0.062 H 
ATOM     71  C   LIG d   1       4.907  -1.348  -8.534  0.00  0.00     0.041 A 
ATOM     72  H   LIG d   1       3.142  -1.867  -7.442  0.00  0.00     0.063 H 
ATOM     73  C   LIG d   1       6.266  -1.094  -8.463  0.00  0.00    -0.043 A 
ATOM     74 CL   LIG d   1       4.087  -1.267 -10.062  0.00  0.00    -0.084 Cl
ATOM     75  C   LIG d   1       6.916  -1.155  -7.244  0.00  0.00    -0.055 A 
ATOM     76  H   LIG d   1       6.816  -0.845  -9.357  0.00  0.00     0.063 H 
ATOM     77  H   LIG d   1       7.976  -0.952  -7.188  0.00  0.00     0.062 H 
ENDBRANCH  54  67
ENDBRANCH   4  54
TORSDOF 6
ENDMDL
MODEL 3
REMARK VINA RESULT:      -7.5      3.744      9.920
REMARK  6 active torsions:
REMARK  status: ('A' for Active; 'I' for Inactive)
REMARK    1  A    between atoms: C_1  and  C_2 
REMARK    2  A    between atoms: C_19  and  C_21 
REMARK    3  A    between atoms: C_21  and  N_22 
REMARK    4  A    between atoms: N_25  and  C_28 
REMARK    5  A    between atoms: C_28  and  C_30 
REMARK    6  A    between atoms: C_28  and  C_36 
ROOT
ATOM      1  N   LIG d   1       9.262   2.761  -5.228  0.00  0.00     0.238 N 
ATOM      2  C   LIG d   1       8.912   3.331  -3.920  0.00  0.00    -0.019 C 
ATOM      3  C   LIG d   1      10.058   4.221  -3.431  0.00  0.00     0.040 C 
ATOM      4  N   LIG d   1      10.305   5.283  -4.415  0.00  0.00    -0.281 N 
ATOM      5  C   LIG d   1      10.656   4.713  -5.723  0.00  0.00     0.040 C 
ATOM      6  C   LIG d   1       9.510   3.824  -6.213  0.00  0.00    -0.019 C 
ATOM      7  H   LIG d   1       7.995   3.932  -4.015  0.00  0.00     0.083 H 
ATOM      8  H   LIG d   1       8.743   2.518  -3.199  0.00  0.00     0.083 H 
ATOM      9  H   LIG d   1       9.785   4.671  -2.464  0.00  0.00     0.048 H 
ATOM     10  H   LIG d   1      10.966   3.613  -3.307  0.00  0.00     0.048 H 
ATOM     11  H   LIG d   1      10.824   5.526  -6.445  0.00  0.00     0.048 H 
ATOM     12  H   LIG d   1      11.572   4.112  -5.628  0.00  0.00     0.048 H 
ATOM     13  H   LIG d   1       9.782   3.372  -7.178  0.00  0.00     0.083 H 
ATOM     14  H   LIG d   1       8.600   4.429  -6.335  0.00  0.00     0.083 H 
ATOM     15  H   LIG d   1      10.191   2.185  -5.110  0.00  0.00     0.203 HD
ENDROOT
BRANCH   1  16
ATOM     16  C   LIG d   1       8.218   1.840  -5.698  0.00  0.00    -0.018 C 
ATOM     17  H   LIG d   1       7.976   2.066  -6.747  0.00  0.00     0.082 H 
ATOM     18  H   LIG d   1       7.318   1.962  -5.078  0.00  0.00     0.082 H 
BRANCH  16  19
ATOM     19  C   LIG d   1       8.722   0.400  -5.589  0.00  0.00     0.102 C 
ATOM     20  C   LIG d   1       8.147  -0.284  -4.313  0.00  0.00     0.015 C 
ATOM     21  C   LIG d   1       6.853   0.457  -3.970  0.00  0.00    -0.039 C 
ATOM     22  H   LIG d   1       8.764  -0.297  -3.401  0.00  0.00     0.035 H 
ATOM     23  C   LIG d   1       7.851  -1.685  -4.878  0.00  0.00     0.107 C 
ATOM     24  C   LIG d   1       5.978  -0.390  -3.050  0.00  0.00    -0.014 C 
ATOM     25  H   LIG d   1       6.307   0.672  -4.900  0.00  0.00     0.028 H 
ATOM     26  H   LIG d   1       7.106   1.403  -3.466  0.00  0.00     0.028 H 
ATOM     27  C   LIG d   1       5.582  -1.664  -3.810  0.00  0.00    -0.022 C 
ATOM     28  C   LIG d   1       4.716   0.362  -2.696  0.00  0.00    -0.073 C 
ATOM     29  H   LIG d   1       6.524  -0.617  -2.123  0.00  0.00     0.035 H 
ATOM     30  C   LIG d   1       6.854  -2.473  -4.061  0.00  0.00    -0.009 C 
ATOM     31  C   LIG d   1       4.602  -2.472  -2.961  0.00  0.00    -0.047 C 
ATOM     32  H   LIG d   1       7.320  -2.733  -3.099  0.00  0.00     0.031 H 
ATOM     33  H   LIG d   1       6.602  -3.393  -4.608  0.00  0.00     0.031 H 
ATOM     34  C   LIG d   1       3.307  -1.674  -2.764  0.00  0.00    -0.049 C 
ATOM     35  H   LIG d   1       4.370  -3.419  -3.469  0.00  0.00     0.027 H 
ATOM     36  H   LIG d   1       5.053  -2.682  -1.980  0.00  0.00     0.027 H 
ATOM     37  C   LIG d   1       3.614  -0.391  -1.984  0.00  0.00    -0.032 C 
ATOM     38  H   LIG d   1       2.883  -1.414  -3.745  0.00  0.00     0.027 H 
ATOM     39  H   LIG d   1       2.584  -2.281  -2.201  0.00  0.00     0.027 H 
ATOM     40  H   LIG d   1       2.708   0.233  -1.934  0.00  0.00     0.031 H 
ATOM     41  H   LIG d   1       3.938  -0.649  -0.965  0.00  0.00     0.031 H 
ATOM     42  C   LIG d   1       4.580   1.631  -2.998  0.00  0.00    -0.099 C 
ATOM     43  H   LIG d   1       5.392   2.162  -3.516  0.00  0.00     0.053 H 
ATOM     44  H   LIG d   1       3.655   2.162  -2.733  0.00  0.00     0.053 H 
ATOM     45  H   LIG d   1       8.723  -2.354  -4.900  0.00  0.00     0.074 H 
ATOM     46  O   LIG d   1       7.394  -1.415  -6.235  0.00  0.00    -0.461 OA
ATOM     47  C   LIG d   1       8.184  -0.438  -6.733  0.00  0.00     0.316 C 
ATOM     48  O   LIG d   1       8.424  -0.261  -7.904  0.00  0.00    -0.250 OA
ATOM     49  H   LIG d   1       9.821   0.456  -5.605  0.00  0.00     0.047 H 
BRANCH  27  50
ATOM     50  C   LIG d   1       4.924  -1.288  -5.139  0.00  0.00    -0.059 C 
ATOM     51  H   LIG d   1       3.978  -1.838  -5.248  0.00  0.00     0.024 H 
ATOM     52  H   LIG d   1       5.597  -1.550  -5.968  0.00  0.00     0.024 H 
ATOM     53  H   LIG d   1       4.723  -0.208  -5.156  0.00  0.00     0.024 H 
ENDBRANCH  27  50
ENDBRANCH  16  19
ENDBRANCH   1  16
BRANCH   4  54
ATOM     54  C   LIG d   1      11.349   6.204  -3.945  0.00  0.00     0.061 C 
ATOM     55  H   LIG d   1      12.310   5.875  -4.367  0.00  0.00     0.056 H 
BRANCH  54  56
ATOM     56  C   LIG d   1      11.405   6.173  -2.440  0.00  0.00    -0.026 A 
ATOM     57  C   LIG d   1      12.507   5.637  -1.800  0.00  0.00    -0.057 A 
ATOM     58  C   LIG d   1      12.559   5.609  -0.419  0.00  0.00    -0.061 A 
ATOM     59  H   LIG d   1      13.328   5.240  -2.379  0.00  0.00     0.062 H 
ATOM     60  C   LIG d   1      11.508   6.117   0.322  0.00  0.00    -0.062 A 
ATOM     61  H   LIG d   1      13.420   5.191   0.081  0.00  0.00     0.062 H 
ATOM     62  C   LIG d   1      10.407   6.653  -0.317  0.00  0.00    -0.061 A 
ATOM     63  H   LIG d   1      11.549   6.095   1.402  0.00  0.00     0.062 H 
ATOM     64  C   LIG d   1      10.357   6.686  -1.698  0.00  0.00    -0.057 A 
ATOM     65  H   LIG d   1       9.585   7.050   0.262  0.00  0.00     0.062 H 
ATOM     66  H   LIG d   1       9.498   7.108  -2.198  0.00  0.00     0.062 H 
ENDBRANCH  54  56
BRANCH  54  67
ATOM     67  C   LIG d   1      11.029   7.602  -4.408  0.00  0.00    -0.026 A 
ATOM     68  C   LIG d   1      11.972   8.605  -4.277  0.00  0.00    -0.055 A 
ATOM     69  C   LIG d   1      11.679   9.887  -4.702  0.00  0.00    -0.043 A 
ATOM     70  H   LIG d   1      12.937   8.386  -3.843  0.00  0.00     0.062 H 
ATOM     71  C   LIG d   1      10.444  10.168  -5.256  0.00  0.00     0.041 A 
ATOM     72  H   LIG d   1      12.416  10.671  -4.599  0.00  0.00     0.063 H 
ATOM     73  C   LIG d   1       9.500   9.163  -5.386  0.00  0.00    -0.043 A 
ATOM     74 CL   LIG d   1      10.076  11.779  -5.788  0.00  0.00    -0.084 Cl
ATOM     75  C   LIG d   1       9.796   7.880  -4.966  0.00  0.00    -0.055 A 
ATOM     76  H   LIG d   1       8.535   9.381  -5.819  0.00  0.00     0.063 H 
ATOM     77  H   LIG d   1       9.062   7.095  -5.073  0.00  0.00     0.062 H 
ENDBRANCH  54  67
ENDBRANCH   4  54
TORSDOF 6
ENDMDL
MODEL 4
REMARK VINA RESULT:      -7.2      6.535      9.317
REMARK  6 active torsions:
REMARK  status: ('A' for Active; 'I' for Inactive)
REMARK    1  A    between atoms: C_1  and  C_2 
REMARK    2  A    between atoms: C_19  and  C_21 
REMARK    3  A    between atoms: C_21  and  N_22 
REMARK    4  A    between atoms: N_25  and  C_28 
REMARK    5  A    between atoms: C_28  and  C_30 
REMARK    6  A    between atoms: C_28  and  C_36 
ROOT
ATOM      1  N   LIG d   1       7.064  -5.804  -5.559  0.00  0.00     0.238 N 
ATOM      2  C   LIG d   1       5.732  -6.388  -5.344  0.00  0.00    -0.019 C 
ATOM      3  C   LIG d   1       5.827  -7.913  -5.432  0.00  0.00     0.040 C 
ATOM      4  N   LIG d   1       6.782  -8.402  -4.428  0.00  0.00    -0.281 N 
ATOM      5  C   LIG d   1       8.112  -7.819  -4.644  0.00  0.00     0.040 C 
ATOM      6  C   LIG d   1       8.019  -6.293  -4.554  0.00  0.00    -0.019 C 
ATOM      7  H   LIG d   1       5.363  -6.100  -4.348  0.00  0.00     0.083 H 
ATOM      8  H   LIG d   1       5.040  -6.017  -6.113  0.00  0.00     0.083 H 
ATOM      9  H   LIG d   1       4.836  -8.354  -5.243  0.00  0.00     0.048 H 
ATOM     10  H   LIG d   1       6.169  -8.201  -6.437  0.00  0.00     0.048 H 
ATOM     11  H   LIG d   1       8.805  -8.189  -3.874  0.00  0.00     0.048 H 
ATOM     12  H   LIG d   1       8.483  -8.106  -5.639  0.00  0.00     0.048 H 
ATOM     13  H   LIG d   1       9.008  -5.852  -4.745  0.00  0.00     0.083 H 
ATOM     14  H   LIG d   1       7.675  -6.004  -3.551  0.00  0.00     0.083 H 
ATOM     15  H   LIG d   1       7.419  -6.124  -6.549  0.00  0.00     0.203 HD
ENDROOT
BRANCH   1  16
ATOM     16  C   LIG d   1       7.001  -4.336  -5.556  0.00  0.00    -0.018 C 
ATOM     17  H   LIG d   1       8.022  -3.927  -5.519  0.00  0.00     0.082 H 
ATOM     18  H   LIG d   1       6.436  -3.996  -4.676  0.00  0.00     0.082 H 
BRANCH  16  19
ATOM     19  C   LIG d   1       6.304  -3.853  -6.829  0.00  0.00     0.102 C 
ATOM     20  C   LIG d   1       4.892  -3.286  -6.495  0.00  0.00     0.015 C 
ATOM     21  C   LIG d   1       4.937  -2.845  -5.030  0.00  0.00    -0.039 C 
ATOM     22  H   LIG d   1       4.020  -3.949  -6.606  0.00  0.00     0.035 H 
ATOM     23  C   LIG d   1       4.868  -2.071  -7.440  0.00  0.00     0.107 C 
ATOM     24  C   LIG d   1       3.802  -1.869  -4.729  0.00  0.00    -0.014 C 
ATOM     25  H   LIG d   1       5.902  -2.354  -4.835  0.00  0.00     0.028 H 
ATOM     26  H   LIG d   1       4.839  -3.731  -4.387  0.00  0.00     0.028 H 
ATOM     27  C   LIG d   1       4.012  -0.614  -5.587  0.00  0.00    -0.022 C 
ATOM     28  C   LIG d   1       3.841  -1.462  -3.275  0.00  0.00    -0.073 C 
ATOM     29  H   LIG d   1       2.835  -2.352  -4.934  0.00  0.00     0.035 H 
ATOM     30  C   LIG d   1       3.857  -1.018  -7.053  0.00  0.00    -0.009 C 
ATOM     31  C   LIG d   1       2.962   0.432  -5.214  0.00  0.00    -0.047 C 
ATOM     32  H   LIG d   1       2.848  -1.426  -7.216  0.00  0.00     0.031 H 
ATOM     33  H   LIG d   1       4.004  -0.137  -7.694  0.00  0.00     0.031 H 
ATOM     34  C   LIG d   1       3.164   0.871  -3.758  0.00  0.00    -0.049 C 
ATOM     35  H   LIG d   1       3.063   1.305  -5.874  0.00  0.00     0.027 H 
ATOM     36  H   LIG d   1       1.957  -0.000  -5.327  0.00  0.00     0.027 H 
ATOM     37  C   LIG d   1       2.944  -0.327  -2.829  0.00  0.00    -0.032 C 
ATOM     38  H   LIG d   1       4.188   1.253  -3.629  0.00  0.00     0.027 H 
ATOM     39  H   LIG d   1       2.444   1.664  -3.511  0.00  0.00     0.027 H 
ATOM     40  H   LIG d   1       3.191  -0.040  -1.796  0.00  0.00     0.031 H 
ATOM     41  H   LIG d   1       1.892  -0.642  -2.880  0.00  0.00     0.031 H 
ATOM     42  C   LIG d   1       4.627  -2.073  -2.423  0.00  0.00    -0.099 C 
ATOM     43  H   LIG d   1       5.273  -2.896  -2.765  0.00  0.00     0.053 H 
ATOM     44  H   LIG d   1       4.643  -1.763  -1.369  0.00  0.00     0.053 H 
ATOM     45  H   LIG d   1       4.577  -2.312  -8.473  0.00  0.00     0.074 H 
ATOM     46  O   LIG d   1       6.241  -1.586  -7.407  0.00  0.00    -0.461 OA
ATOM     47  C   LIG d   1       7.046  -2.672  -7.425  0.00  0.00     0.316 C 
ATOM     48  O   LIG d   1       8.177  -2.698  -7.849  0.00  0.00    -0.250 OA
ATOM     49  H   LIG d   1       6.286  -4.712  -7.515  0.00  0.00     0.047 H 
BRANCH  27  50
ATOM     50  C   LIG d   1       5.412  -0.049  -5.341  0.00  0.00    -0.059 C 
ATOM     51  H   LIG d   1       5.343   1.034  -5.160  0.00  0.00     0.024 H 
ATOM     52  H   LIG d   1       6.042  -0.234  -6.223  0.00  0.00     0.024 H 
ATOM     53  H   LIG d   1       5.856  -0.540  -4.463  0.00  0.00     0.024 H 
ENDBRANCH  27  50
ENDBRANCH  16  19
ENDBRANCH   1  16
BRANCH   4  54
ATOM     54  C   LIG d   1       6.843  -9.870  -4.431  0.00  0.00     0.061 C 
ATOM     55  H   LIG d   1       7.370 -10.188  -5.344  0.00  0.00     0.056 H 
BRANCH  54  56
ATOM     56  C   LIG d   1       5.446 -10.431  -4.415  0.00  0.00    -0.026 A 
ATOM     57  C   LIG d   1       4.579 -10.100  -3.389  0.00  0.00    -0.057 A 
ATOM     58  C   LIG d   1       3.297 -10.615  -3.375  0.00  0.00    -0.061 A 
ATOM     59  H   LIG d   1       4.905  -9.439  -2.600  0.00  0.00     0.062 H 
ATOM     60  C   LIG d   1       2.880 -11.461  -4.386  0.00  0.00    -0.062 A 
ATOM     61  H   LIG d   1       2.620 -10.356  -2.574  0.00  0.00     0.062 H 
ATOM     62  C   LIG d   1       3.745 -11.792  -5.411  0.00  0.00    -0.061 A 
ATOM     63  H   LIG d   1       1.877 -11.863  -4.373  0.00  0.00     0.062 H 
ATOM     64  C   LIG d   1       5.026 -11.273  -5.429  0.00  0.00    -0.057 A 
ATOM     65  H   LIG d   1       3.420 -12.453  -6.201  0.00  0.00     0.062 H 
ATOM     66  H   LIG d   1       5.702 -11.528  -6.232  0.00  0.00     0.062 H 
ENDBRANCH  54  56
BRANCH  54  67
ATOM     67  C   LIG d   1       7.590 -10.343  -3.210  0.00  0.00    -0.026 A 
ATOM     68  C   LIG d   1       7.460  -9.661  -2.014  0.00  0.00    -0.055 A 
ATOM     69  C   LIG d   1       8.144 -10.094  -0.895  0.00  0.00    -0.043 A 
ATOM     70  H   LIG d   1       6.823  -8.790  -1.955  0.00  0.00     0.062 H 
ATOM     71  C   LIG d   1       8.960 -11.208  -0.970  0.00  0.00     0.041 A 
ATOM     72  H   LIG d   1       8.043  -9.561   0.040  0.00  0.00     0.063 H 
ATOM     73  C   LIG d   1       9.090 -11.890  -2.167  0.00  0.00    -0.043 A 
ATOM     74 CL   LIG d   1       9.821 -11.751   0.436  0.00  0.00    -0.084 Cl
ATOM     75  C   LIG d   1       8.400 -11.459  -3.285  0.00  0.00    -0.055 A 
ATOM     76  H   LIG d   1       9.726 -12.761  -2.227  0.00  0.00     0.063 H 
ATOM     77  H   LIG d   1       8.498 -11.995  -4.219  0.00  0.00     0.062 H 
ENDBRANCH  54  67
ENDBRANCH   4  54
TORSDOF 6
ENDMDL
MODEL 5
REMARK VINA RESULT:      -7.2      6.678     10.669
REMARK  6 active torsions:
REMARK  status: ('A' for Active; 'I' for Inactive)
REMARK    1  A    between atoms: C_1  and  C_2 
REMARK    2  A    between atoms: C_19  and  C_21 
REMARK    3  A    between atoms: C_21  and  N_22 
REMARK    4  A    between atoms: N_25  and  C_28 
REMARK    5  A    between atoms: C_28  and  C_30 
REMARK    6  A    between atoms: C_28  and  C_36 
ROOT
ATOM      1  N   LIG d   1       4.463  -1.504  -8.684  0.00  0.00     0.238 N 
ATOM      2  C   LIG d   1       4.085  -0.567  -7.617  0.00  0.00    -0.019 C 
ATOM      3  C   LIG d   1       4.327  -1.224  -6.256  0.00  0.00     0.040 C 
ATOM      4  N   LIG d   1       5.742  -1.606  -6.143  0.00  0.00    -0.281 N 
ATOM      5  C   LIG d   1       6.118  -2.542  -7.209  0.00  0.00     0.040 C 
ATOM      6  C   LIG d   1       5.877  -1.886  -8.571  0.00  0.00    -0.019 C 
ATOM      7  H   LIG d   1       4.695   0.345  -7.698  0.00  0.00     0.083 H 
ATOM      8  H   LIG d   1       3.022  -0.306  -7.717  0.00  0.00     0.083 H 
ATOM      9  H   LIG d   1       4.072  -0.514  -5.455  0.00  0.00     0.048 H 
ATOM     10  H   LIG d   1       3.696  -2.120  -6.164  0.00  0.00     0.048 H 
ATOM     11  H   LIG d   1       7.182  -2.803  -7.111  0.00  0.00     0.048 H 
ATOM     12  H   LIG d   1       5.509  -3.455  -7.129  0.00  0.00     0.048 H 
ATOM     13  H   LIG d   1       6.131  -2.596  -9.372  0.00  0.00     0.083 H 
ATOM     14  H   LIG d   1       6.507  -0.989  -8.664  0.00  0.00     0.083 H 
ATOM     15  H   LIG d   1       3.855  -2.414  -8.568  0.00  0.00     0.203 HD
ENDROOT
BRANCH   1  16
ATOM     16  C   LIG d   1       4.174  -0.938 -10.009  0.00  0.00    -0.018 C 
ATOM     17  H   LIG d   1       4.855  -1.379 -10.752  0.00  0.00     0.082 H 
ATOM     18  H   LIG d   1       4.318   0.152  -9.980  0.00  0.00     0.082 H 
BRANCH  16  19
ATOM     19  C   LIG d   1       2.727  -1.251 -10.393  0.00  0.00     0.102 C 
ATOM     20  C   LIG d   1       2.465  -0.877 -11.883  0.00  0.00     0.015 C 
ATOM     21  C   LIG d   1       3.824  -0.920 -12.585  0.00  0.00    -0.039 C 
ATOM     22  H   LIG d   1       2.016   0.103 -12.106  0.00  0.00     0.035 H 
ATOM     23  C   LIG d   1       1.585  -2.069 -12.301  0.00  0.00     0.107 C 
ATOM     24  C   LIG d   1       3.642  -1.033 -14.097  0.00  0.00    -0.014 C 
ATOM     25  H   LIG d   1       4.388  -1.790 -12.219  0.00  0.00     0.028 H 
ATOM     26  H   LIG d   1       4.377   0.001 -12.351  0.00  0.00     0.028 H 
ATOM     27  C   LIG d   1       2.935  -2.363 -14.394  0.00  0.00    -0.022 C 
ATOM     28  C   LIG d   1       4.989  -1.048 -14.782  0.00  0.00    -0.073 C 
ATOM     29  H   LIG d   1       3.068  -0.171 -14.466  0.00  0.00     0.035 H 
ATOM     30  C   LIG d   1       1.532  -2.292 -13.794  0.00  0.00    -0.009 C 
ATOM     31  C   LIG d   1       2.854  -2.563 -15.906  0.00  0.00    -0.047 C 
ATOM     32  H   LIG d   1       0.979  -1.458 -14.251  0.00  0.00     0.031 H 
ATOM     33  H   LIG d   1       1.001  -3.235 -13.989  0.00  0.00     0.031 H 
ATOM     34  C   LIG d   1       4.267  -2.691 -16.489  0.00  0.00    -0.049 C 
ATOM     35  H   LIG d   1       2.286  -3.479 -16.126  0.00  0.00     0.027 H 
ATOM     36  H   LIG d   1       2.348  -1.700 -16.364  0.00  0.00     0.027 H 
ATOM     37  C   LIG d   1       5.034  -1.385 -16.256  0.00  0.00    -0.032 C 
ATOM     38  H   LIG d   1       4.794  -3.520 -15.993  0.00  0.00     0.027 H 
ATOM     39  H   LIG d   1       4.202  -2.891 -17.568  0.00  0.00     0.027 H 
ATOM     40  H   LIG d   1       6.078  -1.512 -16.578  0.00  0.00     0.031 H 
ATOM     41  H   LIG d   1       4.567  -0.577 -16.838  0.00  0.00     0.031 H 
ATOM     42  C   LIG d   1       6.086  -0.777 -14.118  0.00  0.00    -0.099 C 
ATOM     43  H   LIG d   1       6.034  -0.534 -13.047  0.00  0.00     0.053 H 
ATOM     44  H   LIG d   1       7.058  -0.793 -14.633  0.00  0.00     0.053 H 
ATOM     45  H   LIG d   1       0.523  -1.957 -12.038  0.00  0.00     0.074 H 
ATOM     46  O   LIG d   1       2.164  -3.191 -11.575  0.00  0.00    -0.461 OA
ATOM     47  C   LIG d   1       2.474  -2.746 -10.337  0.00  0.00     0.316 C 
ATOM     48  O   LIG d   1       2.538  -3.430  -9.342  0.00  0.00    -0.250 OA
ATOM     49  H   LIG d   1       2.093  -0.703  -9.680  0.00  0.00     0.047 H 
BRANCH  27  50
ATOM     50  C   LIG d   1       3.721  -3.516 -13.764  0.00  0.00    -0.059 C 
ATOM     51  H   LIG d   1       3.120  -4.436 -13.809  0.00  0.00     0.024 H 
ATOM     52  H   LIG d   1       3.945  -3.276 -12.715  0.00  0.00     0.024 H 
ATOM     53  H   LIG d   1       4.660  -3.664 -14.316  0.00  0.00     0.024 H 
ENDBRANCH  27  50
ENDBRANCH  16  19
ENDBRANCH   1  16
BRANCH   4  54
ATOM     54  C   LIG d   1       6.030  -2.171  -4.818  0.00  0.00     0.061 C 
ATOM     55  H   LIG d   1       5.491  -3.127  -4.730  0.00  0.00     0.056 H 
BRANCH  54  56
ATOM     56  C   LIG d   1       5.567  -1.214  -3.751  0.00  0.00    -0.026 A 
ATOM     57  C   LIG d   1       4.751  -1.661  -2.728  0.00  0.00    -0.057 A 
ATOM     58  C   LIG d   1       4.327  -0.782  -1.749  0.00  0.00    -0.061 A 
ATOM     59  H   LIG d   1       4.444  -2.696  -2.695  0.00  0.00     0.062 H 
ATOM     60  C   LIG d   1       4.718   0.543  -1.793  0.00  0.00    -0.062 A 
ATOM     61  H   LIG d   1       3.689  -1.131  -0.950  0.00  0.00     0.062 H 
ATOM     62  C   LIG d   1       5.534   0.989  -2.814  0.00  0.00    -0.061 A 
ATOM     63  H   LIG d   1       4.386   1.229  -1.027  0.00  0.00     0.062 H 
ATOM     64  C   LIG d   1       5.963   0.110  -3.791  0.00  0.00    -0.057 A 
ATOM     65  H   LIG d   1       5.840   2.025  -2.849  0.00  0.00     0.062 H 
ATOM     66  H   LIG d   1       6.604   0.458  -4.588  0.00  0.00     0.062 H 
ENDBRANCH  54  56
BRANCH  54  67
ATOM     67  C   LIG d   1       7.514  -2.398  -4.682  0.00  0.00    -0.026 A 
ATOM     68  C   LIG d   1       8.403  -1.550  -5.317  0.00  0.00    -0.055 A 
ATOM     69  C   LIG d   1       9.763  -1.758  -5.192  0.00  0.00    -0.043 A 
ATOM     70  H   LIG d   1       8.034  -0.727  -5.910  0.00  0.00     0.062 H 
ATOM     71  C   LIG d   1      10.236  -2.813  -4.433  0.00  0.00     0.041 A 
ATOM     72  H   LIG d   1      10.458  -1.096  -5.689  0.00  0.00     0.063 H 
ATOM     73  C   LIG d   1       9.345  -3.661  -3.798  0.00  0.00    -0.043 A 
ATOM     74 CL   LIG d   1      11.945  -3.075  -4.278  0.00  0.00    -0.084 Cl
ATOM     75  C   LIG d   1       7.985  -3.450  -3.919  0.00  0.00    -0.055 A 
ATOM     76  H   LIG d   1       9.713  -4.486  -3.205  0.00  0.00     0.063 H 
ATOM     77  H   LIG d   1       7.290  -4.108  -3.419  0.00  0.00     0.062 H 
ENDBRANCH  54  67
ENDBRANCH   4  54
TORSDOF 6
ENDMDL
MODEL 6
REMARK VINA RESULT:      -7.2      6.521     12.689
REMARK  6 active torsions:
REMARK  status: ('A' for Active; 'I' for Inactive)
REMARK    1  A    between atoms: C_1  and  C_2 
REMARK    2  A    between atoms: C_19  and  C_21 
REMARK    3  A    between atoms: C_21  and  N_22 
REMARK    4  A    between atoms: N_25  and  C_28 
REMARK    5  A    between atoms: C_28  and  C_30 
REMARK    6  A    between atoms: C_28  and  C_36 
ROOT
ATOM      1  N   LIG d   1       6.987  -5.060  -6.421  0.00  0.00     0.238 N 
ATOM      2  C   LIG d   1       7.348  -4.657  -5.054  0.00  0.00    -0.019 C 
ATOM      3  C   LIG d   1       7.445  -3.131  -4.985  0.00  0.00     0.040 C 
ATOM      4  N   LIG d   1       6.159  -2.541  -5.382  0.00  0.00    -0.281 N 
ATOM      5  C   LIG d   1       5.799  -2.944  -6.748  0.00  0.00     0.040 C 
ATOM      6  C   LIG d   1       5.701  -4.470  -6.818  0.00  0.00    -0.019 C 
ATOM      7  H   LIG d   1       6.577  -5.009  -4.353  0.00  0.00     0.083 H 
ATOM      8  H   LIG d   1       8.318  -5.100  -4.785  0.00  0.00     0.083 H 
ATOM      9  H   LIG d   1       7.688  -2.826  -3.956  0.00  0.00     0.048 H 
ATOM     10  H   LIG d   1       8.236  -2.782  -5.665  0.00  0.00     0.048 H 
ATOM     11  H   LIG d   1       4.828  -2.502  -7.017  0.00  0.00     0.048 H 
ATOM     12  H   LIG d   1       6.569  -2.593  -7.450  0.00  0.00     0.048 H 
ATOM     13  H   LIG d   1       5.460  -4.776  -7.847  0.00  0.00     0.083 H 
ATOM     14  H   LIG d   1       4.911  -4.821  -6.137  0.00  0.00     0.083 H 
ATOM     15  H   LIG d   1       7.761  -4.678  -7.103  0.00  0.00     0.203 HD
ENDROOT
BRANCH   1  16
ATOM     16  C   LIG d   1       6.958  -6.523  -6.548  0.00  0.00    -0.018 C 
ATOM     17  H   LIG d   1       7.985  -6.902  -6.651  0.00  0.00     0.082 H 
ATOM     18  H   LIG d   1       6.372  -6.802  -7.436  0.00  0.00     0.082 H 
BRANCH  16  19
ATOM     19  C   LIG d   1       6.313  -7.130  -5.300  0.00  0.00     0.102 C 
ATOM     20  C   LIG d   1       5.043  -7.947  -5.685  0.00  0.00     0.015 C 
ATOM     21  C   LIG d   1       5.224  -8.368  -7.145  0.00  0.00    -0.039 C 
ATOM     22  H   LIG d   1       4.061  -7.455  -5.609  0.00  0.00     0.035 H 
ATOM     23  C   LIG d   1       5.207  -9.149  -4.737  0.00  0.00     0.107 C 
ATOM     24  C   LIG d   1       4.300  -9.534  -7.485  0.00  0.00    -0.014 C 
ATOM     25  H   LIG d   1       6.270  -8.671  -7.302  0.00  0.00     0.028 H 
ATOM     26  H   LIG d   1       4.989  -7.512  -7.795  0.00  0.00     0.028 H 
ATOM     27  C   LIG d   1       4.704 -10.732  -6.615  0.00  0.00    -0.022 C 
ATOM     28  C   LIG d   1       4.468  -9.923  -8.935  0.00  0.00    -0.073 C 
ATOM     29  H   LIG d   1       3.254  -9.238  -7.318  0.00  0.00     0.035 H 
ATOM     30  C   LIG d   1       4.422 -10.368  -5.157  0.00  0.00    -0.009 C 
ATOM     31  C   LIG d   1       3.880 -11.952  -7.023  0.00  0.00    -0.047 C 
ATOM     32  H   LIG d   1       3.351 -10.153  -5.034  0.00  0.00     0.031 H 
ATOM     33  H   LIG d   1       4.705 -11.209  -4.508  0.00  0.00     0.031 H 
ATOM     34  C   LIG d   1       4.214 -12.342  -8.469  0.00  0.00    -0.049 C 
ATOM     35  H   LIG d   1       4.114 -12.794  -6.356  0.00  0.00     0.027 H 
ATOM     36  H   LIG d   1       2.809 -11.712  -6.949  0.00  0.00     0.027 H 
ATOM     37  C   LIG d   1       3.813 -11.202  -9.410  0.00  0.00    -0.032 C 
ATOM     38  H   LIG d   1       5.295 -12.528  -8.557  0.00  0.00     0.027 H 
ATOM     39  H   LIG d   1       3.662 -13.253  -8.740  0.00  0.00     0.027 H 
ATOM     40  H   LIG d   1       4.148 -11.435 -10.432  0.00  0.00     0.031 H 
ATOM     41  H   LIG d   1       2.719 -11.085  -9.401  0.00  0.00     0.031 H 
ATOM     42  C   LIG d   1       5.161  -9.175  -9.759  0.00  0.00    -0.099 C 
ATOM     43  H   LIG d   1       5.630  -8.249  -9.396  0.00  0.00     0.053 H 
ATOM     44  H   LIG d   1       5.273  -9.474 -10.811  0.00  0.00     0.053 H 
ATOM     45  H   LIG d   1       4.839  -8.968  -3.716  0.00  0.00     0.074 H 
ATOM     46  O   LIG d   1       6.647  -9.372  -4.716  0.00  0.00    -0.461 OA
ATOM     47  C   LIG d   1       7.237  -8.157  -4.672  0.00  0.00     0.316 C 
ATOM     48  O   LIG d   1       8.327  -7.925  -4.205  0.00  0.00    -0.250 OA
ATOM     49  H   LIG d   1       6.112  -6.292  -4.618  0.00  0.00     0.047 H 
BRANCH  27  50
ATOM     50  C   LIG d   1       6.193 -11.029  -6.806  0.00  0.00    -0.059 C 
ATOM     51  H   LIG d   1       6.664 -10.203  -7.359  0.00  0.00     0.024 H 
ATOM     52  H   LIG d   1       6.310 -11.963  -7.374  0.00  0.00     0.024 H 
ATOM     53  H   LIG d   1       6.675 -11.134  -5.824  0.00  0.00     0.024 H 
ENDBRANCH  27  50
ENDBRANCH  16  19
ENDBRANCH   1  16
BRANCH   4  54
ATOM     54  C   LIG d   1       6.189  -1.078  -5.254  0.00  0.00     0.061 C 
ATOM     55  H   LIG d   1       7.240  -0.755  -5.277  0.00  0.00     0.056 H 
BRANCH  54  56
ATOM     56  C   LIG d   1       5.549  -0.674  -3.953  0.00  0.00    -0.026 A 
ATOM     57  C   LIG d   1       4.880  -1.614  -3.190  0.00  0.00    -0.057 A 
ATOM     58  C   LIG d   1       4.293  -1.243  -1.995  0.00  0.00    -0.061 A 
ATOM     59  H   LIG d   1       4.816  -2.637  -3.528  0.00  0.00     0.062 H 
ATOM     60  C   LIG d   1       4.374   0.068  -1.562  0.00  0.00    -0.062 A 
ATOM     61  H   LIG d   1       3.770  -1.977  -1.399  0.00  0.00     0.062 H 
ATOM     62  C   LIG d   1       5.043   1.007  -2.323  0.00  0.00    -0.061 A 
ATOM     63  H   LIG d   1       3.915   0.357  -0.628  0.00  0.00     0.062 H 
ATOM     64  C   LIG d   1       5.635   0.635  -3.516  0.00  0.00    -0.057 A 
ATOM     65  H   LIG d   1       5.107   2.031  -1.986  0.00  0.00     0.062 H 
ATOM     66  H   LIG d   1       6.162   1.368  -4.110  0.00  0.00     0.062 H 
ENDBRANCH  54  56
BRANCH  54  67
ATOM     67  C   LIG d   1       5.432  -0.460  -6.401  0.00  0.00    -0.026 A 
ATOM     68  C   LIG d   1       4.049  -0.497  -6.416  0.00  0.00    -0.055 A 
ATOM     69  C   LIG d   1       3.354   0.070  -7.468  0.00  0.00    -0.043 A 
ATOM     70  H   LIG d   1       3.513  -0.970  -5.606  0.00  0.00     0.062 H 
ATOM     71  C   LIG d   1       4.040   0.674  -8.505  0.00  0.00     0.041 A 
ATOM     72  H   LIG d   1       2.274   0.040  -7.479  0.00  0.00     0.063 H 
ATOM     73  C   LIG d   1       5.424   0.711  -8.490  0.00  0.00    -0.043 A 
ATOM     74 CL   LIG d   1       3.167   1.384  -9.827  0.00  0.00    -0.084 Cl
ATOM     75  C   LIG d   1       6.118   0.148  -7.435  0.00  0.00    -0.055 A 
ATOM     76  H   LIG d   1       5.961   1.182  -9.300  0.00  0.00     0.063 H 
ATOM     77  H   LIG d   1       7.198   0.182  -7.421  0.00  0.00     0.062 H 
ENDBRANCH  54  67
ENDBRANCH   4  54
TORSDOF 6
ENDMDL
MODEL 7
REMARK VINA RESULT:      -7.2      6.975     12.700
REMARK  6 active torsions:
REMARK  status: ('A' for Active; 'I' for Inactive)
REMARK    1  A    between atoms: C_1  and  C_2 
REMARK    2  A    between atoms: C_19  and  C_21 
REMARK    3  A    between atoms: C_21  and  N_22 
REMARK    4  A    between atoms: N_25  and  C_28 
REMARK    5  A    between atoms: C_28  and  C_30 
REMARK    6  A    between atoms: C_28  and  C_36 
ROOT
ATOM      1  N   LIG d   1       4.883  -5.132  -6.611  0.00  0.00     0.238 N 
ATOM      2  C   LIG d   1       4.891  -4.748  -5.192  0.00  0.00    -0.019 C 
ATOM      3  C   LIG d   1       5.542  -3.370  -5.044  0.00  0.00     0.040 C 
ATOM      4  N   LIG d   1       4.798  -2.390  -5.848  0.00  0.00    -0.281 N 
ATOM      5  C   LIG d   1       4.789  -2.774  -7.265  0.00  0.00     0.040 C 
ATOM      6  C   LIG d   1       4.139  -4.152  -7.415  0.00  0.00    -0.019 C 
ATOM      7  H   LIG d   1       3.858  -4.709  -4.817  0.00  0.00     0.083 H 
ATOM      8  H   LIG d   1       5.463  -5.489  -4.615  0.00  0.00     0.083 H 
ATOM      9  H   LIG d   1       5.523  -3.068  -3.986  0.00  0.00     0.048 H 
ATOM     10  H   LIG d   1       6.584  -3.417  -5.393  0.00  0.00     0.048 H 
ATOM     11  H   LIG d   1       4.217  -2.034  -7.843  0.00  0.00     0.048 H 
ATOM     12  H   LIG d   1       5.823  -2.813  -7.642  0.00  0.00     0.048 H 
ATOM     13  H   LIG d   1       4.158  -4.455  -8.472  0.00  0.00     0.083 H 
ATOM     14  H   LIG d   1       3.097  -4.107  -7.065  0.00  0.00     0.083 H 
ATOM     15  H   LIG d   1       5.924  -5.142  -6.966  0.00  0.00     0.203 HD
ENDROOT
BRANCH   1  16
ATOM     16  C   LIG d   1       4.334  -6.483  -6.787  0.00  0.00    -0.018 C 
ATOM     17  H   LIG d   1       3.235  -6.438  -6.766  0.00  0.00     0.082 H 
ATOM     18  H   LIG d   1       4.690  -7.132  -5.973  0.00  0.00     0.082 H 
BRANCH  16  19
ATOM     19  C   LIG d   1       4.795  -7.050  -8.131  0.00  0.00     0.102 C 
ATOM     20  C   LIG d   1       6.007  -8.010  -7.931  0.00  0.00     0.015 C 
ATOM     21  C   LIG d   1       5.920  -8.523  -6.492  0.00  0.00    -0.039 C 
ATOM     22  H   LIG d   1       7.022  -7.608  -8.071  0.00  0.00     0.035 H 
ATOM     23  C   LIG d   1       5.635  -9.114  -8.938  0.00  0.00     0.107 C 
ATOM     24  C   LIG d   1       6.749  -9.794  -6.326  0.00  0.00    -0.014 C 
ATOM     25  H   LIG d   1       4.868  -8.738  -6.253  0.00  0.00     0.028 H 
ATOM     26  H   LIG d   1       6.300  -7.746  -5.812  0.00  0.00     0.028 H 
ATOM     27  C   LIG d   1       6.147 -10.878  -7.231  0.00  0.00    -0.022 C 
ATOM     28  C   LIG d   1       6.678 -10.277  -4.896  0.00  0.00    -0.073 C 
ATOM     29  H   LIG d   1       7.799  -9.586  -6.576  0.00  0.00     0.035 H 
ATOM     30  C   LIG d   1       6.328 -10.430  -8.681  0.00  0.00    -0.009 C 
ATOM     31  C   LIG d   1       6.878 -12.198  -6.990  0.00  0.00    -0.047 C 
ATOM     32  H   LIG d   1       7.400 -10.308  -8.896  0.00  0.00     0.031 H 
ATOM     33  H   LIG d   1       5.903 -11.188  -9.355  0.00  0.00     0.031 H 
ATOM     34  C   LIG d   1       6.641 -12.666  -5.549  0.00  0.00    -0.049 C 
ATOM     35  H   LIG d   1       6.499 -12.960  -7.686  0.00  0.00     0.027 H 
ATOM     36  H   LIG d   1       7.956 -12.055  -7.154  0.00  0.00     0.027 H 
ATOM     37  C   LIG d   1       7.241 -11.644  -4.577  0.00  0.00    -0.032 C 
ATOM     38  H   LIG d   1       5.560 -12.756  -5.366  0.00  0.00     0.027 H 
ATOM     39  H   LIG d   1       7.121 -13.643  -5.397  0.00  0.00     0.027 H 
ATOM     40  H   LIG d   1       6.981 -11.924  -3.545  0.00  0.00     0.031 H 
ATOM     41  H   LIG d   1       8.336 -11.631  -4.687  0.00  0.00     0.031 H 
ATOM     42  C   LIG d   1       6.143  -9.532  -3.959  0.00  0.00    -0.099 C 
ATOM     43  H   LIG d   1       5.738  -8.541  -4.209  0.00  0.00     0.053 H 
ATOM     44  H   LIG d   1       6.099  -9.900  -2.923  0.00  0.00     0.053 H 
ATOM     45  H   LIG d   1       5.924  -8.890  -9.975  0.00  0.00     0.074 H 
ATOM     46  O   LIG d   1       4.185  -9.199  -8.830  0.00  0.00    -0.461 OA
ATOM     47  C   LIG d   1       3.718  -7.933  -8.732  0.00  0.00     0.316 C 
ATOM     48  O   LIG d   1       2.619  -7.565  -9.071  0.00  0.00    -0.250 OA
ATOM     49  H   LIG d   1       5.017  -6.184  -8.771  0.00  0.00     0.047 H 
BRANCH  27  50
ATOM     50  C   LIG d   1       4.660 -11.048  -6.913  0.00  0.00    -0.059 C 
ATOM     51  H   LIG d   1       4.068 -10.879  -7.824  0.00  0.00     0.024 H 
ATOM     52  H   LIG d   1       4.364 -10.319  -6.144  0.00  0.00     0.024 H 
ATOM     53  H   LIG d   1       4.479 -12.066  -6.541  0.00  0.00     0.024 H 
ENDBRANCH  27  50
ENDBRANCH  16  19
ENDBRANCH   1  16
BRANCH   4  54
ATOM     54  C   LIG d   1       5.347  -1.039  -5.671  0.00  0.00     0.061 C 
ATOM     55  H   LIG d   1       6.444  -1.113  -5.674  0.00  0.00     0.056 H 
BRANCH  54  56
ATOM     56  C   LIG d   1       4.869  -0.470  -4.361  0.00  0.00    -0.026 A 
ATOM     57  C   LIG d   1       5.689   0.372  -3.632  0.00  0.00    -0.057 A 
ATOM     58  C   LIG d   1       5.250   0.894  -2.431  0.00  0.00    -0.061 A 
ATOM     59  H   LIG d   1       6.673   0.620  -4.002  0.00  0.00     0.062 H 
ATOM     60  C   LIG d   1       3.991   0.575  -1.956  0.00  0.00    -0.062 A 
ATOM     61  H   LIG d   1       5.890   1.551  -1.861  0.00  0.00     0.062 H 
ATOM     62  C   LIG d   1       3.171  -0.265  -2.684  0.00  0.00    -0.061 A 
ATOM     63  H   LIG d   1       3.649   0.984  -1.017  0.00  0.00     0.062 H 
ATOM     64  C   LIG d   1       3.607  -0.784  -3.889  0.00  0.00    -0.057 A 
ATOM     65  H   LIG d   1       2.187  -0.515  -2.314  0.00  0.00     0.062 H 
ATOM     66  H   LIG d   1       2.965  -1.438  -4.461  0.00  0.00     0.062 H 
ENDBRANCH  54  56
BRANCH  54  67
ATOM     67  C   LIG d   1       4.883  -0.158  -6.802  0.00  0.00    -0.026 A 
ATOM     68  C   LIG d   1       5.804   0.376  -7.685  0.00  0.00    -0.055 A 
ATOM     69  C   LIG d   1       5.379   1.184  -8.721  0.00  0.00    -0.043 A 
ATOM     70  H   LIG d   1       6.856   0.160  -7.563  0.00  0.00     0.062 H 
ATOM     71  C   LIG d   1       4.033   1.461  -8.876  0.00  0.00     0.041 A 
ATOM     72  H   LIG d   1       6.099   1.602  -9.411  0.00  0.00     0.063 H 
ATOM     73  C   LIG d   1       3.111   0.927  -7.992  0.00  0.00    -0.043 A 
ATOM     74 CL   LIG d   1       3.499   2.479 -10.178  0.00  0.00    -0.084 Cl
ATOM     75  C   LIG d   1       3.537   0.114  -6.958  0.00  0.00    -0.055 A 
ATOM     76  H   LIG d   1       2.060   1.143  -8.112  0.00  0.00     0.063 H 
ATOM     77  H   LIG d   1       2.817  -0.307  -6.272  0.00  0.00     0.062 H 
ENDBRANCH  54  67
ENDBRANCH   4  54
TORSDOF 6
ENDMDL
MODEL 8
REMARK VINA RESULT:      -7.1      1.768      2.759
REMARK  6 active torsions:
REMARK  status: ('A' for Active; 'I' for Inactive)
REMARK    1  A    between atoms: C_1  and  C_2 
REMARK    2  A    between atoms: C_19  and  C_21 
REMARK    3  A    between atoms: C_21  and  N_22 
REMARK    4  A    between atoms: N_25  and  C_28 
REMARK    5  A    between atoms: C_28  and  C_30 
REMARK    6  A    between atoms: C_28  and  C_36 
ROOT
ATOM      1  N   LIG d   1       7.883   2.439  -4.937  0.00  0.00     0.238 N 
ATOM      2  C   LIG d   1       7.581   1.713  -3.695  0.00  0.00    -0.019 C 
ATOM      3  C   LIG d   1       6.570   0.602  -3.991  0.00  0.00     0.040 C 
ATOM      4  N   LIG d   1       7.124  -0.305  -5.006  0.00  0.00    -0.281 N 
ATOM      5  C   LIG d   1       7.426   0.421  -6.247  0.00  0.00     0.040 C 
ATOM      6  C   LIG d   1       8.437   1.532  -5.952  0.00  0.00    -0.019 C 
ATOM      7  H   LIG d   1       8.505   1.271  -3.295  0.00  0.00     0.083 H 
ATOM      8  H   LIG d   1       7.157   2.409  -2.957  0.00  0.00     0.083 H 
ATOM      9  H   LIG d   1       6.364   0.039  -3.068  0.00  0.00     0.048 H 
ATOM     10  H   LIG d   1       5.636   1.046  -4.364  0.00  0.00     0.048 H 
ATOM     11  H   LIG d   1       7.850  -0.274  -6.986  0.00  0.00     0.048 H 
ATOM     12  H   LIG d   1       6.501   0.863  -6.648  0.00  0.00     0.048 H 
ATOM     13  H   LIG d   1       8.642   2.097  -6.874  0.00  0.00     0.083 H 
ATOM     14  H   LIG d   1       9.371   1.090  -5.578  0.00  0.00     0.083 H 
ATOM     15  H   LIG d   1       6.941   2.851  -5.327  0.00  0.00     0.203 HD
ENDROOT
BRANCH   1  16
ATOM     16  C   LIG d   1       8.793   3.563  -4.681  0.00  0.00    -0.018 C 
ATOM     17  H   LIG d   1       8.655   3.919  -3.649  0.00  0.00     0.082 H 
ATOM     18  H   LIG d   1       8.573   4.380  -5.383  0.00  0.00     0.082 H 
BRANCH  16  19
ATOM     19  C   LIG d   1      10.239   3.102  -4.872  0.00  0.00     0.102 C 
ATOM     20  C   LIG d   1      11.004   4.081  -5.812  0.00  0.00     0.015 C 
ATOM     21  C   LIG d   1      10.282   5.427  -5.715  0.00  0.00    -0.039 C 
ATOM     22  H   LIG d   1      11.080   3.830  -6.881  0.00  0.00     0.035 H 
ATOM     23  C   LIG d   1      12.364   4.128  -5.091  0.00  0.00     0.107 C 
ATOM     24  C   LIG d   1      11.186   6.556  -6.206  0.00  0.00    -0.014 C 
ATOM     25  H   LIG d   1      10.005   5.609  -4.667  0.00  0.00     0.028 H 
ATOM     26  H   LIG d   1       9.373   5.390  -6.334  0.00  0.00     0.028 H 
ATOM     27  C   LIG d   1      12.405   6.628  -5.276  0.00  0.00    -0.022 C 
ATOM     28  C   LIG d   1      10.454   7.876  -6.131  0.00  0.00    -0.073 C 
ATOM     29  H   LIG d   1      11.475   6.372  -7.250  0.00  0.00     0.035 H 
ATOM     30  C   LIG d   1      13.200   5.334  -5.446  0.00  0.00    -0.009 C 
ATOM     31  C   LIG d   1      13.264   7.830  -5.665  0.00  0.00    -0.047 C 
ATOM     32  H   LIG d   1      13.525   5.238  -6.492  0.00  0.00     0.031 H 
ATOM     33  H   LIG d   1      14.081   5.355  -4.788  0.00  0.00     0.031 H 
ATOM     34  C   LIG d   1      12.476   9.126  -5.436  0.00  0.00    -0.049 C 
ATOM     35  H   LIG d   1      14.175   7.845  -5.049  0.00  0.00     0.027 H 
ATOM     36  H   LIG d   1      13.540   7.755  -6.727  0.00  0.00     0.027 H 
ATOM     37  C   LIG d   1      11.249   9.144  -6.353  0.00  0.00    -0.032 C 
ATOM     38  H   LIG d   1      12.151   9.176  -4.387  0.00  0.00     0.027 H 
ATOM     39  H   LIG d   1      13.116   9.990  -5.663  0.00  0.00     0.027 H 
ATOM     40  H   LIG d   1      10.627  10.020  -6.115  0.00  0.00     0.031 H 
ATOM     41  H   LIG d   1      11.574   9.200  -7.402  0.00  0.00     0.031 H 
ATOM     42  C   LIG d   1       9.168   7.921  -5.882  0.00  0.00    -0.099 C 
ATOM     43  H   LIG d   1       8.606   6.988  -5.722  0.00  0.00     0.053 H 
ATOM     44  H   LIG d   1       8.651   8.890  -5.830  0.00  0.00     0.053 H 
ATOM     45  H   LIG d   1      13.033   3.291  -5.341  0.00  0.00     0.074 H 
ATOM     46  O   LIG d   1      12.003   4.075  -3.680  0.00  0.00    -0.461 OA
ATOM     47  C   LIG d   1      10.998   3.179  -3.560  0.00  0.00     0.316 C 
ATOM     48  O   LIG d   1      10.745   2.540  -2.566  0.00  0.00    -0.250 OA
ATOM     49  H   LIG d   1      10.186   2.072  -5.253  0.00  0.00     0.047 H 
BRANCH  27  50
ATOM     50  C   LIG d   1      11.940   6.776  -3.826  0.00  0.00    -0.059 C 
ATOM     51  H   LIG d   1      12.330   7.716  -3.410  0.00  0.00     0.024 H 
ATOM     52  H   LIG d   1      12.316   5.930  -3.233  0.00  0.00     0.024 H 
ATOM     53  H   LIG d   1      10.842   6.788  -3.793  0.00  0.00     0.024 H 
ENDBRANCH  27  50
ENDBRANCH  16  19
ENDBRANCH   1  16
BRANCH   4  54
ATOM     54  C   LIG d   1       6.213  -1.429  -5.261  0.00  0.00     0.061 C 
ATOM     55  H   LIG d   1       5.897  -1.380  -6.314  0.00  0.00     0.056 H 
BRANCH  54  56
ATOM     56  C   LIG d   1       5.016  -1.321  -4.354  0.00  0.00    -0.026 A 
ATOM     57  C   LIG d   1       5.016  -1.965  -3.130  0.00  0.00    -0.057 A 
ATOM     58  C   LIG d   1       3.918  -1.866  -2.297  0.00  0.00    -0.061 A 
ATOM     59  H   LIG d   1       5.874  -2.546  -2.825  0.00  0.00     0.062 H 
ATOM     60  C   LIG d   1       2.819  -1.123  -2.687  0.00  0.00    -0.062 A 
ATOM     61  H   LIG d   1       3.917  -2.369  -1.341  0.00  0.00     0.062 H 
ATOM     62  C   LIG d   1       2.819  -0.479  -3.909  0.00  0.00    -0.061 A 
ATOM     63  H   LIG d   1       1.960  -1.047  -2.036  0.00  0.00     0.062 H 
ATOM     64  C   LIG d   1       3.919  -0.573  -4.740  0.00  0.00    -0.057 A 
ATOM     65  H   LIG d   1       1.960   0.101  -4.215  0.00  0.00     0.062 H 
ATOM     66  H   LIG d   1       3.921  -0.067  -5.695  0.00  0.00     0.062 H 
ENDBRANCH  54  56
BRANCH  54  67
ATOM     67  C   LIG d   1       6.932  -2.726  -4.994  0.00  0.00    -0.026 A 
ATOM     68  C   LIG d   1       8.056  -2.740  -4.188  0.00  0.00    -0.055 A 
ATOM     69  C   LIG d   1       8.716  -3.930  -3.944  0.00  0.00    -0.043 A 
ATOM     70  H   LIG d   1       8.418  -1.821  -3.751  0.00  0.00     0.062 H 
ATOM     71  C   LIG d   1       8.253  -5.106  -4.505  0.00  0.00     0.041 A 
ATOM     72  H   LIG d   1       9.595  -3.940  -3.315  0.00  0.00     0.063 H 
ATOM     73  C   LIG d   1       7.128  -5.091  -5.312  0.00  0.00    -0.043 A 
ATOM     74 CL   LIG d   1       9.083  -6.600  -4.200  0.00  0.00    -0.084 Cl
ATOM     75  C   LIG d   1       6.466  -3.901  -5.552  0.00  0.00    -0.055 A 
ATOM     76  H   LIG d   1       6.766  -6.009  -5.751  0.00  0.00     0.063 H 
ATOM     77  H   LIG d   1       5.585  -3.891  -6.177  0.00  0.00     0.062 H 
ENDBRANCH  54  67
ENDBRANCH   4  54
TORSDOF 6
ENDMDL
MODEL 9
REMARK VINA RESULT:      -7.1      2.599      3.605
REMARK  6 active torsions:
REMARK  status: ('A' for Active; 'I' for Inactive)
REMARK    1  A    between atoms: C_1  and  C_2 
REMARK    2  A    between atoms: C_19  and  C_21 
REMARK    3  A    between atoms: C_21  and  N_22 
REMARK    4  A    between atoms: N_25  and  C_28 
REMARK    5  A    between atoms: C_28  and  C_30 
REMARK    6  A    between atoms: C_28  and  C_36 
ROOT
ATOM      1  N   LIG d   1       9.596   2.322  -5.765  0.00  0.00     0.238 N 
ATOM      2  C   LIG d   1       9.214   2.383  -7.183  0.00  0.00    -0.019 C 
ATOM      3  C   LIG d   1       8.477   1.096  -7.565  0.00  0.00     0.040 C 
ATOM      4  N   LIG d   1       7.293   0.939  -6.709  0.00  0.00    -0.281 N 
ATOM      5  C   LIG d   1       7.676   0.879  -5.292  0.00  0.00     0.040 C 
ATOM      6  C   LIG d   1       8.412   2.165  -4.909  0.00  0.00    -0.019 C 
ATOM      7  H   LIG d   1       8.553   3.247  -7.347  0.00  0.00     0.083 H 
ATOM      8  H   LIG d   1      10.116   2.488  -7.802  0.00  0.00     0.083 H 
ATOM      9  H   LIG d   1       8.165   1.152  -8.619  0.00  0.00     0.048 H 
ATOM     10  H   LIG d   1       9.148   0.235  -7.427  0.00  0.00     0.048 H 
ATOM     11  H   LIG d   1       6.773   0.774  -4.672  0.00  0.00     0.048 H 
ATOM     12  H   LIG d   1       8.336   0.014  -5.127  0.00  0.00     0.048 H 
ATOM     13  H   LIG d   1       8.726   2.110  -3.856  0.00  0.00     0.083 H 
ATOM     14  H   LIG d   1       7.743   3.027  -5.048  0.00  0.00     0.083 H 
ATOM     15  H   LIG d   1      10.237   1.439  -5.624  0.00  0.00     0.203 HD
ENDROOT
BRANCH   1  16
ATOM     16  C   LIG d   1      10.373   3.508  -5.378  0.00  0.00    -0.018 C 
ATOM     17  H   LIG d   1      11.431   3.353  -5.638  0.00  0.00     0.082 H 
ATOM     18  H   LIG d   1      10.281   3.668  -4.294  0.00  0.00     0.082 H 
BRANCH  16  19
ATOM     19  C   LIG d   1       9.838   4.732  -6.123  0.00  0.00     0.102 C 
ATOM     20  C   LIG d   1       9.185   5.735  -5.124  0.00  0.00     0.015 C 
ATOM     21  C   LIG d   1       9.829   5.471  -3.762  0.00  0.00    -0.039 C 
ATOM     22  H   LIG d   1       8.095   5.697  -4.980  0.00  0.00     0.035 H 
ATOM     23  C   LIG d   1       9.683   7.063  -5.725  0.00  0.00     0.107 C 
ATOM     24  C   LIG d   1       9.627   6.665  -2.832  0.00  0.00    -0.014 C 
ATOM     25  H   LIG d   1      10.906   5.295  -3.903  0.00  0.00     0.028 H 
ATOM     26  H   LIG d   1       9.367   4.577  -3.316  0.00  0.00     0.028 H 
ATOM     27  C   LIG d   1      10.347   7.874  -3.447  0.00  0.00    -0.022 C 
ATOM     28  C   LIG d   1      10.243   6.382  -1.482  0.00  0.00    -0.073 C 
ATOM     29  H   LIG d   1       8.552   6.851  -2.697  0.00  0.00     0.035 H 
ATOM     30  C   LIG d   1       9.642   8.222  -4.757  0.00  0.00    -0.009 C 
ATOM     31  C   LIG d   1      10.270   9.051  -2.477  0.00  0.00    -0.047 C 
ATOM     32  H   LIG d   1       8.590   8.469  -4.553  0.00  0.00     0.031 H 
ATOM     33  H   LIG d   1      10.139   9.085  -5.223  0.00  0.00     0.031 H 
ATOM     34  C   LIG d   1      11.029   8.712  -1.188  0.00  0.00    -0.049 C 
ATOM     35  H   LIG d   1      10.721   9.940  -2.941  0.00  0.00     0.027 H 
ATOM     36  H   LIG d   1       9.217   9.259  -2.235  0.00  0.00     0.027 H 
ATOM     37  C   LIG d   1      10.353   7.524  -0.496  0.00  0.00    -0.032 C 
ATOM     38  H   LIG d   1      12.069   8.450  -1.434  0.00  0.00     0.027 H 
ATOM     39  H   LIG d   1      11.019   9.582  -0.516  0.00  0.00     0.027 H 
ATOM     40  H   LIG d   1      10.956   7.213   0.370  0.00  0.00     0.031 H 
ATOM     41  H   LIG d   1       9.349   7.820  -0.156  0.00  0.00     0.031 H 
ATOM     42  C   LIG d   1      10.670   5.182  -1.174  0.00  0.00    -0.099 C 
ATOM     43  H   LIG d   1      10.582   4.363  -1.903  0.00  0.00     0.053 H 
ATOM     44  H   LIG d   1      11.116   4.994  -0.186  0.00  0.00     0.053 H 
ATOM     45  H   LIG d   1       9.075   7.431  -6.564  0.00  0.00     0.074 H 
ATOM     46  O   LIG d   1      11.029   6.746  -6.184  0.00  0.00    -0.461 OA
ATOM     47  C   LIG d   1      10.979   5.517  -6.743  0.00  0.00     0.316 C 
ATOM     48  O   LIG d   1      11.725   5.107  -7.601  0.00  0.00    -0.250 OA
ATOM     49  H   LIG d   1       9.143   4.351  -6.885  0.00  0.00     0.047 H 
BRANCH  27  50
ATOM     50  C   LIG d   1      11.812   7.521  -3.712  0.00  0.00    -0.059 C 
ATOM     51  H   LIG d   1      12.032   7.650  -4.782  0.00  0.00     0.024 H 
ATOM     52  H   LIG d   1      11.995   6.476  -3.425  0.00  0.00     0.024 H 
ATOM     53  H   LIG d   1      12.461   8.183  -3.122  0.00  0.00     0.024 H 
ENDBRANCH  27  50
ENDBRANCH  16  19
ENDBRANCH   1  16
BRANCH   4  54
ATOM     54  C   LIG d   1       6.517  -0.246  -7.097  0.00  0.00     0.061 C 
ATOM     55  H   LIG d   1       7.219  -1.008  -7.469  0.00  0.00     0.056 H 
BRANCH  54  56
ATOM     56  C   LIG d   1       5.535   0.127  -8.176  0.00  0.00    -0.026 A 
ATOM     57  C   LIG d   1       5.401   1.448  -8.563  0.00  0.00    -0.057 A 
ATOM     58  C   LIG d   1       4.500   1.790  -9.553  0.00  0.00    -0.061 A 
ATOM     59  H   LIG d   1       6.000   2.212  -8.090  0.00  0.00     0.062 H 
ATOM     60  C   LIG d   1       3.733   0.811 -10.158  0.00  0.00    -0.062 A 
ATOM     61  H   LIG d   1       4.395   2.822  -9.855  0.00  0.00     0.062 H 
ATOM     62  C   LIG d   1       3.867  -0.508  -9.773  0.00  0.00    -0.061 A 
ATOM     63  H   LIG d   1       3.029   1.080 -10.932  0.00  0.00     0.062 H 
ATOM     64  C   LIG d   1       4.772  -0.852  -8.786  0.00  0.00    -0.057 A 
ATOM     65  H   LIG d   1       3.268  -1.273 -10.245  0.00  0.00     0.062 H 
ATOM     66  H   LIG d   1       4.880  -1.884  -8.487  0.00  0.00     0.062 H 
ENDBRANCH  54  56
BRANCH  54  67
ATOM     67  C   LIG d   1       5.771  -0.771  -5.897  0.00  0.00    -0.026 A 
ATOM     68  C   LIG d   1       4.649  -0.106  -5.436  0.00  0.00    -0.055 A 
ATOM     69  C   LIG d   1       3.965  -0.587  -4.336  0.00  0.00    -0.043 A 
ATOM     70  H   LIG d   1       4.308   0.788  -5.937  0.00  0.00     0.062 H 
ATOM     71  C   LIG d   1       4.401  -1.732  -3.695  0.00  0.00     0.041 A 
ATOM     72  H   LIG d   1       3.088  -0.067  -3.976  0.00  0.00     0.063 H 
ATOM     73  C   LIG d   1       5.525  -2.397  -4.156  0.00  0.00    -0.043 A 
ATOM     74 CL   LIG d   1       3.543  -2.335  -2.312  0.00  0.00    -0.084 Cl
ATOM     75  C   LIG d   1       6.205  -1.918  -5.260  0.00  0.00    -0.055 A 
ATOM     76  H   LIG d   1       5.867  -3.291  -3.657  0.00  0.00     0.063 H 
ATOM     77  H   LIG d   1       7.079  -2.440  -5.624  0.00  0.00     0.062 H 
ENDBRANCH  54  67
ENDBRANCH   4  54
TORSDOF 6
ENDMDL
MODEL 10
REMARK VINA RESULT:      -7.0      1.740      2.490
REMARK  6 active torsions:
REMARK  status: ('A' for Active; 'I' for Inactive)
REMARK    1  A    between atoms: C_1  and  C_2 
REMARK    2  A    between atoms: C_19  and  C_21 
REMARK    3  A    between atoms: C_21  and  N_22 
REMARK    4  A    between atoms: N_25  and  C_28 
REMARK    5  A    between atoms: C_28  and  C_30 
REMARK    6  A    between atoms: C_28  and  C_36 
ROOT
ATOM      1  N   LIG d   1       9.446   2.157  -4.638  0.00  0.00     0.238 N 
ATOM      2  C   LIG d   1       8.335   2.051  -3.682  0.00  0.00    -0.019 C 
ATOM      3  C   LIG d   1       7.275   1.099  -4.241  0.00  0.00     0.040 C 
ATOM      4  N   LIG d   1       7.882  -0.217  -4.488  0.00  0.00    -0.281 N 
ATOM      5  C   LIG d   1       8.992  -0.110  -5.444  0.00  0.00     0.040 C 
ATOM      6  C   LIG d   1      10.053   0.842  -4.885  0.00  0.00    -0.019 C 
ATOM      7  H   LIG d   1       8.712   1.660  -2.725  0.00  0.00     0.083 H 
ATOM      8  H   LIG d   1       7.891   3.044  -3.523  0.00  0.00     0.083 H 
ATOM      9  H   LIG d   1       6.455   0.995  -3.514  0.00  0.00     0.048 H 
ATOM     10  H   LIG d   1       6.878   1.504  -5.184  0.00  0.00     0.048 H 
ATOM     11  H   LIG d   1       9.437  -1.103  -5.602  0.00  0.00     0.048 H 
ATOM     12  H   LIG d   1       8.616   0.280  -6.401  0.00  0.00     0.048 H 
ATOM     13  H   LIG d   1      10.872   0.947  -5.612  0.00  0.00     0.083 H 
ATOM     14  H   LIG d   1      10.449   0.439  -3.942  0.00  0.00     0.083 H 
ATOM     15  H   LIG d   1       9.040   2.528  -5.591  0.00  0.00     0.203 HD
ENDROOT
BRANCH   1  16
ATOM     16  C   LIG d   1      10.451   3.122  -4.172  0.00  0.00    -0.018 C 
ATOM     17  H   LIG d   1      10.939   3.591  -5.039  0.00  0.00     0.082 H 
ATOM     18  H   LIG d   1      11.205   2.601  -3.564  0.00  0.00     0.082 H 
BRANCH  16  19
ATOM     19  C   LIG d   1       9.770   4.200  -3.326  0.00  0.00     0.102 C 
ATOM     20  C   LIG d   1      10.678   4.608  -2.128  0.00  0.00     0.015 C 
ATOM     21  C   LIG d   1      12.114   4.280  -2.542  0.00  0.00    -0.039 C 
ATOM     22  H   LIG d   1      10.505   4.131  -1.152  0.00  0.00     0.035 H 
ATOM     23  C   LIG d   1      10.436   6.129  -2.124  0.00  0.00     0.107 C 
ATOM     24  C   LIG d   1      13.111   5.045  -1.675  0.00  0.00    -0.014 C 
ATOM     25  H   LIG d   1      12.256   4.561  -3.596  0.00  0.00     0.028 H 
ATOM     26  H   LIG d   1      12.282   3.199  -2.425  0.00  0.00     0.028 H 
ATOM     27  C   LIG d   1      12.900   6.546  -1.920  0.00  0.00    -0.022 C 
ATOM     28  C   LIG d   1      14.524   4.693  -2.074  0.00  0.00    -0.073 C 
ATOM     29  H   LIG d   1      12.965   4.777  -0.619  0.00  0.00     0.035 H 
ATOM     30  C   LIG d   1      11.509   6.914  -1.406  0.00  0.00    -0.009 C 
ATOM     31  C   LIG d   1      13.968   7.334  -1.162  0.00  0.00    -0.047 C 
ATOM     32  H   LIG d   1      11.444   6.692  -0.331  0.00  0.00     0.031 H 
ATOM     33  H   LIG d   1      11.329   7.986  -1.571  0.00  0.00     0.031 H 
ATOM     34  C   LIG d   1      15.356   7.000  -1.725  0.00  0.00    -0.049 C 
ATOM     35  H   LIG d   1      13.780   8.411  -1.276  0.00  0.00     0.027 H 
ATOM     36  H   LIG d   1      13.934   7.066  -0.096  0.00  0.00     0.027 H 
ATOM     37  C   LIG d   1      15.654   5.515  -1.494  0.00  0.00    -0.032 C 
ATOM     38  H   LIG d   1      15.375   7.215  -2.803  0.00  0.00     0.027 H 
ATOM     39  H   LIG d   1      16.115   7.610  -1.215  0.00  0.00     0.027 H 
ATOM     40  H   LIG d   1      16.601   5.250  -1.989  0.00  0.00     0.031 H 
ATOM     41  H   LIG d   1      15.739   5.321  -0.414  0.00  0.00     0.031 H 
ATOM     42  C   LIG d   1      14.765   3.704  -2.900  0.00  0.00    -0.099 C 
ATOM     43  H   LIG d   1      13.931   3.117  -3.312  0.00  0.00     0.053 H 
ATOM     44  H   LIG d   1      15.801   3.461  -3.180  0.00  0.00     0.053 H 
ATOM     45  H   LIG d   1       9.522   6.436  -1.595  0.00  0.00     0.074 H 
ATOM     46  O   LIG d   1      10.331   6.462  -3.538  0.00  0.00    -0.461 OA
ATOM     47  C   LIG d   1       9.611   5.480  -4.125  0.00  0.00     0.316 C 
ATOM     48  O   LIG d   1       8.946   5.603  -5.126  0.00  0.00    -0.250 OA
ATOM     49  H   LIG d   1       8.797   3.785  -3.023  0.00  0.00     0.047 H 
BRANCH  27  50
ATOM     50  C   LIG d   1      13.007   6.844  -3.417  0.00  0.00    -0.059 C 
ATOM     51  H   LIG d   1      12.670   5.968  -3.990  0.00  0.00     0.024 H 
ATOM     52  H   LIG d   1      14.053   7.068  -3.672  0.00  0.00     0.024 H 
ATOM     53  H   LIG d   1      12.375   7.709  -3.664  0.00  0.00     0.024 H 
ENDBRANCH  27  50
ENDBRANCH  16  19
ENDBRANCH   1  16
BRANCH   4  54
ATOM     54  C   LIG d   1       6.876  -1.181  -4.954  0.00  0.00     0.061 C 
ATOM     55  H   LIG d   1       6.679  -0.982  -6.018  0.00  0.00     0.056 H 
BRANCH  54  56
ATOM     56  C   LIG d   1       5.612  -1.015  -4.152  0.00  0.00    -0.026 A 
ATOM     57  C   LIG d   1       5.599  -1.336  -2.807  0.00  0.00    -0.057 A 
ATOM     58  C   LIG d   1       4.439  -1.184  -2.071  0.00  0.00    -0.061 A 
ATOM     59  H   LIG d   1       6.495  -1.707  -2.332  0.00  0.00     0.062 H 
ATOM     60  C   LIG d   1       3.291  -0.711  -2.680  0.00  0.00    -0.062 A 
ATOM     61  H   LIG d   1       4.429  -1.435  -1.021  0.00  0.00     0.062 H 
ATOM     62  C   LIG d   1       3.304  -0.390  -4.023  0.00  0.00    -0.061 A 
ATOM     63  H   LIG d   1       2.385  -0.593  -2.104  0.00  0.00     0.062 H 
ATOM     64  C   LIG d   1       4.465  -0.536  -4.759  0.00  0.00    -0.057 A 
ATOM     65  H   LIG d   1       2.407  -0.020  -4.499  0.00  0.00     0.062 H 
ATOM     66  H   LIG d   1       4.476  -0.282  -5.808  0.00  0.00     0.062 H 
ENDBRANCH  54  56
BRANCH  54  67
ATOM     67  C   LIG d   1       7.405  -2.581  -4.777  0.00  0.00    -0.026 A 
ATOM     68  C   LIG d   1       8.382  -2.836  -3.832  0.00  0.00    -0.055 A 
ATOM     69  C   LIG d   1       8.867  -4.120  -3.670  0.00  0.00    -0.043 A 
ATOM     70  H   LIG d   1       8.766  -2.032  -3.222  0.00  0.00     0.062 H 
ATOM     71  C   LIG d   1       8.377  -5.149  -4.452  0.00  0.00     0.041 A 
ATOM     72  H   LIG d   1       9.632  -4.319  -2.932  0.00  0.00     0.063 H 
ATOM     73  C   LIG d   1       7.399  -4.894  -5.398  0.00  0.00    -0.043 A 
ATOM     74 CL   LIG d   1       8.988  -6.762  -4.250  0.00  0.00    -0.084 Cl
ATOM     75  C   LIG d   1       6.910  -3.610  -5.556  0.00  0.00    -0.055 A 
ATOM     76  H   LIG d   1       7.015  -5.697  -6.009  0.00  0.00     0.063 H 
ATOM     77  H   LIG d   1       6.143  -3.411  -6.290  0.00  0.00     0.062 H 
ENDBRANCH  54  67
ENDBRANCH   4  54
TORSDOF 6
ENDMDL
