MODEL 1
REMARK VINA RESULT:      -8.0      0.000      0.000
REMARK  6 active torsions:
REMARK  status: ('A' for Active; 'I' for Inactive)
REMARK    1  A    between atoms: C_1  and  C_2 
REMARK    2  A    between atoms: C_7  and  C_31 
REMARK    3  A    between atoms: C_20  and  C_22 
REMARK    4  A    between atoms: C_22  and  N_54 
REMARK    5  A    between atoms: C_23  and  C_24 
REMARK    6  A    between atoms: C_23  and  N_54 
ROOT
ATOM      1  C   LIG d   1       3.437   0.568  -4.418  0.00  0.00    -0.012 C 
ATOM      2  H   LIG d   1       3.344   1.164  -5.325  0.00  0.00     0.033 H 
ATOM      3  C   LIG d   1       3.543   1.494  -3.200  0.00  0.00    -0.048 C 
ATOM      4  C   LIG d   1       3.777   0.666  -1.937  0.00  0.00    -0.052 C 
ATOM      5  C   LIG d   1       5.099  -0.099  -2.041  0.00  0.00    -0.045 C 
ATOM      6  C   LIG d   1       5.019  -1.075  -3.215  0.00  0.00     0.003 C 
ATOM      7  C   LIG d   1       4.708  -0.281  -4.489  0.00  0.00     0.104 A 
ATOM      8  C   LIG d   1       5.190  -0.825  -5.817  0.00  0.00     0.096 A 
ATOM      9  H   LIG d   1       4.586  -0.586  -6.692  0.00  0.00     0.063 H 
ATOM     10  O   LIG d   1       5.823   0.290  -5.183  0.00  0.00    -0.363 OA
ATOM     11  C   LIG d   1       5.972  -2.122  -5.911  0.00  0.00     0.043 C 
ATOM     12  H   LIG d   1       6.912  -1.975  -6.441  0.00  0.00     0.037 H 
ATOM     13  C   LIG d   1       6.221  -2.790  -4.555  0.00  0.00     0.110 C 
ATOM     14  H   LIG d   1       7.119  -3.405  -4.609  0.00  0.00     0.074 H 
ATOM     15  C   LIG d   1       6.357  -1.784  -3.422  0.00  0.00    -0.007 C 
ATOM     16  O   LIG d   1       5.062  -3.648  -4.342  0.00  0.00    -0.461 OA
ATOM     17  C   LIG d   1       4.612  -4.091  -5.527  0.00  0.00     0.316 C 
ATOM     18  O   LIG d   1       3.922  -5.070  -5.687  0.00  0.00    -0.250 OA
ATOM     19  C   LIG d   1       5.100  -3.180  -6.634  0.00  0.00     0.105 C 
ATOM     20  H   LIG d   1       5.700  -3.739  -7.352  0.00  0.00     0.047 H 
ATOM     21  H   LIG d   1       2.619   2.062  -3.095  0.00  0.00     0.027 H 
ATOM     22  H   LIG d   1       4.377   2.183  -3.341  0.00  0.00     0.027 H 
ATOM     23  H   LIG d   1       2.958  -0.043  -1.814  0.00  0.00     0.027 H 
ATOM     24  H   LIG d   1       3.810   1.328  -1.072  0.00  0.00     0.027 H 
ATOM     25  H   LIG d   1       5.274  -0.653  -1.118  0.00  0.00     0.027 H 
ATOM     26  H   LIG d   1       5.916   0.602  -2.205  0.00  0.00     0.027 H 
ATOM     27  H   LIG d   1       6.640  -2.304  -2.506  0.00  0.00     0.031 H 
ATOM     28  H   LIG d   1       7.123  -1.050  -3.676  0.00  0.00     0.031 H 
ENDROOT
BRANCH  19  29
ATOM     29  C   LIG d   1       3.918  -2.510  -7.335  0.00  0.00    -0.020 C 
ATOM     30  H   LIG d   1       3.875  -1.458  -7.051  0.00  0.00     0.082 H 
ATOM     31  H   LIG d   1       2.992  -3.004  -7.038  0.00  0.00     0.082 H 
BRANCH  29  32
ATOM     32  N   LIG d   1       4.094  -2.623  -8.794  0.00  0.00     0.231 N 
ATOM     33  H   LIG d   1       4.016  -3.608  -9.070  0.00  0.00     0.202 HD
ATOM     34  H   LIG d   1       5.023  -2.268  -9.052  0.00  0.00     0.202 HD
BRANCH  32  35
ATOM     35  C   LIG d   1       3.062  -1.837  -9.497  0.00  0.00    -0.008 C 
ATOM     36  H   LIG d   1       2.088  -2.027  -9.048  0.00  0.00     0.087 H 
ATOM     37  H   LIG d   1       3.039  -2.121 -10.549  0.00  0.00     0.087 H 
BRANCH  35  38
ATOM     38  C   LIG d   1       3.391  -0.371  -9.380  0.00  0.00    -0.003 A 
ATOM     39  C   LIG d   1       4.593   0.108  -9.868  0.00  0.00    -0.051 A 
ATOM     40  C   LIG d   1       4.893   1.453  -9.767  0.00  0.00    -0.026 A 
ATOM     41  H   LIG d   1       5.294  -0.568 -10.334  0.00  0.00     0.062 H 
ATOM     42  C   LIG d   1       3.995   2.319  -9.166  0.00  0.00     0.123 A 
ATOM     43  H   LIG d   1       5.830   1.827 -10.153  0.00  0.00     0.065 H 
ATOM     44  C   LIG d   1       2.793   1.838  -8.676  0.00  0.00    -0.026 A 
ATOM     45  F   LIG d   1       4.291   3.633  -9.062  0.00  0.00    -0.205 F 
ATOM     46  C   LIG d   1       2.492   0.493  -8.784  0.00  0.00    -0.051 A 
ATOM     47  H   LIG d   1       2.091   2.513  -8.211  0.00  0.00     0.065 H 
ATOM     48  H   LIG d   1       1.555   0.118  -8.402  0.00  0.00     0.062 H 
ENDBRANCH  35  38
ENDBRANCH  32  35
ENDBRANCH  29  32
ENDBRANCH  19  29
BRANCH   1  49
ATOM     49  C   LIG d   1       2.217  -0.342  -4.269  0.00  0.00    -0.060 C 
ATOM     50  H   LIG d   1       2.119  -0.649  -3.227  0.00  0.00     0.023 H 
ATOM     51  H   LIG d   1       1.321   0.199  -4.574  0.00  0.00     0.023 H 
ATOM     52  H   LIG d   1       2.341  -1.224  -4.897  0.00  0.00     0.023 H 
ENDBRANCH   1  49
BRANCH   6  53
ATOM     53  C   LIG d   1       3.922  -2.110  -2.952  0.00  0.00    -0.057 C 
ATOM     54  H   LIG d   1       3.405  -2.336  -3.884  0.00  0.00     0.024 H 
ATOM     55  H   LIG d   1       4.370  -3.021  -2.554  0.00  0.00     0.024 H 
ATOM     56  H   LIG d   1       3.211  -1.709  -2.229  0.00  0.00     0.024 H 
ENDBRANCH   6  53
TORSDOF 6
ENDMDL
MODEL 2
REMARK VINA RESULT:      -7.3      2.161      2.792
REMARK  6 active torsions:
REMARK  status: ('A' for Active; 'I' for Inactive)
REMARK    1  A    between atoms: C_1  and  C_2 
REMARK    2  A    between atoms: C_7  and  C_31 
REMARK    3  A    between atoms: C_20  and  C_22 
REMARK    4  A    between atoms: C_22  and  N_54 
REMARK    5  A    between atoms: C_23  and  C_24 
REMARK    6  A    between atoms: C_23  and  N_54 
ROOT
ATOM      1  C   LIG d   1       3.339  -0.651  -3.308  0.00  0.00    -0.012 C 
ATOM      2  H   LIG d   1       2.370  -0.754  -3.794  0.00  0.00     0.033 H 
ATOM      3  C   LIG d   1       3.332   0.583  -2.397  0.00  0.00    -0.048 C 
ATOM      4  C   LIG d   1       4.720   0.790  -1.792  0.00  0.00    -0.052 C 
ATOM      5  C   LIG d   1       5.747   1.049  -2.899  0.00  0.00    -0.045 C 
ATOM      6  C   LIG d   1       5.826  -0.180  -3.804  0.00  0.00     0.003 C 
ATOM      7  C   LIG d   1       4.428  -0.461  -4.367  0.00  0.00     0.104 A 
ATOM      8  C   LIG d   1       4.313  -1.146  -5.712  0.00  0.00     0.096 A 
ATOM      9  H   LIG d   1       3.434  -1.771  -5.869  0.00  0.00     0.063 H 
ATOM     10  O   LIG d   1       4.053   0.251  -5.552  0.00  0.00    -0.363 OA
ATOM     11  C   LIG d   1       5.539  -1.550  -6.508  0.00  0.00     0.043 C 
ATOM     12  H   LIG d   1       5.504  -1.138  -7.516  0.00  0.00     0.037 H 
ATOM     13  C   LIG d   1       6.862  -1.186  -5.827  0.00  0.00     0.110 C 
ATOM     14  H   LIG d   1       7.641  -1.063  -6.580  0.00  0.00     0.074 H 
ATOM     15  C   LIG d   1       6.761   0.076  -4.985  0.00  0.00    -0.007 C 
ATOM     16  O   LIG d   1       7.180  -2.336  -4.990  0.00  0.00    -0.461 OA
ATOM     17  C   LIG d   1       6.710  -3.453  -5.569  0.00  0.00     0.316 C 
ATOM     18  O   LIG d   1       7.099  -4.573  -5.338  0.00  0.00    -0.250 OA
ATOM     19  C   LIG d   1       5.618  -3.096  -6.556  0.00  0.00     0.105 C 
ATOM     20  H   LIG d   1       5.885  -3.432  -7.559  0.00  0.00     0.047 H 
ATOM     21  H   LIG d   1       2.607   0.437  -1.596  0.00  0.00     0.027 H 
ATOM     22  H   LIG d   1       3.056   1.461  -2.980  0.00  0.00     0.027 H 
ATOM     23  H   LIG d   1       5.009  -0.102  -1.235  0.00  0.00     0.027 H 
ATOM     24  H   LIG d   1       4.696   1.643  -1.115  0.00  0.00     0.027 H 
ATOM     25  H   LIG d   1       6.725   1.237  -2.452  0.00  0.00     0.027 H 
ATOM     26  H   LIG d   1       5.443   1.915  -3.485  0.00  0.00     0.027 H 
ATOM     27  H   LIG d   1       7.750   0.348  -4.615  0.00  0.00     0.031 H 
ATOM     28  H   LIG d   1       6.364   0.890  -5.594  0.00  0.00     0.031 H 
ENDROOT
BRANCH  19  29
ATOM     29  C   LIG d   1       4.286  -3.713  -6.126  0.00  0.00    -0.020 C 
ATOM     30  H   LIG d   1       3.640  -2.935  -5.720  0.00  0.00     0.082 H 
ATOM     31  H   LIG d   1       4.467  -4.470  -5.362  0.00  0.00     0.082 H 
BRANCH  29  32
ATOM     32  N   LIG d   1       3.640  -4.334  -7.297  0.00  0.00     0.231 N 
ATOM     33  H   LIG d   1       2.640  -4.102  -7.295  0.00  0.00     0.202 HD
ATOM     34  H   LIG d   1       3.756  -5.353  -7.248  0.00  0.00     0.202 HD
BRANCH  32  35
ATOM     35  C   LIG d   1       4.252  -3.835  -8.544  0.00  0.00    -0.008 C 
ATOM     36  H   LIG d   1       4.566  -4.677  -9.160  0.00  0.00     0.087 H 
ATOM     37  H   LIG d   1       5.117  -3.216  -8.305  0.00  0.00     0.087 H 
BRANCH  35  38
ATOM     38  C   LIG d   1       3.239  -3.011  -9.296  0.00  0.00    -0.003 A 
ATOM     39  C   LIG d   1       3.275  -1.631  -9.217  0.00  0.00    -0.051 A 
ATOM     40  C   LIG d   1       2.351  -0.874  -9.911  0.00  0.00    -0.026 A 
ATOM     41  H   LIG d   1       4.030  -1.144  -8.617  0.00  0.00     0.062 H 
ATOM     42  C   LIG d   1       1.381  -1.499 -10.677  0.00  0.00     0.123 A 
ATOM     43  H   LIG d   1       2.382   0.204  -9.853  0.00  0.00     0.065 H 
ATOM     44  C   LIG d   1       1.345  -2.881 -10.755  0.00  0.00    -0.026 A 
ATOM     45  F   LIG d   1       0.474  -0.760 -11.352  0.00  0.00    -0.205 F 
ATOM     46  C   LIG d   1       2.274  -3.636 -10.064  0.00  0.00    -0.051 A 
ATOM     47  H   LIG d   1       0.592  -3.368 -11.355  0.00  0.00     0.065 H 
ATOM     48  H   LIG d   1       2.246  -4.713 -10.125  0.00  0.00     0.062 H 
ENDBRANCH  35  38
ENDBRANCH  32  35
ENDBRANCH  29  32
ENDBRANCH  19  29
BRANCH   1  49
ATOM     49  C   LIG d   1       3.639  -1.902  -2.480  0.00  0.00    -0.060 C 
ATOM     50  H   LIG d   1       4.717  -1.994  -2.340  0.00  0.00     0.023 H 
ATOM     51  H   LIG d   1       3.153  -1.819  -1.508  0.00  0.00     0.023 H 
ATOM     52  H   LIG d   1       3.264  -2.782  -3.001  0.00  0.00     0.023 H 
ENDBRANCH   1  49
BRANCH   6  53
ATOM     53  C   LIG d   1       6.328  -1.382  -3.000  0.00  0.00    -0.057 C 
ATOM     54  H   LIG d   1       5.645  -1.576  -2.174  0.00  0.00     0.024 H 
ATOM     55  H   LIG d   1       6.376  -2.258  -3.647  0.00  0.00     0.024 H 
ATOM     56  H   LIG d   1       7.321  -1.166  -2.607  0.00  0.00     0.024 H 
ENDBRANCH   6  53
TORSDOF 6
ENDMDL
MODEL 3
REMARK VINA RESULT:      -7.2      1.822      4.089
REMARK  6 active torsions:
REMARK  status: ('A' for Active; 'I' for Inactive)
REMARK    1  A    between atoms: C_1  and  C_2 
REMARK    2  A    between atoms: C_7  and  C_31 
REMARK    3  A    between atoms: C_20  and  C_22 
REMARK    4  A    between atoms: C_22  and  N_54 
REMARK    5  A    between atoms: C_23  and  C_24 
REMARK    6  A    between atoms: C_23  and  N_54 
ROOT
ATOM      1  C   LIG d   1       5.546  -2.425  -6.077  0.00  0.00    -0.012 C 
ATOM      2  H   LIG d   1       4.733  -2.947  -6.581  0.00  0.00     0.033 H 
ATOM      3  C   LIG d   1       6.830  -3.259  -6.169  0.00  0.00    -0.048 C 
ATOM      4  C   LIG d   1       7.947  -2.580  -5.377  0.00  0.00    -0.052 C 
ATOM      5  C   LIG d   1       7.569  -2.490  -3.896  0.00  0.00    -0.045 C 
ATOM      6  C   LIG d   1       6.319  -1.621  -3.753  0.00  0.00     0.003 C 
ATOM      7  C   LIG d   1       5.199  -2.236  -4.599  0.00  0.00     0.104 A 
ATOM      8  C   LIG d   1       3.763  -2.010  -4.175  0.00  0.00     0.096 A 
ATOM      9  H   LIG d   1       3.017  -1.984  -4.968  0.00  0.00     0.063 H 
ATOM     10  O   LIG d   1       4.417  -3.268  -3.987  0.00  0.00    -0.363 OA
ATOM     11  C   LIG d   1       3.415  -1.202  -2.939  0.00  0.00     0.043 C 
ATOM     12  H   LIG d   1       2.773  -1.771  -2.267  0.00  0.00     0.037 H 
ATOM     13  C   LIG d   1       4.639  -0.670  -2.187  0.00  0.00     0.110 C 
ATOM     14  H   LIG d   1       4.388  -0.523  -1.136  0.00  0.00     0.074 H 
ATOM     15  C   LIG d   1       5.844  -1.592  -2.300  0.00  0.00    -0.007 C 
ATOM     16  O   LIG d   1       4.922   0.622  -2.799  0.00  0.00    -0.461 OA
ATOM     17  C   LIG d   1       3.774   1.179  -3.216  0.00  0.00     0.316 C 
ATOM     18  O   LIG d   1       3.609   2.357  -3.429  0.00  0.00    -0.250 OA
ATOM     19  C   LIG d   1       2.715   0.108  -3.378  0.00  0.00     0.105 C 
ATOM     20  H   LIG d   1       1.860   0.316  -2.734  0.00  0.00     0.047 H 
ATOM     21  H   LIG d   1       7.130  -3.350  -7.212  0.00  0.00     0.027 H 
ATOM     22  H   LIG d   1       6.647  -4.252  -5.756  0.00  0.00     0.027 H 
ATOM     23  H   LIG d   1       8.109  -1.576  -5.770  0.00  0.00     0.027 H 
ATOM     24  H   LIG d   1       8.866  -3.157  -5.480  0.00  0.00     0.027 H 
ATOM     25  H   LIG d   1       8.391  -2.042  -3.336  0.00  0.00     0.027 H 
ATOM     26  H   LIG d   1       7.366  -3.487  -3.508  0.00  0.00     0.027 H 
ATOM     27  H   LIG d   1       6.647  -1.223  -1.661  0.00  0.00     0.031 H 
ATOM     28  H   LIG d   1       5.563  -2.598  -1.988  0.00  0.00     0.031 H 
ENDROOT
BRANCH  19  29
ATOM     29  C   LIG d   1       2.270   0.013  -4.838  0.00  0.00    -0.020 C 
ATOM     30  H   LIG d   1       1.264   0.422  -4.939  0.00  0.00     0.082 H 
ATOM     31  H   LIG d   1       2.270  -1.032  -5.150  0.00  0.00     0.082 H 
BRANCH  29  32
ATOM     32  N   LIG d   1       3.205   0.782  -5.679  0.00  0.00     0.231 N 
ATOM     33  H   LIG d   1       3.785   0.133  -6.223  0.00  0.00     0.202 HD
ATOM     34  H   LIG d   1       3.808   1.358  -5.078  0.00  0.00     0.202 HD
BRANCH  32  35
ATOM     35  C   LIG d   1       2.461   1.659  -6.602  0.00  0.00    -0.008 C 
ATOM     36  H   LIG d   1       2.690   2.702  -6.383  0.00  0.00     0.087 H 
ATOM     37  H   LIG d   1       1.390   1.490  -6.486  0.00  0.00     0.087 H 
BRANCH  35  38
ATOM     38  C   LIG d   1       2.867   1.344  -8.019  0.00  0.00    -0.003 A 
ATOM     39  C   LIG d   1       2.656   0.078  -8.533  0.00  0.00    -0.051 A 
ATOM     40  C   LIG d   1       3.022  -0.211  -9.833  0.00  0.00    -0.026 A 
ATOM     41  H   LIG d   1       2.199  -0.684  -7.919  0.00  0.00     0.062 H 
ATOM     42  C   LIG d   1       3.612   0.766 -10.618  0.00  0.00     0.123 A 
ATOM     43  H   LIG d   1       2.852  -1.199 -10.236  0.00  0.00     0.065 H 
ATOM     44  C   LIG d   1       3.824   2.033 -10.103  0.00  0.00    -0.026 A 
ATOM     45  F   LIG d   1       3.975   0.483 -11.889  0.00  0.00    -0.205 F 
ATOM     46  C   LIG d   1       3.452   2.321  -8.804  0.00  0.00    -0.051 A 
ATOM     47  H   LIG d   1       4.280   2.796 -10.716  0.00  0.00     0.065 H 
ATOM     48  H   LIG d   1       3.617   3.309  -8.402  0.00  0.00     0.062 H 
ENDBRANCH  35  38
ENDBRANCH  32  35
ENDBRANCH  29  32
ENDBRANCH  19  29
BRANCH   1  49
ATOM     49  C   LIG d   1       5.770  -1.061  -6.733  0.00  0.00    -0.060 C 
ATOM     50  H   LIG d   1       5.036  -0.351  -6.351  0.00  0.00     0.023 H 
ATOM     51  H   LIG d   1       6.774  -0.707  -6.501  0.00  0.00     0.023 H 
ATOM     52  H   LIG d   1       5.657  -1.154  -7.813  0.00  0.00     0.023 H 
ENDBRANCH   1  49
BRANCH   6  53
ATOM     53  C   LIG d   1       6.624  -0.197  -4.224  0.00  0.00    -0.057 C 
ATOM     54  H   LIG d   1       7.376  -0.229  -5.012  0.00  0.00     0.024 H 
ATOM     55  H   LIG d   1       5.713   0.261  -4.609  0.00  0.00     0.024 H 
ATOM     56  H   LIG d   1       7.000   0.390  -3.387  0.00  0.00     0.024 H 
ENDBRANCH   6  53
TORSDOF 6
ENDMDL
MODEL 4
REMARK VINA RESULT:      -7.1      4.163      6.269
REMARK  6 active torsions:
REMARK  status: ('A' for Active; 'I' for Inactive)
REMARK    1  A    between atoms: C_1  and  C_2 
REMARK    2  A    between atoms: C_7  and  C_31 
REMARK    3  A    between atoms: C_20  and  C_22 
REMARK    4  A    between atoms: C_22  and  N_54 
REMARK    5  A    between atoms: C_23  and  C_24 
REMARK    6  A    between atoms: C_23  and  N_54 
ROOT
ATOM      1  C   LIG d   1       3.411  -0.814  -3.275  0.00  0.00    -0.012 C 
ATOM      2  H   LIG d   1       2.466  -1.025  -3.775  0.00  0.00     0.033 H 
ATOM      3  C   LIG d   1       3.285   0.476  -2.456  0.00  0.00    -0.048 C 
ATOM      4  C   LIG d   1       4.636   0.831  -1.835  0.00  0.00    -0.052 C 
ATOM      5  C   LIG d   1       5.673   1.089  -2.933  0.00  0.00    -0.045 C 
ATOM      6  C   LIG d   1       5.869  -0.191  -3.745  0.00  0.00     0.003 C 
ATOM      7  C   LIG d   1       4.512  -0.616  -4.319  0.00  0.00     0.104 A 
ATOM      8  C   LIG d   1       4.487  -1.401  -5.614  0.00  0.00     0.096 A 
ATOM      9  H   LIG d   1       3.662  -2.100  -5.746  0.00  0.00     0.063 H 
ATOM     10  O   LIG d   1       4.120  -0.020  -5.561  0.00  0.00    -0.363 OA
ATOM     11  C   LIG d   1       5.763  -1.765  -6.350  0.00  0.00     0.043 C 
ATOM     12  H   LIG d   1       5.727  -1.429  -7.385  0.00  0.00     0.037 H 
ATOM     13  C   LIG d   1       7.035  -1.255  -5.665  0.00  0.00     0.110 C 
ATOM     14  H   LIG d   1       7.824  -1.126  -6.407  0.00  0.00     0.074 H 
ATOM     15  C   LIG d   1       6.816   0.052  -4.919  0.00  0.00    -0.007 C 
ATOM     16  O   LIG d   1       7.413  -2.316  -4.741  0.00  0.00    -0.461 OA
ATOM     17  C   LIG d   1       7.044  -3.503  -5.248  0.00  0.00     0.316 C 
ATOM     18  O   LIG d   1       7.508  -4.572  -4.928  0.00  0.00    -0.250 OA
ATOM     19  C   LIG d   1       5.958  -3.301  -6.284  0.00  0.00     0.105 C 
ATOM     20  H   LIG d   1       6.278  -3.684  -7.253  0.00  0.00     0.047 H 
ATOM     21  H   LIG d   1       2.550   0.333  -1.664  0.00  0.00     0.027 H 
ATOM     22  H   LIG d   1       2.962   1.289  -3.107  0.00  0.00     0.027 H 
ATOM     23  H   LIG d   1       4.974   0.005  -1.208  0.00  0.00     0.027 H 
ATOM     24  H   LIG d   1       4.529   1.725  -1.222  0.00  0.00     0.027 H 
ATOM     25  H   LIG d   1       6.620   1.381  -2.478  0.00  0.00     0.027 H 
ATOM     26  H   LIG d   1       5.322   1.886  -3.587  0.00  0.00     0.027 H 
ATOM     27  H   LIG d   1       7.771   0.423  -4.546  0.00  0.00     0.031 H 
ATOM     28  H   LIG d   1       6.378   0.788  -5.595  0.00  0.00     0.031 H 
ENDROOT
BRANCH  19  29
ATOM     29  C   LIG d   1       4.664  -3.985  -5.842  0.00  0.00    -0.020 C 
ATOM     30  H   LIG d   1       3.910  -3.879  -6.624  0.00  0.00     0.082 H 
ATOM     31  H   LIG d   1       4.302  -3.520  -4.925  0.00  0.00     0.082 H 
BRANCH  29  32
ATOM     32  N   LIG d   1       4.931  -5.415  -5.602  0.00  0.00     0.231 N 
ATOM     33  H   LIG d   1       4.339  -5.746  -4.831  0.00  0.00     0.202 HD
ATOM     34  H   LIG d   1       5.919  -5.538  -5.352  0.00  0.00     0.202 HD
BRANCH  32  35
ATOM     35  C   LIG d   1       4.635  -6.202  -6.814  0.00  0.00    -0.008 C 
ATOM     36  H   LIG d   1       5.375  -5.982  -7.584  0.00  0.00     0.087 H 
ATOM     37  H   LIG d   1       3.641  -5.948  -7.183  0.00  0.00     0.087 H 
BRANCH  35  38
ATOM     38  C   LIG d   1       4.684  -7.670  -6.475  0.00  0.00    -0.003 A 
ATOM     39  C   LIG d   1       4.499  -8.614  -7.468  0.00  0.00    -0.051 A 
ATOM     40  C   LIG d   1       4.550  -9.960  -7.160  0.00  0.00    -0.026 A 
ATOM     41  H   LIG d   1       4.320  -8.300  -8.486  0.00  0.00     0.062 H 
ATOM     42  C   LIG d   1       4.775 -10.362  -5.853  0.00  0.00     0.123 A 
ATOM     43  H   LIG d   1       4.410 -10.698  -7.936  0.00  0.00     0.065 H 
ATOM     44  C   LIG d   1       4.959  -9.416  -4.860  0.00  0.00    -0.026 A 
ATOM     45  F   LIG d   1       4.820 -11.678  -5.550  0.00  0.00    -0.205 F 
ATOM     46  C   LIG d   1       4.913  -8.070  -5.172  0.00  0.00    -0.051 A 
ATOM     47  H   LIG d   1       5.139  -9.728  -3.843  0.00  0.00     0.065 H 
ATOM     48  H   LIG d   1       5.057  -7.332  -4.398  0.00  0.00     0.062 H 
ENDBRANCH  35  38
ENDBRANCH  32  35
ENDBRANCH  29  32
ENDBRANCH  19  29
BRANCH   1  49
ATOM     49  C   LIG d   1       3.778  -1.977  -2.352  0.00  0.00    -0.060 C 
ATOM     50  H   LIG d   1       4.673  -1.720  -1.785  0.00  0.00     0.023 H 
ATOM     51  H   LIG d   1       2.954  -2.169  -1.665  0.00  0.00     0.023 H 
ATOM     52  H   LIG d   1       3.970  -2.869  -2.949  0.00  0.00     0.023 H 
ENDBRANCH   1  49
BRANCH   6  53
ATOM     53  C   LIG d   1       6.435  -1.292  -2.845  0.00  0.00    -0.057 C 
ATOM     54  H   LIG d   1       6.247  -2.264  -3.299  0.00  0.00     0.024 H 
ATOM     55  H   LIG d   1       7.509  -1.147  -2.726  0.00  0.00     0.024 H 
ATOM     56  H   LIG d   1       5.951  -1.247  -1.869  0.00  0.00     0.024 H 
ENDBRANCH   6  53
TORSDOF 6
ENDMDL
MODEL 5
REMARK VINA RESULT:      -6.8      4.629      6.205
REMARK  6 active torsions:
REMARK  status: ('A' for Active; 'I' for Inactive)
REMARK    1  A    between atoms: C_1  and  C_2 
REMARK    2  A    between atoms: C_7  and  C_31 
REMARK    3  A    between atoms: C_20  and  C_22 
REMARK    4  A    between atoms: C_22  and  N_54 
REMARK    5  A    between atoms: C_23  and  C_24 
REMARK    6  A    between atoms: C_23  and  N_54 
ROOT
ATOM      1  C   LIG d   1       5.435  -0.088  -2.440  0.00  0.00    -0.012 C 
ATOM      2  H   LIG d   1       6.219   0.261  -1.769  0.00  0.00     0.033 H 
ATOM      3  C   LIG d   1       4.446  -0.969  -1.667  0.00  0.00    -0.048 C 
ATOM      4  C   LIG d   1       3.403  -1.543  -2.625  0.00  0.00    -0.052 C 
ATOM      5  C   LIG d   1       4.078  -2.432  -3.673  0.00  0.00    -0.045 C 
ATOM      6  C   LIG d   1       5.038  -1.580  -4.505  0.00  0.00     0.003 C 
ATOM      7  C   LIG d   1       6.053  -0.927  -3.560  0.00  0.00     0.104 A 
ATOM      8  C   LIG d   1       7.429  -0.591  -4.096  0.00  0.00     0.096 A 
ATOM      9  H   LIG d   1       7.931   0.267  -3.650  0.00  0.00     0.063 H 
ATOM     10  O   LIG d   1       7.209  -1.700  -3.219  0.00  0.00    -0.363 OA
ATOM     11  C   LIG d   1       7.821  -0.891  -5.530  0.00  0.00     0.043 C 
ATOM     12  H   LIG d   1       8.733  -1.485  -5.571  0.00  0.00     0.037 H 
ATOM     13  C   LIG d   1       6.710  -1.561  -6.345  0.00  0.00     0.110 C 
ATOM     14  H   LIG d   1       7.149  -2.149  -7.151  0.00  0.00     0.074 H 
ATOM     15  C   LIG d   1       5.814  -2.449  -5.495  0.00  0.00    -0.007 C 
ATOM     16  O   LIG d   1       5.947  -0.458  -6.915  0.00  0.00    -0.461 OA
ATOM     17  C   LIG d   1       6.766   0.581  -7.141  0.00  0.00     0.316 C 
ATOM     18  O   LIG d   1       6.545   1.486  -7.911  0.00  0.00    -0.250 OA
ATOM     19  C   LIG d   1       8.010   0.447  -6.288  0.00  0.00     0.105 C 
ATOM     20  H   LIG d   1       8.901   0.406  -6.915  0.00  0.00     0.047 H 
ATOM     21  H   LIG d   1       3.947  -0.371  -0.904  0.00  0.00     0.027 H 
ATOM     22  H   LIG d   1       4.987  -1.786  -1.189  0.00  0.00     0.027 H 
ATOM     23  H   LIG d   1       2.883  -0.726  -3.125  0.00  0.00     0.027 H 
ATOM     24  H   LIG d   1       2.681  -2.134  -2.062  0.00  0.00     0.027 H 
ATOM     25  H   LIG d   1       3.320  -2.868  -4.325  0.00  0.00     0.027 H 
ATOM     26  H   LIG d   1       4.633  -3.227  -3.177  0.00  0.00     0.027 H 
ATOM     27  H   LIG d   1       5.113  -2.983  -6.138  0.00  0.00     0.031 H 
ATOM     28  H   LIG d   1       6.425  -3.167  -4.947  0.00  0.00     0.031 H 
ENDROOT
BRANCH  19  29
ATOM     29  C   LIG d   1       8.108   1.611  -5.301  0.00  0.00    -0.020 C 
ATOM     30  H   LIG d   1       8.674   1.297  -4.423  0.00  0.00     0.082 H 
ATOM     31  H   LIG d   1       7.106   1.914  -4.996  0.00  0.00     0.082 H 
BRANCH  29  32
ATOM     32  N   LIG d   1       8.792   2.742  -5.953  0.00  0.00     0.231 N 
ATOM     33  H   LIG d   1       8.200   3.578  -5.891  0.00  0.00     0.202 HD
ATOM     34  H   LIG d   1       8.960   2.514  -6.940  0.00  0.00     0.202 HD
BRANCH  32  35
ATOM     35  C   LIG d   1      10.083   3.011  -5.290  0.00  0.00    -0.008 C 
ATOM     36  H   LIG d   1      10.839   3.243  -6.040  0.00  0.00     0.087 H 
ATOM     37  H   LIG d   1      10.392   2.134  -4.721  0.00  0.00     0.087 H 
BRANCH  35  38
ATOM     38  C   LIG d   1       9.924   4.184  -4.358  0.00  0.00    -0.003 A 
ATOM     39  C   LIG d   1       9.460   5.393  -4.841  0.00  0.00    -0.051 A 
ATOM     40  C   LIG d   1       9.309   6.468  -3.986  0.00  0.00    -0.026 A 
ATOM     41  H   LIG d   1       9.211   5.496  -5.887  0.00  0.00     0.062 H 
ATOM     42  C   LIG d   1       9.633   6.336  -2.646  0.00  0.00     0.123 A 
ATOM     43  H   LIG d   1       8.942   7.411  -4.364  0.00  0.00     0.065 H 
ATOM     44  C   LIG d   1      10.099   5.125  -2.163  0.00  0.00    -0.026 A 
ATOM     45  F   LIG d   1       9.490   7.388  -1.810  0.00  0.00    -0.205 F 
ATOM     46  C   LIG d   1      10.244   4.050  -3.019  0.00  0.00    -0.051 A 
ATOM     47  H   LIG d   1      10.348   5.021  -1.118  0.00  0.00     0.065 H 
ATOM     48  H   LIG d   1      10.607   3.106  -2.642  0.00  0.00     0.062 H 
ENDBRANCH  35  38
ENDBRANCH  32  35
ENDBRANCH  29  32
ENDBRANCH  19  29
BRANCH   1  49
ATOM     49  C   LIG d   1       4.697   1.110  -3.041  0.00  0.00    -0.060 C 
ATOM     50  H   LIG d   1       3.693   1.166  -2.618  0.00  0.00     0.023 H 
ATOM     51  H   LIG d   1       5.241   2.026  -2.808  0.00  0.00     0.023 H 
ATOM     52  H   LIG d   1       4.630   0.992  -4.122  0.00  0.00     0.023 H 
ENDBRANCH   1  49
BRANCH   6  53
ATOM     53  C   LIG d   1       4.251  -0.510  -5.265  0.00  0.00    -0.057 C 
ATOM     54  H   LIG d   1       3.196  -0.580  -5.002  0.00  0.00     0.024 H 
ATOM     55  H   LIG d   1       4.628   0.477  -4.997  0.00  0.00     0.024 H 
ATOM     56  H   LIG d   1       4.369  -0.665  -6.337  0.00  0.00     0.024 H 
ENDBRANCH   6  53
TORSDOF 6
ENDMDL
MODEL 6
REMARK VINA RESULT:      -6.8      2.209      2.896
REMARK  6 active torsions:
REMARK  status: ('A' for Active; 'I' for Inactive)
REMARK    1  A    between atoms: C_1  and  C_2 
REMARK    2  A    between atoms: C_7  and  C_31 
REMARK    3  A    between atoms: C_20  and  C_22 
REMARK    4  A    between atoms: C_22  and  N_54 
REMARK    5  A    between atoms: C_23  and  C_24 
REMARK    6  A    between atoms: C_23  and  N_54 
ROOT
ATOM      1  C   LIG d   1       4.034   0.632  -3.885  0.00  0.00    -0.012 C 
ATOM      2  H   LIG d   1       4.194   1.709  -3.871  0.00  0.00     0.033 H 
ATOM      3  C   LIG d   1       3.168   0.223  -2.687  0.00  0.00    -0.048 C 
ATOM      4  C   LIG d   1       3.026  -1.299  -2.645  0.00  0.00    -0.052 C 
ATOM      5  C   LIG d   1       4.397  -1.955  -2.459  0.00  0.00    -0.045 C 
ATOM      6  C   LIG d   1       5.279  -1.615  -3.661  0.00  0.00     0.003 C 
ATOM      7  C   LIG d   1       5.379  -0.090  -3.776  0.00  0.00     0.104 A 
ATOM      8  C   LIG d   1       6.620   0.509  -4.403  0.00  0.00     0.096 A 
ATOM      9  H   LIG d   1       6.494   1.456  -4.928  0.00  0.00     0.063 H 
ATOM     10  O   LIG d   1       6.390   0.553  -2.992  0.00  0.00    -0.363 OA
ATOM     11  C   LIG d   1       7.757  -0.359  -4.907  0.00  0.00     0.043 C 
ATOM     12  H   LIG d   1       8.705  -0.060  -4.462  0.00  0.00     0.037 H 
ATOM     13  C   LIG d   1       7.521  -1.859  -4.705  0.00  0.00     0.110 C 
ATOM     14  H   LIG d   1       8.480  -2.376  -4.640  0.00  0.00     0.074 H 
ATOM     15  C   LIG d   1       6.693  -2.162  -3.466  0.00  0.00    -0.007 C 
ATOM     16  O   LIG d   1       6.822  -2.293  -5.908  0.00  0.00    -0.461 OA
ATOM     17  C   LIG d   1       7.223  -1.548  -6.950  0.00  0.00     0.316 C 
ATOM     18  O   LIG d   1       7.122  -1.865  -8.112  0.00  0.00    -0.250 OA
ATOM     19  C   LIG d   1       7.824  -0.251  -6.451  0.00  0.00     0.105 C 
ATOM     20  H   LIG d   1       8.859  -0.156  -6.781  0.00  0.00     0.047 H 
ATOM     21  H   LIG d   1       2.182   0.676  -2.781  0.00  0.00     0.027 H 
ATOM     22  H   LIG d   1       3.639   0.567  -1.766  0.00  0.00     0.027 H 
ATOM     23  H   LIG d   1       2.583  -1.646  -3.579  0.00  0.00     0.027 H 
ATOM     24  H   LIG d   1       2.377  -1.578  -1.815  0.00  0.00     0.027 H 
ATOM     25  H   LIG d   1       4.277  -3.037  -2.389  0.00  0.00     0.027 H 
ATOM     26  H   LIG d   1       4.862  -1.580  -1.548  0.00  0.00     0.027 H 
ATOM     27  H   LIG d   1       6.649  -3.240  -3.311  0.00  0.00     0.031 H 
ATOM     28  H   LIG d   1       7.150  -1.687  -2.597  0.00  0.00     0.031 H 
ENDROOT
BRANCH  19  29
ATOM     29  C   LIG d   1       6.999   0.942  -6.939  0.00  0.00    -0.020 C 
ATOM     30  H   LIG d   1       7.581   1.516  -7.660  0.00  0.00     0.082 H 
ATOM     31  H   LIG d   1       6.744   1.578  -6.090  0.00  0.00     0.082 H 
BRANCH  29  32
ATOM     32  N   LIG d   1       5.765   0.448  -7.576  0.00  0.00     0.231 N 
ATOM     33  H   LIG d   1       5.011   0.422  -6.881  0.00  0.00     0.202 HD
ATOM     34  H   LIG d   1       5.928  -0.498  -7.942  0.00  0.00     0.202 HD
BRANCH  32  35
ATOM     35  C   LIG d   1       5.372   1.336  -8.687  0.00  0.00    -0.008 C 
ATOM     36  H   LIG d   1       6.219   1.484  -9.356  0.00  0.00     0.087 H 
ATOM     37  H   LIG d   1       5.050   2.299  -8.289  0.00  0.00     0.087 H 
BRANCH  35  38
ATOM     38  C   LIG d   1       4.236   0.703  -9.448  0.00  0.00    -0.003 A 
ATOM     39  C   LIG d   1       4.346   0.502 -10.812  0.00  0.00    -0.051 A 
ATOM     40  C   LIG d   1       3.308  -0.085 -11.510  0.00  0.00    -0.026 A 
ATOM     41  H   LIG d   1       5.246   0.798 -11.330  0.00  0.00     0.062 H 
ATOM     42  C   LIG d   1       2.152  -0.460 -10.845  0.00  0.00     0.123 A 
ATOM     43  H   LIG d   1       3.395  -0.246 -12.574  0.00  0.00     0.065 H 
ATOM     44  C   LIG d   1       2.043  -0.258  -9.480  0.00  0.00    -0.026 A 
ATOM     45  F   LIG d   1       1.135  -1.029 -11.528  0.00  0.00    -0.205 F 
ATOM     46  C   LIG d   1       3.085   0.324  -8.783  0.00  0.00    -0.051 A 
ATOM     47  H   LIG d   1       1.144  -0.554  -8.960  0.00  0.00     0.065 H 
ATOM     48  H   LIG d   1       3.000   0.482  -7.718  0.00  0.00     0.062 H 
ENDBRANCH  35  38
ENDBRANCH  32  35
ENDBRANCH  29  32
ENDBRANCH  19  29
BRANCH   1  49
ATOM     49  C   LIG d   1       3.337   0.229  -5.186  0.00  0.00    -0.060 C 
ATOM     50  H   LIG d   1       3.601   0.937  -5.972  0.00  0.00     0.023 H 
ATOM     51  H   LIG d   1       3.658  -0.772  -5.475  0.00  0.00     0.023 H 
ATOM     52  H   LIG d   1       2.257   0.236  -5.038  0.00  0.00     0.023 H 
ENDBRANCH   1  49
BRANCH   6  53
ATOM     53  C   LIG d   1       4.668  -2.207  -4.933  0.00  0.00    -0.057 C 
ATOM     54  H   LIG d   1       4.425  -3.256  -4.765  0.00  0.00     0.024 H 
ATOM     55  H   LIG d   1       3.760  -1.660  -5.189  0.00  0.00     0.024 H 
ATOM     56  H   LIG d   1       5.384  -2.126  -5.751  0.00  0.00     0.024 H 
ENDBRANCH   6  53
TORSDOF 6
ENDMDL
MODEL 7
REMARK VINA RESULT:      -6.7      1.745      2.100
REMARK  6 active torsions:
REMARK  status: ('A' for Active; 'I' for Inactive)
REMARK    1  A    between atoms: C_1  and  C_2 
REMARK    2  A    between atoms: C_7  and  C_31 
REMARK    3  A    between atoms: C_20  and  C_22 
REMARK    4  A    between atoms: C_22  and  N_54 
REMARK    5  A    between atoms: C_23  and  C_24 
REMARK    6  A    between atoms: C_23  and  N_54 
ROOT
ATOM      1  C   LIG d   1       3.544   0.680  -4.353  0.00  0.00    -0.012 C 
ATOM      2  H   LIG d   1       3.488   1.350  -5.210  0.00  0.00     0.033 H 
ATOM      3  C   LIG d   1       3.670   1.499  -3.062  0.00  0.00    -0.048 C 
ATOM      4  C   LIG d   1       3.852   0.562  -1.868  0.00  0.00    -0.052 C 
ATOM      5  C   LIG d   1       5.144  -0.246  -2.020  0.00  0.00    -0.045 C 
ATOM      6  C   LIG d   1       5.041  -1.120  -3.270  0.00  0.00     0.003 C 
ATOM      7  C   LIG d   1       4.781  -0.213  -4.478  0.00  0.00     0.104 A 
ATOM      8  C   LIG d   1       5.259  -0.667  -5.841  0.00  0.00     0.096 A 
ATOM      9  H   LIG d   1       4.678  -0.333  -6.700  0.00  0.00     0.063 H 
ATOM     10  O   LIG d   1       5.928   0.366  -5.112  0.00  0.00    -0.363 OA
ATOM     11  C   LIG d   1       5.989  -1.983  -6.032  0.00  0.00     0.043 C 
ATOM     12  H   LIG d   1       6.942  -1.833  -6.539  0.00  0.00     0.037 H 
ATOM     13  C   LIG d   1       6.192  -2.768  -4.732  0.00  0.00     0.110 C 
ATOM     14  H   LIG d   1       7.066  -3.414  -4.826  0.00  0.00     0.074 H 
ATOM     15  C   LIG d   1       6.352  -1.864  -3.520  0.00  0.00    -0.007 C 
ATOM     16  O   LIG d   1       4.997  -3.592  -4.603  0.00  0.00    -0.461 OA
ATOM     17  C   LIG d   1       4.546  -3.919  -5.825  0.00  0.00     0.316 C 
ATOM     18  O   LIG d   1       3.819  -4.853  -6.071  0.00  0.00    -0.250 OA
ATOM     19  C   LIG d   1       5.086  -2.943  -6.848  0.00  0.00     0.105 C 
ATOM     20  H   LIG d   1       5.673  -3.466  -7.603  0.00  0.00     0.047 H 
ATOM     21  H   LIG d   1       2.768   2.094  -2.922  0.00  0.00     0.027 H 
ATOM     22  H   LIG d   1       4.532   2.161  -3.137  0.00  0.00     0.027 H 
ATOM     23  H   LIG d   1       3.004  -0.121  -1.812  0.00  0.00     0.027 H 
ATOM     24  H   LIG d   1       3.900   1.150  -0.952  0.00  0.00     0.027 H 
ATOM     25  H   LIG d   1       5.283  -0.879  -1.143  0.00  0.00     0.027 H 
ATOM     26  H   LIG d   1       5.991   0.432  -2.118  0.00  0.00     0.027 H 
ATOM     27  H   LIG d   1       6.601  -2.467  -2.646  0.00  0.00     0.031 H 
ATOM     28  H   LIG d   1       7.151  -1.144  -3.705  0.00  0.00     0.031 H 
ENDROOT
BRANCH  19  29
ATOM     29  C   LIG d   1       3.942  -2.170  -7.505  0.00  0.00    -0.020 C 
ATOM     30  H   LIG d   1       4.343  -1.303  -8.031  0.00  0.00     0.082 H 
ATOM     31  H   LIG d   1       3.242  -1.836  -6.738  0.00  0.00     0.082 H 
BRANCH  29  32
ATOM     32  N   LIG d   1       3.248  -3.053  -8.460  0.00  0.00     0.231 N 
ATOM     33  H   LIG d   1       2.618  -3.680  -7.946  0.00  0.00     0.202 HD
ATOM     34  H   LIG d   1       3.942  -3.609  -8.973  0.00  0.00     0.202 HD
BRANCH  32  35
ATOM     35  C   LIG d   1       2.461  -2.253  -9.418  0.00  0.00    -0.008 C 
ATOM     36  H   LIG d   1       2.027  -1.393  -8.909  0.00  0.00     0.087 H 
ATOM     37  H   LIG d   1       1.665  -2.866  -9.840  0.00  0.00     0.087 H 
BRANCH  35  38
ATOM     38  C   LIG d   1       3.367  -1.776 -10.525  0.00  0.00    -0.003 A 
ATOM     39  C   LIG d   1       4.214  -2.668 -11.156  0.00  0.00    -0.051 A 
ATOM     40  C   LIG d   1       5.041  -2.235 -12.175  0.00  0.00    -0.026 A 
ATOM     41  H   LIG d   1       4.226  -3.706 -10.857  0.00  0.00     0.062 H 
ATOM     42  C   LIG d   1       5.029  -0.903 -12.555  0.00  0.00     0.123 A 
ATOM     43  H   LIG d   1       5.699  -2.932 -12.671  0.00  0.00     0.065 H 
ATOM     44  C   LIG d   1       4.180  -0.010 -11.922  0.00  0.00    -0.026 A 
ATOM     45  F   LIG d   1       5.840  -0.477 -13.548  0.00  0.00    -0.205 F 
ATOM     46  C   LIG d   1       3.351  -0.448 -10.907  0.00  0.00    -0.051 A 
ATOM     47  H   LIG d   1       4.167   1.027 -12.221  0.00  0.00     0.065 H 
ATOM     48  H   LIG d   1       2.690   0.248 -10.413  0.00  0.00     0.062 H 
ENDBRANCH  35  38
ENDBRANCH  32  35
ENDBRANCH  29  32
ENDBRANCH  19  29
BRANCH   1  49
ATOM     49  C   LIG d   1       2.286  -0.189  -4.292  0.00  0.00    -0.060 C 
ATOM     50  H   LIG d   1       2.058  -0.422  -3.251  0.00  0.00     0.023 H 
ATOM     51  H   LIG d   1       1.450   0.352  -4.735  0.00  0.00     0.023 H 
ATOM     52  H   LIG d   1       2.455  -1.113  -4.843  0.00  0.00     0.023 H 
ENDBRANCH   1  49
BRANCH   6  53
ATOM     53  C   LIG d   1       3.901  -2.126  -3.104  0.00  0.00    -0.057 C 
ATOM     54  H   LIG d   1       4.304  -3.138  -3.125  0.00  0.00     0.024 H 
ATOM     55  H   LIG d   1       3.400  -1.954  -2.151  0.00  0.00     0.024 H 
ATOM     56  H   LIG d   1       3.186  -2.003  -3.918  0.00  0.00     0.024 H 
ENDBRANCH   6  53
TORSDOF 6
ENDMDL
MODEL 8
REMARK VINA RESULT:      -6.4      6.883      8.714
REMARK  6 active torsions:
REMARK  status: ('A' for Active; 'I' for Inactive)
REMARK    1  A    between atoms: C_1  and  C_2 
REMARK    2  A    between atoms: C_7  and  C_31 
REMARK    3  A    between atoms: C_20  and  C_22 
REMARK    4  A    between atoms: C_22  and  N_54 
REMARK    5  A    between atoms: C_23  and  C_24 
REMARK    6  A    between atoms: C_23  and  N_54 
ROOT
ATOM      1  C   LIG d   1       9.974   6.058  -2.328  0.00  0.00    -0.012 C 
ATOM      2  H   LIG d   1       8.950   5.872  -2.003  0.00  0.00     0.033 H 
ATOM      3  C   LIG d   1      10.306   7.546  -2.163  0.00  0.00    -0.048 C 
ATOM      4  C   LIG d   1      11.704   7.830  -2.711  0.00  0.00    -0.052 C 
ATOM      5  C   LIG d   1      11.760   7.516  -4.209  0.00  0.00    -0.045 C 
ATOM      6  C   LIG d   1      11.485   6.026  -4.417  0.00  0.00     0.003 C 
ATOM      7  C   LIG d   1      10.118   5.694  -3.807  0.00  0.00     0.104 A 
ATOM      8  C   LIG d   1       9.325   4.545  -4.391  0.00  0.00     0.096 A 
ATOM      9  H   LIG d   1       8.669   4.005  -3.708  0.00  0.00     0.063 H 
ATOM     10  O   LIG d   1       8.970   5.908  -4.635  0.00  0.00    -0.363 OA
ATOM     11  C   LIG d   1       9.845   3.729  -5.560  0.00  0.00     0.043 C 
ATOM     12  H   LIG d   1       9.121   3.705  -6.374  0.00  0.00     0.037 H 
ATOM     13  C   LIG d   1      11.212   4.193  -6.073  0.00  0.00     0.110 C 
ATOM     14  H   LIG d   1      11.320   3.922  -7.124  0.00  0.00     0.074 H 
ATOM     15  C   LIG d   1      11.424   5.689  -5.906  0.00  0.00    -0.007 C 
ATOM     16  O   LIG d   1      12.181   3.446  -5.281  0.00  0.00    -0.461 OA
ATOM     17  C   LIG d   1      11.667   2.248  -4.961  0.00  0.00     0.316 C 
ATOM     18  O   LIG d   1      12.312   1.279  -4.635  0.00  0.00    -0.250 OA
ATOM     19  C   LIG d   1      10.157   2.293  -5.069  0.00  0.00     0.105 C 
ATOM     20  H   LIG d   1       9.804   1.559  -5.794  0.00  0.00     0.047 H 
ATOM     21  H   LIG d   1      10.271   7.810  -1.106  0.00  0.00     0.027 H 
ATOM     22  H   LIG d   1       9.575   8.143  -2.709  0.00  0.00     0.027 H 
ATOM     23  H   LIG d   1      12.431   7.210  -2.186  0.00  0.00     0.027 H 
ATOM     24  H   LIG d   1      11.948   8.880  -2.554  0.00  0.00     0.027 H 
ATOM     25  H   LIG d   1      12.749   7.762  -4.597  0.00  0.00     0.027 H 
ATOM     26  H   LIG d   1      11.007   8.102  -4.735  0.00  0.00     0.027 H 
ATOM     27  H   LIG d   1      12.361   5.980  -6.384  0.00  0.00     0.031 H 
ATOM     28  H   LIG d   1      10.597   6.229  -6.369  0.00  0.00     0.031 H 
ENDROOT
BRANCH  19  29
ATOM     29  C   LIG d   1       9.516   2.044  -3.703  0.00  0.00    -0.020 C 
ATOM     30  H   LIG d   1       9.045   2.962  -3.350  0.00  0.00     0.082 H 
ATOM     31  H   LIG d   1      10.283   1.734  -2.993  0.00  0.00     0.082 H 
BRANCH  29  32
ATOM     32  N   LIG d   1       8.501   0.983  -3.832  0.00  0.00     0.231 N 
ATOM     33  H   LIG d   1       8.653   0.278  -3.102  0.00  0.00     0.202 HD
ATOM     34  H   LIG d   1       8.585   0.543  -4.756  0.00  0.00     0.202 HD
BRANCH  32  35
ATOM     35  C   LIG d   1       7.146   1.549  -3.686  0.00  0.00    -0.008 C 
ATOM     36  H   LIG d   1       6.800   1.923  -4.649  0.00  0.00     0.087 H 
ATOM     37  H   LIG d   1       7.167   2.367  -2.965  0.00  0.00     0.087 H 
BRANCH  35  38
ATOM     38  C   LIG d   1       6.211   0.473  -3.198  0.00  0.00    -0.003 A 
ATOM     39  C   LIG d   1       5.153   0.801  -2.370  0.00  0.00    -0.051 A 
ATOM     40  C   LIG d   1       4.290  -0.183  -1.928  0.00  0.00    -0.026 A 
ATOM     41  H   LIG d   1       4.997   1.828  -2.074  0.00  0.00     0.062 H 
ATOM     42  C   LIG d   1       4.493  -1.500  -2.304  0.00  0.00     0.123 A 
ATOM     43  H   LIG d   1       3.462   0.074  -1.284  0.00  0.00     0.065 H 
ATOM     44  C   LIG d   1       5.553  -1.828  -3.132  0.00  0.00    -0.026 A 
ATOM     45  F   LIG d   1       3.653  -2.464  -1.867  0.00  0.00    -0.205 F 
ATOM     46  C   LIG d   1       6.411  -0.841  -3.579  0.00  0.00    -0.051 A 
ATOM     47  H   LIG d   1       5.709  -2.854  -3.430  0.00  0.00     0.065 H 
ATOM     48  H   LIG d   1       7.237  -1.096  -4.225  0.00  0.00     0.062 H 
ENDBRANCH  35  38
ENDBRANCH  32  35
ENDBRANCH  29  32
ENDBRANCH  19  29
BRANCH   1  49
ATOM     49  C   LIG d   1      10.942   5.218  -1.493  0.00  0.00    -0.060 C 
ATOM     50  H   LIG d   1      11.927   5.228  -1.961  0.00  0.00     0.023 H 
ATOM     51  H   LIG d   1      11.013   5.637  -0.489  0.00  0.00     0.023 H 
ATOM     52  H   LIG d   1      10.577   4.193  -1.434  0.00  0.00     0.023 H 
ENDBRANCH   1  49
BRANCH   6  53
ATOM     53  C   LIG d   1      12.584   5.200  -3.745  0.00  0.00    -0.057 C 
ATOM     54  H   LIG d   1      13.559   5.552  -4.081  0.00  0.00     0.024 H 
ATOM     55  H   LIG d   1      12.511   5.309  -2.663  0.00  0.00     0.024 H 
ATOM     56  H   LIG d   1      12.464   4.151  -4.014  0.00  0.00     0.024 H 
ENDBRANCH   6  53
TORSDOF 6
ENDMDL
MODEL 9
REMARK VINA RESULT:      -6.3      7.516      9.401
REMARK  6 active torsions:
REMARK  status: ('A' for Active; 'I' for Inactive)
REMARK    1  A    between atoms: C_1  and  C_2 
REMARK    2  A    between atoms: C_7  and  C_31 
REMARK    3  A    between atoms: C_20  and  C_22 
REMARK    4  A    between atoms: C_22  and  N_54 
REMARK    5  A    between atoms: C_23  and  C_24 
REMARK    6  A    between atoms: C_23  and  N_54 
ROOT
ATOM      1  C   LIG d   1      10.700   6.269  -0.497  0.00  0.00    -0.012 C 
ATOM      2  H   LIG d   1       9.740   6.017  -0.048  0.00  0.00     0.033 H 
ATOM      3  C   LIG d   1      11.253   7.545   0.149  0.00  0.00    -0.048 C 
ATOM      4  C   LIG d   1      12.550   7.960  -0.546  0.00  0.00    -0.052 C 
ATOM      5  C   LIG d   1      12.282   8.277  -2.021  0.00  0.00    -0.045 C 
ATOM      6  C   LIG d   1      11.777   7.013  -2.719  0.00  0.00     0.003 C 
ATOM      7  C   LIG d   1      10.517   6.528  -1.994  0.00  0.00     0.104 A 
ATOM      8  C   LIG d   1       9.482   5.753  -2.781  0.00  0.00     0.096 A 
ATOM      9  H   LIG d   1       8.900   5.015  -2.230  0.00  0.00     0.063 H 
ATOM     10  O   LIG d   1       9.273   7.114  -2.396  0.00  0.00    -0.363 OA
ATOM     11  C   LIG d   1       9.662   5.456  -4.258  0.00  0.00     0.043 C 
ATOM     12  H   LIG d   1       8.802   5.798  -4.834  0.00  0.00     0.037 H 
ATOM     13  C   LIG d   1      10.958   6.022  -4.846  0.00  0.00     0.110 C 
ATOM     14  H   LIG d   1      10.832   6.195  -5.915  0.00  0.00     0.074 H 
ATOM     15  C   LIG d   1      11.396   7.311  -4.168  0.00  0.00    -0.007 C 
ATOM     16  O   LIG d   1      11.950   4.973  -4.642  0.00  0.00    -0.461 OA
ATOM     17  C   LIG d   1      11.349   3.774  -4.701  0.00  0.00     0.316 C 
ATOM     18  O   LIG d   1      11.908   2.727  -4.928  0.00  0.00    -0.250 OA
ATOM     19  C   LIG d   1       9.866   3.931  -4.442  0.00  0.00     0.105 C 
ATOM     20  H   LIG d   1       9.289   3.571  -5.294  0.00  0.00     0.047 H 
ATOM     21  H   LIG d   1      11.452   7.360   1.205  0.00  0.00     0.027 H 
ATOM     22  H   LIG d   1      10.520   8.346   0.054  0.00  0.00     0.027 H 
ATOM     23  H   LIG d   1      13.273   7.147  -0.478  0.00  0.00     0.027 H 
ATOM     24  H   LIG d   1      12.957   8.843  -0.056  0.00  0.00     0.027 H 
ATOM     25  H   LIG d   1      13.206   8.611  -2.495  0.00  0.00     0.027 H 
ATOM     26  H   LIG d   1      11.530   9.061  -2.096  0.00  0.00     0.027 H 
ATOM     27  H   LIG d   1      12.257   7.725  -4.694  0.00  0.00     0.031 H 
ATOM     28  H   LIG d   1      10.576   8.030  -4.189  0.00  0.00     0.031 H 
ENDROOT
BRANCH  19  29
ATOM     29  C   LIG d   1       9.463   3.182  -3.171  0.00  0.00    -0.020 C 
ATOM     30  H   LIG d   1       8.613   3.683  -2.707  0.00  0.00     0.082 H 
ATOM     31  H   LIG d   1      10.302   3.171  -2.475  0.00  0.00     0.082 H 
BRANCH  29  32
ATOM     32  N   LIG d   1       9.091   1.799  -3.523  0.00  0.00     0.231 N 
ATOM     33  H   LIG d   1       8.981   1.248  -2.664  0.00  0.00     0.202 HD
ATOM     34  H   LIG d   1       9.832   1.385  -4.102  0.00  0.00     0.202 HD
BRANCH  32  35
ATOM     35  C   LIG d   1       7.822   1.786  -4.275  0.00  0.00    -0.008 C 
ATOM     36  H   LIG d   1       8.008   1.469  -5.301  0.00  0.00     0.087 H 
ATOM     37  H   LIG d   1       7.386   2.785  -4.276  0.00  0.00     0.087 H 
BRANCH  35  38
ATOM     38  C   LIG d   1       6.868   0.822  -3.617  0.00  0.00    -0.003 A 
ATOM     39  C   LIG d   1       7.071  -0.540  -3.736  0.00  0.00    -0.051 A 
ATOM     40  C   LIG d   1       6.201  -1.425  -3.128  0.00  0.00    -0.026 A 
ATOM     41  H   LIG d   1       7.914  -0.914  -4.299  0.00  0.00     0.062 H 
ATOM     42  C   LIG d   1       5.117  -0.945  -2.410  0.00  0.00     0.123 A 
ATOM     43  H   LIG d   1       6.362  -2.489  -3.217  0.00  0.00     0.065 H 
ATOM     44  C   LIG d   1       4.915   0.419  -2.293  0.00  0.00    -0.026 A 
ATOM     45  F   LIG d   1       4.263  -1.809  -1.819  0.00  0.00    -0.205 F 
ATOM     46  C   LIG d   1       5.790   1.302  -2.897  0.00  0.00    -0.051 A 
ATOM     47  H   LIG d   1       4.073   0.793  -1.729  0.00  0.00     0.065 H 
ATOM     48  H   LIG d   1       5.632   2.366  -2.805  0.00  0.00     0.062 H 
ENDBRANCH  35  38
ENDBRANCH  32  35
ENDBRANCH  29  32
ENDBRANCH  19  29
BRANCH   1  49
ATOM     49  C   LIG d   1      11.687   5.118  -0.290  0.00  0.00    -0.060 C 
ATOM     50  H   LIG d   1      12.485   5.188  -1.030  0.00  0.00     0.023 H 
ATOM     51  H   LIG d   1      12.113   5.180   0.712  0.00  0.00     0.023 H 
ATOM     52  H   LIG d   1      11.166   4.167  -0.406  0.00  0.00     0.023 H 
ENDBRANCH   1  49
BRANCH   6  53
ATOM     53  C   LIG d   1      12.862   5.935  -2.682  0.00  0.00    -0.057 C 
ATOM     54  H   LIG d   1      12.963   5.487  -3.670  0.00  0.00     0.024 H 
ATOM     55  H   LIG d   1      13.811   6.383  -2.387  0.00  0.00     0.024 H 
ATOM     56  H   LIG d   1      12.585   5.165  -1.961  0.00  0.00     0.024 H 
ENDBRANCH   6  53
TORSDOF 6
ENDMDL
