MODEL 1
REMARK VINA RESULT:      -7.3      0.000      0.000
REMARK  6 active torsions:
REMARK  status: ('A' for Active; 'I' for Inactive)
REMARK    1  A    between atoms: C_1  and  O_2 
REMARK    2  A    between atoms: O_2  and  C_3 
REMARK    3  A    between atoms: C_8  and  N_9 
REMARK    4  A    between atoms: C_14  and  C_15 
REMARK    5  A    between atoms: C_14  and  N_53 
REMARK    6  A    between atoms: C_15  and  C_16 
ROOT
ATOM      1  N   LIG d   1       6.084   0.726  -4.472  0.00  0.00    -0.317 NA
ATOM      2  C   LIG d   1       6.839  -0.052  -5.465  0.00  0.00     0.053 C 
ATOM      3  C   LIG d   1       7.832   0.867  -6.182  0.00  0.00    -0.016 C 
ATOM      4  C   LIG d   1       7.981   2.249  -4.201  0.00  0.00    -0.016 C 
ATOM      5  C   LIG d   1       6.988   1.331  -3.484  0.00  0.00     0.053 C 
ATOM      6  H   LIG d   1       7.381  -0.853  -4.964  0.00  0.00     0.052 H 
ATOM      7  H   LIG d   1       6.149  -0.479  -6.193  0.00  0.00     0.052 H 
ATOM      8  H   LIG d   1       7.287   1.653  -6.706  0.00  0.00     0.083 H 
ATOM      9  H   LIG d   1       8.412   0.287  -6.899  0.00  0.00     0.083 H 
ATOM     10  H   LIG d   1       7.438   3.051  -4.703  0.00  0.00     0.083 H 
ATOM     11  H   LIG d   1       8.671   2.677  -3.473  0.00  0.00     0.083 H 
ATOM     12  H   LIG d   1       6.407   1.912  -2.768  0.00  0.00     0.052 H 
ATOM     13  H   LIG d   1       7.533   0.546  -2.961  0.00  0.00     0.052 H 
ATOM     14  N   LIG d   1       8.748   1.452  -5.180  0.00  0.00     0.238 N 
ATOM     15  H   LIG d   1       9.231   0.692  -4.686  0.00  0.00     0.203 HD
ENDROOT
BRANCH  14  16
ATOM     16  C   LIG d   1       9.753   2.303  -5.851  0.00  0.00    -0.028 C 
ATOM     17  H   LIG d   1      10.750   1.877  -5.739  0.00  0.00     0.082 H 
ATOM     18  H   LIG d   1       9.506   2.376  -6.911  0.00  0.00     0.082 H 
BRANCH  16  19
ATOM     19  C   LIG d   1       9.720   3.697  -5.222  0.00  0.00     0.015 C 
ATOM     20  H   LIG d   1       9.544   4.442  -5.998  0.00  0.00     0.037 H 
ATOM     21  H   LIG d   1       8.919   3.744  -4.485  0.00  0.00     0.037 H 
BRANCH  19  22
ATOM     22  C   LIG d   1      11.039   3.975  -4.548  0.00  0.00    -0.017 A 
ATOM     23  C   LIG d   1      11.231   4.576  -3.225  0.00  0.00     0.007 A 
ATOM     24  C   LIG d   1      12.621   4.635  -3.022  0.00  0.00     0.051 A 
ATOM     25  C   LIG d   1      10.360   5.049  -2.240  0.00  0.00    -0.007 A 
ATOM     26  N   LIG d   1      13.218   4.106  -4.146  0.00  0.00    -0.360 N 
ATOM     27  C   LIG d   1      13.119   5.164  -1.836  0.00  0.00     0.008 A 
ATOM     28  C   LIG d   1      12.259   3.714  -5.041  0.00  0.00     0.006 A 
ATOM     29  H   LIG d   1      14.175   4.021  -4.281  0.00  0.00     0.165 HD
ATOM     30  H   LIG d   1      12.455   3.263  -6.002  0.00  0.00     0.081 H 
ATOM     31  C   LIG d   1      12.251   5.630  -0.868  0.00  0.00     0.168 A 
ATOM     32  H   LIG d   1      14.185   5.212  -1.673  0.00  0.00     0.068 H 
ATOM     33  C   LIG d   1      10.869   5.572  -1.069  0.00  0.00     0.167 A 
ATOM     34  O   LIG d   1      12.486   6.185   0.359  0.00  0.00    -0.453 OA
ATOM     35  O   LIG d   1      10.246   6.092   0.030  0.00  0.00    -0.453 OA
ATOM     36  C   LIG d   1      11.259   6.840   0.727  0.00  0.00     0.233 C 
ATOM     37  H   LIG d   1      11.265   7.878   0.394  0.00  0.00     0.117 H 
ATOM     38  H   LIG d   1      11.101   6.786   1.804  0.00  0.00     0.117 H 
ATOM     39  H   LIG d   1       9.291   5.006  -2.395  0.00  0.00     0.066 H 
ENDBRANCH  19  22
ENDBRANCH  16  19
ENDBRANCH  14  16
BRANCH   1  40
ATOM     40  C   LIG d   1       5.115  -0.066  -3.847  0.00  0.00     0.072 A 
ATOM     41  C   LIG d   1       3.790  -0.017  -4.275  0.00  0.00     0.141 A 
ATOM     42  C   LIG d   1       2.835  -0.803  -3.651  0.00  0.00    -0.018 A 
ATOM     43  C   LIG d   1       3.197  -1.634  -2.606  0.00  0.00    -0.058 A 
ATOM     44  H   LIG d   1       1.807  -0.767  -3.981  0.00  0.00     0.066 H 
ATOM     45  C   LIG d   1       4.511  -1.683  -2.181  0.00  0.00    -0.060 A 
ATOM     46  H   LIG d   1       2.451  -2.244  -2.121  0.00  0.00     0.062 H 
ATOM     47  C   LIG d   1       5.470  -0.902  -2.798  0.00  0.00    -0.037 A 
ATOM     48  H   LIG d   1       4.789  -2.333  -1.364  0.00  0.00     0.062 H 
ATOM     49  H   LIG d   1       6.497  -0.943  -2.464  0.00  0.00     0.064 H 
BRANCH  41  50
ATOM     50  O   LIG d   1       3.434   0.805  -5.298  0.00  0.00    -0.493 OA
BRANCH  50  51
ATOM     51  C   LIG d   1       3.023   0.182  -6.517  0.00  0.00     0.079 C 
ATOM     52  H   LIG d   1       2.367  -0.660  -6.291  0.00  0.00     0.066 H 
ATOM     53  H   LIG d   1       2.487   0.906  -7.132  0.00  0.00     0.066 H 
ATOM     54  H   LIG d   1       3.899  -0.176  -7.057  0.00  0.00     0.066 H 
ENDBRANCH  50  51
ENDBRANCH  41  50
ENDBRANCH   1  40
TORSDOF 6
ENDMDL
MODEL 2
REMARK VINA RESULT:      -7.2      1.630      2.129
REMARK  6 active torsions:
REMARK  status: ('A' for Active; 'I' for Inactive)
REMARK    1  A    between atoms: C_1  and  O_2 
REMARK    2  A    between atoms: O_2  and  C_3 
REMARK    3  A    between atoms: C_8  and  N_9 
REMARK    4  A    between atoms: C_14  and  C_15 
REMARK    5  A    between atoms: C_14  and  N_53 
REMARK    6  A    between atoms: C_15  and  C_16 
ROOT
ATOM      1  N   LIG d   1       6.431   0.594  -4.883  0.00  0.00    -0.317 NA
ATOM      2  C   LIG d   1       7.143   0.274  -6.129  0.00  0.00     0.053 C 
ATOM      3  C   LIG d   1       7.862   1.526  -6.638  0.00  0.00    -0.016 C 
ATOM      4  C   LIG d   1       8.085   2.323  -4.364  0.00  0.00    -0.016 C 
ATOM      5  C   LIG d   1       7.365   1.072  -3.854  0.00  0.00     0.053 C 
ATOM      6  H   LIG d   1       7.872  -0.512  -5.939  0.00  0.00     0.052 H 
ATOM      7  H   LIG d   1       6.429  -0.065  -6.879  0.00  0.00     0.052 H 
ATOM      8  H   LIG d   1       7.130   2.304  -6.854  0.00  0.00     0.083 H 
ATOM      9  H   LIG d   1       8.414   1.285  -7.547  0.00  0.00     0.083 H 
ATOM     10  H   LIG d   1       7.354   3.111  -4.554  0.00  0.00     0.083 H 
ATOM     11  H   LIG d   1       8.799   2.663  -3.614  0.00  0.00     0.083 H 
ATOM     12  H   LIG d   1       6.813   1.315  -2.946  0.00  0.00     0.052 H 
ATOM     13  H   LIG d   1       8.098   0.294  -3.639  0.00  0.00     0.052 H 
ATOM     14  N   LIG d   1       8.813   1.983  -5.603  0.00  0.00     0.238 N 
ATOM     15  H   LIG d   1       9.477   1.226  -5.403  0.00  0.00     0.203 HD
ENDROOT
BRANCH  14  16
ATOM     16  C   LIG d   1       9.561   3.161  -6.090  0.00  0.00    -0.028 C 
ATOM     17  H   LIG d   1      10.117   2.913  -6.994  0.00  0.00     0.082 H 
ATOM     18  H   LIG d   1       8.857   3.966  -6.307  0.00  0.00     0.082 H 
BRANCH  16  19
ATOM     19  C   LIG d   1      10.535   3.615  -5.001  0.00  0.00     0.015 C 
ATOM     20  H   LIG d   1      10.617   2.839  -4.240  0.00  0.00     0.037 H 
ATOM     21  H   LIG d   1      11.514   3.797  -5.442  0.00  0.00     0.037 H 
BRANCH  19  22
ATOM     22  C   LIG d   1      10.026   4.886  -4.370  0.00  0.00    -0.017 A 
ATOM     23  C   LIG d   1      10.277   5.338  -2.999  0.00  0.00     0.007 A 
ATOM     24  C   LIG d   1       9.607   6.567  -2.865  0.00  0.00     0.051 A 
ATOM     25  C   LIG d   1      10.992   4.812  -1.921  0.00  0.00    -0.007 A 
ATOM     26  N   LIG d   1       8.997   6.830  -4.073  0.00  0.00    -0.360 N 
ATOM     27  C   LIG d   1       9.663   7.251  -1.656  0.00  0.00     0.008 A 
ATOM     28  C   LIG d   1       9.262   5.820  -4.959  0.00  0.00     0.006 A 
ATOM     29  H   LIG d   1       8.462   7.616  -4.269  0.00  0.00     0.165 HD
ATOM     30  H   LIG d   1       8.909   5.778  -5.978  0.00  0.00     0.081 H 
ATOM     31  C   LIG d   1      10.372   6.723  -0.594  0.00  0.00     0.168 A 
ATOM     32  H   LIG d   1       9.150   8.195  -1.547  0.00  0.00     0.068 H 
ATOM     33  C   LIG d   1      11.038   5.501  -0.726  0.00  0.00     0.167 A 
ATOM     34  O   LIG d   1      10.575   7.193   0.673  0.00  0.00    -0.453 OA
ATOM     35  O   LIG d   1      11.653   5.210   0.458  0.00  0.00    -0.453 OA
ATOM     36  C   LIG d   1      11.023   6.058   1.436  0.00  0.00     0.233 C 
ATOM     37  H   LIG d   1      10.176   5.547   1.895  0.00  0.00     0.117 H 
ATOM     38  H   LIG d   1      11.741   6.364   2.197  0.00  0.00     0.117 H 
ATOM     39  H   LIG d   1      11.507   3.867  -2.020  0.00  0.00     0.066 H 
ENDBRANCH  19  22
ENDBRANCH  16  19
ENDBRANCH  14  16
BRANCH   1  40
ATOM     40  C   LIG d   1       5.702  -0.509  -4.426  0.00  0.00     0.072 A 
ATOM     41  C   LIG d   1       4.435  -0.328  -3.873  0.00  0.00     0.141 A 
ATOM     42  C   LIG d   1       3.719  -1.424  -3.421  0.00  0.00    -0.018 A 
ATOM     43  C   LIG d   1       4.259  -2.693  -3.519  0.00  0.00    -0.058 A 
ATOM     44  H   LIG d   1       2.737  -1.286  -2.992  0.00  0.00     0.066 H 
ATOM     45  C   LIG d   1       5.515  -2.873  -4.067  0.00  0.00    -0.060 A 
ATOM     46  H   LIG d   1       3.699  -3.545  -3.165  0.00  0.00     0.062 H 
ATOM     47  C   LIG d   1       6.237  -1.785  -4.520  0.00  0.00    -0.037 A 
ATOM     48  H   LIG d   1       5.933  -3.866  -4.141  0.00  0.00     0.062 H 
ATOM     49  H   LIG d   1       7.218  -1.928  -4.948  0.00  0.00     0.064 H 
BRANCH  41  50
ATOM     50  O   LIG d   1       3.907   0.921  -3.772  0.00  0.00    -0.493 OA
BRANCH  50  51
ATOM     51  C   LIG d   1       3.732   1.447  -2.456  0.00  0.00     0.079 C 
ATOM     52  H   LIG d   1       4.705   1.543  -1.971  0.00  0.00     0.066 H 
ATOM     53  H   LIG d   1       3.258   2.427  -2.516  0.00  0.00     0.066 H 
ATOM     54  H   LIG d   1       3.103   0.773  -1.875  0.00  0.00     0.066 H 
ENDBRANCH  50  51
ENDBRANCH  41  50
ENDBRANCH   1  40
TORSDOF 6
ENDMDL
MODEL 3
REMARK VINA RESULT:      -7.1      3.086      3.736
REMARK  6 active torsions:
REMARK  status: ('A' for Active; 'I' for Inactive)
REMARK    1  A    between atoms: C_1  and  O_2 
REMARK    2  A    between atoms: O_2  and  C_3 
REMARK    3  A    between atoms: C_8  and  N_9 
REMARK    4  A    between atoms: C_14  and  C_15 
REMARK    5  A    between atoms: C_14  and  N_53 
REMARK    6  A    between atoms: C_15  and  C_16 
ROOT
ATOM      1  N   LIG d   1       6.096   0.674  -4.560  0.00  0.00    -0.317 NA
ATOM      2  C   LIG d   1       6.779  -0.121  -5.590  0.00  0.00     0.053 C 
ATOM      3  C   LIG d   1       7.763   0.771  -6.351  0.00  0.00    -0.016 C 
ATOM      4  C   LIG d   1       8.047   2.141  -4.375  0.00  0.00    -0.016 C 
ATOM      5  C   LIG d   1       7.064   1.249  -3.615  0.00  0.00     0.053 C 
ATOM      6  H   LIG d   1       7.321  -0.939  -5.117  0.00  0.00     0.052 H 
ATOM      7  H   LIG d   1       6.043  -0.526  -6.285  0.00  0.00     0.052 H 
ATOM      8  H   LIG d   1       7.217   1.575  -6.846  0.00  0.00     0.083 H 
ATOM      9  H   LIG d   1       8.291   0.178  -7.097  0.00  0.00     0.083 H 
ATOM     10  H   LIG d   1       7.504   2.960  -4.849  0.00  0.00     0.083 H 
ATOM     11  H   LIG d   1       8.783   2.546  -3.681  0.00  0.00     0.083 H 
ATOM     12  H   LIG d   1       6.535   1.844  -2.870  0.00  0.00     0.052 H 
ATOM     13  H   LIG d   1       7.610   0.446  -3.120  0.00  0.00     0.052 H 
ATOM     14  N   LIG d   1       8.743   1.326  -5.392  0.00  0.00     0.238 N 
ATOM     15  H   LIG d   1       9.226   0.550  -4.924  0.00  0.00     0.203 HD
ENDROOT
BRANCH  14  16
ATOM     16  C   LIG d   1       9.739   2.150  -6.109  0.00  0.00    -0.028 C 
ATOM     17  H   LIG d   1      10.721   1.679  -6.072  0.00  0.00     0.082 H 
ATOM     18  H   LIG d   1       9.428   2.260  -7.149  0.00  0.00     0.082 H 
BRANCH  16  19
ATOM     19  C   LIG d   1       9.808   3.528  -5.448  0.00  0.00     0.015 C 
ATOM     20  H   LIG d   1       8.970   3.645  -4.762  0.00  0.00     0.037 H 
ATOM     21  H   LIG d   1      10.744   3.620  -4.898  0.00  0.00     0.037 H 
BRANCH  19  22
ATOM     22  C   LIG d   1       9.742   4.597  -6.509  0.00  0.00    -0.017 A 
ATOM     23  C   LIG d   1       9.737   6.046  -6.285  0.00  0.00     0.007 A 
ATOM     24  C   LIG d   1       9.668   6.636  -7.560  0.00  0.00     0.051 A 
ATOM     25  C   LIG d   1       9.784   6.850  -5.144  0.00  0.00    -0.007 A 
ATOM     26  N   LIG d   1       9.633   5.611  -8.480  0.00  0.00    -0.360 N 
ATOM     27  C   LIG d   1       9.648   8.022  -7.673  0.00  0.00     0.008 A 
ATOM     28  C   LIG d   1       9.684   4.404  -7.836  0.00  0.00     0.006 A 
ATOM     29  H   LIG d   1       9.584   5.727  -9.443  0.00  0.00     0.165 HD
ATOM     30  H   LIG d   1       9.676   3.440  -8.321  0.00  0.00     0.081 H 
ATOM     31  C   LIG d   1       9.695   8.810  -6.540  0.00  0.00     0.168 A 
ATOM     32  H   LIG d   1       9.595   8.482  -8.649  0.00  0.00     0.068 H 
ATOM     33  C   LIG d   1       9.763   8.224  -5.273  0.00  0.00     0.167 A 
ATOM     34  O   LIG d   1       9.688  10.168  -6.388  0.00  0.00    -0.453 OA
ATOM     35  O   LIG d   1       9.797   9.216  -4.334  0.00  0.00    -0.453 OA
ATOM     36  C   LIG d   1       9.338  10.401  -5.012  0.00  0.00     0.233 C 
ATOM     37  H   LIG d   1       8.259  10.508  -4.905  0.00  0.00     0.117 H 
ATOM     38  H   LIG d   1       9.849  11.283  -4.628  0.00  0.00     0.117 H 
ATOM     39  H   LIG d   1       9.837   6.399  -4.164  0.00  0.00     0.066 H 
ENDBRANCH  19  22
ENDBRANCH  16  19
ENDBRANCH  14  16
BRANCH   1  40
ATOM     40  C   LIG d   1       5.135  -0.092  -3.890  0.00  0.00     0.072 A 
ATOM     41  C   LIG d   1       3.796  -0.018  -4.268  0.00  0.00     0.141 A 
ATOM     42  C   LIG d   1       2.850  -0.778  -3.600  0.00  0.00    -0.018 A 
ATOM     43  C   LIG d   1       3.234  -1.608  -2.564  0.00  0.00    -0.058 A 
ATOM     44  H   LIG d   1       1.811  -0.722  -3.891  0.00  0.00     0.066 H 
ATOM     45  C   LIG d   1       4.563  -1.682  -2.189  0.00  0.00    -0.060 A 
ATOM     46  H   LIG d   1       2.494  -2.199  -2.045  0.00  0.00     0.062 H 
ATOM     47  C   LIG d   1       5.513  -0.927  -2.849  0.00  0.00    -0.037 A 
ATOM     48  H   LIG d   1       4.858  -2.332  -1.378  0.00  0.00     0.062 H 
ATOM     49  H   LIG d   1       6.551  -0.987  -2.555  0.00  0.00     0.064 H 
BRANCH  41  50
ATOM     50  O   LIG d   1       3.418   0.803  -5.284  0.00  0.00    -0.493 OA
BRANCH  50  51
ATOM     51  C   LIG d   1       2.986   0.180  -6.494  0.00  0.00     0.079 C 
ATOM     52  H   LIG d   1       3.849  -0.008  -7.134  0.00  0.00     0.066 H 
ATOM     53  H   LIG d   1       2.494  -0.765  -6.261  0.00  0.00     0.066 H 
ATOM     54  H   LIG d   1       2.287   0.836  -7.012  0.00  0.00     0.066 H 
ENDBRANCH  50  51
ENDBRANCH  41  50
ENDBRANCH   1  40
TORSDOF 6
ENDMDL
MODEL 4
REMARK VINA RESULT:      -7.0      1.557      1.781
REMARK  6 active torsions:
REMARK  status: ('A' for Active; 'I' for Inactive)
REMARK    1  A    between atoms: C_1  and  O_2 
REMARK    2  A    between atoms: O_2  and  C_3 
REMARK    3  A    between atoms: C_8  and  N_9 
REMARK    4  A    between atoms: C_14  and  C_15 
REMARK    5  A    between atoms: C_14  and  N_53 
REMARK    6  A    between atoms: C_15  and  C_16 
ROOT
ATOM      1  N   LIG d   1       6.412   0.346  -4.330  0.00  0.00    -0.317 NA
ATOM      2  C   LIG d   1       7.428  -0.711  -4.426  0.00  0.00     0.053 C 
ATOM      3  C   LIG d   1       8.713  -0.129  -5.020  0.00  0.00    -0.016 C 
ATOM      4  C   LIG d   1       8.168   2.033  -4.076  0.00  0.00    -0.016 C 
ATOM      5  C   LIG d   1       6.883   1.451  -3.482  0.00  0.00     0.053 C 
ATOM      6  H   LIG d   1       7.634  -1.108  -3.433  0.00  0.00     0.052 H 
ATOM      7  H   LIG d   1       7.061  -1.511  -5.069  0.00  0.00     0.052 H 
ATOM      8  H   LIG d   1       8.513   0.245  -6.025  0.00  0.00     0.083 H 
ATOM      9  H   LIG d   1       9.477  -0.904  -5.066  0.00  0.00     0.083 H 
ATOM     10  H   LIG d   1       7.962   2.430  -5.071  0.00  0.00     0.083 H 
ATOM     11  H   LIG d   1       8.536   2.833  -3.434  0.00  0.00     0.083 H 
ATOM     12  H   LIG d   1       6.119   2.227  -3.438  0.00  0.00     0.052 H 
ATOM     13  H   LIG d   1       7.084   1.078  -2.478  0.00  0.00     0.052 H 
ATOM     14  N   LIG d   1       9.188   0.966  -4.147  0.00  0.00     0.238 N 
ATOM     15  H   LIG d   1       9.347   0.594  -3.203  0.00  0.00     0.203 HD
ENDROOT
BRANCH  14  16
ATOM     16  C   LIG d   1      10.458   1.513  -4.668  0.00  0.00    -0.028 C 
ATOM     17  H   LIG d   1      11.138   0.705  -4.939  0.00  0.00     0.082 H 
ATOM     18  H   LIG d   1      10.249   2.121  -5.549  0.00  0.00     0.082 H 
BRANCH  16  19
ATOM     19  C   LIG d   1      11.103   2.383  -3.589  0.00  0.00     0.015 C 
ATOM     20  H   LIG d   1      10.469   2.392  -2.702  0.00  0.00     0.037 H 
ATOM     21  H   LIG d   1      12.081   1.977  -3.332  0.00  0.00     0.037 H 
BRANCH  19  22
ATOM     22  C   LIG d   1      11.264   3.789  -4.107  0.00  0.00    -0.017 A 
ATOM     23  C   LIG d   1      10.884   5.022  -3.411  0.00  0.00     0.007 A 
ATOM     24  C   LIG d   1      11.223   6.077  -4.277  0.00  0.00     0.051 A 
ATOM     25  C   LIG d   1      10.306   5.295  -2.169  0.00  0.00    -0.007 A 
ATOM     26  N   LIG d   1      11.766   5.513  -5.411  0.00  0.00    -0.360 N 
ATOM     27  C   LIG d   1      10.979   7.390  -3.886  0.00  0.00     0.008 A 
ATOM     28  C   LIG d   1      11.787   4.150  -5.289  0.00  0.00     0.006 A 
ATOM     29  H   LIG d   1      12.089   6.009  -6.180  0.00  0.00     0.165 HD
ATOM     30  H   LIG d   1      12.166   3.466  -6.033  0.00  0.00     0.081 H 
ATOM     31  C   LIG d   1      10.407   7.651  -2.656  0.00  0.00     0.168 A 
ATOM     32  H   LIG d   1      11.236   8.205  -4.546  0.00  0.00     0.068 H 
ATOM     33  C   LIG d   1      10.070   6.602  -1.796  0.00  0.00     0.167 A 
ATOM     34  O   LIG d   1      10.073   8.831  -2.053  0.00  0.00    -0.453 OA
ATOM     35  O   LIG d   1       9.525   7.129  -0.659  0.00  0.00    -0.453 OA
ATOM     36  C   LIG d   1       9.157   8.479  -1.000  0.00  0.00     0.233 C 
ATOM     37  H   LIG d   1       8.129   8.515  -1.360  0.00  0.00     0.117 H 
ATOM     38  H   LIG d   1       9.284   9.138  -0.141  0.00  0.00     0.117 H 
ATOM     39  H   LIG d   1      10.044   4.486  -1.503  0.00  0.00     0.066 H 
ENDBRANCH  19  22
ENDBRANCH  16  19
ENDBRANCH  14  16
BRANCH   1  40
ATOM     40  C   LIG d   1       5.198  -0.166  -3.858  0.00  0.00     0.072 A 
ATOM     41  C   LIG d   1       4.074  -0.168  -4.681  0.00  0.00     0.141 A 
ATOM     42  C   LIG d   1       2.875  -0.675  -4.207  0.00  0.00    -0.018 A 
ATOM     43  C   LIG d   1       2.796  -1.178  -2.922  0.00  0.00    -0.058 A 
ATOM     44  H   LIG d   1       2.002  -0.678  -4.843  0.00  0.00     0.066 H 
ATOM     45  C   LIG d   1       3.911  -1.177  -2.105  0.00  0.00    -0.060 A 
ATOM     46  H   LIG d   1       1.860  -1.572  -2.555  0.00  0.00     0.062 H 
ATOM     47  C   LIG d   1       5.111  -0.672  -2.570  0.00  0.00    -0.037 A 
ATOM     48  H   LIG d   1       3.844  -1.571  -1.101  0.00  0.00     0.062 H 
ATOM     49  H   LIG d   1       5.981  -0.672  -1.930  0.00  0.00     0.064 H 
BRANCH  41  50
ATOM     50  O   LIG d   1       4.151   0.333  -5.943  0.00  0.00    -0.493 OA
BRANCH  50  51
ATOM     51  C   LIG d   1       2.950   0.330  -6.716  0.00  0.00     0.079 C 
ATOM     52  H   LIG d   1       3.201   0.359  -7.778  0.00  0.00     0.066 H 
ATOM     53  H   LIG d   1       2.382  -0.576  -6.502  0.00  0.00     0.066 H 
ATOM     54  H   LIG d   1       2.350   1.203  -6.462  0.00  0.00     0.066 H 
ENDBRANCH  50  51
ENDBRANCH  41  50
ENDBRANCH   1  40
TORSDOF 6
ENDMDL
MODEL 5
REMARK VINA RESULT:      -6.9      4.099      5.638
REMARK  6 active torsions:
REMARK  status: ('A' for Active; 'I' for Inactive)
REMARK    1  A    between atoms: C_1  and  O_2 
REMARK    2  A    between atoms: O_2  and  C_3 
REMARK    3  A    between atoms: C_8  and  N_9 
REMARK    4  A    between atoms: C_14  and  C_15 
REMARK    5  A    between atoms: C_14  and  N_53 
REMARK    6  A    between atoms: C_15  and  C_16 
ROOT
ATOM      1  N   LIG d   1       6.070   0.629  -4.538  0.00  0.00    -0.317 NA
ATOM      2  C   LIG d   1       6.762  -0.211  -5.526  0.00  0.00     0.053 C 
ATOM      3  C   LIG d   1       7.777   0.639  -6.294  0.00  0.00    -0.016 C 
ATOM      4  C   LIG d   1       8.042   2.070  -4.360  0.00  0.00    -0.016 C 
ATOM      5  C   LIG d   1       7.027   1.220  -3.591  0.00  0.00     0.053 C 
ATOM      6  H   LIG d   1       7.280  -1.022  -5.014  0.00  0.00     0.052 H 
ATOM      7  H   LIG d   1       6.035  -0.627  -6.223  0.00  0.00     0.052 H 
ATOM      8  H   LIG d   1       7.256   1.434  -6.828  0.00  0.00     0.083 H 
ATOM      9  H   LIG d   1       8.311   0.012  -7.008  0.00  0.00     0.083 H 
ATOM     10  H   LIG d   1       7.523   2.881  -4.872  0.00  0.00     0.083 H 
ATOM     11  H   LIG d   1       8.769   2.486  -3.663  0.00  0.00     0.083 H 
ATOM     12  H   LIG d   1       6.492   1.848  -2.879  0.00  0.00     0.052 H 
ATOM     13  H   LIG d   1       7.548   0.426  -3.058  0.00  0.00     0.052 H 
ATOM     14  N   LIG d   1       8.745   1.209  -5.333  0.00  0.00     0.238 N 
ATOM     15  H   LIG d   1       9.205   0.442  -4.829  0.00  0.00     0.203 HD
ENDROOT
BRANCH  14  16
ATOM     16  C   LIG d   1       9.770   1.993  -6.054  0.00  0.00    -0.028 C 
ATOM     17  H   LIG d   1      10.246   2.708  -5.383  0.00  0.00     0.082 H 
ATOM     18  H   LIG d   1      10.523   1.312  -6.453  0.00  0.00     0.082 H 
BRANCH  16  19
ATOM     19  C   LIG d   1       9.100   2.743  -7.206  0.00  0.00     0.015 C 
ATOM     20  H   LIG d   1       9.248   2.192  -8.135  0.00  0.00     0.037 H 
ATOM     21  H   LIG d   1       8.033   2.838  -7.006  0.00  0.00     0.037 H 
BRANCH  19  22
ATOM     22  C   LIG d   1       9.709   4.116  -7.334  0.00  0.00    -0.017 A 
ATOM     23  C   LIG d   1       9.632   4.998  -8.502  0.00  0.00     0.007 A 
ATOM     24  C   LIG d   1      10.342   6.162  -8.159  0.00  0.00     0.051 A 
ATOM     25  C   LIG d   1       9.037   4.888  -9.761  0.00  0.00    -0.007 A 
ATOM     26  N   LIG d   1      10.811   5.987  -6.875  0.00  0.00    -0.360 N 
ATOM     27  C   LIG d   1      10.444   7.199  -9.080  0.00  0.00     0.008 A 
ATOM     28  C   LIG d   1      10.419   4.765  -6.398  0.00  0.00     0.006 A 
ATOM     29  H   LIG d   1      11.337   6.635  -6.380  0.00  0.00     0.165 HD
ATOM     30  H   LIG d   1      10.649   4.378  -5.417  0.00  0.00     0.081 H 
ATOM     31  C   LIG d   1       9.853   7.082 -10.323  0.00  0.00     0.168 A 
ATOM     32  H   LIG d   1      10.988   8.096  -8.823  0.00  0.00     0.068 H 
ATOM     33  C   LIG d   1       9.148   5.925 -10.665  0.00  0.00     0.167 A 
ATOM     34  O   LIG d   1       9.812   7.943 -11.383  0.00  0.00    -0.453 OA
ATOM     35  O   LIG d   1       8.670   6.065 -11.937  0.00  0.00    -0.453 OA
ATOM     36  C   LIG d   1       9.431   7.142 -12.516  0.00  0.00     0.233 C 
ATOM     37  H   LIG d   1      10.314   6.755 -13.024  0.00  0.00     0.117 H 
ATOM     38  H   LIG d   1       8.815   7.718 -13.206  0.00  0.00     0.117 H 
ATOM     39  H   LIG d   1       8.492   3.993 -10.028  0.00  0.00     0.066 H 
ENDBRANCH  19  22
ENDBRANCH  16  19
ENDBRANCH  14  16
BRANCH   1  40
ATOM     40  C   LIG d   1       5.082  -0.098  -3.865  0.00  0.00     0.072 A 
ATOM     41  C   LIG d   1       3.751  -0.005  -4.266  0.00  0.00     0.141 A 
ATOM     42  C   LIG d   1       2.778  -0.726  -3.595  0.00  0.00    -0.018 A 
ATOM     43  C   LIG d   1       3.128  -1.538  -2.531  0.00  0.00    -0.058 A 
ATOM     44  H   LIG d   1       1.745  -0.656  -3.904  0.00  0.00     0.066 H 
ATOM     45  C   LIG d   1       4.448  -1.631  -2.133  0.00  0.00    -0.060 A 
ATOM     46  H   LIG d   1       2.367  -2.099  -2.009  0.00  0.00     0.062 H 
ATOM     47  C   LIG d   1       5.425  -0.914  -2.797  0.00  0.00    -0.037 A 
ATOM     48  H   LIG d   1       4.716  -2.266  -1.301  0.00  0.00     0.062 H 
ATOM     49  H   LIG d   1       6.456  -0.989  -2.484  0.00  0.00     0.064 H 
BRANCH  41  50
ATOM     50  O   LIG d   1       3.407   0.798  -5.309  0.00  0.00    -0.493 OA
BRANCH  50  51
ATOM     51  C   LIG d   1       3.019   0.153  -6.523  0.00  0.00     0.079 C 
ATOM     52  H   LIG d   1       2.571  -0.815  -6.293  0.00  0.00     0.066 H 
ATOM     53  H   LIG d   1       2.293   0.773  -7.048  0.00  0.00     0.066 H 
ATOM     54  H   LIG d   1       3.895   0.006  -7.154  0.00  0.00     0.066 H 
ENDBRANCH  50  51
ENDBRANCH  41  50
ENDBRANCH   1  40
TORSDOF 6
ENDMDL
MODEL 6
REMARK VINA RESULT:      -6.9      4.899     11.225
REMARK  6 active torsions:
REMARK  status: ('A' for Active; 'I' for Inactive)
REMARK    1  A    between atoms: C_1  and  O_2 
REMARK    2  A    between atoms: O_2  and  C_3 
REMARK    3  A    between atoms: C_8  and  N_9 
REMARK    4  A    between atoms: C_14  and  C_15 
REMARK    5  A    between atoms: C_14  and  N_53 
REMARK    6  A    between atoms: C_15  and  C_16 
ROOT
ATOM      1  N   LIG d   1       4.307   0.123  -5.648  0.00  0.00    -0.317 NA
ATOM      2  C   LIG d   1       2.926   0.237  -6.139  0.00  0.00     0.053 C 
ATOM      3  C   LIG d   1       2.937   0.808  -7.559  0.00  0.00    -0.016 C 
ATOM      4  C   LIG d   1       5.112  -0.183  -7.940  0.00  0.00    -0.016 C 
ATOM      5  C   LIG d   1       5.101  -0.754  -6.520  0.00  0.00     0.053 C 
ATOM      6  H   LIG d   1       2.461  -0.748  -6.147  0.00  0.00     0.052 H 
ATOM      7  H   LIG d   1       2.361   0.901  -5.484  0.00  0.00     0.052 H 
ATOM      8  H   LIG d   1       3.378   1.805  -7.547  0.00  0.00     0.083 H 
ATOM      9  H   LIG d   1       1.916   0.868  -7.936  0.00  0.00     0.083 H 
ATOM     10  H   LIG d   1       5.578   0.804  -7.932  0.00  0.00     0.083 H 
ATOM     11  H   LIG d   1       5.677  -0.846  -8.595  0.00  0.00     0.083 H 
ATOM     12  H   LIG d   1       6.123  -0.811  -6.144  0.00  0.00     0.052 H 
ATOM     13  H   LIG d   1       4.660  -1.750  -6.533  0.00  0.00     0.052 H 
ATOM     14  N   LIG d   1       3.721  -0.093  -8.429  0.00  0.00     0.238 N 
ATOM     15  H   LIG d   1       3.298  -1.029  -8.405  0.00  0.00     0.203 HD
ENDROOT
BRANCH  14  16
ATOM     16  C   LIG d   1       3.703   0.406  -9.820  0.00  0.00    -0.028 C 
ATOM     17  H   LIG d   1       2.749   0.885 -10.041  0.00  0.00     0.082 H 
ATOM     18  H   LIG d   1       4.510   1.129  -9.949  0.00  0.00     0.082 H 
BRANCH  16  19
ATOM     19  C   LIG d   1       3.917  -0.771 -10.772  0.00  0.00     0.015 C 
ATOM     20  H   LIG d   1       4.207  -0.397 -11.754  0.00  0.00     0.037 H 
ATOM     21  H   LIG d   1       4.704  -1.416 -10.382  0.00  0.00     0.037 H 
BRANCH  19  22
ATOM     22  C   LIG d   1       2.637  -1.559 -10.891  0.00  0.00    -0.017 A 
ATOM     23  C   LIG d   1       2.451  -2.974 -10.555  0.00  0.00     0.007 A 
ATOM     24  C   LIG d   1       1.102  -3.264 -10.827  0.00  0.00     0.051 A 
ATOM     25  C   LIG d   1       3.296  -3.972 -10.064  0.00  0.00    -0.007 A 
ATOM     26  N   LIG d   1       0.523  -2.103 -11.293  0.00  0.00    -0.360 N 
ATOM     27  C   LIG d   1       0.619  -4.548 -10.601  0.00  0.00     0.008 A 
ATOM     28  C   LIG d   1       1.452  -1.098 -11.320  0.00  0.00     0.006 A 
ATOM     29  H   LIG d   1      -0.405  -2.012 -11.560  0.00  0.00     0.165 HD
ATOM     30  H   LIG d   1       1.261  -0.084 -11.639  0.00  0.00     0.081 H 
ATOM     31  C   LIG d   1       1.461  -5.530 -10.116  0.00  0.00     0.168 A 
ATOM     32  H   LIG d   1      -0.416  -4.778 -10.807  0.00  0.00     0.068 H 
ATOM     33  C   LIG d   1       2.802  -5.242  -9.847  0.00  0.00     0.167 A 
ATOM     34  O   LIG d   1       1.232  -6.843  -9.817  0.00  0.00    -0.453 OA
ATOM     35  O   LIG d   1       3.406  -6.375  -9.382  0.00  0.00    -0.453 OA
ATOM     36  C   LIG d   1       2.532  -7.457  -9.755  0.00  0.00     0.233 C 
ATOM     37  H   LIG d   1       2.813  -7.856 -10.730  0.00  0.00     0.117 H 
ATOM     38  H   LIG d   1       2.552  -8.243  -9.001  0.00  0.00     0.117 H 
ATOM     39  H   LIG d   1       4.333  -3.751  -9.856  0.00  0.00     0.066 H 
ENDBRANCH  19  22
ENDBRANCH  16  19
ENDBRANCH  14  16
BRANCH   1  40
ATOM     40  C   LIG d   1       4.333  -0.328  -4.324  0.00  0.00     0.072 A 
ATOM     41  C   LIG d   1       5.068   0.364  -3.364  0.00  0.00     0.141 A 
ATOM     42  C   LIG d   1       5.091  -0.089  -2.056  0.00  0.00    -0.018 A 
ATOM     43  C   LIG d   1       4.385  -1.224  -1.704  0.00  0.00    -0.058 A 
ATOM     44  H   LIG d   1       5.661   0.446  -1.310  0.00  0.00     0.066 H 
ATOM     45  C   LIG d   1       3.655  -1.912  -2.655  0.00  0.00    -0.060 A 
ATOM     46  H   LIG d   1       4.405  -1.576  -0.683  0.00  0.00     0.062 H 
ATOM     47  C   LIG d   1       3.627  -1.466  -3.963  0.00  0.00    -0.037 A 
ATOM     48  H   LIG d   1       3.105  -2.798  -2.375  0.00  0.00     0.062 H 
ATOM     49  H   LIG d   1       3.055  -2.005  -4.705  0.00  0.00     0.064 H 
BRANCH  41  50
ATOM     50  O   LIG d   1       5.768   1.477  -3.713  0.00  0.00    -0.493 OA
BRANCH  50  51
ATOM     51  C   LIG d   1       7.192   1.378  -3.701  0.00  0.00     0.079 C 
ATOM     52  H   LIG d   1       7.583   1.631  -4.688  0.00  0.00     0.066 H 
ATOM     53  H   LIG d   1       7.599   2.070  -2.962  0.00  0.00     0.066 H 
ATOM     54  H   LIG d   1       7.485   0.360  -3.445  0.00  0.00     0.066 H 
ENDBRANCH  50  51
ENDBRANCH  41  50
ENDBRANCH   1  40
TORSDOF 6
ENDMDL
MODEL 7
REMARK VINA RESULT:      -6.8      6.417     10.901
REMARK  6 active torsions:
REMARK  status: ('A' for Active; 'I' for Inactive)
REMARK    1  A    between atoms: C_1  and  O_2 
REMARK    2  A    between atoms: O_2  and  C_3 
REMARK    3  A    between atoms: C_8  and  N_9 
REMARK    4  A    between atoms: C_14  and  C_15 
REMARK    5  A    between atoms: C_14  and  N_53 
REMARK    6  A    between atoms: C_15  and  C_16 
ROOT
ATOM      1  N   LIG d   1       5.785  -1.792  -4.636  0.00  0.00    -0.317 NA
ATOM      2  C   LIG d   1       5.262  -3.162  -4.546  0.00  0.00     0.053 C 
ATOM      3  C   LIG d   1       6.127  -4.094  -5.398  0.00  0.00    -0.016 C 
ATOM      4  C   LIG d   1       8.042  -2.662  -5.018  0.00  0.00    -0.016 C 
ATOM      5  C   LIG d   1       7.177  -1.731  -4.166  0.00  0.00     0.053 C 
ATOM      6  H   LIG d   1       5.286  -3.493  -3.508  0.00  0.00     0.052 H 
ATOM      7  H   LIG d   1       4.235  -3.184  -4.911  0.00  0.00     0.052 H 
ATOM      8  H   LIG d   1       6.082  -3.779  -6.441  0.00  0.00     0.083 H 
ATOM      9  H   LIG d   1       5.758  -5.116  -5.311  0.00  0.00     0.083 H 
ATOM     10  H   LIG d   1       8.018  -2.331  -6.057  0.00  0.00     0.083 H 
ATOM     11  H   LIG d   1       9.068  -2.640  -4.653  0.00  0.00     0.083 H 
ATOM     12  H   LIG d   1       7.546  -0.709  -4.255  0.00  0.00     0.052 H 
ATOM     13  H   LIG d   1       7.222  -2.046  -3.124  0.00  0.00     0.052 H 
ATOM     14  N   LIG d   1       7.519  -4.039  -4.901  0.00  0.00     0.238 N 
ATOM     15  H   LIG d   1       7.531  -4.318  -3.913  0.00  0.00     0.203 HD
ENDROOT
BRANCH  14  16
ATOM     16  C   LIG d   1       8.367  -4.971  -5.674  0.00  0.00    -0.028 C 
ATOM     17  H   LIG d   1       8.746  -4.485  -6.574  0.00  0.00     0.082 H 
ATOM     18  H   LIG d   1       9.206  -5.287  -5.052  0.00  0.00     0.082 H 
BRANCH  16  19
ATOM     19  C   LIG d   1       7.533  -6.192  -6.065  0.00  0.00     0.015 C 
ATOM     20  H   LIG d   1       6.478  -5.920  -6.086  0.00  0.00     0.037 H 
ATOM     21  H   LIG d   1       7.839  -6.540  -7.051  0.00  0.00     0.037 H 
BRANCH  19  22
ATOM     22  C   LIG d   1       7.749  -7.291  -5.056  0.00  0.00    -0.017 A 
ATOM     23  C   LIG d   1       6.757  -8.276  -4.617  0.00  0.00     0.007 A 
ATOM     24  C   LIG d   1       7.409  -9.093  -3.677  0.00  0.00     0.051 A 
ATOM     25  C   LIG d   1       5.418  -8.513  -4.938  0.00  0.00    -0.007 A 
ATOM     26  N   LIG d   1       8.702  -8.628  -3.563  0.00  0.00    -0.360 N 
ATOM     27  C   LIG d   1       6.714 -10.136  -3.074  0.00  0.00     0.008 A 
ATOM     28  C   LIG d   1       8.887  -7.557  -4.396  0.00  0.00     0.006 A 
ATOM     29  H   LIG d   1       9.381  -9.005  -2.981  0.00  0.00     0.165 HD
ATOM     30  H   LIG d   1       9.809  -7.008  -4.505  0.00  0.00     0.081 H 
ATOM     31  C   LIG d   1       5.390 -10.364  -3.398  0.00  0.00     0.168 A 
ATOM     32  H   LIG d   1       7.209 -10.768  -2.352  0.00  0.00     0.068 H 
ATOM     33  C   LIG d   1       4.741  -9.551  -4.332  0.00  0.00     0.167 A 
ATOM     34  O   LIG d   1       4.505 -11.305  -2.954  0.00  0.00    -0.453 OA
ATOM     35  O   LIG d   1       3.453  -9.986  -4.467  0.00  0.00    -0.453 OA
ATOM     36  C   LIG d   1       3.203 -10.809  -3.313  0.00  0.00     0.233 C 
ATOM     37  H   LIG d   1       2.785 -10.213  -2.502  0.00  0.00     0.117 H 
ATOM     38  H   LIG d   1       2.534 -11.631  -3.567  0.00  0.00     0.117 H 
ATOM     39  H   LIG d   1       4.914  -7.886  -5.660  0.00  0.00     0.066 H 
ENDBRANCH  19  22
ENDBRANCH  16  19
ENDBRANCH  14  16
BRANCH   1  40
ATOM     40  C   LIG d   1       4.976  -0.898  -3.926  0.00  0.00     0.072 A 
ATOM     41  C   LIG d   1       3.846  -0.349  -4.529  0.00  0.00     0.141 A 
ATOM     42  C   LIG d   1       3.050   0.536  -3.821  0.00  0.00    -0.018 A 
ATOM     43  C   LIG d   1       3.375   0.871  -2.520  0.00  0.00    -0.058 A 
ATOM     44  H   LIG d   1       2.174   0.963  -4.286  0.00  0.00     0.066 H 
ATOM     45  C   LIG d   1       4.496   0.327  -1.921  0.00  0.00    -0.060 A 
ATOM     46  H   LIG d   1       2.753   1.562  -1.971  0.00  0.00     0.062 H 
ATOM     47  C   LIG d   1       5.296  -0.557  -2.620  0.00  0.00    -0.037 A 
ATOM     48  H   LIG d   1       4.746   0.593  -0.904  0.00  0.00     0.062 H 
ATOM     49  H   LIG d   1       6.171  -0.981  -2.150  0.00  0.00     0.064 H 
BRANCH  41  50
ATOM     50  O   LIG d   1       3.530  -0.675  -5.811  0.00  0.00    -0.493 OA
BRANCH  50  51
ATOM     51  C   LIG d   1       3.167   0.397  -6.682  0.00  0.00     0.079 C 
ATOM     52  H   LIG d   1       2.484   1.071  -6.163  0.00  0.00     0.066 H 
ATOM     53  H   LIG d   1       4.063   0.944  -6.978  0.00  0.00     0.066 H 
ATOM     54  H   LIG d   1       2.677  -0.004  -7.569  0.00  0.00     0.066 H 
ENDBRANCH  50  51
ENDBRANCH  41  50
ENDBRANCH   1  40
TORSDOF 6
ENDMDL
MODEL 8
REMARK VINA RESULT:      -6.4      6.093     12.828
REMARK  6 active torsions:
REMARK  status: ('A' for Active; 'I' for Inactive)
REMARK    1  A    between atoms: C_1  and  O_2 
REMARK    2  A    between atoms: O_2  and  C_3 
REMARK    3  A    between atoms: C_8  and  N_9 
REMARK    4  A    between atoms: C_14  and  C_15 
REMARK    5  A    between atoms: C_14  and  N_53 
REMARK    6  A    between atoms: C_15  and  C_16 
ROOT
ATOM      1  N   LIG d   1       4.308  -0.503  -5.935  0.00  0.00    -0.317 NA
ATOM      2  C   LIG d   1       3.085  -0.028  -6.599  0.00  0.00     0.053 C 
ATOM      3  C   LIG d   1       3.157  -0.357  -8.092  0.00  0.00    -0.016 C 
ATOM      4  C   LIG d   1       4.537  -2.284  -7.600  0.00  0.00    -0.016 C 
ATOM      5  C   LIG d   1       4.466  -1.955  -6.107  0.00  0.00     0.053 C 
ATOM      6  H   LIG d   1       2.218  -0.520  -6.159  0.00  0.00     0.052 H 
ATOM      7  H   LIG d   1       2.997   1.051  -6.468  0.00  0.00     0.052 H 
ATOM      8  H   LIG d   1       4.009   0.157  -8.537  0.00  0.00     0.083 H 
ATOM      9  H   LIG d   1       2.240  -0.030  -8.582  0.00  0.00     0.083 H 
ATOM     10  H   LIG d   1       5.405  -1.791  -8.040  0.00  0.00     0.083 H 
ATOM     11  H   LIG d   1       4.626  -3.362  -7.731  0.00  0.00     0.083 H 
ATOM     12  H   LIG d   1       5.384  -2.280  -5.619  0.00  0.00     0.052 H 
ATOM     13  H   LIG d   1       3.614  -2.468  -5.663  0.00  0.00     0.052 H 
ATOM     14  N   LIG d   1       3.295  -1.820  -8.251  0.00  0.00     0.238 N 
ATOM     15  H   LIG d   1       2.492  -2.281  -7.805  0.00  0.00     0.203 HD
ENDROOT
BRANCH  14  16
ATOM     16  C   LIG d   1       3.313  -2.172  -9.687  0.00  0.00    -0.028 C 
ATOM     17  H   LIG d   1       3.586  -1.305 -10.288  0.00  0.00     0.082 H 
ATOM     18  H   LIG d   1       4.038  -2.970  -9.849  0.00  0.00     0.082 H 
BRANCH  16  19
ATOM     19  C   LIG d   1       1.921  -2.658 -10.095  0.00  0.00     0.015 C 
ATOM     20  H   LIG d   1       1.187  -2.313  -9.366  0.00  0.00     0.037 H 
ATOM     21  H   LIG d   1       1.671  -2.259 -11.078  0.00  0.00     0.037 H 
BRANCH  19  22
ATOM     22  C   LIG d   1       1.909  -4.164 -10.147  0.00  0.00    -0.017 A 
ATOM     23  C   LIG d   1       0.731  -5.021 -10.306  0.00  0.00     0.007 A 
ATOM     24  C   LIG d   1       1.208  -6.344 -10.299  0.00  0.00     0.051 A 
ATOM     25  C   LIG d   1      -0.636  -4.772 -10.448  0.00  0.00    -0.007 A 
ATOM     26  N   LIG d   1       2.576  -6.281 -10.146  0.00  0.00    -0.360 N 
ATOM     27  C   LIG d   1       0.310  -7.397 -10.436  0.00  0.00     0.008 A 
ATOM     28  C   LIG d   1       2.976  -4.974 -10.062  0.00  0.00     0.006 A 
ATOM     29  H   LIG d   1       3.169  -7.049 -10.106  0.00  0.00     0.165 HD
ATOM     30  H   LIG d   1       3.997  -4.644  -9.944  0.00  0.00     0.081 H 
ATOM     31  C   LIG d   1      -1.040  -7.142 -10.575  0.00  0.00     0.168 A 
ATOM     32  H   LIG d   1       0.670  -8.415 -10.431  0.00  0.00     0.068 H 
ATOM     33  C   LIG d   1      -1.515  -5.827 -10.581  0.00  0.00     0.167 A 
ATOM     34  O   LIG d   1      -2.104  -7.987 -10.722  0.00  0.00    -0.453 OA
ATOM     35  O   LIG d   1      -2.872  -5.854 -10.730  0.00  0.00    -0.453 OA
ATOM     36  C   LIG d   1      -3.267  -7.200 -10.406  0.00  0.00     0.233 C 
ATOM     37  H   LIG d   1      -3.507  -7.283  -9.345  0.00  0.00     0.117 H 
ATOM     38  H   LIG d   1      -4.117  -7.507 -11.014  0.00  0.00     0.117 H 
ATOM     39  H   LIG d   1      -1.005  -3.756 -10.452  0.00  0.00     0.066 H 
ENDBRANCH  19  22
ENDBRANCH  16  19
ENDBRANCH  14  16
BRANCH   1  40
ATOM     40  C   LIG d   1       4.310  -0.156  -4.580  0.00  0.00     0.072 A 
ATOM     41  C   LIG d   1       5.453   0.393  -4.002  0.00  0.00     0.141 A 
ATOM     42  C   LIG d   1       5.450   0.734  -2.659  0.00  0.00    -0.018 A 
ATOM     43  C   LIG d   1       4.314   0.531  -1.897  0.00  0.00    -0.058 A 
ATOM     44  H   LIG d   1       6.334   1.159  -2.209  0.00  0.00     0.066 H 
ATOM     45  C   LIG d   1       3.180  -0.013  -2.469  0.00  0.00    -0.060 A 
ATOM     46  H   LIG d   1       4.314   0.797  -0.850  0.00  0.00     0.062 H 
ATOM     47  C   LIG d   1       3.175  -0.356  -3.808  0.00  0.00    -0.037 A 
ATOM     48  H   LIG d   1       2.296  -0.170  -1.869  0.00  0.00     0.062 H 
ATOM     49  H   LIG d   1       2.287  -0.781  -4.253  0.00  0.00     0.064 H 
BRANCH  41  50
ATOM     50  O   LIG d   1       6.571   0.587  -4.752  0.00  0.00    -0.493 OA
BRANCH  50  51
ATOM     51  C   LIG d   1       7.681   1.215  -4.110  0.00  0.00     0.079 C 
ATOM     52  H   LIG d   1       7.786   2.236  -4.481  0.00  0.00     0.066 H 
ATOM     53  H   LIG d   1       7.514   1.237  -3.032  0.00  0.00     0.066 H 
ATOM     54  H   LIG d   1       8.591   0.656  -4.325  0.00  0.00     0.066 H 
ENDBRANCH  50  51
ENDBRANCH  41  50
ENDBRANCH   1  40
TORSDOF 6
ENDMDL
MODEL 9
REMARK VINA RESULT:      -6.4      5.628      8.238
REMARK  6 active torsions:
REMARK  status: ('A' for Active; 'I' for Inactive)
REMARK    1  A    between atoms: C_1  and  O_2 
REMARK    2  A    between atoms: O_2  and  C_3 
REMARK    3  A    between atoms: C_8  and  N_9 
REMARK    4  A    between atoms: C_14  and  C_15 
REMARK    5  A    between atoms: C_14  and  N_53 
REMARK    6  A    between atoms: C_15  and  C_16 
ROOT
ATOM      1  N   LIG d   1      10.178   7.634  -9.032  0.00  0.00    -0.317 NA
ATOM      2  C   LIG d   1      10.627   6.344  -8.489  0.00  0.00     0.053 C 
ATOM      3  C   LIG d   1      10.975   6.511  -7.007  0.00  0.00    -0.016 C 
ATOM      4  C   LIG d   1       9.346   8.292  -6.825  0.00  0.00    -0.016 C 
ATOM      5  C   LIG d   1       8.998   8.125  -8.306  0.00  0.00     0.053 C 
ATOM      6  H   LIG d   1       9.831   5.608  -8.594  0.00  0.00     0.052 H 
ATOM      7  H   LIG d   1      11.509   6.008  -9.034  0.00  0.00     0.052 H 
ATOM      8  H   LIG d   1      11.790   7.228  -6.904  0.00  0.00     0.083 H 
ATOM      9  H   LIG d   1      11.282   5.550  -6.595  0.00  0.00     0.083 H 
ATOM     10  H   LIG d   1      10.143   9.029  -6.720  0.00  0.00     0.083 H 
ATOM     11  H   LIG d   1       8.464   8.629  -6.280  0.00  0.00     0.083 H 
ATOM     12  H   LIG d   1       8.692   9.087  -8.719  0.00  0.00     0.052 H 
ATOM     13  H   LIG d   1       8.183   7.409  -8.410  0.00  0.00     0.052 H 
ATOM     14  N   LIG d   1       9.775   6.985  -6.286  0.00  0.00     0.238 N 
ATOM     15  H   LIG d   1       9.017   6.305  -6.418  0.00  0.00     0.203 HD
ENDROOT
BRANCH  14  16
ATOM     16  C   LIG d   1      10.068   7.104  -4.842  0.00  0.00    -0.028 C 
ATOM     17  H   LIG d   1      11.110   6.853  -4.643  0.00  0.00     0.082 H 
ATOM     18  H   LIG d   1       9.874   8.129  -4.523  0.00  0.00     0.082 H 
BRANCH  16  19
ATOM     19  C   LIG d   1       9.155   6.149  -4.072  0.00  0.00     0.015 C 
ATOM     20  H   LIG d   1       8.272   6.687  -3.729  0.00  0.00     0.037 H 
ATOM     21  H   LIG d   1       8.852   5.331  -4.724  0.00  0.00     0.037 H 
BRANCH  19  22
ATOM     22  C   LIG d   1       9.898   5.593  -2.883  0.00  0.00    -0.017 A 
ATOM     23  C   LIG d   1      10.288   6.330  -1.678  0.00  0.00     0.007 A 
ATOM     24  C   LIG d   1      10.953   5.405  -0.854  0.00  0.00     0.051 A 
ATOM     25  C   LIG d   1      10.129   7.652  -1.257  0.00  0.00    -0.007 A 
ATOM     26  N   LIG d   1      10.959   4.199  -1.521  0.00  0.00    -0.360 N 
ATOM     27  C   LIG d   1      11.446   5.815   0.380  0.00  0.00     0.008 A 
ATOM     28  C   LIG d   1      10.322   4.329  -2.726  0.00  0.00     0.006 A 
ATOM     29  H   LIG d   1      11.354   3.378  -1.186  0.00  0.00     0.165 HD
ATOM     30  H   LIG d   1      10.182   3.535  -3.444  0.00  0.00     0.081 H 
ATOM     31  C   LIG d   1      11.284   7.125   0.789  0.00  0.00     0.168 A 
ATOM     32  H   LIG d   1      11.957   5.110   1.018  0.00  0.00     0.068 H 
ATOM     33  C   LIG d   1      10.624   8.046  -0.031  0.00  0.00     0.167 A 
ATOM     34  O   LIG d   1      11.671   7.763   1.933  0.00  0.00    -0.453 OA
ATOM     35  O   LIG d   1      10.602   9.255   0.603  0.00  0.00    -0.453 OA
ATOM     36  C   LIG d   1      11.607   9.169   1.631  0.00  0.00     0.233 C 
ATOM     37  H   LIG d   1      12.567   9.523   1.256  0.00  0.00     0.117 H 
ATOM     38  H   LIG d   1      11.306   9.739   2.509  0.00  0.00     0.117 H 
ATOM     39  H   LIG d   1       9.619   8.366  -1.889  0.00  0.00     0.066 H 
ENDBRANCH  19  22
ENDBRANCH  16  19
ENDBRANCH  14  16
BRANCH   1  40
ATOM     40  C   LIG d   1       9.919   7.537 -10.404  0.00  0.00     0.072 A 
ATOM     41  C   LIG d   1      10.363   8.533 -11.270  0.00  0.00     0.141 A 
ATOM     42  C   LIG d   1      10.103   8.432 -12.627  0.00  0.00    -0.018 A 
ATOM     43  C   LIG d   1       9.405   7.345 -13.119  0.00  0.00    -0.058 A 
ATOM     44  H   LIG d   1      10.446   9.203 -13.301  0.00  0.00     0.066 H 
ATOM     45  C   LIG d   1       8.964   6.356 -12.260  0.00  0.00    -0.060 A 
ATOM     46  H   LIG d   1       9.202   7.268 -14.177  0.00  0.00     0.062 H 
ATOM     47  C   LIG d   1       9.219   6.449 -10.905  0.00  0.00    -0.037 A 
ATOM     48  H   LIG d   1       8.419   5.508 -12.649  0.00  0.00     0.062 H 
ATOM     49  H   LIG d   1       8.874   5.675 -10.235  0.00  0.00     0.064 H 
BRANCH  41  50
ATOM     50  O   LIG d   1      11.044   9.606 -10.785  0.00  0.00    -0.493 OA
BRANCH  50  51
ATOM     51  C   LIG d   1      11.859  10.328 -11.709  0.00  0.00     0.079 C 
ATOM     52  H   LIG d   1      12.826  10.542 -11.251  0.00  0.00     0.066 H 
ATOM     53  H   LIG d   1      12.008   9.729 -12.608  0.00  0.00     0.066 H 
ATOM     54  H   LIG d   1      11.369  11.264 -11.973  0.00  0.00     0.066 H 
ENDBRANCH  50  51
ENDBRANCH  41  50
ENDBRANCH   1  40
TORSDOF 6
ENDMDL
