MODEL 1
REMARK VINA RESULT:      -6.7      0.000      0.000
REMARK  9 active torsions:
REMARK  status: ('A' for Active; 'I' for Inactive)
REMARK    1  A    between atoms: C_1  and  O_2 
REMARK    2  A    between atoms: O_2  and  C_3 
REMARK    3  A    between atoms: C_8  and  C_9 
REMARK    4  A    between atoms: C_12  and  N_31 
REMARK    5  A    between atoms: C_14  and  C_15 
REMARK    6  A    between atoms: C_18  and  O_22 
REMARK    7  A    between atoms: C_20  and  O_21 
REMARK    8  A    between atoms: O_22  and  C_23 
REMARK    9  A    between atoms: C_23  and  C_24 
ROOT
ATOM      1  C   LIG d   1       5.908  -1.377  -6.347  0.00  0.00     0.043 A 
ATOM      2  C   LIG d   1       4.542  -1.666  -6.356  0.00  0.00    -0.046 A 
ATOM      3  C   LIG d   1       3.675  -0.867  -7.067  0.00  0.00    -0.019 A 
ATOM      4  C   LIG d   1       4.157   0.221  -7.787  0.00  0.00     0.124 A 
ATOM      5  C   LIG d   1       5.512   0.515  -7.785  0.00  0.00     0.022 A 
ATOM      6  C   LIG d   1       6.392  -0.279  -7.067  0.00  0.00     0.130 A 
ATOM      7  H   LIG d   1       4.165  -2.511  -5.800  0.00  0.00     0.063 H 
ATOM      8  H   LIG d   1       2.618  -1.088  -7.070  0.00  0.00     0.065 H 
ATOM      9  H   LIG d   1       5.882   1.362  -8.343  0.00  0.00     0.069 H 
ENDROOT
BRANCH   1  10
ATOM     10  C   LIG d   1       6.840  -2.230  -5.577  0.00  0.00     0.087 A 
ATOM     11  C   LIG d   1       6.940  -2.102  -4.177  0.00  0.00     0.030 A 
ATOM     12  C   LIG d   1       7.832  -2.935  -3.502  0.00  0.00     0.041 A 
ATOM     13  N   LIG d   1       8.553  -3.802  -4.192  0.00  0.00    -0.223 NA
ATOM     14  H   LIG d   1       7.934  -2.871  -2.428  0.00  0.00     0.084 H 
ATOM     15  C   LIG d   1       8.438  -3.893  -5.510  0.00  0.00     0.213 A 
ATOM     16  N   LIG d   1       7.603  -3.128  -6.196  0.00  0.00    -0.214 NA
BRANCH  11  17
ATOM     17  C   LIG d   1       6.116  -1.114  -3.443  0.00  0.00     0.027 A 
ATOM     18  C   LIG d   1       6.485   0.235  -3.425  0.00  0.00     0.128 A 
ATOM     19  C   LIG d   1       5.707   1.153  -2.740  0.00  0.00    -0.019 A 
ATOM     20  C   LIG d   1       4.574   0.735  -2.068  0.00  0.00    -0.058 A 
ATOM     21  H   LIG d   1       5.987   2.196  -2.727  0.00  0.00     0.065 H 
ATOM     22  C   LIG d   1       4.207  -0.599  -2.080  0.00  0.00    -0.061 A 
ATOM     23  H   LIG d   1       3.971   1.453  -1.532  0.00  0.00     0.062 H 
ATOM     24  C   LIG d   1       4.971  -1.524  -2.762  0.00  0.00    -0.050 A 
ATOM     25  H   LIG d   1       3.320  -0.919  -1.551  0.00  0.00     0.062 H 
ATOM     26  H   LIG d   1       4.682  -2.565  -2.769  0.00  0.00     0.062 H 
BRANCH  18  27
ATOM     27  O   LIG d   1       7.603   0.644  -4.082  0.00  0.00    -0.494 OA
BRANCH  27  28
ATOM     28  C   LIG d   1       8.073   1.965  -3.801  0.00  0.00     0.079 C 
ATOM     29  H   LIG d   1       8.673   1.949  -2.891  0.00  0.00     0.066 H 
ATOM     30  H   LIG d   1       8.683   2.318  -4.632  0.00  0.00     0.066 H 
ATOM     31  H   LIG d   1       7.222   2.632  -3.665  0.00  0.00     0.066 H 
ENDBRANCH  27  28
ENDBRANCH  18  27
ENDBRANCH  11  17
BRANCH  15  32
ATOM     32  N   LIG d   1       9.215  -4.815  -6.189  0.00  0.00    -0.328 N 
ATOM     33  H   LIG d   1      10.182  -4.766  -6.136  0.00  0.00     0.145 HD
ATOM     34  H   LIG d   1       8.792  -5.509  -6.718  0.00  0.00     0.145 HD
ENDBRANCH  15  32
ENDBRANCH   1  10
BRANCH   6  35
ATOM     35  O   LIG d   1       7.719   0.007  -7.064  0.00  0.00    -0.506 OA
ATOM     36  H   LIG d   1       7.990   0.623  -7.759  0.00  0.00     0.292 HD
ENDBRANCH   6  35
BRANCH   4  37
ATOM     37  O   LIG d   1       3.296   1.002  -8.491  0.00  0.00    -0.487 OA
BRANCH  37  38
ATOM     38  C   LIG d   1       3.726   1.441  -9.781  0.00  0.00     0.115 C 
ATOM     39  H   LIG d   1       4.809   1.572  -9.778  0.00  0.00     0.075 H 
ATOM     40  H   LIG d   1       3.246   2.389 -10.021  0.00  0.00     0.075 H 
BRANCH  38  41
ATOM     41  C   LIG d   1       3.349   0.410 -10.813  0.00  0.00    -0.010 A 
ATOM     42  C   LIG d   1       2.150  -0.270 -10.705  0.00  0.00    -0.054 A 
ATOM     43  C   LIG d   1       1.801  -1.211 -11.655  0.00  0.00    -0.043 A 
ATOM     44  H   LIG d   1       1.487  -0.066  -9.877  0.00  0.00     0.062 H 
ATOM     45  C   LIG d   1       2.650  -1.473 -12.715  0.00  0.00     0.041 A 
ATOM     46  H   LIG d   1       0.865  -1.743 -11.569  0.00  0.00     0.063 H 
ATOM     47  C   LIG d   1       3.850  -0.792 -12.824  0.00  0.00    -0.043 A 
ATOM     48 CL   LIG d   1       2.212  -2.655 -13.908  0.00  0.00    -0.084 Cl
ATOM     49  C   LIG d   1       4.198   0.150 -11.873  0.00  0.00    -0.054 A 
ATOM     50  H   LIG d   1       4.514  -0.995 -13.651  0.00  0.00     0.063 H 
ATOM     51  H   LIG d   1       5.135   0.681 -11.958  0.00  0.00     0.062 H 
ENDBRANCH  38  41
ENDBRANCH  37  38
ENDBRANCH   4  37
TORSDOF 9
ENDMDL
MODEL 2
REMARK VINA RESULT:      -6.7      4.398      7.185
REMARK  9 active torsions:
REMARK  status: ('A' for Active; 'I' for Inactive)
REMARK    1  A    between atoms: C_1  and  O_2 
REMARK    2  A    between atoms: O_2  and  C_3 
REMARK    3  A    between atoms: C_8  and  C_9 
REMARK    4  A    between atoms: C_12  and  N_31 
REMARK    5  A    between atoms: C_14  and  C_15 
REMARK    6  A    between atoms: C_18  and  O_22 
REMARK    7  A    between atoms: C_20  and  O_21 
REMARK    8  A    between atoms: O_22  and  C_23 
REMARK    9  A    between atoms: C_23  and  C_24 
ROOT
ATOM      1  C   LIG d   1       7.191  -0.677  -5.386  0.00  0.00     0.043 A 
ATOM      2  C   LIG d   1       8.023  -0.195  -4.374  0.00  0.00    -0.046 A 
ATOM      3  C   LIG d   1       8.624   1.037  -4.507  0.00  0.00    -0.019 A 
ATOM      4  C   LIG d   1       8.395   1.809  -5.642  0.00  0.00     0.124 A 
ATOM      5  C   LIG d   1       7.568   1.338  -6.651  0.00  0.00     0.022 A 
ATOM      6  C   LIG d   1       6.965   0.098  -6.530  0.00  0.00     0.130 A 
ATOM      7  H   LIG d   1       8.201  -0.790  -3.491  0.00  0.00     0.063 H 
ATOM      8  H   LIG d   1       9.272   1.408  -3.727  0.00  0.00     0.065 H 
ATOM      9  H   LIG d   1       7.396   1.938  -7.532  0.00  0.00     0.069 H 
ENDROOT
BRANCH   1  10
ATOM     10  C   LIG d   1       6.550  -2.003  -5.248  0.00  0.00     0.087 A 
ATOM     11  C   LIG d   1       5.385  -2.160  -4.472  0.00  0.00     0.030 A 
ATOM     12  C   LIG d   1       4.820  -3.433  -4.381  0.00  0.00     0.041 A 
ATOM     13  N   LIG d   1       5.397  -4.440  -5.014  0.00  0.00    -0.223 NA
ATOM     14  H   LIG d   1       3.924  -3.593  -3.799  0.00  0.00     0.084 H 
ATOM     15  C   LIG d   1       6.495  -4.259  -5.733  0.00  0.00     0.213 A 
ATOM     16  N   LIG d   1       7.067  -3.071  -5.853  0.00  0.00    -0.214 NA
BRANCH  11  17
ATOM     17  C   LIG d   1       4.773  -1.004  -3.775  0.00  0.00     0.027 A 
ATOM     18  C   LIG d   1       3.881  -0.167  -4.452  0.00  0.00     0.128 A 
ATOM     19  C   LIG d   1       3.310   0.909  -3.792  0.00  0.00    -0.019 A 
ATOM     20  C   LIG d   1       3.630   1.159  -2.471  0.00  0.00    -0.058 A 
ATOM     21  H   LIG d   1       2.618   1.556  -4.310  0.00  0.00     0.065 H 
ATOM     22  C   LIG d   1       4.516   0.335  -1.799  0.00  0.00    -0.061 A 
ATOM     23  H   LIG d   1       3.186   2.000  -1.960  0.00  0.00     0.062 H 
ATOM     24  C   LIG d   1       5.088  -0.743  -2.444  0.00  0.00    -0.050 A 
ATOM     25  H   LIG d   1       4.763   0.538  -0.766  0.00  0.00     0.062 H 
ATOM     26  H   LIG d   1       5.781  -1.383  -1.916  0.00  0.00     0.062 H 
BRANCH  18  27
ATOM     27  O   LIG d   1       3.571  -0.411  -5.753  0.00  0.00    -0.494 OA
BRANCH  27  28
ATOM     28  C   LIG d   1       2.819   0.593  -6.439  0.00  0.00     0.079 C 
ATOM     29  H   LIG d   1       2.042   0.117  -7.037  0.00  0.00     0.066 H 
ATOM     30  H   LIG d   1       2.359   1.263  -5.713  0.00  0.00     0.066 H 
ATOM     31  H   LIG d   1       3.482   1.162  -7.091  0.00  0.00     0.066 H 
ENDBRANCH  27  28
ENDBRANCH  18  27
ENDBRANCH  11  17
BRANCH  15  32
ATOM     32  N   LIG d   1       7.064  -5.344  -6.376  0.00  0.00    -0.328 N 
ATOM     33  H   LIG d   1       7.794  -5.211  -6.999  0.00  0.00     0.145 HD
ATOM     34  H   LIG d   1       6.731  -6.239  -6.202  0.00  0.00     0.145 HD
ENDBRANCH  15  32
ENDBRANCH   1  10
BRANCH   6  35
ATOM     35  O   LIG d   1       6.155  -0.365  -7.516  0.00  0.00    -0.506 OA
ATOM     36  H   LIG d   1       6.482  -1.164  -7.951  0.00  0.00     0.292 HD
ENDBRANCH   6  35
BRANCH   4  37
ATOM     37  O   LIG d   1       8.987   3.025  -5.764  0.00  0.00    -0.487 OA
BRANCH  37  38
ATOM     38  C   LIG d   1      10.188   3.239  -5.021  0.00  0.00     0.115 C 
ATOM     39  H   LIG d   1      11.004   3.467  -5.708  0.00  0.00     0.075 H 
ATOM     40  H   LIG d   1      10.431   2.341  -4.454  0.00  0.00     0.075 H 
BRANCH  38  41
ATOM     41  C   LIG d   1       9.993   4.395  -4.073  0.00  0.00    -0.010 A 
ATOM     42  C   LIG d   1      10.349   4.265  -2.744  0.00  0.00    -0.054 A 
ATOM     43  C   LIG d   1      10.177   5.326  -1.876  0.00  0.00    -0.043 A 
ATOM     44  H   LIG d   1      10.762   3.334  -2.384  0.00  0.00     0.062 H 
ATOM     45  C   LIG d   1       9.647   6.519  -2.336  0.00  0.00     0.041 A 
ATOM     46  H   LIG d   1      10.454   5.224  -0.837  0.00  0.00     0.063 H 
ATOM     47  C   LIG d   1       9.292   6.648  -3.667  0.00  0.00    -0.043 A 
ATOM     48 CL   LIG d   1       9.429   7.852  -1.246  0.00  0.00    -0.084 Cl
ATOM     49  C   LIG d   1       9.465   5.586  -4.535  0.00  0.00    -0.054 A 
ATOM     50  H   LIG d   1       8.878   7.578  -4.029  0.00  0.00     0.063 H 
ATOM     51  H   LIG d   1       9.188   5.687  -5.574  0.00  0.00     0.062 H 
ENDBRANCH  38  41
ENDBRANCH  37  38
ENDBRANCH   4  37
TORSDOF 9
ENDMDL
MODEL 3
REMARK VINA RESULT:      -6.6      4.974      7.964
REMARK  9 active torsions:
REMARK  status: ('A' for Active; 'I' for Inactive)
REMARK    1  A    between atoms: C_1  and  O_2 
REMARK    2  A    between atoms: O_2  and  C_3 
REMARK    3  A    between atoms: C_8  and  C_9 
REMARK    4  A    between atoms: C_12  and  N_31 
REMARK    5  A    between atoms: C_14  and  C_15 
REMARK    6  A    between atoms: C_18  and  O_22 
REMARK    7  A    between atoms: C_20  and  O_21 
REMARK    8  A    between atoms: O_22  and  C_23 
REMARK    9  A    between atoms: C_23  and  C_24 
ROOT
ATOM      1  C   LIG d   1       5.126  -3.306  -6.411  0.00  0.00     0.043 A 
ATOM      2  C   LIG d   1       6.482  -3.122  -6.139  0.00  0.00    -0.046 A 
ATOM      3  C   LIG d   1       7.235  -4.171  -5.658  0.00  0.00    -0.019 A 
ATOM      4  C   LIG d   1       6.650  -5.416  -5.453  0.00  0.00     0.124 A 
ATOM      5  C   LIG d   1       5.303  -5.607  -5.722  0.00  0.00     0.022 A 
ATOM      6  C   LIG d   1       4.536  -4.558  -6.200  0.00  0.00     0.130 A 
ATOM      7  H   LIG d   1       6.940  -2.158  -6.299  0.00  0.00     0.063 H 
ATOM      8  H   LIG d   1       8.283  -4.027  -5.442  0.00  0.00     0.065 H 
ATOM      9  H   LIG d   1       4.852  -6.575  -5.559  0.00  0.00     0.069 H 
ENDROOT
BRANCH   1  10
ATOM     10  C   LIG d   1       4.313  -2.179  -6.922  0.00  0.00     0.087 A 
ATOM     11  C   LIG d   1       3.922  -1.132  -6.065  0.00  0.00     0.030 A 
ATOM     12  C   LIG d   1       3.161  -0.092  -6.600  0.00  0.00     0.041 A 
ATOM     13  N   LIG d   1       2.828  -0.130  -7.880  0.00  0.00    -0.223 NA
ATOM     14  H   LIG d   1       2.844   0.731  -5.977  0.00  0.00     0.084 H 
ATOM     15  C   LIG d   1       3.210  -1.133  -8.657  0.00  0.00     0.213 A 
ATOM     16  N   LIG d   1       3.936  -2.140  -8.197  0.00  0.00    -0.214 NA
BRANCH  11  17
ATOM     17  C   LIG d   1       4.312  -1.132  -4.635  0.00  0.00     0.027 A 
ATOM     18  C   LIG d   1       5.408  -0.376  -4.206  0.00  0.00     0.128 A 
ATOM     19  C   LIG d   1       5.763  -0.378  -2.867  0.00  0.00    -0.019 A 
ATOM     20  C   LIG d   1       5.041  -1.132  -1.961  0.00  0.00    -0.058 A 
ATOM     21  H   LIG d   1       6.606   0.207  -2.531  0.00  0.00     0.065 H 
ATOM     22  C   LIG d   1       3.959  -1.885  -2.383  0.00  0.00    -0.061 A 
ATOM     23  H   LIG d   1       5.323  -1.135  -0.918  0.00  0.00     0.062 H 
ATOM     24  C   LIG d   1       3.592  -1.888  -3.713  0.00  0.00    -0.050 A 
ATOM     25  H   LIG d   1       3.401  -2.473  -1.669  0.00  0.00     0.062 H 
ATOM     26  H   LIG d   1       2.747  -2.477  -4.039  0.00  0.00     0.062 H 
BRANCH  18  27
ATOM     27  O   LIG d   1       6.120   0.360  -5.099  0.00  0.00    -0.494 OA
BRANCH  27  28
ATOM     28  C   LIG d   1       7.523   0.492  -4.858  0.00  0.00     0.079 C 
ATOM     29  H   LIG d   1       7.987   1.012  -5.696  0.00  0.00     0.066 H 
ATOM     30  H   LIG d   1       7.683   1.062  -3.943  0.00  0.00     0.066 H 
ATOM     31  H   LIG d   1       7.967  -0.498  -4.753  0.00  0.00     0.066 H 
ENDBRANCH  27  28
ENDBRANCH  18  27
ENDBRANCH  11  17
BRANCH  15  32
ATOM     32  N   LIG d   1       2.837  -1.129  -9.990  0.00  0.00    -0.328 N 
ATOM     33  H   LIG d   1       3.453  -1.448 -10.667  0.00  0.00     0.145 HD
ATOM     34  H   LIG d   1       1.959  -0.806 -10.246  0.00  0.00     0.145 HD
ENDBRANCH  15  32
ENDBRANCH   1  10
BRANCH   6  35
ATOM     35  O   LIG d   1       3.218  -4.744  -6.465  0.00  0.00    -0.506 OA
ATOM     36  H   LIG d   1       2.791  -3.985  -6.887  0.00  0.00     0.292 HD
ENDBRANCH   6  35
BRANCH   4  37
ATOM     37  O   LIG d   1       7.400  -6.446  -4.983  0.00  0.00    -0.487 OA
BRANCH  37  38
ATOM     38  C   LIG d   1       7.067  -7.755  -5.450  0.00  0.00     0.115 C 
ATOM     39  H   LIG d   1       7.880  -8.138  -6.068  0.00  0.00     0.075 H 
ATOM     40  H   LIG d   1       6.153  -7.711  -6.040  0.00  0.00     0.075 H 
BRANCH  38  41
ATOM     41  C   LIG d   1       6.860  -8.670  -4.270  0.00  0.00    -0.010 A 
ATOM     42  C   LIG d   1       7.819  -8.745  -3.277  0.00  0.00    -0.054 A 
ATOM     43  C   LIG d   1       7.626  -9.579  -2.192  0.00  0.00    -0.043 A 
ATOM     44  H   LIG d   1       8.718  -8.151  -3.349  0.00  0.00     0.062 H 
ATOM     45  C   LIG d   1       6.474 -10.340  -2.099  0.00  0.00     0.041 A 
ATOM     46  H   LIG d   1       8.376  -9.638  -1.416  0.00  0.00     0.063 H 
ATOM     47  C   LIG d   1       5.515 -10.265  -3.093  0.00  0.00    -0.043 A 
ATOM     48 CL   LIG d   1       6.233 -11.388  -0.737  0.00  0.00    -0.084 Cl
ATOM     49  C   LIG d   1       5.708  -9.430  -4.178  0.00  0.00    -0.054 A 
ATOM     50  H   LIG d   1       4.615 -10.859  -3.023  0.00  0.00     0.063 H 
ATOM     51  H   LIG d   1       4.959  -9.371  -4.955  0.00  0.00     0.062 H 
ENDBRANCH  38  41
ENDBRANCH  37  38
ENDBRANCH   4  37
TORSDOF 9
ENDMDL
MODEL 4
REMARK VINA RESULT:      -6.5      4.338      7.047
REMARK  9 active torsions:
REMARK  status: ('A' for Active; 'I' for Inactive)
REMARK    1  A    between atoms: C_1  and  O_2 
REMARK    2  A    between atoms: O_2  and  C_3 
REMARK    3  A    between atoms: C_8  and  C_9 
REMARK    4  A    between atoms: C_12  and  N_31 
REMARK    5  A    between atoms: C_14  and  C_15 
REMARK    6  A    between atoms: C_18  and  O_22 
REMARK    7  A    between atoms: C_20  and  O_21 
REMARK    8  A    between atoms: O_22  and  C_23 
REMARK    9  A    between atoms: C_23  and  C_24 
ROOT
ATOM      1  C   LIG d   1       7.525  -1.984  -5.123  0.00  0.00     0.043 A 
ATOM      2  C   LIG d   1       6.813  -2.262  -6.291  0.00  0.00    -0.046 A 
ATOM      3  C   LIG d   1       6.551  -3.568  -6.641  0.00  0.00    -0.019 A 
ATOM      4  C   LIG d   1       6.983  -4.611  -5.828  0.00  0.00     0.124 A 
ATOM      5  C   LIG d   1       7.689  -4.343  -4.665  0.00  0.00     0.022 A 
ATOM      6  C   LIG d   1       7.964  -3.034  -4.308  0.00  0.00     0.130 A 
ATOM      7  H   LIG d   1       6.474  -1.455  -6.923  0.00  0.00     0.063 H 
ATOM      8  H   LIG d   1       6.005  -3.784  -7.547  0.00  0.00     0.065 H 
ATOM      9  H   LIG d   1       8.026  -5.155  -4.039  0.00  0.00     0.069 H 
ENDROOT
BRANCH   1  10
ATOM     10  C   LIG d   1       7.815  -0.582  -4.749  0.00  0.00     0.087 A 
ATOM     11  C   LIG d   1       6.882   0.170  -4.008  0.00  0.00     0.030 A 
ATOM     12  C   LIG d   1       7.209   1.486  -3.678  0.00  0.00     0.041 A 
ATOM     13  N   LIG d   1       8.369   1.980  -4.076  0.00  0.00    -0.223 NA
ATOM     14  H   LIG d   1       6.522   2.094  -3.108  0.00  0.00     0.084 H 
ATOM     15  C   LIG d   1       9.223   1.246  -4.776  0.00  0.00     0.213 A 
ATOM     16  N   LIG d   1       8.960  -0.007  -5.110  0.00  0.00    -0.214 NA
BRANCH  11  17
ATOM     17  C   LIG d   1       5.590  -0.422  -3.586  0.00  0.00     0.027 A 
ATOM     18  C   LIG d   1       4.468  -0.324  -4.416  0.00  0.00     0.128 A 
ATOM     19  C   LIG d   1       3.267  -0.885  -4.016  0.00  0.00    -0.019 A 
ATOM     20  C   LIG d   1       3.175  -1.529  -2.797  0.00  0.00    -0.058 A 
ATOM     21  H   LIG d   1       2.399  -0.815  -4.655  0.00  0.00     0.065 H 
ATOM     22  C   LIG d   1       4.282  -1.623  -1.971  0.00  0.00    -0.061 A 
ATOM     23  H   LIG d   1       2.235  -1.961  -2.486  0.00  0.00     0.062 H 
ATOM     24  C   LIG d   1       5.486  -1.073  -2.359  0.00  0.00    -0.050 A 
ATOM     25  H   LIG d   1       4.202  -2.127  -1.019  0.00  0.00     0.062 H 
ATOM     26  H   LIG d   1       6.348  -1.148  -1.712  0.00  0.00     0.062 H 
BRANCH  18  27
ATOM     27  O   LIG d   1       4.559   0.314  -5.612  0.00  0.00    -0.494 OA
BRANCH  27  28
ATOM     28  C   LIG d   1       3.624  -0.070  -6.624  0.00  0.00     0.079 C 
ATOM     29  H   LIG d   1       4.150  -0.591  -7.423  0.00  0.00     0.066 H 
ATOM     30  H   LIG d   1       2.872  -0.730  -6.192  0.00  0.00     0.066 H 
ATOM     31  H   LIG d   1       3.139   0.820  -7.026  0.00  0.00     0.066 H 
ENDBRANCH  27  28
ENDBRANCH  18  27
ENDBRANCH  11  17
BRANCH  15  32
ATOM     32  N   LIG d   1      10.424   1.808  -5.171  0.00  0.00    -0.328 N 
ATOM     33  H   LIG d   1      10.753   1.666  -6.072  0.00  0.00     0.145 HD
ATOM     34  H   LIG d   1      10.937   2.344  -4.546  0.00  0.00     0.145 HD
ENDBRANCH  15  32
ENDBRANCH   1  10
BRANCH   6  35
ATOM     35  O   LIG d   1       8.655  -2.769  -3.170  0.00  0.00    -0.506 OA
ATOM     36  H   LIG d   1       8.155  -2.936  -2.359  0.00  0.00     0.292 HD
ENDBRANCH   6  35
BRANCH   4  37
ATOM     37  O   LIG d   1       6.716  -5.896  -6.177  0.00  0.00    -0.487 OA
BRANCH  37  38
ATOM     38  C   LIG d   1       7.561  -6.907  -5.625  0.00  0.00     0.115 C 
ATOM     39  H   LIG d   1       8.217  -6.463  -4.875  0.00  0.00     0.075 H 
ATOM     40  H   LIG d   1       8.164  -7.350  -6.417  0.00  0.00     0.075 H 
BRANCH  38  41
ATOM     41  C   LIG d   1       6.714  -7.974  -4.982  0.00  0.00    -0.010 A 
ATOM     42  C   LIG d   1       5.381  -8.101  -5.329  0.00  0.00    -0.054 A 
ATOM     43  C   LIG d   1       4.606  -9.084  -4.745  0.00  0.00    -0.043 A 
ATOM     44  H   LIG d   1       4.948  -7.432  -6.057  0.00  0.00     0.062 H 
ATOM     45  C   LIG d   1       5.161  -9.941  -3.812  0.00  0.00     0.041 A 
ATOM     46  H   LIG d   1       3.564  -9.182  -5.015  0.00  0.00     0.063 H 
ATOM     47  C   LIG d   1       6.494  -9.814  -3.465  0.00  0.00    -0.043 A 
ATOM     48 CL   LIG d   1       4.186 -11.175  -3.076  0.00  0.00    -0.084 Cl
ATOM     49  C   LIG d   1       7.270  -8.831  -4.050  0.00  0.00    -0.054 A 
ATOM     50  H   LIG d   1       6.930 -10.482  -2.736  0.00  0.00     0.063 H 
ATOM     51  H   LIG d   1       8.311  -8.732  -3.780  0.00  0.00     0.062 H 
ENDBRANCH  38  41
ENDBRANCH  37  38
ENDBRANCH   4  37
TORSDOF 9
ENDMDL
MODEL 5
REMARK VINA RESULT:      -6.4      3.947      7.733
REMARK  9 active torsions:
REMARK  status: ('A' for Active; 'I' for Inactive)
REMARK    1  A    between atoms: C_1  and  O_2 
REMARK    2  A    between atoms: O_2  and  C_3 
REMARK    3  A    between atoms: C_8  and  C_9 
REMARK    4  A    between atoms: C_12  and  N_31 
REMARK    5  A    between atoms: C_14  and  C_15 
REMARK    6  A    between atoms: C_18  and  O_22 
REMARK    7  A    between atoms: C_20  and  O_21 
REMARK    8  A    between atoms: O_22  and  C_23 
REMARK    9  A    between atoms: C_23  and  C_24 
ROOT
ATOM      1  C   LIG d   1       4.132  -3.153  -8.447  0.00  0.00     0.043 A 
ATOM      2  C   LIG d   1       5.179  -2.300  -8.800  0.00  0.00    -0.046 A 
ATOM      3  C   LIG d   1       6.250  -2.139  -7.950  0.00  0.00    -0.019 A 
ATOM      4  C   LIG d   1       6.299  -2.833  -6.746  0.00  0.00     0.124 A 
ATOM      5  C   LIG d   1       5.264  -3.683  -6.388  0.00  0.00     0.022 A 
ATOM      6  C   LIG d   1       4.178  -3.847  -7.232  0.00  0.00     0.130 A 
ATOM      7  H   LIG d   1       5.145  -1.762  -9.736  0.00  0.00     0.063 H 
ATOM      8  H   LIG d   1       7.058  -1.476  -8.222  0.00  0.00     0.065 H 
ATOM      9  H   LIG d   1       5.304  -4.217  -5.450  0.00  0.00     0.069 H 
ENDROOT
BRANCH   1  10
ATOM     10  C   LIG d   1       2.975  -3.322  -9.354  0.00  0.00     0.087 A 
ATOM     11  C   LIG d   1       2.256  -2.202  -9.816  0.00  0.00     0.030 A 
ATOM     12  C   LIG d   1       1.178  -2.419 -10.675  0.00  0.00     0.041 A 
ATOM     13  N   LIG d   1       0.865  -3.658 -11.015  0.00  0.00    -0.223 NA
ATOM     14  H   LIG d   1       0.604  -1.586 -11.054  0.00  0.00     0.084 H 
ATOM     15  C   LIG d   1       1.561  -4.690 -10.559  0.00  0.00     0.213 A 
ATOM     16  N   LIG d   1       2.594  -4.536  -9.746  0.00  0.00    -0.214 NA
BRANCH  11  17
ATOM     17  C   LIG d   1       2.638  -0.830  -9.406  0.00  0.00     0.027 A 
ATOM     18  C   LIG d   1       3.215   0.046 -10.331  0.00  0.00     0.128 A 
ATOM     19  C   LIG d   1       3.564   1.328  -9.940  0.00  0.00    -0.019 A 
ATOM     20  C   LIG d   1       3.353   1.735  -8.636  0.00  0.00    -0.058 A 
ATOM     21  H   LIG d   1       4.006   2.008 -10.653  0.00  0.00     0.065 H 
ATOM     22  C   LIG d   1       2.787   0.870  -7.716  0.00  0.00    -0.061 A 
ATOM     23  H   LIG d   1       3.630   2.734  -8.334  0.00  0.00     0.062 H 
ATOM     24  C   LIG d   1       2.430  -0.409  -8.094  0.00  0.00    -0.050 A 
ATOM     25  H   LIG d   1       2.626   1.195  -6.699  0.00  0.00     0.062 H 
ATOM     26  H   LIG d   1       1.989  -1.082  -7.373  0.00  0.00     0.062 H 
BRANCH  18  27
ATOM     27  O   LIG d   1       3.427  -0.359 -11.611  0.00  0.00    -0.494 OA
BRANCH  27  28
ATOM     28  C   LIG d   1       4.784  -0.413 -12.057  0.00  0.00     0.079 C 
ATOM     29  H   LIG d   1       5.053  -1.447 -12.274  0.00  0.00     0.066 H 
ATOM     30  H   LIG d   1       4.896   0.188 -12.959  0.00  0.00     0.066 H 
ATOM     31  H   LIG d   1       5.438  -0.023 -11.277  0.00  0.00     0.066 H 
ENDBRANCH  27  28
ENDBRANCH  18  27
ENDBRANCH  11  17
BRANCH  15  32
ATOM     32  N   LIG d   1       1.194  -5.968 -10.942  0.00  0.00    -0.328 N 
ATOM     33  H   LIG d   1       1.787  -6.716 -10.767  0.00  0.00     0.145 HD
ATOM     34  H   LIG d   1       0.344  -6.116 -11.386  0.00  0.00     0.145 HD
ENDBRANCH  15  32
ENDBRANCH   1  10
BRANCH   6  35
ATOM     35  O   LIG d   1       3.164  -4.679  -6.883  0.00  0.00    -0.506 OA
ATOM     36  H   LIG d   1       2.859  -4.567  -5.972  0.00  0.00     0.292 HD
ENDBRANCH   6  35
BRANCH   4  37
ATOM     37  O   LIG d   1       7.362  -2.673  -5.915  0.00  0.00    -0.487 OA
BRANCH  37  38
ATOM     38  C   LIG d   1       7.183  -3.060  -4.551  0.00  0.00     0.115 C 
ATOM     39  H   LIG d   1       8.157  -3.237  -4.094  0.00  0.00     0.075 H 
ATOM     40  H   LIG d   1       6.590  -3.972  -4.506  0.00  0.00     0.075 H 
BRANCH  38  41
ATOM     41  C   LIG d   1       6.472  -1.960  -3.807  0.00  0.00    -0.010 A 
ATOM     42  C   LIG d   1       6.965  -0.669  -3.844  0.00  0.00    -0.054 A 
ATOM     43  C   LIG d   1       6.310   0.341  -3.167  0.00  0.00    -0.043 A 
ATOM     44  H   LIG d   1       7.864  -0.451  -4.403  0.00  0.00     0.062 H 
ATOM     45  C   LIG d   1       5.159   0.062  -2.451  0.00  0.00     0.041 A 
ATOM     46  H   LIG d   1       6.696   1.349  -3.195  0.00  0.00     0.063 H 
ATOM     47  C   LIG d   1       4.665  -1.230  -2.414  0.00  0.00    -0.043 A 
ATOM     48 CL   LIG d   1       4.336   1.330  -1.599  0.00  0.00    -0.084 Cl
ATOM     49  C   LIG d   1       5.322  -2.240  -3.092  0.00  0.00    -0.054 A 
ATOM     50  H   LIG d   1       3.768  -1.450  -1.855  0.00  0.00     0.063 H 
ATOM     51  H   LIG d   1       4.936  -3.249  -3.063  0.00  0.00     0.062 H 
ENDBRANCH  38  41
ENDBRANCH  37  38
ENDBRANCH   4  37
TORSDOF 9
ENDMDL
MODEL 6
REMARK VINA RESULT:      -6.4      4.991      7.586
REMARK  9 active torsions:
REMARK  status: ('A' for Active; 'I' for Inactive)
REMARK    1  A    between atoms: C_1  and  O_2 
REMARK    2  A    between atoms: O_2  and  C_3 
REMARK    3  A    between atoms: C_8  and  C_9 
REMARK    4  A    between atoms: C_12  and  N_31 
REMARK    5  A    between atoms: C_14  and  C_15 
REMARK    6  A    between atoms: C_18  and  O_22 
REMARK    7  A    between atoms: C_20  and  O_21 
REMARK    8  A    between atoms: O_22  and  C_23 
REMARK    9  A    between atoms: C_23  and  C_24 
ROOT
ATOM      1  C   LIG d   1       5.893  -3.376  -6.341  0.00  0.00     0.043 A 
ATOM      2  C   LIG d   1       6.600  -4.318  -5.591  0.00  0.00    -0.046 A 
ATOM      3  C   LIG d   1       6.041  -5.550  -5.333  0.00  0.00    -0.019 A 
ATOM      4  C   LIG d   1       4.779  -5.863  -5.827  0.00  0.00     0.124 A 
ATOM      5  C   LIG d   1       4.071  -4.934  -6.573  0.00  0.00     0.022 A 
ATOM      6  C   LIG d   1       4.621  -3.690  -6.833  0.00  0.00     0.130 A 
ATOM      7  H   LIG d   1       7.581  -4.078  -5.209  0.00  0.00     0.063 H 
ATOM      8  H   LIG d   1       6.586  -6.277  -4.749  0.00  0.00     0.065 H 
ATOM      9  H   LIG d   1       3.090  -5.179  -6.952  0.00  0.00     0.069 H 
ENDROOT
BRANCH   1  10
ATOM     10  C   LIG d   1       6.489  -2.049  -6.614  0.00  0.00     0.087 A 
ATOM     11  C   LIG d   1       6.247  -0.963  -5.749  0.00  0.00     0.030 A 
ATOM     12  C   LIG d   1       6.838   0.264  -6.052  0.00  0.00     0.041 A 
ATOM     13  N   LIG d   1       7.590   0.368  -7.134  0.00  0.00    -0.223 NA
ATOM     14  H   LIG d   1       6.680   1.120  -5.411  0.00  0.00     0.084 H 
ATOM     15  C   LIG d   1       7.794  -0.673  -7.928  0.00  0.00     0.213 A 
ATOM     16  N   LIG d   1       7.259  -1.859  -7.682  0.00  0.00    -0.214 NA
BRANCH  11  17
ATOM     17  C   LIG d   1       5.392  -1.121  -4.549  0.00  0.00     0.027 A 
ATOM     18  C   LIG d   1       4.021  -0.851  -4.621  0.00  0.00     0.128 A 
ATOM     19  C   LIG d   1       3.229  -1.007  -3.496  0.00  0.00    -0.019 A 
ATOM     20  C   LIG d   1       3.794  -1.417  -2.303  0.00  0.00    -0.058 A 
ATOM     21  H   LIG d   1       2.170  -0.803  -3.549  0.00  0.00     0.065 H 
ATOM     22  C   LIG d   1       5.151  -1.681  -2.226  0.00  0.00    -0.061 A 
ATOM     23  H   LIG d   1       3.174  -1.534  -1.427  0.00  0.00     0.062 H 
ATOM     24  C   LIG d   1       5.951  -1.534  -3.342  0.00  0.00    -0.050 A 
ATOM     25  H   LIG d   1       5.585  -2.000  -1.290  0.00  0.00     0.062 H 
ATOM     26  H   LIG d   1       7.010  -1.740  -3.278  0.00  0.00     0.062 H 
BRANCH  18  27
ATOM     27  O   LIG d   1       3.469  -0.443  -5.794  0.00  0.00    -0.494 OA
BRANCH  27  28
ATOM     28  C   LIG d   1       2.478   0.586  -5.719  0.00  0.00     0.079 C 
ATOM     29  H   LIG d   1       2.416   0.955  -4.695  0.00  0.00     0.066 H 
ATOM     30  H   LIG d   1       2.753   1.405  -6.384  0.00  0.00     0.066 H 
ATOM     31  H   LIG d   1       1.512   0.182  -6.020  0.00  0.00     0.066 H 
ENDBRANCH  27  28
ENDBRANCH  18  27
ENDBRANCH  11  17
BRANCH  15  32
ATOM     32  N   LIG d   1       8.589  -0.516  -9.050  0.00  0.00    -0.328 N 
ATOM     33  H   LIG d   1       8.907  -1.295  -9.532  0.00  0.00     0.145 HD
ATOM     34  H   LIG d   1       8.827   0.374  -9.354  0.00  0.00     0.145 HD
ENDBRANCH  15  32
ENDBRANCH   1  10
BRANCH   6  35
ATOM     35  O   LIG d   1       3.930  -2.778  -7.564  0.00  0.00    -0.506 OA
ATOM     36  H   LIG d   1       3.357  -3.169  -8.239  0.00  0.00     0.292 HD
ENDBRANCH   6  35
BRANCH   4  37
ATOM     37  O   LIG d   1       4.236  -7.082  -5.573  0.00  0.00    -0.487 OA
BRANCH  37  38
ATOM     38  C   LIG d   1       5.028  -8.225  -5.902  0.00  0.00     0.115 C 
ATOM     39  H   LIG d   1       5.968  -7.900  -6.348  0.00  0.00     0.075 H 
ATOM     40  H   LIG d   1       4.486  -8.851  -6.610  0.00  0.00     0.075 H 
BRANCH  38  41
ATOM     41  C   LIG d   1       5.313  -9.015  -4.650  0.00  0.00    -0.010 A 
ATOM     42  C   LIG d   1       6.592  -9.038  -4.125  0.00  0.00    -0.054 A 
ATOM     43  C   LIG d   1       6.853  -9.756  -2.974  0.00  0.00    -0.043 A 
ATOM     44  H   LIG d   1       7.386  -8.495  -4.615  0.00  0.00     0.062 H 
ATOM     45  C   LIG d   1       5.836 -10.453  -2.346  0.00  0.00     0.041 A 
ATOM     46  H   LIG d   1       7.852  -9.775  -2.564  0.00  0.00     0.063 H 
ATOM     47  C   LIG d   1       4.556 -10.429  -2.872  0.00  0.00    -0.043 A 
ATOM     48 CL   LIG d   1       6.163 -11.356  -0.901  0.00  0.00    -0.084 Cl
ATOM     49  C   LIG d   1       4.295  -9.710  -4.023  0.00  0.00    -0.054 A 
ATOM     50  H   LIG d   1       3.760 -10.973  -2.384  0.00  0.00     0.063 H 
ATOM     51  H   LIG d   1       3.296  -9.691  -4.434  0.00  0.00     0.062 H 
ENDBRANCH  38  41
ENDBRANCH  37  38
ENDBRANCH   4  37
TORSDOF 9
ENDMDL
MODEL 7
REMARK VINA RESULT:      -6.3      6.638     10.012
REMARK  9 active torsions:
REMARK  status: ('A' for Active; 'I' for Inactive)
REMARK    1  A    between atoms: C_1  and  O_2 
REMARK    2  A    between atoms: O_2  and  C_3 
REMARK    3  A    between atoms: C_8  and  C_9 
REMARK    4  A    between atoms: C_12  and  N_31 
REMARK    5  A    between atoms: C_14  and  C_15 
REMARK    6  A    between atoms: C_18  and  O_22 
REMARK    7  A    between atoms: C_20  and  O_21 
REMARK    8  A    between atoms: O_22  and  C_23 
REMARK    9  A    between atoms: C_23  and  C_24 
ROOT
ATOM      1  C   LIG d   1      10.089   5.285  -3.050  0.00  0.00     0.043 A 
ATOM      2  C   LIG d   1       9.517   5.036  -4.299  0.00  0.00    -0.046 A 
ATOM      3  C   LIG d   1       9.357   3.739  -4.735  0.00  0.00    -0.019 A 
ATOM      4  C   LIG d   1       9.752   2.676  -3.929  0.00  0.00     0.124 A 
ATOM      5  C   LIG d   1      10.319   2.915  -2.687  0.00  0.00     0.022 A 
ATOM      6  C   LIG d   1      10.491   4.215  -2.242  0.00  0.00     0.130 A 
ATOM      7  H   LIG d   1       9.208   5.859  -4.925  0.00  0.00     0.063 H 
ATOM      8  H   LIG d   1       8.919   3.547  -5.703  0.00  0.00     0.065 H 
ATOM      9  H   LIG d   1      10.627   2.087  -2.066  0.00  0.00     0.069 H 
ENDROOT
BRANCH   1  10
ATOM     10  C   LIG d   1      10.269   6.677  -2.582  0.00  0.00     0.087 A 
ATOM     11  C   LIG d   1      11.474   7.366  -2.828  0.00  0.00     0.030 A 
ATOM     12  C   LIG d   1      11.587   8.679  -2.370  0.00  0.00     0.041 A 
ATOM     13  N   LIG d   1      10.574   9.223  -1.718  0.00  0.00    -0.223 NA
ATOM     14  H   LIG d   1      12.493   9.242  -2.542  0.00  0.00     0.084 H 
ATOM     15  C   LIG d   1       9.456   8.545  -1.500  0.00  0.00     0.213 A 
ATOM     16  N   LIG d   1       9.298   7.300  -1.918  0.00  0.00    -0.214 NA
BRANCH  11  17
ATOM     17  C   LIG d   1      12.587   6.716  -3.559  0.00  0.00     0.027 A 
ATOM     18  C   LIG d   1      13.571   6.011  -2.858  0.00  0.00     0.128 A 
ATOM     19  C   LIG d   1      14.605   5.403  -3.548  0.00  0.00    -0.019 A 
ATOM     20  C   LIG d   1      14.669   5.500  -4.926  0.00  0.00    -0.058 A 
ATOM     21  H   LIG d   1      15.366   4.855  -3.011  0.00  0.00     0.065 H 
ATOM     22  C   LIG d   1      13.700   6.199  -5.623  0.00  0.00    -0.061 A 
ATOM     23  H   LIG d   1      15.480   5.027  -5.461  0.00  0.00     0.062 H 
ATOM     24  C   LIG d   1      12.661   6.807  -4.947  0.00  0.00    -0.050 A 
ATOM     25  H   LIG d   1      13.758   6.272  -6.699  0.00  0.00     0.062 H 
ATOM     26  H   LIG d   1      11.907   7.353  -5.494  0.00  0.00     0.062 H 
BRANCH  18  27
ATOM     27  O   LIG d   1      13.510   5.922  -1.503  0.00  0.00    -0.494 OA
BRANCH  27  28
ATOM     28  C   LIG d   1      14.741   5.692  -0.812  0.00  0.00     0.079 C 
ATOM     29  H   LIG d   1      14.552   5.082   0.071  0.00  0.00     0.066 H 
ATOM     30  H   LIG d   1      15.436   5.173  -1.471  0.00  0.00     0.066 H 
ATOM     31  H   LIG d   1      15.170   6.647  -0.510  0.00  0.00     0.066 H 
ENDBRANCH  27  28
ENDBRANCH  18  27
ENDBRANCH  11  17
BRANCH  15  32
ATOM     32  N   LIG d   1       8.423   9.158  -0.812  0.00  0.00    -0.328 N 
ATOM     33  H   LIG d   1       8.382   9.099   0.155  0.00  0.00     0.145 HD
ATOM     34  H   LIG d   1       7.740   9.646  -1.298  0.00  0.00     0.145 HD
ENDBRANCH  15  32
ENDBRANCH   1  10
BRANCH   6  35
ATOM     35  O   LIG d   1      11.046   4.450  -1.026  0.00  0.00    -0.506 OA
ATOM     36  H   LIG d   1      10.407   4.705  -0.345  0.00  0.00     0.292 HD
ENDBRANCH   6  35
BRANCH   4  37
ATOM     37  O   LIG d   1       9.585   1.400  -4.364  0.00  0.00    -0.487 OA
BRANCH  37  38
ATOM     38  C   LIG d   1       8.422   1.128  -5.147  0.00  0.00     0.115 C 
ATOM     39  H   LIG d   1       8.687   0.471  -5.976  0.00  0.00     0.075 H 
ATOM     40  H   LIG d   1       8.020   2.062  -5.540  0.00  0.00     0.075 H 
BRANCH  38  41
ATOM     41  C   LIG d   1       7.383   0.456  -4.287  0.00  0.00    -0.010 A 
ATOM     42  C   LIG d   1       7.289  -0.923  -4.267  0.00  0.00    -0.054 A 
ATOM     43  C   LIG d   1       6.341  -1.539  -3.473  0.00  0.00    -0.043 A 
ATOM     44  H   LIG d   1       7.957  -1.518  -4.872  0.00  0.00     0.062 H 
ATOM     45  C   LIG d   1       5.485  -0.778  -2.698  0.00  0.00     0.041 A 
ATOM     46  H   LIG d   1       6.267  -2.617  -3.459  0.00  0.00     0.063 H 
ATOM     47  C   LIG d   1       5.579   0.602  -2.718  0.00  0.00    -0.043 A 
ATOM     48 CL   LIG d   1       4.293  -1.552  -1.702  0.00  0.00    -0.084 Cl
ATOM     49  C   LIG d   1       6.528   1.219  -3.512  0.00  0.00    -0.054 A 
ATOM     50  H   LIG d   1       4.911   1.199  -2.114  0.00  0.00     0.063 H 
ATOM     51  H   LIG d   1       6.602   2.297  -3.528  0.00  0.00     0.062 H 
ENDBRANCH  38  41
ENDBRANCH  37  38
ENDBRANCH   4  37
TORSDOF 9
ENDMDL
MODEL 8
REMARK VINA RESULT:      -6.3      4.401      7.846
REMARK  9 active torsions:
REMARK  status: ('A' for Active; 'I' for Inactive)
REMARK    1  A    between atoms: C_1  and  O_2 
REMARK    2  A    between atoms: O_2  and  C_3 
REMARK    3  A    between atoms: C_8  and  C_9 
REMARK    4  A    between atoms: C_12  and  N_31 
REMARK    5  A    between atoms: C_14  and  C_15 
REMARK    6  A    between atoms: C_18  and  O_22 
REMARK    7  A    between atoms: C_20  and  O_21 
REMARK    8  A    between atoms: O_22  and  C_23 
REMARK    9  A    between atoms: C_23  and  C_24 
ROOT
ATOM      1  C   LIG d   1       5.211  -2.601  -6.500  0.00  0.00     0.043 A 
ATOM      2  C   LIG d   1       4.616  -3.783  -6.056  0.00  0.00    -0.046 A 
ATOM      3  C   LIG d   1       5.402  -4.831  -5.630  0.00  0.00    -0.019 A 
ATOM      4  C   LIG d   1       6.788  -4.711  -5.630  0.00  0.00     0.124 A 
ATOM      5  C   LIG d   1       7.387  -3.540  -6.068  0.00  0.00     0.022 A 
ATOM      6  C   LIG d   1       6.606  -2.483  -6.504  0.00  0.00     0.130 A 
ATOM      7  H   LIG d   1       3.540  -3.879  -6.052  0.00  0.00     0.063 H 
ATOM      8  H   LIG d   1       4.941  -5.747  -5.292  0.00  0.00     0.065 H 
ATOM      9  H   LIG d   1       8.463  -3.452  -6.069  0.00  0.00     0.069 H 
ENDROOT
BRANCH   1  10
ATOM     10  C   LIG d   1       4.369  -1.477  -6.964  0.00  0.00     0.087 A 
ATOM     11  C   LIG d   1       3.828  -0.558  -6.044  0.00  0.00     0.030 A 
ATOM     12  C   LIG d   1       3.046   0.486  -6.538  0.00  0.00     0.041 A 
ATOM     13  N   LIG d   1       2.833   0.571  -7.841  0.00  0.00    -0.223 NA
ATOM     14  H   LIG d   1       2.616   1.214  -5.865  0.00  0.00     0.084 H 
ATOM     15  C   LIG d   1       3.354  -0.313  -8.679  0.00  0.00     0.213 A 
ATOM     16  N   LIG d   1       4.106  -1.319  -8.260  0.00  0.00    -0.214 NA
BRANCH  11  17
ATOM     17  C   LIG d   1       4.088  -0.693  -4.591  0.00  0.00     0.027 A 
ATOM     18  C   LIG d   1       5.225  -0.111  -4.023  0.00  0.00     0.128 A 
ATOM     19  C   LIG d   1       5.458  -0.239  -2.664  0.00  0.00    -0.019 A 
ATOM     20  C   LIG d   1       4.572  -0.948  -1.874  0.00  0.00    -0.058 A 
ATOM     21  H   LIG d   1       6.333   0.212  -2.220  0.00  0.00     0.065 H 
ATOM     22  C   LIG d   1       3.448  -1.529  -2.433  0.00  0.00    -0.061 A 
ATOM     23  H   LIG d   1       4.758  -1.048  -0.815  0.00  0.00     0.062 H 
ATOM     24  C   LIG d   1       3.202  -1.406  -3.786  0.00  0.00    -0.050 A 
ATOM     25  H   LIG d   1       2.761  -2.083  -1.809  0.00  0.00     0.062 H 
ATOM     26  H   LIG d   1       2.323  -1.861  -4.219  0.00  0.00     0.062 H 
BRANCH  18  27
ATOM     27  O   LIG d   1       6.098   0.581  -4.802  0.00  0.00    -0.494 OA
BRANCH  27  28
ATOM     28  C   LIG d   1       7.348   0.943  -4.211  0.00  0.00     0.079 C 
ATOM     29  H   LIG d   1       7.271   0.868  -3.126  0.00  0.00     0.066 H 
ATOM     30  H   LIG d   1       8.127   0.269  -4.567  0.00  0.00     0.066 H 
ATOM     31  H   LIG d   1       7.598   1.967  -4.488  0.00  0.00     0.066 H 
ENDBRANCH  27  28
ENDBRANCH  18  27
ENDBRANCH  11  17
BRANCH  15  32
ATOM     32  N   LIG d   1       3.102  -0.183 -10.033  0.00  0.00    -0.328 N 
ATOM     33  H   LIG d   1       3.161   0.688 -10.456  0.00  0.00     0.145 HD
ATOM     34  H   LIG d   1       2.866  -0.963 -10.559  0.00  0.00     0.145 HD
ENDBRANCH  15  32
ENDBRANCH   1  10
BRANCH   6  35
ATOM     35  O   LIG d   1       7.191  -1.336  -6.933  0.00  0.00    -0.506 OA
ATOM     36  H   LIG d   1       6.898  -1.049  -7.809  0.00  0.00     0.292 HD
ENDBRANCH   6  35
BRANCH   4  37
ATOM     37  O   LIG d   1       7.556  -5.747  -5.204  0.00  0.00    -0.487 OA
BRANCH  37  38
ATOM     38  C   LIG d   1       8.959  -5.505  -5.079  0.00  0.00     0.115 C 
ATOM     39  H   LIG d   1       9.142  -4.430  -5.065  0.00  0.00     0.075 H 
ATOM     40  H   LIG d   1       9.482  -5.952  -5.924  0.00  0.00     0.075 H 
BRANCH  38  41
ATOM     41  C   LIG d   1       9.461  -6.117  -3.797  0.00  0.00    -0.010 A 
ATOM     42  C   LIG d   1       9.855  -7.442  -3.771  0.00  0.00    -0.054 A 
ATOM     43  C   LIG d   1      10.322  -8.001  -2.597  0.00  0.00    -0.043 A 
ATOM     44  H   LIG d   1       9.798  -8.039  -4.669  0.00  0.00     0.062 H 
ATOM     45  C   LIG d   1      10.395  -7.236  -1.446  0.00  0.00     0.041 A 
ATOM     46  H   LIG d   1      10.629  -9.037  -2.577  0.00  0.00     0.063 H 
ATOM     47  C   LIG d   1      10.001  -5.910  -1.472  0.00  0.00    -0.043 A 
ATOM     48 CL   LIG d   1      10.980  -7.939   0.029  0.00  0.00    -0.084 Cl
ATOM     49  C   LIG d   1       9.535  -5.351  -2.647  0.00  0.00    -0.054 A 
ATOM     50  H   LIG d   1      10.057  -5.311  -0.575  0.00  0.00     0.063 H 
ATOM     51  H   LIG d   1       9.227  -4.316  -2.668  0.00  0.00     0.062 H 
ENDBRANCH  38  41
ENDBRANCH  37  38
ENDBRANCH   4  37
TORSDOF 9
ENDMDL
MODEL 9
REMARK VINA RESULT:      -6.1      4.621      6.303
REMARK  9 active torsions:
REMARK  status: ('A' for Active; 'I' for Inactive)
REMARK    1  A    between atoms: C_1  and  O_2 
REMARK    2  A    between atoms: O_2  and  C_3 
REMARK    3  A    between atoms: C_8  and  C_9 
REMARK    4  A    between atoms: C_12  and  N_31 
REMARK    5  A    between atoms: C_14  and  C_15 
REMARK    6  A    between atoms: C_18  and  O_22 
REMARK    7  A    between atoms: C_20  and  O_21 
REMARK    8  A    between atoms: O_22  and  C_23 
REMARK    9  A    between atoms: C_23  and  C_24 
ROOT
ATOM      1  C   LIG d   1       6.149  -2.643  -5.918  0.00  0.00     0.043 A 
ATOM      2  C   LIG d   1       6.164  -3.726  -5.038  0.00  0.00    -0.046 A 
ATOM      3  C   LIG d   1       5.389  -4.834  -5.298  0.00  0.00    -0.019 A 
ATOM      4  C   LIG d   1       4.599  -4.883  -6.441  0.00  0.00     0.124 A 
ATOM      5  C   LIG d   1       4.579  -3.812  -7.322  0.00  0.00     0.022 A 
ATOM      6  C   LIG d   1       5.350  -2.690  -7.067  0.00  0.00     0.130 A 
ATOM      7  H   LIG d   1       6.778  -3.693  -4.150  0.00  0.00     0.063 H 
ATOM      8  H   LIG d   1       5.397  -5.670  -4.614  0.00  0.00     0.065 H 
ATOM      9  H   LIG d   1       3.962  -3.852  -8.207  0.00  0.00     0.069 H 
ENDROOT
BRANCH   1  10
ATOM     10  C   LIG d   1       6.976  -1.449  -5.637  0.00  0.00     0.087 A 
ATOM     11  C   LIG d   1       6.541  -0.476  -4.716  0.00  0.00     0.030 A 
ATOM     12  C   LIG d   1       7.363   0.628  -4.485  0.00  0.00     0.041 A 
ATOM     13  N   LIG d   1       8.507   0.727  -5.140  0.00  0.00    -0.223 NA
ATOM     14  H   LIG d   1       7.066   1.394  -3.783  0.00  0.00     0.084 H 
ATOM     15  C   LIG d   1       8.885  -0.206  -6.003  0.00  0.00     0.213 A 
ATOM     16  N   LIG d   1       8.143  -1.272  -6.253  0.00  0.00    -0.214 NA
BRANCH  11  17
ATOM     17  C   LIG d   1       5.248  -0.623  -4.008  0.00  0.00     0.027 A 
ATOM     18  C   LIG d   1       4.059  -0.213  -4.621  0.00  0.00     0.128 A 
ATOM     19  C   LIG d   1       2.855  -0.359  -3.954  0.00  0.00    -0.019 A 
ATOM     20  C   LIG d   1       2.829  -0.899  -2.682  0.00  0.00    -0.058 A 
ATOM     21  H   LIG d   1       1.934  -0.047  -4.426  0.00  0.00     0.065 H 
ATOM     22  C   LIG d   1       4.003  -1.301  -2.069  0.00  0.00    -0.061 A 
ATOM     23  H   LIG d   1       1.888  -1.007  -2.163  0.00  0.00     0.062 H 
ATOM     24  C   LIG d   1       5.210  -1.165  -2.725  0.00  0.00    -0.050 A 
ATOM     25  H   LIG d   1       3.975  -1.721  -1.074  0.00  0.00     0.062 H 
ATOM     26  H   LIG d   1       6.124  -1.480  -2.244  0.00  0.00     0.062 H 
BRANCH  18  27
ATOM     27  O   LIG d   1       4.087   0.323  -5.870  0.00  0.00    -0.494 OA
BRANCH  27  28
ATOM     28  C   LIG d   1       2.858   0.326  -6.601  0.00  0.00     0.079 C 
ATOM     29  H   LIG d   1       2.174  -0.400  -6.162  0.00  0.00     0.066 H 
ATOM     30  H   LIG d   1       2.411   1.319  -6.557  0.00  0.00     0.066 H 
ATOM     31  H   LIG d   1       3.053   0.061  -7.640  0.00  0.00     0.066 H 
ENDBRANCH  27  28
ENDBRANCH  18  27
ENDBRANCH  11  17
BRANCH  15  32
ATOM     32  N   LIG d   1      10.092  -0.058  -6.665  0.00  0.00    -0.328 N 
ATOM     33  H   LIG d   1      10.756  -0.763  -6.625  0.00  0.00     0.145 HD
ATOM     34  H   LIG d   1      10.272   0.751  -7.169  0.00  0.00     0.145 HD
ENDBRANCH  15  32
ENDBRANCH   1  10
BRANCH   6  35
ATOM     35  O   LIG d   1       5.333  -1.641  -7.928  0.00  0.00    -0.506 OA
ATOM     36  H   LIG d   1       5.850  -1.784  -8.732  0.00  0.00     0.292 HD
ENDBRANCH   6  35
BRANCH   4  37
ATOM     37  O   LIG d   1       3.841  -5.981  -6.694  0.00  0.00    -0.487 OA
BRANCH  37  38
ATOM     38  C   LIG d   1       4.282  -6.846  -7.742  0.00  0.00     0.115 C 
ATOM     39  H   LIG d   1       5.229  -6.481  -8.140  0.00  0.00     0.075 H 
ATOM     40  H   LIG d   1       3.537  -6.865  -8.537  0.00  0.00     0.075 H 
BRANCH  38  41
ATOM     41  C   LIG d   1       4.470  -8.239  -7.197  0.00  0.00    -0.010 A 
ATOM     42  C   LIG d   1       4.344  -9.331  -8.034  0.00  0.00    -0.054 A 
ATOM     43  C   LIG d   1       4.523 -10.608  -7.537  0.00  0.00    -0.043 A 
ATOM     44  H   LIG d   1       4.105  -9.187  -9.078  0.00  0.00     0.062 H 
ATOM     45  C   LIG d   1       4.828 -10.794  -6.200  0.00  0.00     0.041 A 
ATOM     46  H   LIG d   1       4.423 -11.461  -8.191  0.00  0.00     0.063 H 
ATOM     47  C   LIG d   1       4.955  -9.700  -5.362  0.00  0.00    -0.043 A 
ATOM     48 CL   LIG d   1       5.052 -12.397  -5.574  0.00  0.00    -0.084 Cl
ATOM     49  C   LIG d   1       4.776  -8.423  -5.861  0.00  0.00    -0.054 A 
ATOM     50  H   LIG d   1       5.193  -9.843  -4.318  0.00  0.00     0.063 H 
ATOM     51  H   LIG d   1       4.875  -7.569  -5.207  0.00  0.00     0.062 H 
ENDBRANCH  38  41
ENDBRANCH  37  38
ENDBRANCH   4  37
TORSDOF 9
ENDMDL
MODEL 10
REMARK VINA RESULT:      -6.1      3.844      7.745
REMARK  9 active torsions:
REMARK  status: ('A' for Active; 'I' for Inactive)
REMARK    1  A    between atoms: C_1  and  O_2 
REMARK    2  A    between atoms: O_2  and  C_3 
REMARK    3  A    between atoms: C_8  and  C_9 
REMARK    4  A    between atoms: C_12  and  N_31 
REMARK    5  A    between atoms: C_14  and  C_15 
REMARK    6  A    between atoms: C_18  and  O_22 
REMARK    7  A    between atoms: C_20  and  O_21 
REMARK    8  A    between atoms: O_22  and  C_23 
REMARK    9  A    between atoms: C_23  and  C_24 
ROOT
ATOM      1  C   LIG d   1       6.731  -0.712 -10.098  0.00  0.00     0.043 A 
ATOM      2  C   LIG d   1       7.436   0.426  -9.705  0.00  0.00    -0.046 A 
ATOM      3  C   LIG d   1       8.077   0.450  -8.486  0.00  0.00    -0.019 A 
ATOM      4  C   LIG d   1       8.034  -0.661  -7.650  0.00  0.00     0.124 A 
ATOM      5  C   LIG d   1       7.337  -1.796  -8.034  0.00  0.00     0.022 A 
ATOM      6  C   LIG d   1       6.683  -1.828  -9.254  0.00  0.00     0.130 A 
ATOM      7  H   LIG d   1       7.474   1.289 -10.352  0.00  0.00     0.063 H 
ATOM      8  H   LIG d   1       8.619   1.333  -8.180  0.00  0.00     0.065 H 
ATOM      9  H   LIG d   1       7.303  -2.655  -7.381  0.00  0.00     0.069 H 
ENDROOT
BRANCH   1  10
ATOM     10  C   LIG d   1       6.035  -0.738 -11.404  0.00  0.00     0.087 A 
ATOM     11  C   LIG d   1       4.750  -0.177 -11.543  0.00  0.00     0.030 A 
ATOM     12  C   LIG d   1       4.143  -0.224 -12.798  0.00  0.00     0.041 A 
ATOM     13  N   LIG d   1       4.784  -0.797 -13.803  0.00  0.00    -0.223 NA
ATOM     14  H   LIG d   1       3.160   0.199 -12.947  0.00  0.00     0.084 H 
ATOM     15  C   LIG d   1       5.991  -1.319 -13.636  0.00  0.00     0.213 A 
ATOM     16  N   LIG d   1       6.610  -1.295 -12.467  0.00  0.00    -0.214 NA
BRANCH  11  17
ATOM     17  C   LIG d   1       4.065   0.451 -10.389  0.00  0.00     0.027 A 
ATOM     18  C   LIG d   1       3.298  -0.329  -9.517  0.00  0.00     0.128 A 
ATOM     19  C   LIG d   1       2.665   0.265  -8.438  0.00  0.00    -0.019 A 
ATOM     20  C   LIG d   1       2.783   1.626  -8.230  0.00  0.00    -0.058 A 
ATOM     21  H   LIG d   1       2.075  -0.335  -7.760  0.00  0.00     0.065 H 
ATOM     22  C   LIG d   1       3.536   2.402  -9.093  0.00  0.00    -0.061 A 
ATOM     23  H   LIG d   1       2.284   2.087  -7.390  0.00  0.00     0.062 H 
ATOM     24  C   LIG d   1       4.176   1.822 -10.170  0.00  0.00    -0.050 A 
ATOM     25  H   LIG d   1       3.623   3.466  -8.925  0.00  0.00     0.062 H 
ATOM     26  H   LIG d   1       4.763   2.431 -10.842  0.00  0.00     0.062 H 
BRANCH  18  27
ATOM     27  O   LIG d   1       3.179  -1.667  -9.726  0.00  0.00    -0.494 OA
BRANCH  27  28
ATOM     28  C   LIG d   1       1.906  -2.142 -10.169  0.00  0.00     0.079 C 
ATOM     29  H   LIG d   1       1.637  -1.644 -11.100  0.00  0.00     0.066 H 
ATOM     30  H   LIG d   1       1.957  -3.218 -10.335  0.00  0.00     0.066 H 
ATOM     31  H   LIG d   1       1.153  -1.926  -9.410  0.00  0.00     0.066 H 
ENDBRANCH  27  28
ENDBRANCH  18  27
ENDBRANCH  11  17
BRANCH  15  32
ATOM     32  N   LIG d   1       6.622  -1.908 -14.718  0.00  0.00    -0.328 N 
ATOM     33  H   LIG d   1       6.425  -2.829 -14.951  0.00  0.00     0.145 HD
ATOM     34  H   LIG d   1       7.260  -1.400 -15.242  0.00  0.00     0.145 HD
ENDBRANCH  15  32
ENDBRANCH   1  10
BRANCH   6  35
ATOM     35  O   LIG d   1       6.000  -2.939  -9.632  0.00  0.00    -0.506 OA
ATOM     36  H   LIG d   1       6.557  -3.632 -10.014  0.00  0.00     0.292 HD
ENDBRANCH   6  35
BRANCH   4  37
ATOM     37  O   LIG d   1       8.674  -0.632  -6.452  0.00  0.00    -0.487 OA
BRANCH  37  38
ATOM     38  C   LIG d   1       8.268  -1.594  -5.477  0.00  0.00     0.115 C 
ATOM     39  H   LIG d   1       9.145  -1.962  -4.944  0.00  0.00     0.075 H 
ATOM     40  H   LIG d   1       7.768  -2.425  -5.972  0.00  0.00     0.075 H 
BRANCH  38  41
ATOM     41  C   LIG d   1       7.321  -0.948  -4.499  0.00  0.00    -0.010 A 
ATOM     42  C   LIG d   1       6.386  -1.717  -3.832  0.00  0.00    -0.054 A 
ATOM     43  C   LIG d   1       5.521  -1.126  -2.930  0.00  0.00    -0.043 A 
ATOM     44  H   LIG d   1       6.331  -2.780  -4.016  0.00  0.00     0.062 H 
ATOM     45  C   LIG d   1       5.590   0.235  -2.694  0.00  0.00     0.041 A 
ATOM     46  H   LIG d   1       4.790  -1.728  -2.410  0.00  0.00     0.063 H 
ATOM     47  C   LIG d   1       6.526   1.005  -3.362  0.00  0.00    -0.043 A 
ATOM     48 CL   LIG d   1       4.504   0.978  -1.563  0.00  0.00    -0.084 Cl
ATOM     49  C   LIG d   1       7.391   0.413  -4.264  0.00  0.00    -0.054 A 
ATOM     50  H   LIG d   1       6.582   2.068  -3.180  0.00  0.00     0.063 H 
ATOM     51  H   LIG d   1       8.122   1.014  -4.785  0.00  0.00     0.062 H 
ENDBRANCH  38  41
ENDBRANCH  37  38
ENDBRANCH   4  37
TORSDOF 9
ENDMDL
