MODEL 1
REMARK VINA RESULT:      -4.6      0.000      0.000
REMARK  8 active torsions:
REMARK  status: ('A' for Active; 'I' for Inactive)
REMARK    1  A    between atoms: C_1  and  N_2 
REMARK    2  A    between atoms: N_6  and  C_20 
REMARK    3  A    between atoms: N_9  and  C_17 
REMARK    4  A    between atoms: N_13  and  C_16 
REMARK    5  A    between atoms: C_17  and  C_18 
REMARK    6  A    between atoms: C_18  and  N_19 
REMARK    7  A    between atoms: C_20  and  C_21 
REMARK    8  A    between atoms: C_21  and  N_22 
ROOT
ATOM      1  N   LIG d   1       9.728  11.663  -1.250  0.00  0.00     0.234 N 
ATOM      2  C   LIG d   1       9.342  10.780  -2.346  0.00  0.00    -0.031 C 
ATOM      3  C   LIG d   1      10.012  11.130  -3.669  0.00  0.00     0.000 C 
ATOM      4  C   LIG d   1       9.427  10.242  -4.774  0.00  0.00     0.004 C 
ATOM      5  N   LIG d   1      10.529   9.373  -5.306  0.00  0.00    -0.292 N 
ATOM      6  C   LIG d   1      10.151   7.978  -4.898  0.00  0.00     0.039 C 
ATOM      7  C   LIG d   1      11.435   7.187  -4.662  0.00  0.00    -0.019 C 
ATOM      8  N   LIG d   1      11.293   6.364  -3.454  0.00  0.00     0.237 N 
ATOM      9  C   LIG d   1      12.359   6.695  -2.499  0.00  0.00    -0.031 C 
ATOM     10  C   LIG d   1      11.785   6.749  -1.082  0.00  0.00     0.000 C 
ATOM     11  C   LIG d   1      12.400   7.925  -0.324  0.00  0.00     0.004 C 
ATOM     12  N   LIG d   1      11.306   8.745   0.260  0.00  0.00    -0.300 N 
ATOM     13  C   LIG d   1      11.404  10.103  -0.343  0.00  0.00     0.039 C 
ATOM     14  C   LIG d   1      10.106  10.859  -0.077  0.00  0.00    -0.019 C 
ATOM     15  H   LIG d   1       9.587   9.745  -2.083  0.00  0.00     0.082 H 
ATOM     16  H   LIG d   1       8.252  10.835  -2.477  0.00  0.00     0.082 H 
ATOM     17  H   LIG d   1       9.819  12.169  -3.935  0.00  0.00     0.033 H 
ATOM     18  H   LIG d   1      11.085  10.943  -3.615  0.00  0.00     0.033 H 
ATOM     19  H   LIG d   1       8.648   9.607  -4.373  0.00  0.00     0.043 H 
ATOM     20  H   LIG d   1       9.058  10.856  -5.588  0.00  0.00     0.043 H 
ATOM     21  H   LIG d   1       9.568   8.037  -3.987  0.00  0.00     0.048 H 
ATOM     22  H   LIG d   1       9.578   7.537  -5.706  0.00  0.00     0.048 H 
ATOM     23  H   LIG d   1      11.625   6.537  -5.518  0.00  0.00     0.083 H 
ATOM     24  H   LIG d   1      12.272   7.874  -4.542  0.00  0.00     0.083 H 
ATOM     25  H   LIG d   1      13.136   5.929  -2.544  0.00  0.00     0.082 H 
ATOM     26  H   LIG d   1      12.791   7.662  -2.752  0.00  0.00     0.082 H 
ATOM     27  H   LIG d   1      10.703   6.872  -1.130  0.00  0.00     0.033 H 
ATOM     28  H   LIG d   1      12.020   5.820  -0.562  0.00  0.00     0.033 H 
ATOM     29  H   LIG d   1      13.029   7.558   0.484  0.00  0.00     0.043 H 
ATOM     30  H   LIG d   1      12.979   8.546  -1.002  0.00  0.00     0.043 H 
ATOM     31  H   LIG d   1      12.241  10.622   0.118  0.00  0.00     0.048 H 
ATOM     32  H   LIG d   1      11.569   9.986  -1.410  0.00  0.00     0.048 H 
ATOM     33  H   LIG d   1      10.235  11.520   0.782  0.00  0.00     0.083 H 
ATOM     34  H   LIG d   1       9.305  10.148   0.139  0.00  0.00     0.083 H 
ATOM     35  H   LIG d   1       8.918  12.227  -0.989  0.00  0.00     0.203 HD
ATOM     36  H   LIG d   1      10.394   6.538  -3.030  0.00  0.00     0.203 HD
ENDROOT
BRANCH   5  37
ATOM     37  C   LIG d   1      10.329   9.392  -6.799  0.00  0.00     0.039 C 
ATOM     38  H   LIG d   1      10.165  10.418  -7.131  0.00  0.00     0.048 H 
ATOM     39  H   LIG d   1      11.214   8.988  -7.290  0.00  0.00     0.048 H 
BRANCH  37  40
ATOM     40  C   LIG d   1       9.111   8.539  -7.160  0.00  0.00    -0.022 C 
ATOM     41  H   LIG d   1       9.412   7.495  -7.246  0.00  0.00     0.083 H 
ATOM     42  H   LIG d   1       8.354   8.637  -6.382  0.00  0.00     0.083 H 
BRANCH  40  43
ATOM     43  N   LIG d   1       8.557   8.997  -8.442  0.00  0.00     0.219 N 
ATOM     44  H   LIG d   1       7.586   9.241  -8.321  0.00  0.00     0.200 HD
ATOM     45  H   LIG d   1       9.070   9.805  -8.761  0.00  0.00     0.200 HD
ATOM     46  H   LIG d   1       8.635   8.257  -9.124  0.00  0.00     0.200 HD
ENDBRANCH  40  43
ENDBRANCH  37  40
ENDBRANCH   5  37
BRANCH   8  47
ATOM     47  C   LIG d   1      11.390   4.943  -3.819  0.00  0.00    -0.019 C 
ATOM     48  H   LIG d   1      11.263   4.835  -4.896  0.00  0.00     0.083 H 
ATOM     49  H   LIG d   1      12.368   4.558  -3.528  0.00  0.00     0.083 H 
BRANCH  47  50
ATOM     50  C   LIG d   1      10.296   4.154  -3.095  0.00  0.00     0.034 C 
ATOM     51  H   LIG d   1       9.605   4.849  -2.616  0.00  0.00     0.048 H 
ATOM     52  H   LIG d   1       9.754   3.541  -3.814  0.00  0.00     0.048 H 
BRANCH  50  53
ATOM     53  N   LIG d   1      10.907   3.291  -2.076  0.00  0.00    -0.326 N 
ATOM     54  H   LIG d   1      11.795   3.662  -1.774  0.00  0.00     0.118 HD
ATOM     55  H   LIG d   1      10.284   3.160  -1.293  0.00  0.00     0.118 HD
ENDBRANCH  50  53
ENDBRANCH  47  50
ENDBRANCH   8  47
BRANCH   1  56
ATOM     56  C   LIG d   1      10.820  12.571  -1.600  0.00  0.00    -0.043 C 
ATOM     57  H   LIG d   1      11.288  12.237  -2.526  0.00  0.00     0.078 H 
ATOM     58  H   LIG d   1      10.425  13.578  -1.737  0.00  0.00     0.078 H 
ATOM     59  H   LIG d   1      11.560  12.577  -0.800  0.00  0.00     0.078 H 
ENDBRANCH   1  56
BRANCH  12  60
ATOM     60  C   LIG d   1      11.586   8.883   1.715  0.00  0.00    -0.013 C 
ATOM     61  H   LIG d   1      10.651   8.828   2.271  0.00  0.00     0.039 H 
ATOM     62  H   LIG d   1      12.248   8.079   2.035  0.00  0.00     0.039 H 
ATOM     63  H   LIG d   1      12.065   9.845   1.902  0.00  0.00     0.039 H 
ENDBRANCH  12  60
TORSDOF 8
ENDMDL
MODEL 2
REMARK VINA RESULT:      -4.6      7.756     10.814
REMARK  8 active torsions:
REMARK  status: ('A' for Active; 'I' for Inactive)
REMARK    1  A    between atoms: C_1  and  N_2 
REMARK    2  A    between atoms: N_6  and  C_20 
REMARK    3  A    between atoms: N_9  and  C_17 
REMARK    4  A    between atoms: N_13  and  C_16 
REMARK    5  A    between atoms: C_17  and  C_18 
REMARK    6  A    between atoms: C_18  and  N_19 
REMARK    7  A    between atoms: C_20  and  C_21 
REMARK    8  A    between atoms: C_21  and  N_22 
ROOT
ATOM      1  N   LIG d   1       7.877   2.164  -9.083  0.00  0.00     0.234 N 
ATOM      2  C   LIG d   1       6.481   1.931  -8.722  0.00  0.00    -0.031 C 
ATOM      3  C   LIG d   1       5.930   0.617  -9.260  0.00  0.00     0.000 C 
ATOM      4  C   LIG d   1       4.429   0.544  -8.953  0.00  0.00     0.004 C 
ATOM      5  N   LIG d   1       4.199  -0.608  -8.019  0.00  0.00    -0.292 N 
ATOM      6  C   LIG d   1       3.761   0.024  -6.729  0.00  0.00     0.039 C 
ATOM      7  C   LIG d   1       4.244  -0.855  -5.579  0.00  0.00    -0.019 C 
ATOM      8  N   LIG d   1       4.771  -0.011  -4.499  0.00  0.00     0.237 N 
ATOM      9  C   LIG d   1       6.162  -0.383  -4.211  0.00  0.00    -0.031 C 
ATOM     10  C   LIG d   1       6.998   0.878  -3.986  0.00  0.00     0.000 C 
ATOM     11  C   LIG d   1       8.363   0.714  -4.652  0.00  0.00     0.004 C 
ATOM     12  N   LIG d   1       8.617   1.891  -5.525  0.00  0.00    -0.300 N 
ATOM     13  C   LIG d   1       8.754   1.384  -6.918  0.00  0.00     0.039 C 
ATOM     14  C   LIG d   1       8.637   2.558  -7.885  0.00  0.00    -0.019 C 
ATOM     15  H   LIG d   1       6.381   1.943  -7.631  0.00  0.00     0.082 H 
ATOM     16  H   LIG d   1       5.872   2.757  -9.116  0.00  0.00     0.082 H 
ATOM     17  H   LIG d   1       6.055   0.560 -10.341  0.00  0.00     0.033 H 
ATOM     18  H   LIG d   1       6.418  -0.229  -8.774  0.00  0.00     0.033 H 
ATOM     19  H   LIG d   1       4.100   1.453  -8.469  0.00  0.00     0.043 H 
ATOM     20  H   LIG d   1       3.872   0.356  -9.864  0.00  0.00     0.043 H 
ATOM     21  H   LIG d   1       4.203   1.010  -6.666  0.00  0.00     0.048 H 
ATOM     22  H   LIG d   1       2.677   0.077  -6.734  0.00  0.00     0.048 H 
ATOM     23  H   LIG d   1       3.411  -1.447  -5.196  0.00  0.00     0.083 H 
ATOM     24  H   LIG d   1       5.025  -1.527  -5.934  0.00  0.00     0.083 H 
ATOM     25  H   LIG d   1       6.193  -1.001  -3.311  0.00  0.00     0.082 H 
ATOM     26  H   LIG d   1       6.573  -0.945  -5.048  0.00  0.00     0.082 H 
ATOM     27  H   LIG d   1       6.485   1.739  -4.414  0.00  0.00     0.033 H 
ATOM     28  H   LIG d   1       7.134   1.035  -2.915  0.00  0.00     0.033 H 
ATOM     29  H   LIG d   1       9.144   0.667  -3.896  0.00  0.00     0.043 H 
ATOM     30  H   LIG d   1       8.376  -0.184  -5.264  0.00  0.00     0.043 H 
ATOM     31  H   LIG d   1       9.730   0.915  -7.015  0.00  0.00     0.048 H 
ATOM     32  H   LIG d   1       7.964   0.661  -7.092  0.00  0.00     0.048 H 
ATOM     33  H   LIG d   1       9.633   2.887  -8.188  0.00  0.00     0.083 H 
ATOM     34  H   LIG d   1       8.122   3.388  -7.396  0.00  0.00     0.083 H 
ATOM     35  H   LIG d   1       7.914   2.944  -9.741  0.00  0.00     0.203 HD
ATOM     36  H   LIG d   1       4.731   0.958  -4.778  0.00  0.00     0.203 HD
ENDROOT
BRANCH   5  37
ATOM     37  C   LIG d   1       2.958  -1.275  -8.549  0.00  0.00     0.039 C 
ATOM     38  H   LIG d   1       3.240  -2.112  -9.190  0.00  0.00     0.048 H 
ATOM     39  H   LIG d   1       2.358  -1.642  -7.716  0.00  0.00     0.048 H 
BRANCH  37  40
ATOM     40  C   LIG d   1       2.143  -0.264  -9.359  0.00  0.00    -0.022 C 
ATOM     41  H   LIG d   1       1.744   0.498  -8.691  0.00  0.00     0.083 H 
ATOM     42  H   LIG d   1       2.784   0.204 -10.105  0.00  0.00     0.083 H 
BRANCH  40  43
ATOM     43  N   LIG d   1       1.034  -0.957 -10.030  0.00  0.00     0.219 N 
ATOM     44  H   LIG d   1       0.876  -1.849  -9.586  0.00  0.00     0.200 HD
ATOM     45  H   LIG d   1       0.198  -0.396  -9.965  0.00  0.00     0.200 HD
ATOM     46  H   LIG d   1       1.268  -1.101 -11.001  0.00  0.00     0.200 HD
ENDBRANCH  40  43
ENDBRANCH  37  40
ENDBRANCH   5  37
BRANCH   8  47
ATOM     47  C   LIG d   1       3.955  -0.201  -3.290  0.00  0.00    -0.019 C 
ATOM     48  H   LIG d   1       2.982  -0.605  -3.569  0.00  0.00     0.083 H 
ATOM     49  H   LIG d   1       4.458  -0.896  -2.617  0.00  0.00     0.083 H 
BRANCH  47  50
ATOM     50  C   LIG d   1       3.766   1.144  -2.585  0.00  0.00     0.034 C 
ATOM     51  H   LIG d   1       2.964   1.060  -1.851  0.00  0.00     0.048 H 
ATOM     52  H   LIG d   1       4.691   1.424  -2.083  0.00  0.00     0.048 H 
BRANCH  50  53
ATOM     53  N   LIG d   1       3.416   2.171  -3.576  0.00  0.00    -0.326 N 
ATOM     54  H   LIG d   1       3.669   3.091  -3.248  0.00  0.00     0.118 HD
ATOM     55  H   LIG d   1       3.846   1.975  -4.467  0.00  0.00     0.118 HD
ENDBRANCH  50  53
ENDBRANCH  47  50
ENDBRANCH   8  47
BRANCH   1  56
ATOM     56  C   LIG d   1       8.509   1.006  -9.712  0.00  0.00    -0.043 C 
ATOM     57  H   LIG d   1       8.085   0.091  -9.300  0.00  0.00     0.078 H 
ATOM     58  H   LIG d   1       8.332   1.035 -10.788  0.00  0.00     0.078 H 
ATOM     59  H   LIG d   1       9.582   1.027  -9.521  0.00  0.00     0.078 H 
ENDBRANCH   1  56
BRANCH  12  60
ATOM     60  C   LIG d   1       9.933   2.461  -5.126  0.00  0.00    -0.013 C 
ATOM     61  H   LIG d   1      10.716   2.041  -5.757  0.00  0.00     0.039 H 
ATOM     62  H   LIG d   1       9.911   3.543  -5.246  0.00  0.00     0.039 H 
ATOM     63  H   LIG d   1      10.133   2.213  -4.083  0.00  0.00     0.039 H 
ENDBRANCH  12  60
TORSDOF 8
ENDMDL
MODEL 3
REMARK VINA RESULT:      -4.6      2.076      7.036
REMARK  8 active torsions:
REMARK  status: ('A' for Active; 'I' for Inactive)
REMARK    1  A    between atoms: C_1  and  N_2 
REMARK    2  A    between atoms: N_6  and  C_20 
REMARK    3  A    between atoms: N_9  and  C_17 
REMARK    4  A    between atoms: N_13  and  C_16 
REMARK    5  A    between atoms: C_17  and  C_18 
REMARK    6  A    between atoms: C_18  and  N_19 
REMARK    7  A    between atoms: C_20  and  C_21 
REMARK    8  A    between atoms: C_21  and  N_22 
ROOT
ATOM      1  N   LIG d   1       9.841   5.442  -5.751  0.00  0.00     0.234 N 
ATOM      2  C   LIG d   1       9.404   6.098  -4.523  0.00  0.00    -0.031 C 
ATOM      3  C   LIG d   1      10.309   5.815  -3.331  0.00  0.00     0.000 C 
ATOM      4  C   LIG d   1       9.680   6.425  -2.072  0.00  0.00     0.004 C 
ATOM      5  N   LIG d   1      10.601   7.495  -1.563  0.00  0.00    -0.292 N 
ATOM      6  C   LIG d   1       9.846   8.779  -1.760  0.00  0.00     0.039 C 
ATOM      7  C   LIG d   1      10.857   9.888  -2.038  0.00  0.00    -0.019 C 
ATOM      8  N   LIG d   1      10.361  10.751  -3.118  0.00  0.00     0.237 N 
ATOM      9  C   LIG d   1      11.338  10.786  -4.214  0.00  0.00    -0.031 C 
ATOM     10  C   LIG d   1      10.609  10.712  -5.558  0.00  0.00     0.000 C 
ATOM     11  C   LIG d   1      11.383   9.802  -6.511  0.00  0.00     0.004 C 
ATOM     12  N   LIG d   1      10.451   8.785  -7.067  0.00  0.00    -0.300 N 
ATOM     13  C   LIG d   1      10.954   7.450  -6.642  0.00  0.00     0.039 C 
ATOM     14  C   LIG d   1       9.853   6.416  -6.855  0.00  0.00    -0.019 C 
ATOM     15  H   LIG d   1       9.354   7.181  -4.687  0.00  0.00     0.082 H 
ATOM     16  H   LIG d   1       8.387   5.757  -4.283  0.00  0.00     0.082 H 
ATOM     17  H   LIG d   1      10.410   4.742  -3.170  0.00  0.00     0.033 H 
ATOM     18  H   LIG d   1      11.288   6.272  -3.478  0.00  0.00     0.033 H 
ATOM     19  H   LIG d   1       8.725   6.874  -2.310  0.00  0.00     0.043 H 
ATOM     20  H   LIG d   1       9.582   5.669  -1.302  0.00  0.00     0.043 H 
ATOM     21  H   LIG d   1       9.178   8.654  -2.603  0.00  0.00     0.048 H 
ATOM     22  H   LIG d   1       9.297   8.987  -0.849  0.00  0.00     0.048 H 
ATOM     23  H   LIG d   1      10.998  10.487  -1.137  0.00  0.00     0.083 H 
ATOM     24  H   LIG d   1      11.812   9.450  -2.328  0.00  0.00     0.083 H 
ATOM     25  H   LIG d   1      11.905  11.717  -4.163  0.00  0.00     0.082 H 
ATOM     26  H   LIG d   1      12.020   9.942  -4.125  0.00  0.00     0.082 H 
ATOM     27  H   LIG d   1       9.606  10.314  -5.408  0.00  0.00     0.033 H 
ATOM     28  H   LIG d   1      10.541  11.713  -5.987  0.00  0.00     0.033 H 
ATOM     29  H   LIG d   1      11.791  10.386  -7.333  0.00  0.00     0.043 H 
ATOM     30  H   LIG d   1      12.180   9.292  -5.978  0.00  0.00     0.043 H 
ATOM     31  H   LIG d   1      11.822   7.204  -7.250  0.00  0.00     0.048 H 
ATOM     32  H   LIG d   1      11.227   7.511  -5.594  0.00  0.00     0.048 H 
ATOM     33  H   LIG d   1      10.021   5.886  -7.795  0.00  0.00     0.083 H 
ATOM     34  H   LIG d   1       8.883   6.915  -6.897  0.00  0.00     0.083 H 
ATOM     35  H   LIG d   1       9.163   4.716  -5.989  0.00  0.00     0.203 HD
ATOM     36  H   LIG d   1       9.482  10.392  -3.460  0.00  0.00     0.203 HD
ENDROOT
BRANCH   5  37
ATOM     37  C   LIG d   1      10.613   7.295  -0.070  0.00  0.00     0.039 C 
ATOM     38  H   LIG d   1      11.019   8.185   0.413  0.00  0.00     0.048 H 
ATOM     39  H   LIG d   1       9.596   7.124   0.282  0.00  0.00     0.048 H 
BRANCH  37  40
ATOM     40  C   LIG d   1      11.484   6.085   0.275  0.00  0.00    -0.022 C 
ATOM     41  H   LIG d   1      11.554   5.430  -0.593  0.00  0.00     0.083 H 
ATOM     42  H   LIG d   1      12.480   6.423   0.558  0.00  0.00     0.083 H 
BRANCH  40  43
ATOM     43  N   LIG d   1      10.878   5.351   1.395  0.00  0.00     0.219 N 
ATOM     44  H   LIG d   1      11.527   4.657   1.732  0.00  0.00     0.200 HD
ATOM     45  H   LIG d   1      10.659   5.996   2.140  0.00  0.00     0.200 HD
ATOM     46  H   LIG d   1      10.033   4.899   1.081  0.00  0.00     0.200 HD
ENDBRANCH  40  43
ENDBRANCH  37  40
ENDBRANCH   5  37
BRANCH   8  47
ATOM     47  C   LIG d   1      10.160  12.112  -2.600  0.00  0.00    -0.019 C 
ATOM     48  H   LIG d   1      10.192  12.095  -1.511  0.00  0.00     0.083 H 
ATOM     49  H   LIG d   1      10.948  12.765  -2.977  0.00  0.00     0.083 H 
BRANCH  47  50
ATOM     50  C   LIG d   1       8.798  12.637  -3.061  0.00  0.00     0.034 C 
ATOM     51  H   LIG d   1       8.504  13.481  -2.436  0.00  0.00     0.048 H 
ATOM     52  H   LIG d   1       8.866  12.960  -4.099  0.00  0.00     0.048 H 
BRANCH  50  53
ATOM     53  N   LIG d   1       7.796  11.569  -2.945  0.00  0.00    -0.326 N 
ATOM     54  H   LIG d   1       8.213  10.664  -3.103  0.00  0.00     0.118 HD
ATOM     55  H   LIG d   1       7.335  11.603  -2.048  0.00  0.00     0.118 HD
ENDBRANCH  50  53
ENDBRANCH  47  50
ENDBRANCH   8  47
BRANCH   1  56
ATOM     56  C   LIG d   1      11.156   4.814  -5.631  0.00  0.00    -0.043 C 
ATOM     57  H   LIG d   1      11.262   4.042  -6.393  0.00  0.00     0.078 H 
ATOM     58  H   LIG d   1      11.933   5.567  -5.767  0.00  0.00     0.078 H 
ATOM     59  H   LIG d   1      11.256   4.364  -4.642  0.00  0.00     0.078 H 
ENDBRANCH   1  56
BRANCH  12  60
ATOM     60  C   LIG d   1      10.559   8.851  -8.549  0.00  0.00    -0.013 C 
ATOM     61  H   LIG d   1      10.859   9.856  -8.847  0.00  0.00     0.039 H 
ATOM     62  H   LIG d   1      11.303   8.133  -8.892  0.00  0.00     0.039 H 
ATOM     63  H   LIG d   1       9.592   8.614  -8.994  0.00  0.00     0.039 H 
ENDBRANCH  12  60
TORSDOF 8
ENDMDL
MODEL 4
REMARK VINA RESULT:      -4.6      2.078      5.587
REMARK  8 active torsions:
REMARK  status: ('A' for Active; 'I' for Inactive)
REMARK    1  A    between atoms: C_1  and  N_2 
REMARK    2  A    between atoms: N_6  and  C_20 
REMARK    3  A    between atoms: N_9  and  C_17 
REMARK    4  A    between atoms: N_13  and  C_16 
REMARK    5  A    between atoms: C_17  and  C_18 
REMARK    6  A    between atoms: C_18  and  N_19 
REMARK    7  A    between atoms: C_20  and  C_21 
REMARK    8  A    between atoms: C_21  and  N_22 
ROOT
ATOM      1  N   LIG d   1      10.658   5.114  -1.195  0.00  0.00     0.234 N 
ATOM      2  C   LIG d   1       9.990   6.221  -1.874  0.00  0.00    -0.031 C 
ATOM      3  C   LIG d   1      10.575   7.584  -1.527  0.00  0.00     0.000 C 
ATOM      4  C   LIG d   1       9.711   8.676  -2.171  0.00  0.00     0.004 C 
ATOM      5  N   LIG d   1      10.555   9.405  -3.175  0.00  0.00    -0.292 N 
ATOM      6  C   LIG d   1       9.949   9.064  -4.507  0.00  0.00     0.039 C 
ATOM      7  C   LIG d   1      11.065   9.049  -5.548  0.00  0.00    -0.019 C 
ATOM      8  N   LIG d   1      10.888   7.901  -6.447  0.00  0.00     0.237 N 
ATOM      9  C   LIG d   1      12.092   7.060  -6.422  0.00  0.00    -0.031 C 
ATOM     10  C   LIG d   1      11.691   5.584  -6.403  0.00  0.00     0.000 C 
ATOM     11  C   LIG d   1      12.606   4.817  -5.449  0.00  0.00     0.004 C 
ATOM     12  N   LIG d   1      11.766   4.042  -4.498  0.00  0.00    -0.300 N 
ATOM     13  C   LIG d   1      12.071   4.544  -3.130  0.00  0.00     0.039 C 
ATOM     14  C   LIG d   1      10.986   4.063  -2.172  0.00  0.00    -0.019 C 
ATOM     15  H   LIG d   1      10.048   6.071  -2.958  0.00  0.00     0.082 H 
ATOM     16  H   LIG d   1       8.925   6.213  -1.600  0.00  0.00     0.082 H 
ATOM     17  H   LIG d   1      10.568   7.743  -0.448  0.00  0.00     0.033 H 
ATOM     18  H   LIG d   1      11.588   7.676  -1.919  0.00  0.00     0.033 H 
ATOM     19  H   LIG d   1       8.867   8.233  -2.683  0.00  0.00     0.043 H 
ATOM     20  H   LIG d   1       9.390   9.388  -1.419  0.00  0.00     0.043 H 
ATOM     21  H   LIG d   1       9.488   8.087  -4.430  0.00  0.00     0.048 H 
ATOM     22  H   LIG d   1       9.218   9.828  -4.747  0.00  0.00     0.048 H 
ATOM     23  H   LIG d   1      11.031   9.970  -6.133  0.00  0.00     0.083 H 
ATOM     24  H   LIG d   1      12.032   8.979  -5.049  0.00  0.00     0.083 H 
ATOM     25  H   LIG d   1      12.690   7.259  -7.314  0.00  0.00     0.082 H 
ATOM     26  H   LIG d   1      12.681   7.288  -5.535  0.00  0.00     0.082 H 
ATOM     27  H   LIG d   1      10.657   5.490  -6.072  0.00  0.00     0.033 H 
ATOM     28  H   LIG d   1      11.787   5.170  -7.408  0.00  0.00     0.033 H 
ATOM     29  H   LIG d   1      13.229   4.123  -6.008  0.00  0.00     0.043 H 
ATOM     30  H   LIG d   1      13.224   5.510  -4.884  0.00  0.00     0.043 H 
ATOM     31  H   LIG d   1      13.039   4.149  -2.830  0.00  0.00     0.048 H 
ATOM     32  H   LIG d   1      12.097   5.629  -3.169  0.00  0.00     0.048 H 
ATOM     33  H   LIG d   1      11.334   3.177  -1.637  0.00  0.00     0.083 H 
ATOM     34  H   LIG d   1      10.085   3.808  -2.735  0.00  0.00     0.083 H 
ATOM     35  H   LIG d   1      10.008   4.713  -0.517  0.00  0.00     0.203 HD
ATOM     36  H   LIG d   1      10.091   7.358  -6.148  0.00  0.00     0.203 HD
ENDROOT
BRANCH   5  37
ATOM     37  C   LIG d   1      10.208  10.856  -2.969  0.00  0.00     0.039 C 
ATOM     38  H   LIG d   1       9.993  11.032  -1.914  0.00  0.00     0.048 H 
ATOM     39  H   LIG d   1      11.049  11.478  -3.276  0.00  0.00     0.048 H 
BRANCH  37  40
ATOM     40  C   LIG d   1       8.977  11.210  -3.806  0.00  0.00    -0.022 C 
ATOM     41  H   LIG d   1       9.215  12.044  -4.465  0.00  0.00     0.083 H 
ATOM     42  H   LIG d   1       8.683  10.346  -4.402  0.00  0.00     0.083 H 
BRANCH  40  43
ATOM     43  N   LIG d   1       7.872  11.589  -2.914  0.00  0.00     0.219 N 
ATOM     44  H   LIG d   1       7.667  10.824  -2.290  0.00  0.00     0.200 HD
ATOM     45  H   LIG d   1       8.137  12.400  -2.376  0.00  0.00     0.200 HD
ATOM     46  H   LIG d   1       7.054  11.802  -3.465  0.00  0.00     0.200 HD
ENDBRANCH  40  43
ENDBRANCH  37  40
ENDBRANCH   5  37
BRANCH   8  47
ATOM     47  C   LIG d   1      10.658   8.385  -7.816  0.00  0.00    -0.019 C 
ATOM     48  H   LIG d   1      10.669   9.475  -7.822  0.00  0.00     0.083 H 
ATOM     49  H   LIG d   1      11.446   8.010  -8.471  0.00  0.00     0.083 H 
BRANCH  47  50
ATOM     50  C   LIG d   1       9.300   7.885  -8.313  0.00  0.00     0.034 C 
ATOM     51  H   LIG d   1       9.442   7.285  -9.213  0.00  0.00     0.048 H 
ATOM     52  H   LIG d   1       8.832   7.277  -7.540  0.00  0.00     0.048 H 
BRANCH  50  53
ATOM     53  N   LIG d   1       8.439   9.034  -8.622  0.00  0.00    -0.326 N 
ATOM     54  H   LIG d   1       8.083   9.456  -7.778  0.00  0.00     0.118 HD
ATOM     55  H   LIG d   1       8.928   9.711  -9.187  0.00  0.00     0.118 HD
ENDBRANCH  50  53
ENDBRANCH  47  50
ENDBRANCH   8  47
BRANCH   1  56
ATOM     56  C   LIG d   1      11.867   5.523  -0.482  0.00  0.00    -0.043 C 
ATOM     57  H   LIG d   1      12.412   4.638  -0.154  0.00  0.00     0.078 H 
ATOM     58  H   LIG d   1      12.498   6.114  -1.145  0.00  0.00     0.078 H 
ATOM     59  H   LIG d   1      11.592   6.122   0.387  0.00  0.00     0.078 H 
ENDBRANCH   1  56
BRANCH  12  60
ATOM     60  C   LIG d   1      12.218   2.625  -4.563  0.00  0.00    -0.013 C 
ATOM     61  H   LIG d   1      12.283   2.218  -3.554  0.00  0.00     0.039 H 
ATOM     62  H   LIG d   1      11.504   2.043  -5.145  0.00  0.00     0.039 H 
ATOM     63  H   LIG d   1      13.199   2.580  -5.038  0.00  0.00     0.039 H 
ENDBRANCH  12  60
TORSDOF 8
ENDMDL
MODEL 5
REMARK VINA RESULT:      -4.5      1.866      6.457
REMARK  8 active torsions:
REMARK  status: ('A' for Active; 'I' for Inactive)
REMARK    1  A    between atoms: C_1  and  N_2 
REMARK    2  A    between atoms: N_6  and  C_20 
REMARK    3  A    between atoms: N_9  and  C_17 
REMARK    4  A    between atoms: N_13  and  C_16 
REMARK    5  A    between atoms: C_17  and  C_18 
REMARK    6  A    between atoms: C_18  and  N_19 
REMARK    7  A    between atoms: C_20  and  C_21 
REMARK    8  A    between atoms: C_21  and  N_22 
ROOT
ATOM      1  N   LIG d   1       9.761   7.795  -7.558  0.00  0.00     0.234 N 
ATOM      2  C   LIG d   1       9.232   7.223  -6.323  0.00  0.00    -0.031 C 
ATOM      3  C   LIG d   1      10.208   6.285  -5.624  0.00  0.00     0.000 C 
ATOM      4  C   LIG d   1       9.503   5.631  -4.430  0.00  0.00     0.004 C 
ATOM      5  N   LIG d   1      10.199   6.075  -3.177  0.00  0.00    -0.292 N 
ATOM      6  C   LIG d   1       9.193   6.928  -2.459  0.00  0.00     0.039 C 
ATOM      7  C   LIG d   1       9.949   8.004  -1.683  0.00  0.00    -0.019 C 
ATOM      8  N   LIG d   1       9.257   9.292  -1.822  0.00  0.00     0.237 N 
ATOM      9  C   LIG d   1      10.175  10.291  -2.384  0.00  0.00    -0.031 C 
ATOM     10  C   LIG d   1       9.441  11.142  -3.422  0.00  0.00     0.000 C 
ATOM     11  C   LIG d   1      10.358  11.397  -4.617  0.00  0.00     0.004 C 
ATOM     12  N   LIG d   1       9.639  11.020  -5.863  0.00  0.00    -0.300 N 
ATOM     13  C   LIG d   1      10.415   9.923  -6.505  0.00  0.00     0.039 C 
ATOM     14  C   LIG d   1       9.543   9.251  -7.561  0.00  0.00    -0.019 C 
ATOM     15  H   LIG d   1       8.958   8.032  -5.636  0.00  0.00     0.082 H 
ATOM     16  H   LIG d   1       8.313   6.667  -6.556  0.00  0.00     0.082 H 
ATOM     17  H   LIG d   1      10.531   5.493  -6.300  0.00  0.00     0.033 H 
ATOM     18  H   LIG d   1      11.069   6.840  -5.250  0.00  0.00     0.033 H 
ATOM     19  H   LIG d   1       8.470   5.949  -4.384  0.00  0.00     0.043 H 
ATOM     20  H   LIG d   1       9.583   4.552  -4.497  0.00  0.00     0.043 H 
ATOM     21  H   LIG d   1       8.542   7.379  -3.198  0.00  0.00     0.048 H 
ATOM     22  H   LIG d   1       8.639   6.291  -1.780  0.00  0.00     0.048 H 
ATOM     23  H   LIG d   1       9.988   7.731  -0.627  0.00  0.00     0.083 H 
ATOM     24  H   LIG d   1      10.965   8.089  -2.068  0.00  0.00     0.083 H 
ATOM     25  H   LIG d   1      10.542  10.936  -1.583  0.00  0.00     0.082 H 
ATOM     26  H   LIG d   1      11.018   9.789  -2.857  0.00  0.00     0.082 H 
ATOM     27  H   LIG d   1       8.544  10.619  -3.755  0.00  0.00     0.033 H 
ATOM     28  H   LIG d   1       9.157  12.095  -2.972  0.00  0.00     0.033 H 
ATOM     29  H   LIG d   1      10.615  12.452  -4.670  0.00  0.00     0.043 H 
ATOM     30  H   LIG d   1      11.257  10.792  -4.536  0.00  0.00     0.043 H 
ATOM     31  H   LIG d   1      11.298  10.357  -6.968  0.00  0.00     0.048 H 
ATOM     32  H   LIG d   1      10.698   9.216  -5.732  0.00  0.00     0.048 H 
ATOM     33  H   LIG d   1       9.790   9.646  -8.548  0.00  0.00     0.083 H 
ATOM     34  H   LIG d   1       8.490   9.453  -7.350  0.00  0.00     0.083 H 
ATOM     35  H   LIG d   1       9.239   7.404  -8.343  0.00  0.00     0.203 HD
ATOM     36  H   LIG d   1       8.461   9.183  -2.432  0.00  0.00     0.203 HD
ENDROOT
BRANCH   5  37
ATOM     37  C   LIG d   1      10.293   4.825  -2.341  0.00  0.00     0.039 C 
ATOM     38  H   LIG d   1       9.487   4.818  -1.607  0.00  0.00     0.048 H 
ATOM     39  H   LIG d   1      10.205   3.950  -2.985  0.00  0.00     0.048 H 
BRANCH  37  40
ATOM     40  C   LIG d   1      11.642   4.796  -1.619  0.00  0.00    -0.022 C 
ATOM     41  H   LIG d   1      12.187   3.898  -1.907  0.00  0.00     0.083 H 
ATOM     42  H   LIG d   1      12.221   5.678  -1.894  0.00  0.00     0.083 H 
BRANCH  40  43
ATOM     43  N   LIG d   1      11.418   4.790  -0.167  0.00  0.00     0.219 N 
ATOM     44  H   LIG d   1      11.644   5.697   0.212  0.00  0.00     0.200 HD
ATOM     45  H   LIG d   1      10.450   4.577   0.024  0.00  0.00     0.200 HD
ATOM     46  H   LIG d   1      12.008   4.091   0.260  0.00  0.00     0.200 HD
ENDBRANCH  40  43
ENDBRANCH  37  40
ENDBRANCH   5  37
BRANCH   8  47
ATOM     47  C   LIG d   1       8.796   9.742  -0.500  0.00  0.00    -0.019 C 
ATOM     48  H   LIG d   1       7.983  10.457  -0.623  0.00  0.00     0.083 H 
ATOM     49  H   LIG d   1       8.442   8.884   0.073  0.00  0.00     0.083 H 
BRANCH  47  50
ATOM     50  C   LIG d   1       9.954  10.410   0.244  0.00  0.00     0.034 C 
ATOM     51  H   LIG d   1      10.224   9.807   1.111  0.00  0.00     0.048 H 
ATOM     52  H   LIG d   1      10.812  10.496  -0.421  0.00  0.00     0.048 H 
BRANCH  50  53
ATOM     53  N   LIG d   1       9.543  11.749   0.688  0.00  0.00    -0.326 N 
ATOM     54  H   LIG d   1       8.541  11.854   0.640  0.00  0.00     0.118 HD
ATOM     55  H   LIG d   1       9.883  11.941   1.619  0.00  0.00     0.118 HD
ENDBRANCH  50  53
ENDBRANCH  47  50
ENDBRANCH   8  47
BRANCH   1  56
ATOM     56  C   LIG d   1      11.179   7.506  -7.764  0.00  0.00    -0.043 C 
ATOM     57  H   LIG d   1      11.282   6.602  -8.364  0.00  0.00     0.078 H 
ATOM     58  H   LIG d   1      11.649   8.342  -8.283  0.00  0.00     0.078 H 
ATOM     59  H   LIG d   1      11.665   7.359  -6.799  0.00  0.00     0.078 H 
ENDBRANCH   1  56
BRANCH  12  60
ATOM     60  C   LIG d   1       9.690  12.195  -6.775  0.00  0.00    -0.013 C 
ATOM     61  H   LIG d   1       8.897  12.895  -6.510  0.00  0.00     0.039 H 
ATOM     62  H   LIG d   1      10.657  12.687  -6.678  0.00  0.00     0.039 H 
ATOM     63  H   LIG d   1       9.552  11.861  -7.804  0.00  0.00     0.039 H 
ENDBRANCH  12  60
TORSDOF 8
ENDMDL
MODEL 6
REMARK VINA RESULT:      -4.5      1.766      2.218
REMARK  8 active torsions:
REMARK  status: ('A' for Active; 'I' for Inactive)
REMARK    1  A    between atoms: C_1  and  N_2 
REMARK    2  A    between atoms: N_6  and  C_20 
REMARK    3  A    between atoms: N_9  and  C_17 
REMARK    4  A    between atoms: N_13  and  C_16 
REMARK    5  A    between atoms: C_17  and  C_18 
REMARK    6  A    between atoms: C_18  and  N_19 
REMARK    7  A    between atoms: C_20  and  C_21 
REMARK    8  A    between atoms: C_21  and  N_22 
ROOT
ATOM      1  N   LIG d   1      10.444   9.644  -1.243  0.00  0.00     0.234 N 
ATOM      2  C   LIG d   1       9.833   9.169  -2.481  0.00  0.00    -0.031 C 
ATOM      3  C   LIG d   1      10.635   9.524  -3.726  0.00  0.00     0.000 C 
ATOM      4  C   LIG d   1       9.836   9.112  -4.969  0.00  0.00     0.004 C 
ATOM      5  N   LIG d   1      10.610   8.046  -5.688  0.00  0.00    -0.292 N 
ATOM      6  C   LIG d   1       9.775   6.805  -5.551  0.00  0.00     0.039 C 
ATOM      7  C   LIG d   1      10.714   5.602  -5.507  0.00  0.00    -0.019 C 
ATOM      8  N   LIG d   1      10.258   4.656  -4.480  0.00  0.00     0.237 N 
ATOM      9  C   LIG d   1      11.333   4.424  -3.506  0.00  0.00    -0.031 C 
ATOM     10  C   LIG d   1      10.750   4.392  -2.092  0.00  0.00     0.000 C 
ATOM     11  C   LIG d   1      11.688   5.126  -1.135  0.00  0.00     0.004 C 
ATOM     12  N   LIG d   1      10.903   6.135  -0.374  0.00  0.00    -0.300 N 
ATOM     13  C   LIG d   1      11.470   7.472  -0.702  0.00  0.00     0.039 C 
ATOM     14  C   LIG d   1      10.485   8.550  -0.260  0.00  0.00    -0.019 C 
ATOM     15  H   LIG d   1       9.711   8.081  -2.431  0.00  0.00     0.082 H 
ATOM     16  H   LIG d   1       8.829   9.606  -2.571  0.00  0.00     0.082 H 
ATOM     17  H   LIG d   1      10.808  10.599  -3.779  0.00  0.00     0.033 H 
ATOM     18  H   LIG d   1      11.583   8.985  -3.736  0.00  0.00     0.033 H 
ATOM     19  H   LIG d   1       8.876   8.707  -4.679  0.00  0.00     0.043 H 
ATOM     20  H   LIG d   1       9.725   9.958  -5.636  0.00  0.00     0.043 H 
ATOM     21  H   LIG d   1       9.207   6.878  -4.632  0.00  0.00     0.048 H 
ATOM     22  H   LIG d   1       9.123   6.744  -6.415  0.00  0.00     0.048 H 
ATOM     23  H   LIG d   1      10.714   5.104  -6.478  0.00  0.00     0.083 H 
ATOM     24  H   LIG d   1      11.726   5.934  -5.276  0.00  0.00     0.083 H 
ATOM     25  H   LIG d   1      11.814   3.467  -3.720  0.00  0.00     0.082 H 
ATOM     26  H   LIG d   1      12.070   5.222  -3.576  0.00  0.00     0.082 H 
ATOM     27  H   LIG d   1       9.773   4.874  -2.087  0.00  0.00     0.033 H 
ATOM     28  H   LIG d   1      10.642   3.355  -1.769  0.00  0.00     0.033 H 
ATOM     29  H   LIG d   1      12.126   4.423  -0.430  0.00  0.00     0.043 H 
ATOM     30  H   LIG d   1      12.467   5.638  -1.692  0.00  0.00     0.043 H 
ATOM     31  H   LIG d   1      12.411   7.583  -0.169  0.00  0.00     0.048 H 
ATOM     32  H   LIG d   1      11.631   7.514  -1.775  0.00  0.00     0.048 H 
ATOM     33  H   LIG d   1      10.789   8.952   0.708  0.00  0.00     0.083 H 
ATOM     34  H   LIG d   1       9.485   8.118  -0.168  0.00  0.00     0.083 H 
ATOM     35  H   LIG d   1       9.855  10.383  -0.856  0.00  0.00     0.203 HD
ATOM     36  H   LIG d   1       9.450   5.034  -4.008  0.00  0.00     0.203 HD
ENDROOT
BRANCH   5  37
ATOM     37  C   LIG d   1      10.489   8.417  -7.143  0.00  0.00     0.039 C 
ATOM     38  H   LIG d   1      10.733   9.473  -7.270  0.00  0.00     0.048 H 
ATOM     39  H   LIG d   1      11.179   7.812  -7.731  0.00  0.00     0.048 H 
BRANCH  37  40
ATOM     40  C   LIG d   1       9.056   8.164  -7.616  0.00  0.00    -0.022 C 
ATOM     41  H   LIG d   1       8.997   7.181  -8.082  0.00  0.00     0.083 H 
ATOM     42  H   LIG d   1       8.379   8.204  -6.763  0.00  0.00     0.083 H 
BRANCH  40  43
ATOM     43  N   LIG d   1       8.675   9.195  -8.592  0.00  0.00     0.219 N 
ATOM     44  H   LIG d   1       9.269  10.002  -8.478  0.00  0.00     0.200 HD
ATOM     45  H   LIG d   1       8.782   8.828  -9.527  0.00  0.00     0.200 HD
ATOM     46  H   LIG d   1       7.713   9.460  -8.442  0.00  0.00     0.200 HD
ENDBRANCH  40  43
ENDBRANCH  37  40
ENDBRANCH   5  37
BRANCH   8  47
ATOM     47  C   LIG d   1       9.894   3.382  -5.118  0.00  0.00    -0.019 C 
ATOM     48  H   LIG d   1       9.728   3.544  -6.182  0.00  0.00     0.083 H 
ATOM     49  H   LIG d   1      10.703   2.664  -4.982  0.00  0.00     0.083 H 
BRANCH  47  50
ATOM     50  C   LIG d   1       8.615   2.838  -4.478  0.00  0.00     0.034 C 
ATOM     51  H   LIG d   1       8.189   3.594  -3.818  0.00  0.00     0.048 H 
ATOM     52  H   LIG d   1       7.896   2.590  -5.258  0.00  0.00     0.048 H 
BRANCH  50  53
ATOM     53  N   LIG d   1       8.931   1.632  -3.701  0.00  0.00    -0.326 N 
ATOM     54  H   LIG d   1       9.403   0.948  -4.272  0.00  0.00     0.118 HD
ATOM     55  H   LIG d   1       9.477   1.861  -2.885  0.00  0.00     0.118 HD
ENDBRANCH  50  53
ENDBRANCH  47  50
ENDBRANCH   8  47
BRANCH   1  56
ATOM     56  C   LIG d   1      11.788  10.187  -1.437  0.00  0.00    -0.043 C 
ATOM     57  H   LIG d   1      11.932  10.432  -2.489  0.00  0.00     0.078 H 
ATOM     58  H   LIG d   1      11.906  11.089  -0.835  0.00  0.00     0.078 H 
ATOM     59  H   LIG d   1      12.527   9.447  -1.131  0.00  0.00     0.078 H 
ENDBRANCH   1  56
BRANCH  12  60
ATOM     60  C   LIG d   1      11.153   5.888   1.072  0.00  0.00    -0.013 C 
ATOM     61  H   LIG d   1      10.980   6.808   1.632  0.00  0.00     0.039 H 
ATOM     62  H   LIG d   1      10.476   5.113   1.430  0.00  0.00     0.039 H 
ATOM     63  H   LIG d   1      12.185   5.565   1.212  0.00  0.00     0.039 H 
ENDBRANCH  12  60
TORSDOF 8
ENDMDL
MODEL 7
REMARK VINA RESULT:      -4.4      7.747     11.550
REMARK  8 active torsions:
REMARK  status: ('A' for Active; 'I' for Inactive)
REMARK    1  A    between atoms: C_1  and  N_2 
REMARK    2  A    between atoms: N_6  and  C_20 
REMARK    3  A    between atoms: N_9  and  C_17 
REMARK    4  A    between atoms: N_13  and  C_16 
REMARK    5  A    between atoms: C_17  and  C_18 
REMARK    6  A    between atoms: C_18  and  N_19 
REMARK    7  A    between atoms: C_20  and  C_21 
REMARK    8  A    between atoms: C_21  and  N_22 
ROOT
ATOM      1  N   LIG d   1       9.128   1.418  -4.929  0.00  0.00     0.234 N 
ATOM      2  C   LIG d   1       8.071   0.440  -4.687  0.00  0.00    -0.031 C 
ATOM      3  C   LIG d   1       6.949   0.969  -3.802  0.00  0.00     0.000 C 
ATOM      4  C   LIG d   1       5.977  -0.176  -3.493  0.00  0.00     0.004 C 
ATOM      5  N   LIG d   1       4.646   0.167  -4.097  0.00  0.00    -0.292 N 
ATOM      6  C   LIG d   1       4.449  -0.842  -5.192  0.00  0.00     0.039 C 
ATOM      7  C   LIG d   1       3.638  -0.184  -6.305  0.00  0.00    -0.019 C 
ATOM      8  N   LIG d   1       4.198  -0.557  -7.611  0.00  0.00     0.237 N 
ATOM      9  C   LIG d   1       4.565   0.653  -8.358  0.00  0.00    -0.031 C 
ATOM     10  C   LIG d   1       5.907   0.439  -9.061  0.00  0.00     0.000 C 
ATOM     11  C   LIG d   1       6.748   1.710  -8.957  0.00  0.00     0.004 C 
ATOM     12  N   LIG d   1       8.090   1.356  -8.422  0.00  0.00    -0.300 N 
ATOM     13  C   LIG d   1       8.256   2.084  -7.134  0.00  0.00     0.039 C 
ATOM     14  C   LIG d   1       9.427   1.475  -6.369  0.00  0.00    -0.019 C 
ATOM     15  H   LIG d   1       7.649   0.116  -5.646  0.00  0.00     0.082 H 
ATOM     16  H   LIG d   1       8.511  -0.446  -4.208  0.00  0.00     0.082 H 
ATOM     17  H   LIG d   1       7.347   1.338  -2.856  0.00  0.00     0.033 H 
ATOM     18  H   LIG d   1       6.397   1.756  -4.316  0.00  0.00     0.033 H 
ATOM     19  H   LIG d   1       6.330  -1.098  -3.934  0.00  0.00     0.043 H 
ATOM     20  H   LIG d   1       5.846  -0.273  -2.421  0.00  0.00     0.043 H 
ATOM     21  H   LIG d   1       5.423  -1.142  -5.557  0.00  0.00     0.048 H 
ATOM     22  H   LIG d   1       3.906  -1.684  -4.776  0.00  0.00     0.048 H 
ATOM     23  H   LIG d   1       2.602  -0.522  -6.250  0.00  0.00     0.083 H 
ATOM     24  H   LIG d   1       3.668   0.899  -6.190  0.00  0.00     0.083 H 
ATOM     25  H   LIG d   1       3.797   0.863  -9.105  0.00  0.00     0.082 H 
ATOM     26  H   LIG d   1       4.644   1.497  -7.675  0.00  0.00     0.082 H 
ATOM     27  H   LIG d   1       6.438  -0.389  -8.592  0.00  0.00     0.033 H 
ATOM     28  H   LIG d   1       5.731   0.205 -10.112  0.00  0.00     0.033 H 
ATOM     29  H   LIG d   1       6.873   2.155  -9.942  0.00  0.00     0.043 H 
ATOM     30  H   LIG d   1       6.277   2.417  -8.280  0.00  0.00     0.043 H 
ATOM     31  H   LIG d   1       8.457   3.129  -7.357  0.00  0.00     0.048 H 
ATOM     32  H   LIG d   1       7.334   1.983  -6.570  0.00  0.00     0.048 H 
ATOM     33  H   LIG d   1      10.322   2.081  -6.523  0.00  0.00     0.083 H 
ATOM     34  H   LIG d   1       9.617   0.462  -6.733  0.00  0.00     0.083 H 
ATOM     35  H   LIG d   1       9.974   1.103  -4.451  0.00  0.00     0.203 HD
ATOM     36  H   LIG d   1       5.016  -1.132  -7.475  0.00  0.00     0.203 HD
ENDROOT
BRANCH   5  37
ATOM     37  C   LIG d   1       3.646  -0.227  -3.041  0.00  0.00     0.039 C 
ATOM     38  H   LIG d   1       3.384   0.648  -2.445  0.00  0.00     0.048 H 
ATOM     39  H   LIG d   1       2.750  -0.623  -3.519  0.00  0.00     0.048 H 
BRANCH  37  40
ATOM     40  C   LIG d   1       4.258  -1.298  -2.135  0.00  0.00    -0.022 C 
ATOM     41  H   LIG d   1       5.316  -1.409  -2.369  0.00  0.00     0.083 H 
ATOM     42  H   LIG d   1       4.144  -1.000  -1.093  0.00  0.00     0.083 H 
BRANCH  40  43
ATOM     43  N   LIG d   1       3.569  -2.577  -2.358  0.00  0.00     0.219 N 
ATOM     44  H   LIG d   1       2.683  -2.569  -1.876  0.00  0.00     0.200 HD
ATOM     45  H   LIG d   1       3.414  -2.708  -3.346  0.00  0.00     0.200 HD
ATOM     46  H   LIG d   1       4.139  -3.330  -2.003  0.00  0.00     0.200 HD
ENDBRANCH  40  43
ENDBRANCH  37  40
ENDBRANCH   5  37
BRANCH   8  47
ATOM     47  C   LIG d   1       3.195  -1.316  -8.372  0.00  0.00    -0.019 C 
ATOM     48  H   LIG d   1       3.667  -1.774  -9.240  0.00  0.00     0.083 H 
ATOM     49  H   LIG d   1       2.769  -2.094  -7.737  0.00  0.00     0.083 H 
BRANCH  47  50
ATOM     50  C   LIG d   1       2.084  -0.371  -8.836  0.00  0.00     0.034 C 
ATOM     51  H   LIG d   1       1.440  -0.125  -7.991  0.00  0.00     0.048 H 
ATOM     52  H   LIG d   1       2.526   0.542  -9.234  0.00  0.00     0.048 H 
BRANCH  50  53
ATOM     53  N   LIG d   1       1.288  -1.026  -9.882  0.00  0.00    -0.326 N 
ATOM     54  H   LIG d   1       1.159  -2.006  -9.678  0.00  0.00     0.118 HD
ATOM     55  H   LIG d   1       0.401  -0.562 -10.005  0.00  0.00     0.118 HD
ENDBRANCH  50  53
ENDBRANCH  47  50
ENDBRANCH   8  47
BRANCH   1  56
ATOM     56  C   LIG d   1       8.798   2.755  -4.438  0.00  0.00    -0.043 C 
ATOM     57  H   LIG d   1       7.718   2.844  -4.324  0.00  0.00     0.078 H 
ATOM     58  H   LIG d   1       9.279   2.917  -3.473  0.00  0.00     0.078 H 
ATOM     59  H   LIG d   1       9.151   3.502  -5.150  0.00  0.00     0.078 H 
ENDBRANCH   1  56
BRANCH  12  60
ATOM     60  C   LIG d   1       9.100   1.895  -9.373  0.00  0.00    -0.013 C 
ATOM     61  H   LIG d   1       9.986   1.260  -9.359  0.00  0.00     0.039 H 
ATOM     62  H   LIG d   1       8.680   1.912 -10.378  0.00  0.00     0.039 H 
ATOM     63  H   LIG d   1       9.373   2.908  -9.074  0.00  0.00     0.039 H 
ENDBRANCH  12  60
TORSDOF 8
ENDMDL
MODEL 8
REMARK VINA RESULT:      -4.4      1.663      6.493
REMARK  8 active torsions:
REMARK  status: ('A' for Active; 'I' for Inactive)
REMARK    1  A    between atoms: C_1  and  N_2 
REMARK    2  A    between atoms: N_6  and  C_20 
REMARK    3  A    between atoms: N_9  and  C_17 
REMARK    4  A    between atoms: N_13  and  C_16 
REMARK    5  A    between atoms: C_17  and  C_18 
REMARK    6  A    between atoms: C_18  and  N_19 
REMARK    7  A    between atoms: C_20  and  C_21 
REMARK    8  A    between atoms: C_21  and  N_22 
ROOT
ATOM      1  N   LIG d   1      10.626   5.292  -1.010  0.00  0.00     0.234 N 
ATOM      2  C   LIG d   1      10.168   6.665  -0.821  0.00  0.00    -0.031 C 
ATOM      3  C   LIG d   1      11.274   7.616  -0.381  0.00  0.00     0.000 C 
ATOM      4  C   LIG d   1      10.659   8.986  -0.069  0.00  0.00     0.004 C 
ATOM      5  N   LIG d   1      11.220   9.981  -1.042  0.00  0.00    -0.292 N 
ATOM      6  C   LIG d   1      10.052  10.386  -1.894  0.00  0.00     0.039 C 
ATOM      7  C   LIG d   1      10.572  10.712  -3.292  0.00  0.00    -0.019 C 
ATOM      8  N   LIG d   1       9.663  10.153  -4.301  0.00  0.00     0.237 N 
ATOM      9  C   LIG d   1      10.403   9.248  -5.189  0.00  0.00    -0.031 C 
ATOM     10  C   LIG d   1       9.561   8.002  -5.474  0.00  0.00     0.000 C 
ATOM     11  C   LIG d   1      10.457   6.764  -5.457  0.00  0.00     0.004 C 
ATOM     12  N   LIG d   1       9.861   5.753  -4.544  0.00  0.00    -0.300 N 
ATOM     13  C   LIG d   1      10.845   5.511  -3.453  0.00  0.00     0.039 C 
ATOM     14  C   LIG d   1      10.147   4.786  -2.307  0.00  0.00    -0.019 C 
ATOM     15  H   LIG d   1       9.728   7.034  -1.754  0.00  0.00     0.082 H 
ATOM     16  H   LIG d   1       9.374   6.671  -0.060  0.00  0.00     0.082 H 
ATOM     17  H   LIG d   1      11.758   7.250   0.525  0.00  0.00     0.033 H 
ATOM     18  H   LIG d   1      12.006   7.744  -1.179  0.00  0.00     0.033 H 
ATOM     19  H   LIG d   1       9.585   8.951  -0.189  0.00  0.00     0.043 H 
ATOM     20  H   LIG d   1      10.936   9.298   0.931  0.00  0.00     0.043 H 
ATOM     21  H   LIG d   1       9.354   9.558  -1.932  0.00  0.00     0.048 H 
ATOM     22  H   LIG d   1       9.599  11.263  -1.445  0.00  0.00     0.048 H 
ATOM     23  H   LIG d   1      10.624  11.795  -3.418  0.00  0.00     0.083 H 
ATOM     24  H   LIG d   1      11.568  10.289  -3.421  0.00  0.00     0.083 H 
ATOM     25  H   LIG d   1      10.618   9.759  -6.129  0.00  0.00     0.082 H 
ATOM     26  H   LIG d   1      11.338   8.953  -4.716  0.00  0.00     0.082 H 
ATOM     27  H   LIG d   1       8.786   7.902  -4.714  0.00  0.00     0.033 H 
ATOM     28  H   LIG d   1       9.094   8.098  -6.455  0.00  0.00     0.033 H 
ATOM     29  H   LIG d   1      10.519   6.337  -6.455  0.00  0.00     0.043 H 
ATOM     30  H   LIG d   1      11.447   7.023  -5.094  0.00  0.00     0.043 H 
ATOM     31  H   LIG d   1      11.650   4.897  -3.850  0.00  0.00     0.048 H 
ATOM     32  H   LIG d   1      11.226   6.473  -3.125  0.00  0.00     0.048 H 
ATOM     33  H   LIG d   1      10.352   3.716  -2.369  0.00  0.00     0.083 H 
ATOM     34  H   LIG d   1       9.068   4.947  -2.374  0.00  0.00     0.083 H 
ATOM     35  H   LIG d   1      10.211   4.710  -0.281  0.00  0.00     0.203 HD
ATOM     36  H   LIG d   1       8.921   9.646  -3.842  0.00  0.00     0.203 HD
ENDROOT
BRANCH   5  37
ATOM     37  C   LIG d   1      11.511  11.198  -0.204  0.00  0.00     0.039 C 
ATOM     38  H   LIG d   1      12.396  11.016   0.406  0.00  0.00     0.048 H 
ATOM     39  H   LIG d   1      11.687  12.054  -0.855  0.00  0.00     0.048 H 
BRANCH  37  40
ATOM     40  C   LIG d   1      10.315  11.486   0.707  0.00  0.00    -0.022 C 
ATOM     41  H   LIG d   1       9.464  10.885   0.389  0.00  0.00     0.083 H 
ATOM     42  H   LIG d   1      10.573  11.236   1.736  0.00  0.00     0.083 H 
BRANCH  40  43
ATOM     43  N   LIG d   1       9.968  12.912   0.621  0.00  0.00     0.219 N 
ATOM     44  H   LIG d   1      10.479  13.336  -0.138  0.00  0.00     0.200 HD
ATOM     45  H   LIG d   1       8.978  13.008   0.454  0.00  0.00     0.200 HD
ATOM     46  H   LIG d   1      10.210  13.368   1.487  0.00  0.00     0.200 HD
ENDBRANCH  40  43
ENDBRANCH  37  40
ENDBRANCH   5  37
BRANCH   8  47
ATOM     47  C   LIG d   1       9.082  11.248  -5.093  0.00  0.00    -0.019 C 
ATOM     48  H   LIG d   1       8.150  10.913  -5.546  0.00  0.00     0.083 H 
ATOM     49  H   LIG d   1       8.885  12.101  -4.444  0.00  0.00     0.083 H 
BRANCH  47  50
ATOM     50  C   LIG d   1      10.065  11.659  -6.192  0.00  0.00     0.034 C 
ATOM     51  H   LIG d   1      10.606  12.552  -5.879  0.00  0.00     0.048 H 
ATOM     52  H   LIG d   1      10.771  10.849  -6.370  0.00  0.00     0.048 H 
BRANCH  50  53
ATOM     53  N   LIG d   1       9.325  11.944  -7.429  0.00  0.00    -0.326 N 
ATOM     54  H   LIG d   1       8.358  12.156  -7.231  0.00  0.00     0.118 HD
ATOM     55  H   LIG d   1       9.761  12.693  -7.946  0.00  0.00     0.118 HD
ENDBRANCH  50  53
ENDBRANCH  47  50
ENDBRANCH   8  47
BRANCH   1  56
ATOM     56  C   LIG d   1      12.079   5.154  -0.931  0.00  0.00    -0.043 C 
ATOM     57  H   LIG d   1      12.345   4.632  -0.012  0.00  0.00     0.078 H 
ATOM     58  H   LIG d   1      12.438   4.584  -1.788  0.00  0.00     0.078 H 
ATOM     59  H   LIG d   1      12.539   6.142  -0.933  0.00  0.00     0.078 H 
ENDBRANCH   1  56
BRANCH  12  60
ATOM     60  C   LIG d   1       9.729   4.486  -5.313  0.00  0.00    -0.013 C 
ATOM     61  H   LIG d   1      10.272   4.575  -6.254  0.00  0.00     0.039 H 
ATOM     62  H   LIG d   1      10.141   3.663  -4.731  0.00  0.00     0.039 H 
ATOM     63  H   LIG d   1       8.675   4.296  -5.519  0.00  0.00     0.039 H 
ENDBRANCH  12  60
TORSDOF 8
ENDMDL
MODEL 9
REMARK VINA RESULT:      -4.4      1.673      5.187
REMARK  8 active torsions:
REMARK  status: ('A' for Active; 'I' for Inactive)
REMARK    1  A    between atoms: C_1  and  N_2 
REMARK    2  A    between atoms: N_6  and  C_20 
REMARK    3  A    between atoms: N_9  and  C_17 
REMARK    4  A    between atoms: N_13  and  C_16 
REMARK    5  A    between atoms: C_17  and  C_18 
REMARK    6  A    between atoms: C_18  and  N_19 
REMARK    7  A    between atoms: C_20  and  C_21 
REMARK    8  A    between atoms: C_21  and  N_22 
ROOT
ATOM      1  N   LIG d   1      10.986   4.626  -3.508  0.00  0.00     0.234 N 
ATOM      2  C   LIG d   1      11.186   5.779  -4.381  0.00  0.00    -0.031 C 
ATOM      3  C   LIG d   1      10.027   6.019  -5.340  0.00  0.00     0.000 C 
ATOM      4  C   LIG d   1      10.404   7.152  -6.303  0.00  0.00     0.004 C 
ATOM      5  N   LIG d   1       9.464   8.297  -6.066  0.00  0.00    -0.292 N 
ATOM      6  C   LIG d   1      10.324   9.388  -5.494  0.00  0.00     0.039 C 
ATOM      7  C   LIG d   1       9.470  10.215  -4.536  0.00  0.00    -0.019 C 
ATOM      8  N   LIG d   1      10.244  10.526  -3.327  0.00  0.00     0.237 N 
ATOM      9  C   LIG d   1       9.534  10.028  -2.142  0.00  0.00    -0.031 C 
ATOM     10  C   LIG d   1      10.531   9.394  -1.170  0.00  0.00     0.000 C 
ATOM     11  C   LIG d   1       9.928   8.124  -0.573  0.00  0.00     0.004 C 
ATOM     12  N   LIG d   1      10.891   7.005  -0.749  0.00  0.00    -0.300 N 
ATOM     13  C   LIG d   1      10.224   5.979  -1.596  0.00  0.00     0.039 C 
ATOM     14  C   LIG d   1      11.278   5.005  -2.116  0.00  0.00    -0.019 C 
ATOM     15  H   LIG d   1      11.340   6.676  -3.770  0.00  0.00     0.082 H 
ATOM     16  H   LIG d   1      12.103   5.623  -4.968  0.00  0.00     0.082 H 
ATOM     17  H   LIG d   1       9.826   5.127  -5.932  0.00  0.00     0.033 H 
ATOM     18  H   LIG d   1       9.135   6.322  -4.791  0.00  0.00     0.033 H 
ATOM     19  H   LIG d   1      11.414   7.487  -6.111  0.00  0.00     0.043 H 
ATOM     20  H   LIG d   1      10.283   6.822  -7.329  0.00  0.00     0.043 H 
ATOM     21  H   LIG d   1      11.151   8.929  -4.967  0.00  0.00     0.048 H 
ATOM     22  H   LIG d   1      10.673  10.004  -6.316  0.00  0.00     0.048 H 
ATOM     23  H   LIG d   1       9.175  11.146  -5.022  0.00  0.00     0.083 H 
ATOM     24  H   LIG d   1       8.575   9.654  -4.265  0.00  0.00     0.083 H 
ATOM     25  H   LIG d   1       9.029  10.861  -1.647  0.00  0.00     0.082 H 
ATOM     26  H   LIG d   1       8.796   9.285  -2.440  0.00  0.00     0.082 H 
ATOM     27  H   LIG d   1      11.451   9.146  -1.700  0.00  0.00     0.033 H 
ATOM     28  H   LIG d   1      10.755  10.101  -0.370  0.00  0.00     0.033 H 
ATOM     29  H   LIG d   1       9.747   8.263   0.491  0.00  0.00     0.043 H 
ATOM     30  H   LIG d   1       9.003   7.872  -1.084  0.00  0.00     0.043 H 
ATOM     31  H   LIG d   1       9.496   5.452  -0.984  0.00  0.00     0.048 H 
ATOM     32  H   LIG d   1       9.734   6.490  -2.419  0.00  0.00     0.048 H 
ATOM     33  H   LIG d   1      11.285   4.106  -1.496  0.00  0.00     0.083 H 
ATOM     34  H   LIG d   1      12.264   5.473  -2.074  0.00  0.00     0.083 H 
ATOM     35  H   LIG d   1      11.652   3.899  -3.775  0.00  0.00     0.203 HD
ATOM     36  H   LIG d   1      11.151  10.089  -3.386  0.00  0.00     0.203 HD
ENDROOT
BRANCH   5  37
ATOM     37  C   LIG d   1       9.115   8.783  -7.448  0.00  0.00     0.039 C 
ATOM     38  H   LIG d   1       8.053   8.618  -7.633  0.00  0.00     0.048 H 
ATOM     39  H   LIG d   1       9.336   9.848  -7.526  0.00  0.00     0.048 H 
BRANCH  37  40
ATOM     40  C   LIG d   1       9.939   8.013  -8.482  0.00  0.00    -0.022 C 
ATOM     41  H   LIG d   1      10.995   8.245  -8.349  0.00  0.00     0.083 H 
ATOM     42  H   LIG d   1       9.781   6.943  -8.349  0.00  0.00     0.083 H 
BRANCH  40  43
ATOM     43  N   LIG d   1       9.517   8.407  -9.834  0.00  0.00     0.219 N 
ATOM     44  H   LIG d   1      10.284   8.858 -10.308  0.00  0.00     0.200 HD
ATOM     45  H   LIG d   1       9.238   7.586 -10.351  0.00  0.00     0.200 HD
ATOM     46  H   LIG d   1       8.738   9.045  -9.769  0.00  0.00     0.200 HD
ENDBRANCH  40  43
ENDBRANCH  37  40
ENDBRANCH   5  37
BRANCH   8  47
ATOM     47  C   LIG d   1      10.413  11.982  -3.219  0.00  0.00    -0.019 C 
ATOM     48  H   LIG d   1      10.489  12.262  -2.169  0.00  0.00     0.083 H 
ATOM     49  H   LIG d   1      11.323  12.282  -3.741  0.00  0.00     0.083 H 
BRANCH  47  50
ATOM     50  C   LIG d   1       9.209  12.685  -3.849  0.00  0.00     0.034 C 
ATOM     51  H   LIG d   1       9.556  13.431  -4.563  0.00  0.00     0.048 H 
ATOM     52  H   LIG d   1       8.588  11.952  -4.362  0.00  0.00     0.048 H 
BRANCH  50  53
ATOM     53  N   LIG d   1       8.421  13.343  -2.798  0.00  0.00    -0.326 N 
ATOM     54  H   LIG d   1       8.937  13.383  -1.931  0.00  0.00     0.118 HD
ATOM     55  H   LIG d   1       8.130  14.265  -3.088  0.00  0.00     0.118 HD
ENDBRANCH  50  53
ENDBRANCH  47  50
ENDBRANCH   8  47
BRANCH   1  56
ATOM     56  C   LIG d   1       9.640   4.064  -3.597  0.00  0.00    -0.043 C 
ATOM     57  H   LIG d   1       8.920   4.868  -3.750  0.00  0.00     0.078 H 
ATOM     58  H   LIG d   1       9.591   3.369  -4.436  0.00  0.00     0.078 H 
ATOM     59  H   LIG d   1       9.403   3.535  -2.674  0.00  0.00     0.078 H 
ENDBRANCH   1  56
BRANCH  12  60
ATOM     60  C   LIG d   1      11.114   6.399   0.592  0.00  0.00    -0.013 C 
ATOM     61  H   LIG d   1      10.737   5.376   0.595  0.00  0.00     0.039 H 
ATOM     62  H   LIG d   1      12.180   6.395   0.816  0.00  0.00     0.039 H 
ATOM     63  H   LIG d   1      10.585   6.984   1.346  0.00  0.00     0.039 H 
ENDBRANCH  12  60
TORSDOF 8
ENDMDL
MODEL 10
REMARK VINA RESULT:      -4.4      1.375      1.826
REMARK  8 active torsions:
REMARK  status: ('A' for Active; 'I' for Inactive)
REMARK    1  A    between atoms: C_1  and  N_2 
REMARK    2  A    between atoms: N_6  and  C_20 
REMARK    3  A    between atoms: N_9  and  C_17 
REMARK    4  A    between atoms: N_13  and  C_16 
REMARK    5  A    between atoms: C_17  and  C_18 
REMARK    6  A    between atoms: C_18  and  N_19 
REMARK    7  A    between atoms: C_20  and  C_21 
REMARK    8  A    between atoms: C_21  and  N_22 
ROOT
ATOM      1  N   LIG d   1       9.702  12.534  -3.699  0.00  0.00     0.234 N 
ATOM      2  C   LIG d   1       9.245  11.328  -4.384  0.00  0.00    -0.031 C 
ATOM      3  C   LIG d   1      10.153  10.902  -5.530  0.00  0.00     0.000 C 
ATOM      4  C   LIG d   1       9.506   9.723  -6.268  0.00  0.00     0.004 C 
ATOM      5  N   LIG d   1      10.399   8.528  -6.109  0.00  0.00    -0.292 N 
ATOM      6  C   LIG d   1       9.614   7.571  -5.258  0.00  0.00     0.039 C 
ATOM      7  C   LIG d   1      10.598   6.765  -4.415  0.00  0.00    -0.019 C 
ATOM      8  N   LIG d   1      10.084   6.633  -3.045  0.00  0.00     0.237 N 
ATOM      9  C   LIG d   1      11.063   7.174  -2.093  0.00  0.00    -0.031 C 
ATOM     10  C   LIG d   1      10.341   7.977  -1.010  0.00  0.00     0.000 C 
ATOM     11  C   LIG d   1      11.139   9.240  -0.690  0.00  0.00     0.004 C 
ATOM     12  N   LIG d   1      10.235  10.416  -0.781  0.00  0.00    -0.300 N 
ATOM     13  C   LIG d   1      10.768  11.300  -1.854  0.00  0.00     0.039 C 
ATOM     14  C   LIG d   1       9.693  12.310  -2.245  0.00  0.00    -0.019 C 
ATOM     15  H   LIG d   1       9.169  10.507  -3.662  0.00  0.00     0.082 H 
ATOM     16  H   LIG d   1       8.236  11.508  -4.780  0.00  0.00     0.082 H 
ATOM     17  H   LIG d   1      10.280  11.717  -6.244  0.00  0.00     0.033 H 
ATOM     18  H   LIG d   1      11.121  10.576  -5.149  0.00  0.00     0.033 H 
ATOM     19  H   LIG d   1       8.541   9.495  -5.835  0.00  0.00     0.043 H 
ATOM     20  H   LIG d   1       9.424   9.946  -7.325  0.00  0.00     0.043 H 
ATOM     21  H   LIG d   1       8.951   8.146  -4.623  0.00  0.00     0.048 H 
ATOM     22  H   LIG d   1       9.057   6.916  -5.918  0.00  0.00     0.048 H 
ATOM     23  H   LIG d   1      10.722   5.771  -4.848  0.00  0.00     0.083 H 
ATOM     24  H   LIG d   1      11.565   7.269  -4.397  0.00  0.00     0.083 H 
ATOM     25  H   LIG d   1      11.608   6.350  -1.627  0.00  0.00     0.082 H 
ATOM     26  H   LIG d   1      11.766   7.820  -2.616  0.00  0.00     0.082 H 
ATOM     27  H   LIG d   1       9.347   8.253  -1.361  0.00  0.00     0.033 H 
ATOM     28  H   LIG d   1      10.249   7.368  -0.109  0.00  0.00     0.033 H 
ATOM     29  H   LIG d   1      11.535   9.183   0.321  0.00  0.00     0.043 H 
ATOM     30  H   LIG d   1      11.947   9.364  -1.406  0.00  0.00     0.043 H 
ATOM     31  H   LIG d   1      11.644  11.816  -1.466  0.00  0.00     0.048 H 
ATOM     32  H   LIG d   1      11.037  10.676  -2.700  0.00  0.00     0.048 H 
ATOM     33  H   LIG d   1       9.878  13.259  -1.737  0.00  0.00     0.083 H 
ATOM     34  H   LIG d   1       8.711  11.933  -1.950  0.00  0.00     0.083 H 
ATOM     35  H   LIG d   1       9.043  13.287  -3.899  0.00  0.00     0.203 HD
ATOM     36  H   LIG d   1       9.215   7.139  -2.961  0.00  0.00     0.203 HD
ENDROOT
BRANCH   5  37
ATOM     37  C   LIG d   1      10.411   7.890  -7.473  0.00  0.00     0.039 C 
ATOM     38  H   LIG d   1      11.277   8.245  -8.033  0.00  0.00     0.048 H 
ATOM     39  H   LIG d   1      10.466   6.806  -7.367  0.00  0.00     0.048 H 
BRANCH  37  40
ATOM     40  C   LIG d   1       9.131   8.265  -8.222  0.00  0.00    -0.022 C 
ATOM     41  H   LIG d   1       8.406   7.456  -8.131  0.00  0.00     0.083 H 
ATOM     42  H   LIG d   1       8.714   9.177  -7.796  0.00  0.00     0.083 H 
BRANCH  40  43
ATOM     43  N   LIG d   1       9.442   8.486  -9.642  0.00  0.00     0.219 N 
ATOM     44  H   LIG d   1       8.624   8.839 -10.114  0.00  0.00     0.200 HD
ATOM     45  H   LIG d   1      10.192   9.156  -9.721  0.00  0.00     0.200 HD
ATOM     46  H   LIG d   1       9.724   7.613 -10.062  0.00  0.00     0.200 HD
ENDBRANCH  40  43
ENDBRANCH  37  40
ENDBRANCH   5  37
BRANCH   8  47
ATOM     47  C   LIG d   1       9.848   5.212  -2.749  0.00  0.00    -0.019 C 
ATOM     48  H   LIG d   1       9.155   5.126  -1.912  0.00  0.00     0.083 H 
ATOM     49  H   LIG d   1       9.422   4.724  -3.626  0.00  0.00     0.083 H 
BRANCH  47  50
ATOM     50  C   LIG d   1      11.173   4.540  -2.384  0.00  0.00     0.034 C 
ATOM     51  H   LIG d   1      11.871   4.639  -3.216  0.00  0.00     0.048 H 
ATOM     52  H   LIG d   1      11.592   5.018  -1.499  0.00  0.00     0.048 H 
BRANCH  50  53
ATOM     53  N   LIG d   1      10.940   3.116  -2.108  0.00  0.00    -0.326 N 
ATOM     54  H   LIG d   1      11.809   2.635  -1.931  0.00  0.00     0.118 HD
ATOM     55  H   LIG d   1      10.298   2.998  -1.339  0.00  0.00     0.118 HD
ENDBRANCH  50  53
ENDBRANCH  47  50
ENDBRANCH   8  47
BRANCH   1  56
ATOM     56  C   LIG d   1      11.032  12.968  -4.126  0.00  0.00    -0.043 C 
ATOM     57  H   LIG d   1      11.376  12.333  -4.942  0.00  0.00     0.078 H 
ATOM     58  H   LIG d   1      10.985  14.003  -4.465  0.00  0.00     0.078 H 
ATOM     59  H   LIG d   1      11.726  12.891  -3.289  0.00  0.00     0.078 H 
ENDBRANCH   1  56
BRANCH  12  60
ATOM     60  C   LIG d   1      10.345  11.159   0.504  0.00  0.00    -0.013 C 
ATOM     61  H   LIG d   1       9.573  11.927   0.547  0.00  0.00     0.039 H 
ATOM     62  H   LIG d   1      10.216  10.466   1.335  0.00  0.00     0.039 H 
ATOM     63  H   LIG d   1      11.328  11.626   0.568  0.00  0.00     0.039 H 
ENDBRANCH  12  60
TORSDOF 8
ENDMDL
