MODEL 1
REMARK VINA RESULT:      -8.0      0.000      0.000
REMARK  12 active torsions:
REMARK  status: ('A' for Active; 'I' for Inactive)
REMARK    1  A    between atoms: C_1  and  C_2 
REMARK    2  A    between atoms: C_2  and  C_4 
REMARK    3  A    between atoms: C_2  and  C_17 
REMARK    4  A    between atoms: C_4  and  C_5 
REMARK    5  A    between atoms: C_5  and  C_6 
REMARK       I    between atoms: C_6  and  N_8 
REMARK    6  A    between atoms: N_8  and  C_9 
REMARK    7  A    between atoms: C_9  and  C_10 
REMARK    8  A    between atoms: C_10  and  C_11 
REMARK    9  A    between atoms: C_23  and  C_44 
REMARK   10  A    between atoms: C_30  and  O_43 
REMARK   11  A    between atoms: C_35  and  C_42 
REMARK   12  A    between atoms: C_38  and  O_41 
ROOT
ATOM      1  C   LIG d   1       9.238   3.611  -4.976  0.00  0.00    -0.033 C 
ATOM      2  H   LIG d   1       8.193   3.885  -5.130  0.00  0.00     0.031 H 
ATOM      3  C   LIG d   1       9.360   2.597  -3.811  0.00  0.00    -0.049 C 
ATOM      4  C   LIG d   1      10.172   3.309  -2.695  0.00  0.00    -0.049 C 
ATOM      5  C   LIG d   1       9.933   4.794  -2.991  0.00  0.00    -0.030 C 
ATOM      6  H   LIG d   1       8.933   5.087  -2.675  0.00  0.00     0.031 H 
ATOM      7  C   LIG d   1      10.046   4.829  -4.540  0.00  0.00    -0.026 C 
ATOM      8  C   LIG d   1       9.539   6.180  -5.004  0.00  0.00    -0.047 C 
ATOM      9  C   LIG d   1      10.494   7.245  -4.441  0.00  0.00    -0.049 C 
ATOM     10  C   LIG d   1      10.582   7.166  -2.921  0.00  0.00    -0.030 C 
ATOM     11  H   LIG d   1       9.606   7.407  -2.500  0.00  0.00     0.031 H 
ATOM     12  C   LIG d   1      10.966   5.754  -2.432  0.00  0.00    -0.008 C 
ATOM     13  H   LIG d   1      11.954   5.497  -2.813  0.00  0.00     0.033 H 
ATOM     14  C   LIG d   1      10.955   5.717  -0.902  0.00  0.00     0.059 C 
ATOM     15  H   LIG d   1       9.957   5.967  -0.541  0.00  0.00     0.060 H 
ATOM     16  C   LIG d   1      11.964   6.731  -0.361  0.00  0.00    -0.023 C 
ATOM     17  C   LIG d   1      11.585   8.134  -0.837  0.00  0.00    -0.031 C 
ATOM     18  H   LIG d   1      12.303   8.857  -0.448  0.00  0.00     0.031 H 
ATOM     19  C   LIG d   1      11.607   8.174  -2.403  0.00  0.00    -0.026 C 
ATOM     20  C   LIG d   1      11.226   9.579  -2.877  0.00  0.00    -0.045 C 
ATOM     21  C   LIG d   1       9.833   9.930  -2.352  0.00  0.00    -0.026 C 
ATOM     22  C   LIG d   1       9.840   9.894  -0.822  0.00  0.00     0.056 C 
ATOM     23  H   LIG d   1      10.562  10.618  -0.444  0.00  0.00     0.059 H 
ATOM     24  C   LIG d   1      10.184   8.483  -0.330  0.00  0.00    -0.023 C 
ATOM     25  H   LIG d   1       8.370   2.330  -3.441  0.00  0.00     0.027 H 
ATOM     26  H   LIG d   1       9.888   1.705  -4.146  0.00  0.00     0.027 H 
ATOM     27  H   LIG d   1       9.788   3.045  -1.710  0.00  0.00     0.027 H 
ATOM     28  H   LIG d   1      11.232   3.066  -2.774  0.00  0.00     0.027 H 
ATOM     29  H   LIG d   1       9.535   6.221  -6.093  0.00  0.00     0.027 H 
ATOM     30  H   LIG d   1       8.530   6.348  -4.623  0.00  0.00     0.027 H 
ATOM     31  H   LIG d   1      11.488   7.092  -4.865  0.00  0.00     0.027 H 
ATOM     32  H   LIG d   1      10.135   8.234  -4.728  0.00  0.00     0.027 H 
ATOM     33  H   LIG d   1      11.956   6.703   0.729  0.00  0.00     0.029 H 
ATOM     34  H   LIG d   1      12.961   6.481  -0.724  0.00  0.00     0.029 H 
ATOM     35  H   LIG d   1      11.950  10.299  -2.498  0.00  0.00     0.027 H 
ATOM     36  H   LIG d   1      11.221   9.605  -3.967  0.00  0.00     0.027 H 
ATOM     37  H   LIG d   1       9.559  10.930  -2.689  0.00  0.00     0.029 H 
ATOM     38  H   LIG d   1       9.109   9.208  -2.728  0.00  0.00     0.029 H 
ATOM     39  H   LIG d   1       9.467   7.760  -0.718  0.00  0.00     0.029 H 
ATOM     40  H   LIG d   1      10.175   8.454   0.760  0.00  0.00     0.029 H 
ENDROOT
BRANCH   1  41
ATOM     41  C   LIG d   1       9.823   3.018  -6.259  0.00  0.00    -0.040 C 
ATOM     42  H   LIG d   1      10.908   3.113  -6.241  0.00  0.00     0.030 H 
BRANCH  41  43
ATOM     43  C   LIG d   1       9.265   3.768  -7.469  0.00  0.00    -0.062 C 
ATOM     44  H   LIG d   1       9.953   3.666  -8.309  0.00  0.00     0.023 H 
ATOM     45  H   LIG d   1       8.295   3.350  -7.741  0.00  0.00     0.023 H 
ATOM     46  H   LIG d   1       9.149   4.824  -7.221  0.00  0.00     0.023 H 
ENDBRANCH  41  43
BRANCH  41  47
ATOM     47  C   LIG d   1       9.444   1.538  -6.356  0.00  0.00    -0.042 C 
ATOM     48  H   LIG d   1      10.195   1.008  -6.940  0.00  0.00     0.027 H 
ATOM     49  H   LIG d   1       9.394   1.110  -5.355  0.00  0.00     0.027 H 
BRANCH  47  50
ATOM     50  C   LIG d   1       8.080   1.405  -7.037  0.00  0.00     0.024 C 
ATOM     51  H   LIG d   1       7.543   2.351  -6.964  0.00  0.00     0.036 H 
ATOM     52  H   LIG d   1       8.222   1.146  -8.086  0.00  0.00     0.036 H 
BRANCH  50  53
ATOM     53  C   LIG d   1       7.283   0.322  -6.355  0.00  0.00     0.213 C 
ATOM     54  O   LIG d   1       6.072   0.350  -6.387  0.00  0.00    -0.276 OA
ATOM     55  N   LIG d   1       7.918  -0.677  -5.710  0.00  0.00    -0.315 N 
ATOM     56  H   LIG d   1       8.887  -0.699  -5.685  0.00  0.00     0.149 HD
BRANCH  55  57
ATOM     57  C   LIG d   1       7.144  -1.730  -5.047  0.00  0.00     0.015 C 
ATOM     58  H   LIG d   1       6.124  -1.726  -5.429  0.00  0.00     0.046 H 
ATOM     59  H   LIG d   1       7.604  -2.698  -5.248  0.00  0.00     0.046 H 
BRANCH  57  60
ATOM     60  C   LIG d   1       7.126  -1.477  -3.539  0.00  0.00    -0.016 C 
ATOM     61  H   LIG d   1       7.405  -2.391  -3.013  0.00  0.00     0.033 H 
ATOM     62  H   LIG d   1       7.838  -0.687  -3.295  0.00  0.00     0.033 H 
BRANCH  60  63
ATOM     63  C   LIG d   1       5.744  -1.054  -3.117  0.00  0.00    -0.072 C 
ATOM     64  C   LIG d   1       4.624  -2.039  -3.281  0.00  0.00    -0.032 C 
ATOM     65  C   LIG d   1       3.423  -1.618  -2.429  0.00  0.00    -0.049 C 
ATOM     66  H   LIG d   1       4.330  -2.080  -4.330  0.00  0.00     0.031 H 
ATOM     67  H   LIG d   1       4.961  -3.026  -2.965  0.00  0.00     0.031 H 
ATOM     68  C   LIG d   1       3.126  -0.140  -2.712  0.00  0.00    -0.049 C 
ATOM     69  H   LIG d   1       3.656  -1.749  -1.372  0.00  0.00     0.027 H 
ATOM     70  H   LIG d   1       2.556  -2.223  -2.694  0.00  0.00     0.027 H 
ATOM     71  C   LIG d   1       4.284   0.700  -2.167  0.00  0.00    -0.035 C 
ATOM     72  H   LIG d   1       2.199   0.149  -2.216  0.00  0.00     0.027 H 
ATOM     73  H   LIG d   1       3.035   0.016  -3.786  0.00  0.00     0.027 H 
ATOM     74  C   LIG d   1       5.595   0.140  -2.638  0.00  0.00    -0.085 C 
ATOM     75  H   LIG d   1       4.258   0.688  -1.077  0.00  0.00     0.031 H 
ATOM     76  H   LIG d   1       4.183   1.726  -2.518  0.00  0.00     0.031 H 
ATOM     77  H   LIG d   1       6.468   0.773  -2.574  0.00  0.00     0.057 H 
ENDBRANCH  60  63
ENDBRANCH  57  60
ENDBRANCH  55  57
ENDBRANCH  50  53
ENDBRANCH  47  50
ENDBRANCH  41  47
ENDBRANCH   1  41
BRANCH   7  78
ATOM     78  C   LIG d   1      11.508   4.655  -4.956  0.00  0.00    -0.059 C 
ATOM     79  H   LIG d   1      11.603   4.827  -6.028  0.00  0.00     0.024 H 
ATOM     80  H   LIG d   1      12.126   5.373  -4.417  0.00  0.00     0.024 H 
ATOM     81  H   LIG d   1      11.835   3.643  -4.720  0.00  0.00     0.024 H 
ENDBRANCH   7  78
BRANCH  14  82
ATOM     82  O   LIG d   1      11.308   4.407  -0.456  0.00  0.00    -0.392 OA
ATOM     83  H   LIG d   1      11.993   4.395   0.227  0.00  0.00     0.210 HD
ENDBRANCH  14  82
BRANCH  19  84
ATOM     84  C   LIG d   1      12.997   7.810  -2.933  0.00  0.00    -0.059 C 
ATOM     85  H   LIG d   1      12.893   7.196  -3.828  0.00  0.00     0.024 H 
ATOM     86  H   LIG d   1      13.541   8.721  -3.178  0.00  0.00     0.024 H 
ATOM     87  H   LIG d   1      13.542   7.254  -2.172  0.00  0.00     0.024 H 
ENDBRANCH  19  84
BRANCH  22  88
ATOM     88  O   LIG d   1       8.538  10.221  -0.331  0.00  0.00    -0.392 OA
ATOM     89  H   LIG d   1       7.841  10.162  -0.998  0.00  0.00     0.210 HD
ENDBRANCH  22  88
TORSDOF 12
ENDMDL
MODEL 2
REMARK VINA RESULT:      -7.5      6.033     10.273
REMARK  12 active torsions:
REMARK  status: ('A' for Active; 'I' for Inactive)
REMARK    1  A    between atoms: C_1  and  C_2 
REMARK    2  A    between atoms: C_2  and  C_4 
REMARK    3  A    between atoms: C_2  and  C_17 
REMARK    4  A    between atoms: C_4  and  C_5 
REMARK    5  A    between atoms: C_5  and  C_6 
REMARK       I    between atoms: C_6  and  N_8 
REMARK    6  A    between atoms: N_8  and  C_9 
REMARK    7  A    between atoms: C_9  and  C_10 
REMARK    8  A    between atoms: C_10  and  C_11 
REMARK    9  A    between atoms: C_23  and  C_44 
REMARK   10  A    between atoms: C_30  and  O_43 
REMARK   11  A    between atoms: C_35  and  C_42 
REMARK   12  A    between atoms: C_38  and  O_41 
ROOT
ATOM      1  C   LIG d   1       6.186  -3.936  -6.772  0.00  0.00    -0.033 C 
ATOM      2  H   LIG d   1       5.806  -4.921  -7.045  0.00  0.00     0.031 H 
ATOM      3  C   LIG d   1       5.484  -3.427  -5.488  0.00  0.00    -0.049 C 
ATOM      4  C   LIG d   1       4.679  -2.165  -5.901  0.00  0.00    -0.049 C 
ATOM      5  C   LIG d   1       4.457  -2.375  -7.403  0.00  0.00    -0.030 C 
ATOM      6  H   LIG d   1       3.683  -3.123  -7.570  0.00  0.00     0.031 H 
ATOM      7  C   LIG d   1       5.841  -2.917  -7.854  0.00  0.00    -0.026 C 
ATOM      8  C   LIG d   1       5.685  -3.452  -9.263  0.00  0.00    -0.047 C 
ATOM      9  C   LIG d   1       5.332  -2.260 -10.168  0.00  0.00    -0.049 C 
ATOM     10  C   LIG d   1       4.069  -1.553  -9.689  0.00  0.00    -0.030 C 
ATOM     11  H   LIG d   1       3.227  -2.239  -9.778  0.00  0.00     0.031 H 
ATOM     12  C   LIG d   1       4.166  -1.124  -8.210  0.00  0.00    -0.008 C 
ATOM     13  H   LIG d   1       4.983  -0.412  -8.094  0.00  0.00     0.033 H 
ATOM     14  C   LIG d   1       2.843  -0.499  -7.765  0.00  0.00     0.059 C 
ATOM     15  H   LIG d   1       2.041  -1.229  -7.879  0.00  0.00     0.060 H 
ATOM     16  C   LIG d   1       2.544   0.728  -8.628  0.00  0.00    -0.023 C 
ATOM     17  C   LIG d   1       2.439   0.308 -10.096  0.00  0.00    -0.031 C 
ATOM     18  H   LIG d   1       2.223   1.183 -10.710  0.00  0.00     0.031 H 
ATOM     19  C   LIG d   1       3.798  -0.322 -10.553  0.00  0.00    -0.026 C 
ATOM     20  C   LIG d   1       3.691  -0.743 -12.020  0.00  0.00    -0.045 C 
ATOM     21  C   LIG d   1       2.553  -1.753 -12.176  0.00  0.00    -0.026 C 
ATOM     22  C   LIG d   1       1.236  -1.111 -11.733  0.00  0.00     0.056 C 
ATOM     23  H   LIG d   1       1.031  -0.237 -12.352  0.00  0.00     0.059 H 
ATOM     24  C   LIG d   1       1.314  -0.717 -10.254  0.00  0.00    -0.023 C 
ATOM     25  H   LIG d   1       4.810  -4.191  -5.102  0.00  0.00     0.027 H 
ATOM     26  H   LIG d   1       6.226  -3.167  -4.734  0.00  0.00     0.027 H 
ATOM     27  H   LIG d   1       3.727  -2.124  -5.371  0.00  0.00     0.027 H 
ATOM     28  H   LIG d   1       5.260  -1.260  -5.720  0.00  0.00     0.027 H 
ATOM     29  H   LIG d   1       6.619  -3.906  -9.593  0.00  0.00     0.027 H 
ATOM     30  H   LIG d   1       4.883  -4.191  -9.293  0.00  0.00     0.027 H 
ATOM     31  H   LIG d   1       6.162  -1.552 -10.164  0.00  0.00     0.027 H 
ATOM     32  H   LIG d   1       5.176  -2.619 -11.186  0.00  0.00     0.027 H 
ATOM     33  H   LIG d   1       1.601   1.174  -8.310  0.00  0.00     0.029 H 
ATOM     34  H   LIG d   1       3.346   1.456  -8.515  0.00  0.00     0.029 H 
ATOM     35  H   LIG d   1       3.487   0.133 -12.636  0.00  0.00     0.027 H 
ATOM     36  H   LIG d   1       4.629  -1.200 -12.337  0.00  0.00     0.027 H 
ATOM     37  H   LIG d   1       2.475  -2.055 -13.221  0.00  0.00     0.029 H 
ATOM     38  H   LIG d   1       2.755  -2.628 -11.559  0.00  0.00     0.029 H 
ATOM     39  H   LIG d   1       1.530  -1.591  -9.638  0.00  0.00     0.029 H 
ATOM     40  H   LIG d   1       0.371  -0.273  -9.935  0.00  0.00     0.029 H 
ENDROOT
BRANCH   1  41
ATOM     41  C   LIG d   1       7.700  -3.994  -6.561  0.00  0.00    -0.040 C 
ATOM     42  H   LIG d   1       8.163  -3.117  -7.012  0.00  0.00     0.030 H 
BRANCH  41  43
ATOM     43  C   LIG d   1       8.259  -5.259  -7.214  0.00  0.00    -0.062 C 
ATOM     44  H   LIG d   1       9.162  -5.012  -7.772  0.00  0.00     0.023 H 
ATOM     45  H   LIG d   1       8.497  -5.991  -6.442  0.00  0.00     0.023 H 
ATOM     46  H   LIG d   1       7.515  -5.676  -7.893  0.00  0.00     0.023 H 
ENDBRANCH  41  43
BRANCH  41  47
ATOM     47  C   LIG d   1       8.006  -4.015  -5.061  0.00  0.00    -0.042 C 
ATOM     48  H   LIG d   1       7.163  -3.596  -4.513  0.00  0.00     0.027 H 
ATOM     49  H   LIG d   1       8.173  -5.043  -4.740  0.00  0.00     0.027 H 
BRANCH  47  50
ATOM     50  C   LIG d   1       9.261  -3.184  -4.784  0.00  0.00     0.024 C 
ATOM     51  H   LIG d   1       9.587  -3.348  -3.757  0.00  0.00     0.036 H 
ATOM     52  H   LIG d   1      10.053  -3.484  -5.471  0.00  0.00     0.036 H 
BRANCH  50  53
ATOM     53  C   LIG d   1       8.949  -1.723  -4.985  0.00  0.00     0.213 C 
ATOM     54  O   LIG d   1       9.635  -1.053  -5.727  0.00  0.00    -0.276 OA
ATOM     55  N   LIG d   1       7.908  -1.162  -4.340  0.00  0.00    -0.315 N 
ATOM     56  H   LIG d   1       7.359  -1.698  -3.746  0.00  0.00     0.149 HD
BRANCH  55  57
ATOM     57  C   LIG d   1       7.604   0.258  -4.534  0.00  0.00     0.015 C 
ATOM     58  H   LIG d   1       8.507   0.784  -4.838  0.00  0.00     0.046 H 
ATOM     59  H   LIG d   1       6.843   0.363  -5.308  0.00  0.00     0.046 H 
BRANCH  57  60
ATOM     60  C   LIG d   1       7.083   0.852  -3.224  0.00  0.00    -0.016 C 
ATOM     61  H   LIG d   1       7.770   0.607  -2.414  0.00  0.00     0.033 H 
ATOM     62  H   LIG d   1       7.009   1.937  -3.321  0.00  0.00     0.033 H 
BRANCH  60  63
ATOM     63  C   LIG d   1       5.722   0.282  -2.920  0.00  0.00    -0.072 C 
ATOM     64  C   LIG d   1       5.626  -1.182  -2.606  0.00  0.00    -0.032 C 
ATOM     65  C   LIG d   1       4.290  -1.485  -1.920  0.00  0.00    -0.049 C 
ATOM     66  H   LIG d   1       5.698  -1.755  -3.531  0.00  0.00     0.031 H 
ATOM     67  H   LIG d   1       6.443  -1.464  -1.944  0.00  0.00     0.031 H 
ATOM     68  C   LIG d   1       3.166  -0.853  -2.750  0.00  0.00    -0.049 C 
ATOM     69  H   LIG d   1       4.287  -1.062  -0.915  0.00  0.00     0.027 H 
ATOM     70  H   LIG d   1       4.144  -2.564  -1.865  0.00  0.00     0.027 H 
ATOM     71  C   LIG d   1       3.295   0.669  -2.660  0.00  0.00    -0.035 C 
ATOM     72  H   LIG d   1       2.199  -1.163  -2.354  0.00  0.00     0.027 H 
ATOM     73  H   LIG d   1       3.258  -1.168  -3.789  0.00  0.00     0.027 H 
ATOM     74  C   LIG d   1       4.707   1.086  -2.950  0.00  0.00    -0.085 C 
ATOM     75  H   LIG d   1       3.021   0.997  -1.657  0.00  0.00     0.031 H 
ATOM     76  H   LIG d   1       2.626   1.132  -3.385  0.00  0.00     0.031 H 
ATOM     77  H   LIG d   1       4.889   2.122  -3.200  0.00  0.00     0.057 H 
ENDBRANCH  60  63
ENDBRANCH  57  60
ENDBRANCH  55  57
ENDBRANCH  50  53
ENDBRANCH  47  50
ENDBRANCH  41  47
ENDBRANCH   1  41
BRANCH   7  78
ATOM     78  C   LIG d   1       6.869  -1.784  -7.842  0.00  0.00    -0.059 C 
ATOM     79  H   LIG d   1       7.461  -1.821  -8.756  0.00  0.00     0.024 H 
ATOM     80  H   LIG d   1       6.352  -0.826  -7.783  0.00  0.00     0.024 H 
ATOM     81  H   LIG d   1       7.525  -1.897  -6.979  0.00  0.00     0.024 H 
ENDBRANCH   7  78
BRANCH  14  82
ATOM     82  O   LIG d   1       2.938  -0.107  -6.395  0.00  0.00    -0.392 OA
ATOM     83  H   LIG d   1       3.431   0.712  -6.254  0.00  0.00     0.210 HD
ENDBRANCH  14  82
BRANCH  19  84
ATOM     84  C   LIG d   1       4.943   0.682 -10.386  0.00  0.00    -0.059 C 
ATOM     85  H   LIG d   1       5.562   0.676 -11.283  0.00  0.00     0.024 H 
ATOM     86  H   LIG d   1       4.531   1.679 -10.235  0.00  0.00     0.024 H 
ATOM     87  H   LIG d   1       5.548   0.403  -9.524  0.00  0.00     0.024 H 
ENDBRANCH  19  84
BRANCH  22  88
ATOM     88  O   LIG d   1       0.173  -2.056 -11.877  0.00  0.00    -0.392 OA
ATOM     89  H   LIG d   1       0.406  -2.954 -11.607  0.00  0.00     0.210 HD
ENDBRANCH  22  88
TORSDOF 12
ENDMDL
MODEL 3
REMARK VINA RESULT:      -7.4      7.356     12.065
REMARK  12 active torsions:
REMARK  status: ('A' for Active; 'I' for Inactive)
REMARK    1  A    between atoms: C_1  and  C_2 
REMARK    2  A    between atoms: C_2  and  C_4 
REMARK    3  A    between atoms: C_2  and  C_17 
REMARK    4  A    between atoms: C_4  and  C_5 
REMARK    5  A    between atoms: C_5  and  C_6 
REMARK       I    between atoms: C_6  and  N_8 
REMARK    6  A    between atoms: N_8  and  C_9 
REMARK    7  A    between atoms: C_9  and  C_10 
REMARK    8  A    between atoms: C_10  and  C_11 
REMARK    9  A    between atoms: C_23  and  C_44 
REMARK   10  A    between atoms: C_30  and  O_43 
REMARK   11  A    between atoms: C_35  and  C_42 
REMARK   12  A    between atoms: C_38  and  O_41 
ROOT
ATOM      1  C   LIG d   1       5.561  -3.676  -6.106  0.00  0.00    -0.033 C 
ATOM      2  H   LIG d   1       5.555  -3.119  -5.168  0.00  0.00     0.031 H 
ATOM      3  C   LIG d   1       4.152  -4.252  -6.395  0.00  0.00    -0.049 C 
ATOM      4  C   LIG d   1       4.295  -5.798  -6.355  0.00  0.00    -0.049 C 
ATOM      5  C   LIG d   1       5.533  -6.006  -5.476  0.00  0.00    -0.030 C 
ATOM      6  H   LIG d   1       5.286  -5.839  -4.428  0.00  0.00     0.031 H 
ATOM      7  C   LIG d   1       6.480  -4.889  -5.995  0.00  0.00    -0.026 C 
ATOM      8  C   LIG d   1       7.634  -4.778  -5.018  0.00  0.00    -0.047 C 
ATOM      9  C   LIG d   1       8.405  -6.107  -5.070  0.00  0.00    -0.049 C 
ATOM     10  C   LIG d   1       7.500  -7.289  -4.742  0.00  0.00    -0.030 C 
ATOM     11  H   LIG d   1       7.159  -7.196  -3.712  0.00  0.00     0.031 H 
ATOM     12  C   LIG d   1       6.249  -7.333  -5.645  0.00  0.00    -0.008 C 
ATOM     13  H   LIG d   1       6.557  -7.456  -6.682  0.00  0.00     0.033 H 
ATOM     14  C   LIG d   1       5.341  -8.486  -5.214  0.00  0.00     0.059 C 
ATOM     15  H   LIG d   1       5.036  -8.340  -4.177  0.00  0.00     0.060 H 
ATOM     16  C   LIG d   1       6.101  -9.807  -5.341  0.00  0.00    -0.023 C 
ATOM     17  C   LIG d   1       7.340  -9.774  -4.443  0.00  0.00    -0.031 C 
ATOM     18  H   LIG d   1       7.880 -10.717  -4.532  0.00  0.00     0.031 H 
ATOM     19  C   LIG d   1       8.273  -8.599  -4.892  0.00  0.00    -0.026 C 
ATOM     20  C   LIG d   1       9.511  -8.565  -3.992  0.00  0.00    -0.045 C 
ATOM     21  C   LIG d   1       9.074  -8.377  -2.537  0.00  0.00    -0.026 C 
ATOM     22  C   LIG d   1       8.172  -9.541  -2.120  0.00  0.00     0.056 C 
ATOM     23  H   LIG d   1       8.721 -10.478  -2.215  0.00  0.00     0.059 H 
ATOM     24  C   LIG d   1       6.910  -9.566  -2.989  0.00  0.00    -0.023 C 
ATOM     25  H   LIG d   1       3.448  -3.921  -5.632  0.00  0.00     0.027 H 
ATOM     26  H   LIG d   1       3.813  -3.933  -7.380  0.00  0.00     0.027 H 
ATOM     27  H   LIG d   1       3.416  -6.255  -5.900  0.00  0.00     0.027 H 
ATOM     28  H   LIG d   1       4.461  -6.196  -7.356  0.00  0.00     0.027 H 
ATOM     29  H   LIG d   1       8.288  -3.956  -5.309  0.00  0.00     0.027 H 
ATOM     30  H   LIG d   1       7.251  -4.610  -4.010  0.00  0.00     0.027 H 
ATOM     31  H   LIG d   1       8.819  -6.240  -6.070  0.00  0.00     0.027 H 
ATOM     32  H   LIG d   1       9.222  -6.072  -4.349  0.00  0.00     0.027 H 
ATOM     33  H   LIG d   1       5.454 -10.629  -5.034  0.00  0.00     0.029 H 
ATOM     34  H   LIG d   1       6.407  -9.952  -6.377  0.00  0.00     0.029 H 
ATOM     35  H   LIG d   1      10.057  -9.503  -4.089  0.00  0.00     0.027 H 
ATOM     36  H   LIG d   1      10.154  -7.737  -4.289  0.00  0.00     0.027 H 
ATOM     37  H   LIG d   1       9.955  -8.352  -1.895  0.00  0.00     0.029 H 
ATOM     38  H   LIG d   1       8.527  -7.441  -2.440  0.00  0.00     0.029 H 
ATOM     39  H   LIG d   1       6.369  -8.624  -2.901  0.00  0.00     0.029 H 
ATOM     40  H   LIG d   1       6.261 -10.386  -2.682  0.00  0.00     0.029 H 
ENDROOT
BRANCH   1  41
ATOM     41  C   LIG d   1       6.011  -2.773  -7.255  0.00  0.00    -0.040 C 
ATOM     42  H   LIG d   1       6.611  -3.350  -7.957  0.00  0.00     0.030 H 
BRANCH  41  43
ATOM     43  C   LIG d   1       6.845  -1.617  -6.699  0.00  0.00    -0.062 C 
ATOM     44  H   LIG d   1       6.520  -0.682  -7.156  0.00  0.00     0.023 H 
ATOM     45  H   LIG d   1       6.712  -1.559  -5.619  0.00  0.00     0.023 H 
ATOM     46  H   LIG d   1       7.898  -1.787  -6.927  0.00  0.00     0.023 H 
ENDBRANCH  41  43
BRANCH  41  47
ATOM     47  C   LIG d   1       4.782  -2.214  -7.977  0.00  0.00    -0.042 C 
ATOM     48  H   LIG d   1       4.563  -2.829  -8.849  0.00  0.00     0.027 H 
ATOM     49  H   LIG d   1       3.927  -2.227  -7.300  0.00  0.00     0.027 H 
BRANCH  47  50
ATOM     50  C   LIG d   1       5.060  -0.777  -8.420  0.00  0.00     0.024 C 
ATOM     51  H   LIG d   1       6.103  -0.530  -8.219  0.00  0.00     0.036 H 
ATOM     52  H   LIG d   1       4.863  -0.682  -9.488  0.00  0.00     0.036 H 
BRANCH  50  53
ATOM     53  C   LIG d   1       4.164   0.166  -7.658  0.00  0.00     0.213 C 
ATOM     54  O   LIG d   1       4.209   1.357  -7.880  0.00  0.00    -0.276 OA
ATOM     55  N   LIG d   1       3.314  -0.316  -6.730  0.00  0.00    -0.315 N 
ATOM     56  H   LIG d   1       3.278  -1.269  -6.553  0.00  0.00     0.149 HD
BRANCH  55  57
ATOM     57  C   LIG d   1       2.442   0.600  -5.989  0.00  0.00     0.015 C 
ATOM     58  H   LIG d   1       3.020   1.460  -5.655  0.00  0.00     0.046 H 
ATOM     59  H   LIG d   1       1.633   0.935  -6.638  0.00  0.00     0.046 H 
BRANCH  57  60
ATOM     60  C   LIG d   1       1.856  -0.124  -4.776  0.00  0.00    -0.016 C 
ATOM     61  H   LIG d   1       0.984   0.420  -4.414  0.00  0.00     0.033 H 
ATOM     62  H   LIG d   1       1.560  -1.134  -5.064  0.00  0.00     0.033 H 
BRANCH  60  63
ATOM     63  C   LIG d   1       2.893  -0.198  -3.685  0.00  0.00    -0.072 C 
ATOM     64  C   LIG d   1       3.547   1.080  -3.248  0.00  0.00    -0.032 C 
ATOM     65  C   LIG d   1       4.223   0.885  -1.888  0.00  0.00    -0.049 C 
ATOM     66  H   LIG d   1       4.293   1.374  -3.986  0.00  0.00     0.031 H 
ATOM     67  H   LIG d   1       2.794   1.863  -3.167  0.00  0.00     0.031 H 
ATOM     68  C   LIG d   1       5.089  -0.378  -1.955  0.00  0.00    -0.049 C 
ATOM     69  H   LIG d   1       3.466   0.770  -1.112  0.00  0.00     0.027 H 
ATOM     70  H   LIG d   1       4.850   1.749  -1.664  0.00  0.00     0.027 H 
ATOM     71  C   LIG d   1       4.167  -1.592  -2.091  0.00  0.00    -0.035 C 
ATOM     72  H   LIG d   1       5.680  -0.467  -1.043  0.00  0.00     0.027 H 
ATOM     73  H   LIG d   1       5.750  -0.323  -2.820  0.00  0.00     0.027 H 
ATOM     74  C   LIG d   1       3.167  -1.361  -3.186  0.00  0.00    -0.085 C 
ATOM     75  H   LIG d   1       3.640  -1.752  -1.150  0.00  0.00     0.031 H 
ATOM     76  H   LIG d   1       4.761  -2.474  -2.324  0.00  0.00     0.031 H 
ATOM     77  H   LIG d   1       2.644  -2.219  -3.584  0.00  0.00     0.057 H 
ENDBRANCH  60  63
ENDBRANCH  57  60
ENDBRANCH  55  57
ENDBRANCH  50  53
ENDBRANCH  47  50
ENDBRANCH  41  47
ENDBRANCH   1  41
BRANCH   7  78
ATOM     78  C   LIG d   1       7.010  -5.263  -7.380  0.00  0.00    -0.059 C 
ATOM     79  H   LIG d   1       6.229  -5.775  -7.942  0.00  0.00     0.024 H 
ATOM     80  H   LIG d   1       7.307  -4.359  -7.912  0.00  0.00     0.024 H 
ATOM     81  H   LIG d   1       7.872  -5.922  -7.274  0.00  0.00     0.024 H 
ENDBRANCH   7  78
BRANCH  14  82
ATOM     82  O   LIG d   1       4.184  -8.519  -6.050  0.00  0.00    -0.392 OA
ATOM     83  H   LIG d   1       4.381  -8.504  -6.996  0.00  0.00     0.210 HD
ENDBRANCH  14  82
BRANCH  19  84
ATOM     84  C   LIG d   1       8.702  -8.776  -6.351  0.00  0.00    -0.059 C 
ATOM     85  H   LIG d   1       9.456  -9.560  -6.415  0.00  0.00     0.024 H 
ATOM     86  H   LIG d   1       7.837  -9.054  -6.952  0.00  0.00     0.024 H 
ATOM     87  H   LIG d   1       9.118  -7.841  -6.724  0.00  0.00     0.024 H 
ENDBRANCH  19  84
BRANCH  22  88
ATOM     88  O   LIG d   1       7.764  -9.364  -0.762  0.00  0.00    -0.392 OA
ATOM     89  H   LIG d   1       6.930  -9.801  -0.543  0.00  0.00     0.210 HD
ENDBRANCH  22  88
TORSDOF 12
ENDMDL
MODEL 4
REMARK VINA RESULT:      -7.4      3.774     10.492
REMARK  12 active torsions:
REMARK  status: ('A' for Active; 'I' for Inactive)
REMARK    1  A    between atoms: C_1  and  C_2 
REMARK    2  A    between atoms: C_2  and  C_4 
REMARK    3  A    between atoms: C_2  and  C_17 
REMARK    4  A    between atoms: C_4  and  C_5 
REMARK    5  A    between atoms: C_5  and  C_6 
REMARK       I    between atoms: C_6  and  N_8 
REMARK    6  A    between atoms: N_8  and  C_9 
REMARK    7  A    between atoms: C_9  and  C_10 
REMARK    8  A    between atoms: C_10  and  C_11 
REMARK    9  A    between atoms: C_23  and  C_44 
REMARK   10  A    between atoms: C_30  and  O_43 
REMARK   11  A    between atoms: C_35  and  C_42 
REMARK   12  A    between atoms: C_38  and  O_41 
ROOT
ATOM      1  C   LIG d   1       3.304  -1.164  -4.847  0.00  0.00    -0.033 C 
ATOM      2  H   LIG d   1       2.635  -2.024  -4.900  0.00  0.00     0.031 H 
ATOM      3  C   LIG d   1       2.485   0.144  -4.706  0.00  0.00    -0.049 C 
ATOM      4  C   LIG d   1       2.756   0.971  -5.992  0.00  0.00    -0.049 C 
ATOM      5  C   LIG d   1       3.164  -0.101  -7.009  0.00  0.00    -0.030 C 
ATOM      6  H   LIG d   1       2.289  -0.651  -7.352  0.00  0.00     0.031 H 
ATOM      7  C   LIG d   1       4.080  -1.018  -6.152  0.00  0.00    -0.026 C 
ATOM      8  C   LIG d   1       4.323  -2.288  -6.942  0.00  0.00    -0.047 C 
ATOM      9  C   LIG d   1       5.105  -1.897  -8.207  0.00  0.00    -0.049 C 
ATOM     10  C   LIG d   1       4.351  -0.856  -9.028  0.00  0.00    -0.030 C 
ATOM     11  H   LIG d   1       3.423  -1.299  -9.391  0.00  0.00     0.031 H 
ATOM     12  C   LIG d   1       3.978   0.387  -8.193  0.00  0.00    -0.008 C 
ATOM     13  H   LIG d   1       4.889   0.871  -7.840  0.00  0.00     0.033 H 
ATOM     14  C   LIG d   1       3.153   1.353  -9.045  0.00  0.00     0.059 C 
ATOM     15  H   LIG d   1       2.243   0.855  -9.379  0.00  0.00     0.060 H 
ATOM     16  C   LIG d   1       3.973   1.789 -10.260  0.00  0.00    -0.023 C 
ATOM     17  C   LIG d   1       4.340   0.561 -11.096  0.00  0.00    -0.031 C 
ATOM     18  H   LIG d   1       4.923   0.873 -11.964  0.00  0.00     0.031 H 
ATOM     19  C   LIG d   1       5.194  -0.422 -10.226  0.00  0.00    -0.026 C 
ATOM     20  C   LIG d   1       5.559  -1.650 -11.064  0.00  0.00    -0.045 C 
ATOM     21  C   LIG d   1       4.277  -2.335 -11.545  0.00  0.00    -0.026 C 
ATOM     22  C   LIG d   1       3.466  -1.358 -12.399  0.00  0.00     0.056 C 
ATOM     23  H   LIG d   1       4.059  -1.051 -13.262  0.00  0.00     0.059 H 
ATOM     24  C   LIG d   1       3.062  -0.138 -11.563  0.00  0.00    -0.023 C 
ATOM     25  H   LIG d   1       1.423  -0.086  -4.625  0.00  0.00     0.027 H 
ATOM     26  H   LIG d   1       2.816   0.698  -3.828  0.00  0.00     0.027 H 
ATOM     27  H   LIG d   1       1.853   1.487  -6.316  0.00  0.00     0.027 H 
ATOM     28  H   LIG d   1       3.569   1.679  -5.831  0.00  0.00     0.027 H 
ATOM     29  H   LIG d   1       4.906  -2.990  -6.347  0.00  0.00     0.027 H 
ATOM     30  H   LIG d   1       3.370  -2.740  -7.220  0.00  0.00     0.027 H 
ATOM     31  H   LIG d   1       6.073  -1.488  -7.915  0.00  0.00     0.027 H 
ATOM     32  H   LIG d   1       5.264  -2.786  -8.817  0.00  0.00     0.027 H 
ATOM     33  H   LIG d   1       3.385   2.478 -10.866  0.00  0.00     0.029 H 
ATOM     34  H   LIG d   1       4.884   2.286  -9.925  0.00  0.00     0.029 H 
ATOM     35  H   LIG d   1       6.150  -1.341 -11.925  0.00  0.00     0.027 H 
ATOM     36  H   LIG d   1       6.137  -2.346 -10.456  0.00  0.00     0.027 H 
ATOM     37  H   LIG d   1       4.535  -3.210 -12.141  0.00  0.00     0.029 H 
ATOM     38  H   LIG d   1       3.684  -2.642 -10.684  0.00  0.00     0.029 H 
ATOM     39  H   LIG d   1       2.480  -0.448 -10.695  0.00  0.00     0.029 H 
ATOM     40  H   LIG d   1       2.472   0.551 -12.168  0.00  0.00     0.029 H 
ENDROOT
BRANCH   1  41
ATOM     41  C   LIG d   1       4.268  -1.316  -3.670  0.00  0.00    -0.040 C 
ATOM     42  H   LIG d   1       5.252  -0.944  -3.956  0.00  0.00     0.030 H 
BRANCH  41  43
ATOM     43  C   LIG d   1       4.374  -2.793  -3.283  0.00  0.00    -0.062 C 
ATOM     44  H   LIG d   1       4.764  -2.876  -2.269  0.00  0.00     0.023 H 
ATOM     45  H   LIG d   1       3.386  -3.253  -3.332  0.00  0.00     0.023 H 
ATOM     46  H   LIG d   1       5.046  -3.302  -3.974  0.00  0.00     0.023 H 
ENDBRANCH  41  43
BRANCH  41  47
ATOM     47  C   LIG d   1       3.748  -0.512  -2.476  0.00  0.00    -0.042 C 
ATOM     48  H   LIG d   1       3.032   0.232  -2.824  0.00  0.00     0.027 H 
ATOM     49  H   LIG d   1       3.260  -1.184  -1.771  0.00  0.00     0.027 H 
BRANCH  47  50
ATOM     50  C   LIG d   1       4.919   0.190  -1.784  0.00  0.00     0.024 C 
ATOM     51  H   LIG d   1       4.551   0.750  -0.925  0.00  0.00     0.036 H 
ATOM     52  H   LIG d   1       5.642  -0.555  -1.451  0.00  0.00     0.036 H 
BRANCH  50  53
ATOM     53  C   LIG d   1       5.581   1.134  -2.753  0.00  0.00     0.213 C 
ATOM     54  O   LIG d   1       4.944   2.038  -3.250  0.00  0.00    -0.276 OA
ATOM     55  N   LIG d   1       6.882   0.974  -3.068  0.00  0.00    -0.315 N 
ATOM     56  H   LIG d   1       7.391   0.251  -2.670  0.00  0.00     0.149 HD
BRANCH  55  57
ATOM     57  C   LIG d   1       7.527   1.892  -4.010  0.00  0.00     0.015 C 
ATOM     58  H   LIG d   1       7.399   1.519  -5.026  0.00  0.00     0.046 H 
ATOM     59  H   LIG d   1       7.069   2.879  -3.926  0.00  0.00     0.046 H 
BRANCH  57  60
ATOM     60  C   LIG d   1       9.018   1.992  -3.686  0.00  0.00    -0.016 C 
ATOM     61  H   LIG d   1       9.200   1.599  -2.686  0.00  0.00     0.033 H 
ATOM     62  H   LIG d   1       9.588   1.412  -4.414  0.00  0.00     0.033 H 
BRANCH  60  63
ATOM     63  C   LIG d   1       9.450   3.434  -3.747  0.00  0.00    -0.072 C 
ATOM     64  C   LIG d   1       9.206   4.189  -5.020  0.00  0.00    -0.032 C 
ATOM     65  C   LIG d   1       9.302   5.696  -4.764  0.00  0.00    -0.049 C 
ATOM     66  H   LIG d   1       9.952   3.898  -5.761  0.00  0.00     0.031 H 
ATOM     67  H   LIG d   1       8.213   3.951  -5.398  0.00  0.00     0.031 H 
ATOM     68  C   LIG d   1      10.603   5.975  -4.001  0.00  0.00    -0.049 C 
ATOM     69  H   LIG d   1       8.450   6.025  -4.168  0.00  0.00     0.027 H 
ATOM     70  H   LIG d   1       9.312   6.229  -5.715  0.00  0.00     0.027 H 
ATOM     71  C   LIG d   1      10.485   5.365  -2.603  0.00  0.00    -0.035 C 
ATOM     72  H   LIG d   1      10.757   7.051  -3.920  0.00  0.00     0.027 H 
ATOM     73  H   LIG d   1      11.441   5.521  -4.530  0.00  0.00     0.027 H 
ATOM     74  C   LIG d   1      10.012   3.944  -2.697  0.00  0.00    -0.085 C 
ATOM     75  H   LIG d   1       9.773   5.944  -2.015  0.00  0.00     0.031 H 
ATOM     76  H   LIG d   1      11.458   5.390  -2.114  0.00  0.00     0.031 H 
ATOM     77  H   LIG d   1      10.150   3.305  -1.836  0.00  0.00     0.057 H 
ENDBRANCH  60  63
ENDBRANCH  57  60
ENDBRANCH  55  57
ENDBRANCH  50  53
ENDBRANCH  47  50
ENDBRANCH  41  47
ENDBRANCH   1  41
BRANCH   7  78
ATOM     78  C   LIG d   1       5.412  -0.313  -5.884  0.00  0.00    -0.059 C 
ATOM     79  H   LIG d   1       6.016  -0.922  -5.212  0.00  0.00     0.024 H 
ATOM     80  H   LIG d   1       5.944  -0.174  -6.825  0.00  0.00     0.024 H 
ATOM     81  H   LIG d   1       5.224   0.658  -5.425  0.00  0.00     0.024 H 
ENDBRANCH   7  78
BRANCH  14  82
ATOM     82  O   LIG d   1       2.809   2.499  -8.266  0.00  0.00    -0.392 OA
ATOM     83  H   LIG d   1       2.995   3.342  -8.702  0.00  0.00     0.210 HD
ENDBRANCH  14  82
BRANCH  19  84
ATOM     84  C   LIG d   1       6.471   0.262  -9.732  0.00  0.00    -0.059 C 
ATOM     85  H   LIG d   1       6.791   1.005 -10.463  0.00  0.00     0.024 H 
ATOM     86  H   LIG d   1       6.275   0.752  -8.779  0.00  0.00     0.024 H 
ATOM     87  H   LIG d   1       7.256  -0.482  -9.603  0.00  0.00     0.024 H 
ENDBRANCH  19  84
BRANCH  22  88
ATOM     88  O   LIG d   1       2.269  -1.997 -12.847  0.00  0.00    -0.392 OA
ATOM     89  H   LIG d   1       2.288  -2.260 -13.776  0.00  0.00     0.210 HD
ENDBRANCH  22  88
TORSDOF 12
ENDMDL
MODEL 5
REMARK VINA RESULT:      -7.3      1.993      3.718
REMARK  12 active torsions:
REMARK  status: ('A' for Active; 'I' for Inactive)
REMARK    1  A    between atoms: C_1  and  C_2 
REMARK    2  A    between atoms: C_2  and  C_4 
REMARK    3  A    between atoms: C_2  and  C_17 
REMARK    4  A    between atoms: C_4  and  C_5 
REMARK    5  A    between atoms: C_5  and  C_6 
REMARK       I    between atoms: C_6  and  N_8 
REMARK    6  A    between atoms: N_8  and  C_9 
REMARK    7  A    between atoms: C_9  and  C_10 
REMARK    8  A    between atoms: C_10  and  C_11 
REMARK    9  A    between atoms: C_23  and  C_44 
REMARK   10  A    between atoms: C_30  and  O_43 
REMARK   11  A    between atoms: C_35  and  C_42 
REMARK   12  A    between atoms: C_38  and  O_41 
ROOT
ATOM      1  C   LIG d   1      10.638   5.657  -3.719  0.00  0.00    -0.033 C 
ATOM      2  H   LIG d   1      11.669   5.411  -3.976  0.00  0.00     0.031 H 
ATOM      3  C   LIG d   1       9.875   6.149  -4.974  0.00  0.00    -0.049 C 
ATOM      4  C   LIG d   1       9.496   7.630  -4.704  0.00  0.00    -0.049 C 
ATOM      5  C   LIG d   1      10.539   8.068  -3.671  0.00  0.00    -0.030 C 
ATOM      6  H   LIG d   1      11.504   8.232  -4.151  0.00  0.00     0.031 H 
ATOM      7  C   LIG d   1      10.602   6.825  -2.739  0.00  0.00    -0.026 C 
ATOM      8  C   LIG d   1      11.809   6.991  -1.837  0.00  0.00    -0.047 C 
ATOM      9  C   LIG d   1      11.555   8.225  -0.955  0.00  0.00    -0.049 C 
ATOM     10  C   LIG d   1      11.305   9.469  -1.799  0.00  0.00    -0.030 C 
ATOM     11  H   LIG d   1      12.210   9.701  -2.361  0.00  0.00     0.031 H 
ATOM     12  C   LIG d   1      10.164   9.265  -2.817  0.00  0.00    -0.008 C 
ATOM     13  H   LIG d   1       9.237   9.061  -2.284  0.00  0.00     0.033 H 
ATOM     14  C   LIG d   1      10.019  10.514  -3.688  0.00  0.00     0.059 C 
ATOM     15  H   LIG d   1      10.952  10.696  -4.221  0.00  0.00     0.060 H 
ATOM     16  C   LIG d   1       9.694  11.718  -2.802  0.00  0.00    -0.023 C 
ATOM     17  C   LIG d   1      10.825  11.931  -1.794  0.00  0.00    -0.031 C 
ATOM     18  H   LIG d   1      10.594  12.791  -1.164  0.00  0.00     0.031 H 
ATOM     19  C   LIG d   1      10.966  10.655  -0.896  0.00  0.00    -0.026 C 
ATOM     20  C   LIG d   1      12.099  10.870   0.110  0.00  0.00    -0.045 C 
ATOM     21  C   LIG d   1      13.403  11.141  -0.644  0.00  0.00    -0.026 C 
ATOM     22  C   LIG d   1      13.242  12.396  -1.505  0.00  0.00     0.056 C 
ATOM     23  H   LIG d   1      13.010  13.248  -0.866  0.00  0.00     0.059 H 
ATOM     24  C   LIG d   1      12.135  12.184  -2.543  0.00  0.00    -0.023 C 
ATOM     25  H   LIG d   1      10.515   6.080  -5.853  0.00  0.00     0.027 H 
ATOM     26  H   LIG d   1       8.974   5.553  -5.121  0.00  0.00     0.027 H 
ATOM     27  H   LIG d   1       9.582   8.223  -5.615  0.00  0.00     0.027 H 
ATOM     28  H   LIG d   1       8.490   7.702  -4.291  0.00  0.00     0.027 H 
ATOM     29  H   LIG d   1      11.930   6.106  -1.214  0.00  0.00     0.027 H 
ATOM     30  H   LIG d   1      12.705   7.145  -2.441  0.00  0.00     0.027 H 
ATOM     31  H   LIG d   1      10.684   8.039  -0.326  0.00  0.00     0.027 H 
ATOM     32  H   LIG d   1      12.424   8.393  -0.319  0.00  0.00     0.027 H 
ATOM     33  H   LIG d   1       9.589  12.608  -3.423  0.00  0.00     0.029 H 
ATOM     34  H   LIG d   1       8.761  11.535  -2.268  0.00  0.00     0.029 H 
ATOM     35  H   LIG d   1      11.863  11.722   0.747  0.00  0.00     0.027 H 
ATOM     36  H   LIG d   1      12.214   9.976   0.725  0.00  0.00     0.027 H 
ATOM     37  H   LIG d   1      14.211  11.293   0.072  0.00  0.00     0.029 H 
ATOM     38  H   LIG d   1      13.637  10.290  -1.282  0.00  0.00     0.029 H 
ATOM     39  H   LIG d   1      12.364  11.324  -3.174  0.00  0.00     0.029 H 
ATOM     40  H   LIG d   1      12.031  13.072  -3.166  0.00  0.00     0.029 H 
ENDROOT
BRANCH   1  41
ATOM     41  C   LIG d   1       9.938   4.438  -3.116  0.00  0.00    -0.040 C 
ATOM     42  H   LIG d   1       9.239   4.764  -2.346  0.00  0.00     0.030 H 
BRANCH  41  43
ATOM     43  C   LIG d   1      10.980   3.505  -2.497  0.00  0.00    -0.062 C 
ATOM     44  H   LIG d   1      11.739   3.262  -3.242  0.00  0.00     0.023 H 
ATOM     45  H   LIG d   1      11.450   3.998  -1.646  0.00  0.00     0.023 H 
ATOM     46  H   LIG d   1      10.493   2.588  -2.163  0.00  0.00     0.023 H 
ENDBRANCH  41  43
BRANCH  41  47
ATOM     47  C   LIG d   1       9.173   3.693  -4.214  0.00  0.00    -0.042 C 
ATOM     48  H   LIG d   1       8.108   3.711  -3.991  0.00  0.00     0.027 H 
ATOM     49  H   LIG d   1       9.352   4.179  -5.173  0.00  0.00     0.027 H 
BRANCH  47  50
ATOM     50  C   LIG d   1       9.658   2.243  -4.278  0.00  0.00     0.024 C 
ATOM     51  H   LIG d   1      10.392   2.140  -5.078  0.00  0.00     0.036 H 
ATOM     52  H   LIG d   1      10.115   1.971  -3.327  0.00  0.00     0.036 H 
BRANCH  50  53
ATOM     53  C   LIG d   1       8.487   1.335  -4.552  0.00  0.00     0.213 C 
ATOM     54  O   LIG d   1       7.420   1.805  -4.886  0.00  0.00    -0.276 OA
ATOM     55  N   LIG d   1       8.625   0.000  -4.424  0.00  0.00    -0.315 N 
ATOM     56  H   LIG d   1       9.478  -0.375  -4.157  0.00  0.00     0.149 HD
BRANCH  55  57
ATOM     57  C   LIG d   1       7.487  -0.884  -4.689  0.00  0.00     0.015 C 
ATOM     58  H   LIG d   1       6.661  -0.300  -5.095  0.00  0.00     0.046 H 
ATOM     59  H   LIG d   1       7.781  -1.647  -5.410  0.00  0.00     0.046 H 
BRANCH  57  60
ATOM     60  C   LIG d   1       7.048  -1.555  -3.387  0.00  0.00    -0.016 C 
ATOM     61  H   LIG d   1       7.076  -2.638  -3.508  0.00  0.00     0.033 H 
ATOM     62  H   LIG d   1       7.724  -1.262  -2.582  0.00  0.00     0.033 H 
BRANCH  60  63
ATOM     63  C   LIG d   1       5.646  -1.122  -3.046  0.00  0.00    -0.072 C 
ATOM     64  C   LIG d   1       4.527  -2.087  -3.309  0.00  0.00    -0.032 C 
ATOM     65  C   LIG d   1       3.278  -1.668  -2.527  0.00  0.00    -0.049 C 
ATOM     66  H   LIG d   1       4.302  -2.098  -4.375  0.00  0.00     0.031 H 
ATOM     67  H   LIG d   1       4.830  -3.085  -2.995  0.00  0.00     0.031 H 
ATOM     68  C   LIG d   1       3.020  -0.179  -2.792  0.00  0.00    -0.049 C 
ATOM     69  H   LIG d   1       3.438  -1.827  -1.460  0.00  0.00     0.027 H 
ATOM     70  H   LIG d   1       2.423  -2.254  -2.863  0.00  0.00     0.027 H 
ATOM     71  C   LIG d   1       4.150   0.631  -2.152  0.00  0.00    -0.035 C 
ATOM     72  H   LIG d   1       2.066   0.111  -2.352  0.00  0.00     0.027 H 
ATOM     73  H   LIG d   1       3.002   0.003  -3.866  0.00  0.00     0.027 H 
ATOM     74  C   LIG d   1       5.481   0.063  -2.549  0.00  0.00    -0.085 C 
ATOM     75  H   LIG d   1       4.051   0.593  -1.067  0.00  0.00     0.031 H 
ATOM     76  H   LIG d   1       4.085   1.666  -2.483  0.00  0.00     0.031 H 
ATOM     77  H   LIG d   1       6.356   0.681  -2.413  0.00  0.00     0.057 H 
ENDBRANCH  60  63
ENDBRANCH  57  60
ENDBRANCH  55  57
ENDBRANCH  50  53
ENDBRANCH  47  50
ENDBRANCH  41  47
ENDBRANCH   1  41
BRANCH   7  78
ATOM     78  C   LIG d   1       9.331   6.750  -1.892  0.00  0.00    -0.059 C 
ATOM     79  H   LIG d   1       9.598   6.745  -0.835  0.00  0.00     0.024 H 
ATOM     80  H   LIG d   1       8.702   7.616  -2.103  0.00  0.00     0.024 H 
ATOM     81  H   LIG d   1       8.785   5.837  -2.134  0.00  0.00     0.024 H 
ENDBRANCH   7  78
BRANCH  14  82
ATOM     82  O   LIG d   1       8.964  10.317  -4.631  0.00  0.00    -0.392 OA
ATOM     83  H   LIG d   1       8.941   9.432  -5.017  0.00  0.00     0.210 HD
ENDBRANCH  14  82
BRANCH  19  84
ATOM     84  C   LIG d   1       9.660  10.372  -0.149  0.00  0.00    -0.059 C 
ATOM     85  H   LIG d   1       8.828  10.825  -0.689  0.00  0.00     0.024 H 
ATOM     86  H   LIG d   1       9.506   9.295  -0.083  0.00  0.00     0.024 H 
ATOM     87  H   LIG d   1       9.715  10.794   0.854  0.00  0.00     0.024 H 
ENDBRANCH  19  84
BRANCH  22  88
ATOM     88  O   LIG d   1      14.459  12.648  -2.210  0.00  0.00    -0.392 OA
ATOM     89  H   LIG d   1      15.166  13.008  -1.658  0.00  0.00     0.210 HD
ENDBRANCH  22  88
TORSDOF 12
ENDMDL
MODEL 6
REMARK VINA RESULT:      -7.2      5.076     10.305
REMARK  12 active torsions:
REMARK  status: ('A' for Active; 'I' for Inactive)
REMARK    1  A    between atoms: C_1  and  C_2 
REMARK    2  A    between atoms: C_2  and  C_4 
REMARK    3  A    between atoms: C_2  and  C_17 
REMARK    4  A    between atoms: C_4  and  C_5 
REMARK    5  A    between atoms: C_5  and  C_6 
REMARK       I    between atoms: C_6  and  N_8 
REMARK    6  A    between atoms: N_8  and  C_9 
REMARK    7  A    between atoms: C_9  and  C_10 
REMARK    8  A    between atoms: C_10  and  C_11 
REMARK    9  A    between atoms: C_23  and  C_44 
REMARK   10  A    between atoms: C_30  and  O_43 
REMARK   11  A    between atoms: C_35  and  C_42 
REMARK   12  A    between atoms: C_38  and  O_41 
ROOT
ATOM      1  C   LIG d   1       3.272  -1.198  -4.854  0.00  0.00    -0.033 C 
ATOM      2  H   LIG d   1       2.622  -2.071  -4.931  0.00  0.00     0.031 H 
ATOM      3  C   LIG d   1       2.424   0.091  -4.711  0.00  0.00    -0.049 C 
ATOM      4  C   LIG d   1       2.702   0.941  -5.980  0.00  0.00    -0.049 C 
ATOM      5  C   LIG d   1       3.151  -0.108  -7.004  0.00  0.00    -0.030 C 
ATOM      6  H   LIG d   1       2.294  -0.671  -7.371  0.00  0.00     0.031 H 
ATOM      7  C   LIG d   1       4.070  -1.018  -6.142  0.00  0.00    -0.026 C 
ATOM      8  C   LIG d   1       4.354  -2.272  -6.945  0.00  0.00    -0.047 C 
ATOM      9  C   LIG d   1       5.151  -1.847  -8.189  0.00  0.00    -0.049 C 
ATOM     10  C   LIG d   1       4.391  -0.811  -9.010  0.00  0.00    -0.030 C 
ATOM     11  H   LIG d   1       3.480  -1.267  -9.396  0.00  0.00     0.031 H 
ATOM     12  C   LIG d   1       3.977   0.413  -8.166  0.00  0.00    -0.008 C 
ATOM     13  H   LIG d   1       4.870   0.910  -7.789  0.00  0.00     0.033 H 
ATOM     14  C   LIG d   1       3.148   1.373  -9.020  0.00  0.00     0.059 C 
ATOM     15  H   LIG d   1       2.255   0.861  -9.378  0.00  0.00     0.060 H 
ATOM     16  C   LIG d   1       3.982   1.843 -10.213  0.00  0.00    -0.023 C 
ATOM     17  C   LIG d   1       4.390   0.635 -11.059  0.00  0.00    -0.031 C 
ATOM     18  H   LIG d   1       4.982   0.970 -11.911  0.00  0.00     0.031 H 
ATOM     19  C   LIG d   1       5.248  -0.343 -10.186  0.00  0.00    -0.026 C 
ATOM     20  C   LIG d   1       5.653  -1.552 -11.033  0.00  0.00    -0.045 C 
ATOM     21  C   LIG d   1       4.395  -2.255 -11.547  0.00  0.00    -0.026 C 
ATOM     22  C   LIG d   1       3.581  -1.284 -12.404  0.00  0.00     0.056 C 
ATOM     23  H   LIG d   1       4.183  -0.953 -13.251  0.00  0.00     0.059 H 
ATOM     24  C   LIG d   1       3.135  -0.084 -11.560  0.00  0.00    -0.023 C 
ATOM     25  H   LIG d   1       1.366  -0.161  -4.654  0.00  0.00     0.027 H 
ATOM     26  H   LIG d   1       2.727   0.640  -3.820  0.00  0.00     0.027 H 
ATOM     27  H   LIG d   1       1.795   1.443  -6.315  0.00  0.00     0.027 H 
ATOM     28  H   LIG d   1       3.497   1.663  -5.795  0.00  0.00     0.027 H 
ATOM     29  H   LIG d   1       4.940  -2.969  -6.347  0.00  0.00     0.027 H 
ATOM     30  H   LIG d   1       3.415  -2.739  -7.247  0.00  0.00     0.027 H 
ATOM     31  H   LIG d   1       6.105  -1.423  -7.873  0.00  0.00     0.027 H 
ATOM     32  H   LIG d   1       5.340  -2.724  -8.808  0.00  0.00     0.027 H 
ATOM     33  H   LIG d   1       3.391   2.528 -10.821  0.00  0.00     0.029 H 
ATOM     34  H   LIG d   1       4.875   2.353  -9.854  0.00  0.00     0.029 H 
ATOM     35  H   LIG d   1       6.254  -1.218 -11.878  0.00  0.00     0.027 H 
ATOM     36  H   LIG d   1       6.234  -2.244 -10.424  0.00  0.00     0.027 H 
ATOM     37  H   LIG d   1       4.683  -3.117 -12.150  0.00  0.00     0.029 H 
ATOM     38  H   LIG d   1       3.793  -2.587 -10.703  0.00  0.00     0.029 H 
ATOM     39  H   LIG d   1       2.543  -0.418 -10.707  0.00  0.00     0.029 H 
ATOM     40  H   LIG d   1       2.543   0.601 -12.166  0.00  0.00     0.029 H 
ENDROOT
BRANCH   1  41
ATOM     41  C   LIG d   1       4.217  -1.346  -3.661  0.00  0.00    -0.040 C 
ATOM     42  H   LIG d   1       5.187  -0.916  -3.910  0.00  0.00     0.030 H 
BRANCH  41  43
ATOM     43  C   LIG d   1       4.388  -2.829  -3.326  0.00  0.00    -0.062 C 
ATOM     44  H   LIG d   1       4.991  -3.310  -4.097  0.00  0.00     0.023 H 
ATOM     45  H   LIG d   1       4.885  -2.930  -2.361  0.00  0.00     0.023 H 
ATOM     46  H   LIG d   1       3.408  -3.307  -3.281  0.00  0.00     0.023 H 
ENDBRANCH  41  43
BRANCH  41  47
ATOM     47  C   LIG d   1       3.632  -0.614  -2.451  0.00  0.00    -0.042 C 
ATOM     48  H   LIG d   1       2.881   0.100  -2.788  0.00  0.00     0.027 H 
ATOM     49  H   LIG d   1       3.171  -1.337  -1.779  0.00  0.00     0.027 H 
BRANCH  47  50
ATOM     50  C   LIG d   1       4.749   0.128  -1.715  0.00  0.00     0.024 C 
ATOM     51  H   LIG d   1       4.327   0.679  -0.874  0.00  0.00     0.036 H 
ATOM     52  H   LIG d   1       5.481  -0.591  -1.347  0.00  0.00     0.036 H 
BRANCH  50  53
ATOM     53  C   LIG d   1       5.420   1.091  -2.660  0.00  0.00     0.213 C 
ATOM     54  O   LIG d   1       4.786   2.000  -3.151  0.00  0.00    -0.276 OA
ATOM     55  N   LIG d   1       6.725   0.940  -2.961  0.00  0.00    -0.315 N 
ATOM     56  H   LIG d   1       7.232   0.213  -2.568  0.00  0.00     0.149 HD
BRANCH  55  57
ATOM     57  C   LIG d   1       7.379   1.875  -3.880  0.00  0.00     0.015 C 
ATOM     58  H   LIG d   1       6.884   1.836  -4.850  0.00  0.00     0.046 H 
ATOM     59  H   LIG d   1       7.310   2.887  -3.478  0.00  0.00     0.046 H 
BRANCH  57  60
ATOM     60  C   LIG d   1       8.850   1.489  -4.041  0.00  0.00    -0.016 C 
ATOM     61  H   LIG d   1       9.475   2.372  -3.906  0.00  0.00     0.033 H 
ATOM     62  H   LIG d   1       9.113   0.740  -3.292  0.00  0.00     0.033 H 
BRANCH  60  63
ATOM     63  C   LIG d   1       9.072   0.920  -5.418  0.00  0.00    -0.072 C 
ATOM     64  C   LIG d   1       9.051  -0.572  -5.575  0.00  0.00    -0.032 C 
ATOM     65  C   LIG d   1       8.862  -0.943  -7.049  0.00  0.00    -0.049 C 
ATOM     66  H   LIG d   1       9.992  -0.987  -5.213  0.00  0.00     0.031 H 
ATOM     67  H   LIG d   1       8.229  -0.986  -4.992  0.00  0.00     0.031 H 
ATOM     68  C   LIG d   1       9.876  -0.148  -7.880  0.00  0.00    -0.049 C 
ATOM     69  H   LIG d   1       7.850  -0.691  -7.367  0.00  0.00     0.027 H 
ATOM     70  H   LIG d   1       9.035  -2.011  -7.183  0.00  0.00     0.027 H 
ATOM     71  C   LIG d   1       9.500   1.334  -7.816  0.00  0.00    -0.035 C 
ATOM     72  H   LIG d   1       9.850  -0.489  -8.915  0.00  0.00     0.027 H 
ATOM     73  H   LIG d   1      10.876  -0.289  -7.471  0.00  0.00     0.027 H 
ATOM     74  C   LIG d   1       9.274   1.749  -6.392  0.00  0.00    -0.085 C 
ATOM     75  H   LIG d   1       8.587   1.500  -8.389  0.00  0.00     0.031 H 
ATOM     76  H   LIG d   1      10.305   1.931  -8.243  0.00  0.00     0.031 H 
ATOM     77  H   LIG d   1       9.281   2.805  -6.164  0.00  0.00     0.057 H 
ENDBRANCH  60  63
ENDBRANCH  57  60
ENDBRANCH  55  57
ENDBRANCH  50  53
ENDBRANCH  47  50
ENDBRANCH  41  47
ENDBRANCH   1  41
BRANCH   7  78
ATOM     78  C   LIG d   1       5.381  -0.290  -5.840  0.00  0.00    -0.059 C 
ATOM     79  H   LIG d   1       5.985  -0.895  -5.164  0.00  0.00     0.024 H 
ATOM     80  H   LIG d   1       5.928  -0.126  -6.768  0.00  0.00     0.024 H 
ATOM     81  H   LIG d   1       5.164   0.671  -5.371  0.00  0.00     0.024 H 
ENDBRANCH   7  78
BRANCH  14  82
ATOM     82  O   LIG d   1       2.765   2.502  -8.232  0.00  0.00    -0.392 OA
ATOM     83  H   LIG d   1       2.943   3.354  -8.653  0.00  0.00     0.210 HD
ENDBRANCH  14  82
BRANCH  19  84
ATOM     84  C   LIG d   1       6.501   0.361  -9.659  0.00  0.00    -0.059 C 
ATOM     85  H   LIG d   1       6.818   1.120 -10.374  0.00  0.00     0.024 H 
ATOM     86  H   LIG d   1       6.276   0.833  -8.703  0.00  0.00     0.024 H 
ATOM     87  H   LIG d   1       7.298  -0.369  -9.525  0.00  0.00     0.024 H 
ENDBRANCH  19  84
BRANCH  22  88
ATOM     88  O   LIG d   1       2.406  -1.941 -12.883  0.00  0.00    -0.392 OA
ATOM     89  H   LIG d   1       2.447  -2.191 -13.815  0.00  0.00     0.210 HD
ENDBRANCH  22  88
TORSDOF 12
ENDMDL
MODEL 7
REMARK VINA RESULT:      -7.1      2.162      3.464
REMARK  12 active torsions:
REMARK  status: ('A' for Active; 'I' for Inactive)
REMARK    1  A    between atoms: C_1  and  C_2 
REMARK    2  A    between atoms: C_2  and  C_4 
REMARK    3  A    between atoms: C_2  and  C_17 
REMARK    4  A    between atoms: C_4  and  C_5 
REMARK    5  A    between atoms: C_5  and  C_6 
REMARK       I    between atoms: C_6  and  N_8 
REMARK    6  A    between atoms: N_8  and  C_9 
REMARK    7  A    between atoms: C_9  and  C_10 
REMARK    8  A    between atoms: C_10  and  C_11 
REMARK    9  A    between atoms: C_23  and  C_44 
REMARK   10  A    between atoms: C_30  and  O_43 
REMARK   11  A    between atoms: C_35  and  C_42 
REMARK   12  A    between atoms: C_38  and  O_41 
ROOT
ATOM      1  C   LIG d   1       9.623   6.630  -2.628  0.00  0.00    -0.033 C 
ATOM      2  H   LIG d   1       8.563   6.881  -2.677  0.00  0.00     0.031 H 
ATOM      3  C   LIG d   1       9.912   5.768  -1.374  0.00  0.00    -0.049 C 
ATOM      4  C   LIG d   1      10.848   6.613  -0.468  0.00  0.00    -0.049 C 
ATOM      5  C   LIG d   1      10.546   8.050  -0.908  0.00  0.00    -0.030 C 
ATOM      6  H   LIG d   1       9.589   8.377  -0.503  0.00  0.00     0.031 H 
ATOM      7  C   LIG d   1      10.458   7.895  -2.452  0.00  0.00    -0.026 C 
ATOM      8  C   LIG d   1       9.871   9.177  -3.007  0.00  0.00    -0.047 C 
ATOM      9  C   LIG d   1      10.871  10.306  -2.706  0.00  0.00    -0.049 C 
ATOM     10  C   LIG d   1      11.155  10.414  -1.212  0.00  0.00    -0.030 C 
ATOM     11  H   LIG d   1      10.237  10.702  -0.699  0.00  0.00     0.031 H 
ATOM     12  C   LIG d   1      11.625   9.074  -0.608  0.00  0.00    -0.008 C 
ATOM     13  H   LIG d   1      12.559   8.774  -1.080  0.00  0.00     0.033 H 
ATOM     14  C   LIG d   1      11.810   9.224   0.903  0.00  0.00     0.059 C 
ATOM     15  H   LIG d   1      10.863   9.515   1.358  0.00  0.00     0.060 H 
ATOM     16  C   LIG d   1      12.862  10.299   1.182  0.00  0.00    -0.023 C 
ATOM     17  C   LIG d   1      12.399  11.633   0.592  0.00  0.00    -0.031 C 
ATOM     18  H   LIG d   1      13.148  12.400   0.793  0.00  0.00     0.031 H 
ATOM     19  C   LIG d   1      12.220  11.481  -0.957  0.00  0.00    -0.026 C 
ATOM     20  C   LIG d   1      11.755  12.815  -1.544  0.00  0.00    -0.045 C 
ATOM     21  C   LIG d   1      10.434  13.225  -0.889  0.00  0.00    -0.026 C 
ATOM     22  C   LIG d   1      10.638  13.377   0.620  0.00  0.00     0.056 C 
ATOM     23  H   LIG d   1      11.390  14.144   0.809  0.00  0.00     0.059 H 
ATOM     24  C   LIG d   1      11.069  12.039   1.230  0.00  0.00    -0.023 C 
ATOM     25  H   LIG d   1       8.983   5.545  -0.849  0.00  0.00     0.027 H 
ATOM     26  H   LIG d   1      10.409   4.842  -1.664  0.00  0.00     0.027 H 
ATOM     27  H   LIG d   1      10.599   6.471   0.584  0.00  0.00     0.027 H 
ATOM     28  H   LIG d   1      11.893   6.365  -0.653  0.00  0.00     0.027 H 
ATOM     29  H   LIG d   1       9.727   9.084  -4.082  0.00  0.00     0.027 H 
ATOM     30  H   LIG d   1       8.916   9.388  -2.521  0.00  0.00     0.027 H 
ATOM     31  H   LIG d   1      11.804  10.104  -3.233  0.00  0.00     0.027 H 
ATOM     32  H   LIG d   1      10.460  11.251  -3.061  0.00  0.00     0.027 H 
ATOM     33  H   LIG d   1      12.995  10.406   2.259  0.00  0.00     0.029 H 
ATOM     34  H   LIG d   1      13.808  10.009   0.725  0.00  0.00     0.029 H 
ATOM     35  H   LIG d   1      12.508  13.579  -1.353  0.00  0.00     0.027 H 
ATOM     36  H   LIG d   1      11.610  12.708  -2.620  0.00  0.00     0.027 H 
ATOM     37  H   LIG d   1      10.101  14.175  -1.308  0.00  0.00     0.029 H 
ATOM     38  H   LIG d   1       9.681  12.461  -1.079  0.00  0.00     0.029 H 
ATOM     39  H   LIG d   1      10.321  11.271   1.029  0.00  0.00     0.029 H 
ATOM     40  H   LIG d   1      11.200  12.143   2.307  0.00  0.00     0.029 H 
ENDROOT
BRANCH   1  41
ATOM     41  C   LIG d   1      10.050   5.885  -3.894  0.00  0.00    -0.040 C 
ATOM     42  H   LIG d   1      11.111   6.053  -4.074  0.00  0.00     0.030 H 
BRANCH  41  43
ATOM     43  C   LIG d   1       9.242   6.401  -5.086  0.00  0.00    -0.062 C 
ATOM     44  H   LIG d   1       8.188   6.162  -4.942  0.00  0.00     0.023 H 
ATOM     45  H   LIG d   1       9.362   7.482  -5.167  0.00  0.00     0.023 H 
ATOM     46  H   LIG d   1       9.600   5.927  -6.000  0.00  0.00     0.023 H 
ENDBRANCH  41  43
BRANCH  41  47
ATOM     47  C   LIG d   1       9.795   4.387  -3.715  0.00  0.00    -0.042 C 
ATOM     48  H   LIG d   1      10.589   3.953  -3.109  0.00  0.00     0.027 H 
ATOM     49  H   LIG d   1       8.836   4.239  -3.218  0.00  0.00     0.027 H 
BRANCH  47  50
ATOM     50  C   LIG d   1       9.768   3.707  -5.086  0.00  0.00     0.024 C 
ATOM     51  H   LIG d   1       9.470   4.430  -5.845  0.00  0.00     0.036 H 
ATOM     52  H   LIG d   1      10.761   3.322  -5.319  0.00  0.00     0.036 H 
BRANCH  50  53
ATOM     53  C   LIG d   1       8.781   2.568  -5.062  0.00  0.00     0.213 C 
ATOM     54  O   LIG d   1       8.301   2.161  -6.097  0.00  0.00    -0.276 OA
ATOM     55  N   LIG d   1       8.433   2.003  -3.889  0.00  0.00    -0.315 N 
ATOM     56  H   LIG d   1       8.818   2.329  -3.060  0.00  0.00     0.149 HD
BRANCH  55  57
ATOM     57  C   LIG d   1       7.473   0.896  -3.864  0.00  0.00     0.015 C 
ATOM     58  H   LIG d   1       7.205   0.626  -4.885  0.00  0.00     0.046 H 
ATOM     59  H   LIG d   1       7.924   0.036  -3.367  0.00  0.00     0.046 H 
BRANCH  57  60
ATOM     60  C   LIG d   1       6.218   1.325  -3.102  0.00  0.00    -0.016 C 
ATOM     61  H   LIG d   1       6.499   1.680  -2.110  0.00  0.00     0.033 H 
ATOM     62  H   LIG d   1       5.719   2.128  -3.647  0.00  0.00     0.033 H 
BRANCH  60  63
ATOM     63  C   LIG d   1       5.284   0.151  -2.972  0.00  0.00    -0.072 C 
ATOM     64  C   LIG d   1       3.924   0.395  -2.387  0.00  0.00    -0.032 C 
ATOM     65  C   LIG d   1       2.990  -0.772  -2.724  0.00  0.00    -0.049 C 
ATOM     66  H   LIG d   1       4.009   0.492  -1.305  0.00  0.00     0.031 H 
ATOM     67  H   LIG d   1       3.512   1.316  -2.799  0.00  0.00     0.031 H 
ATOM     68  C   LIG d   1       3.704  -2.081  -2.362  0.00  0.00    -0.049 C 
ATOM     69  H   LIG d   1       2.757  -0.763  -3.789  0.00  0.00     0.027 H 
ATOM     70  H   LIG d   1       2.070  -0.683  -2.145  0.00  0.00     0.027 H 
ATOM     71  C   LIG d   1       4.889  -2.265  -3.312  0.00  0.00    -0.035 C 
ATOM     72  H   LIG d   1       3.013  -2.917  -2.472  0.00  0.00     0.027 H 
ATOM     73  H   LIG d   1       4.062  -2.030  -1.335  0.00  0.00     0.027 H 
ATOM     74  C   LIG d   1       5.706  -1.007  -3.369  0.00  0.00    -0.085 C 
ATOM     75  H   LIG d   1       4.519  -2.500  -4.311  0.00  0.00     0.031 H 
ATOM     76  H   LIG d   1       5.512  -3.085  -2.958  0.00  0.00     0.031 H 
ATOM     77  H   LIG d   1       6.710  -1.072  -3.764  0.00  0.00     0.057 H 
ENDBRANCH  60  63
ENDBRANCH  57  60
ENDBRANCH  55  57
ENDBRANCH  50  53
ENDBRANCH  47  50
ENDBRANCH  41  47
ENDBRANCH   1  41
BRANCH   7  78
ATOM     78  C   LIG d   1      11.857   7.675  -3.030  0.00  0.00    -0.059 C 
ATOM     79  H   LIG d   1      12.595   8.154  -2.387  0.00  0.00     0.024 H 
ATOM     80  H   LIG d   1      12.063   6.606  -3.086  0.00  0.00     0.024 H 
ATOM     81  H   LIG d   1      11.910   8.108  -4.029  0.00  0.00     0.024 H 
ENDBRANCH   7  78
BRANCH  14  82
ATOM     82  O   LIG d   1      12.242   7.980   1.456  0.00  0.00    -0.392 OA
ATOM     83  H   LIG d   1      12.227   7.953   2.422  0.00  0.00     0.210 HD
ENDBRANCH  14  82
BRANCH  19  84
ATOM     84  C   LIG d   1      13.535  11.058  -1.615  0.00  0.00    -0.059 C 
ATOM     85  H   LIG d   1      13.322  10.446  -2.492  0.00  0.00     0.024 H 
ATOM     86  H   LIG d   1      14.091  11.945  -1.917  0.00  0.00     0.024 H 
ATOM     87  H   LIG d   1      14.128  10.481  -0.905  0.00  0.00     0.024 H 
ENDBRANCH  19  84
BRANCH  22  88
ATOM     88  O   LIG d   1       9.404  13.759   1.231  0.00  0.00    -0.392 OA
ATOM     89  H   LIG d   1       9.442  13.806   2.196  0.00  0.00     0.210 HD
ENDBRANCH  22  88
TORSDOF 12
ENDMDL
MODEL 8
REMARK VINA RESULT:      -6.9      1.893      3.005
REMARK  12 active torsions:
REMARK  status: ('A' for Active; 'I' for Inactive)
REMARK    1  A    between atoms: C_1  and  C_2 
REMARK    2  A    between atoms: C_2  and  C_4 
REMARK    3  A    between atoms: C_2  and  C_17 
REMARK    4  A    between atoms: C_4  and  C_5 
REMARK    5  A    between atoms: C_5  and  C_6 
REMARK       I    between atoms: C_6  and  N_8 
REMARK    6  A    between atoms: N_8  and  C_9 
REMARK    7  A    between atoms: C_9  and  C_10 
REMARK    8  A    between atoms: C_10  and  C_11 
REMARK    9  A    between atoms: C_23  and  C_44 
REMARK   10  A    between atoms: C_30  and  O_43 
REMARK   11  A    between atoms: C_35  and  C_42 
REMARK   12  A    between atoms: C_38  and  O_41 
ROOT
ATOM      1  C   LIG d   1       9.170   0.972  -5.732  0.00  0.00    -0.033 C 
ATOM      2  H   LIG d   1       8.312   0.736  -5.102  0.00  0.00     0.031 H 
ATOM      3  C   LIG d   1      10.344   0.011  -5.420  0.00  0.00    -0.049 C 
ATOM      4  C   LIG d   1      11.487   0.890  -4.843  0.00  0.00    -0.049 C 
ATOM      5  C   LIG d   1      10.739   2.109  -4.292  0.00  0.00    -0.030 C 
ATOM      6  H   LIG d   1      10.240   1.856  -3.357  0.00  0.00     0.031 H 
ATOM      7  C   LIG d   1       9.693   2.369  -5.412  0.00  0.00    -0.026 C 
ATOM      8  C   LIG d   1       8.684   3.363  -4.872  0.00  0.00    -0.047 C 
ATOM      9  C   LIG d   1       9.433   4.681  -4.615  0.00  0.00    -0.049 C 
ATOM     10  C   LIG d   1      10.599   4.480  -3.654  0.00  0.00    -0.030 C 
ATOM     11  H   LIG d   1      10.206   4.182  -2.682  0.00  0.00     0.031 H 
ATOM     12  C   LIG d   1      11.562   3.372  -4.128  0.00  0.00    -0.008 C 
ATOM     13  H   LIG d   1      11.996   3.657  -5.085  0.00  0.00     0.033 H 
ATOM     14  C   LIG d   1      12.659   3.160  -3.083  0.00  0.00     0.059 C 
ATOM     15  H   LIG d   1      12.207   2.866  -2.136  0.00  0.00     0.060 H 
ATOM     16  C   LIG d   1      13.441   4.461  -2.895  0.00  0.00    -0.023 C 
ATOM     17  C   LIG d   1      12.493   5.563  -2.418  0.00  0.00    -0.031 C 
ATOM     18  H   LIG d   1      13.051   6.490  -2.281  0.00  0.00     0.031 H 
ATOM     19  C   LIG d   1      11.376   5.787  -3.493  0.00  0.00    -0.026 C 
ATOM     20  C   LIG d   1      10.428   6.888  -3.013  0.00  0.00    -0.045 C 
ATOM     21  C   LIG d   1       9.809   6.477  -1.675  0.00  0.00    -0.026 C 
ATOM     22  C   LIG d   1      10.919   6.275  -0.640  0.00  0.00     0.056 C 
ATOM     23  H   LIG d   1      11.472   7.206  -0.513  0.00  0.00     0.059 H 
ATOM     24  C   LIG d   1      11.857   5.149  -1.089  0.00  0.00    -0.023 C 
ATOM     25  H   LIG d   1      10.036  -0.732  -4.685  0.00  0.00     0.027 H 
ATOM     26  H   LIG d   1      10.676  -0.482  -6.334  0.00  0.00     0.027 H 
ATOM     27  H   LIG d   1      12.012   0.365  -4.045  0.00  0.00     0.027 H 
ATOM     28  H   LIG d   1      12.181   1.187  -5.630  0.00  0.00     0.027 H 
ATOM     29  H   LIG d   1       7.891   3.521  -5.603  0.00  0.00     0.027 H 
ATOM     30  H   LIG d   1       8.259   2.990  -3.938  0.00  0.00     0.027 H 
ATOM     31  H   LIG d   1       9.813   5.065  -5.563  0.00  0.00     0.027 H 
ATOM     32  H   LIG d   1       8.740   5.408  -4.190  0.00  0.00     0.027 H 
ATOM     33  H   LIG d   1      14.224   4.309  -2.151  0.00  0.00     0.029 H 
ATOM     34  H   LIG d   1      13.892   4.755  -3.843  0.00  0.00     0.029 H 
ATOM     35  H   LIG d   1      10.983   7.817  -2.887  0.00  0.00     0.027 H 
ATOM     36  H   LIG d   1       9.637   7.033  -3.750  0.00  0.00     0.027 H 
ATOM     37  H   LIG d   1       9.133   7.260  -1.332  0.00  0.00     0.029 H 
ATOM     38  H   LIG d   1       9.256   5.548  -1.800  0.00  0.00     0.029 H 
ATOM     39  H   LIG d   1      11.300   4.222  -1.227  0.00  0.00     0.029 H 
ATOM     40  H   LIG d   1      12.639   4.995  -0.345  0.00  0.00     0.029 H 
ENDROOT
BRANCH   1  41
ATOM     41  C   LIG d   1       8.784   0.876  -7.209  0.00  0.00    -0.040 C 
ATOM     42  H   LIG d   1       9.317   1.640  -7.774  0.00  0.00     0.030 H 
BRANCH  41  43
ATOM     43  C   LIG d   1       7.276   1.092  -7.357  0.00  0.00    -0.062 C 
ATOM     44  H   LIG d   1       7.038   2.138  -7.165  0.00  0.00     0.023 H 
ATOM     45  H   LIG d   1       6.969   0.829  -8.370  0.00  0.00     0.023 H 
ATOM     46  H   LIG d   1       6.747   0.461  -6.643  0.00  0.00     0.023 H 
ENDBRANCH  41  43
BRANCH  41  47
ATOM     47  C   LIG d   1       9.157  -0.508  -7.745  0.00  0.00    -0.042 C 
ATOM     48  H   LIG d   1       9.650  -0.402  -8.710  0.00  0.00     0.027 H 
ATOM     49  H   LIG d   1       9.831  -0.999  -7.044  0.00  0.00     0.027 H 
BRANCH  47  50
ATOM     50  C   LIG d   1       7.890  -1.350  -7.908  0.00  0.00     0.024 C 
ATOM     51  H   LIG d   1       7.024  -0.693  -7.986  0.00  0.00     0.036 H 
ATOM     52  H   LIG d   1       7.970  -1.955  -8.812  0.00  0.00     0.036 H 
BRANCH  50  53
ATOM     53  C   LIG d   1       7.730  -2.253  -6.712  0.00  0.00     0.213 C 
ATOM     54  O   LIG d   1       8.547  -3.122  -6.495  0.00  0.00    -0.276 OA
ATOM     55  N   LIG d   1       6.679  -2.093  -5.884  0.00  0.00    -0.315 N 
ATOM     56  H   LIG d   1       6.026  -1.398  -6.058  0.00  0.00     0.149 HD
BRANCH  55  57
ATOM     57  C   LIG d   1       6.522  -2.970  -4.721  0.00  0.00     0.015 C 
ATOM     58  H   LIG d   1       5.464  -3.169  -4.556  0.00  0.00     0.046 H 
ATOM     59  H   LIG d   1       7.044  -3.910  -4.903  0.00  0.00     0.046 H 
BRANCH  57  60
ATOM     60  C   LIG d   1       7.113  -2.290  -3.485  0.00  0.00    -0.016 C 
ATOM     61  H   LIG d   1       7.223  -3.021  -2.684  0.00  0.00     0.033 H 
ATOM     62  H   LIG d   1       8.091  -1.874  -3.733  0.00  0.00     0.033 H 
BRANCH  60  63
ATOM     63  C   LIG d   1       6.197  -1.182  -3.035  0.00  0.00    -0.072 C 
ATOM     64  C   LIG d   1       6.685   0.231  -3.163  0.00  0.00    -0.032 C 
ATOM     65  C   LIG d   1       5.505   1.204  -3.074  0.00  0.00    -0.049 C 
ATOM     66  H   LIG d   1       7.392   0.443  -2.361  0.00  0.00     0.031 H 
ATOM     67  H   LIG d   1       7.183   0.357  -4.123  0.00  0.00     0.031 H 
ATOM     68  C   LIG d   1       4.672   0.841  -1.839  0.00  0.00    -0.049 C 
ATOM     69  H   LIG d   1       4.889   1.121  -3.970  0.00  0.00     0.027 H 
ATOM     70  H   LIG d   1       5.878   2.224  -2.978  0.00  0.00     0.027 H 
ATOM     71  C   LIG d   1       4.016  -0.521  -2.080  0.00  0.00    -0.035 C 
ATOM     72  H   LIG d   1       3.901   1.596  -1.681  0.00  0.00     0.027 H 
ATOM     73  H   LIG d   1       5.319   0.785  -0.964  0.00  0.00     0.027 H 
ATOM     74  C   LIG d   1       5.038  -1.509  -2.558  0.00  0.00    -0.085 C 
ATOM     75  H   LIG d   1       3.234  -0.417  -2.834  0.00  0.00     0.031 H 
ATOM     76  H   LIG d   1       3.573  -0.879  -1.151  0.00  0.00     0.031 H 
ATOM     77  H   LIG d   1       4.793  -2.560  -2.500  0.00  0.00     0.057 H 
ENDBRANCH  60  63
ENDBRANCH  57  60
ENDBRANCH  55  57
ENDBRANCH  50  53
ENDBRANCH  47  50
ENDBRANCH  41  47
ENDBRANCH   1  41
BRANCH   7  78
ATOM     78  C   LIG d   1      10.388   2.955  -6.642  0.00  0.00    -0.059 C 
ATOM     79  H   LIG d   1      10.352   4.043  -6.596  0.00  0.00     0.024 H 
ATOM     80  H   LIG d   1      11.427   2.626  -6.663  0.00  0.00     0.024 H 
ATOM     81  H   LIG d   1       9.880   2.613  -7.544  0.00  0.00     0.024 H 
ENDBRANCH   7  78
BRANCH  14  82
ATOM     82  O   LIG d   1      13.545   2.131  -3.526  0.00  0.00    -0.392 OA
ATOM     83  H   LIG d   1      14.407   2.454  -3.822  0.00  0.00     0.210 HD
ENDBRANCH  14  82
BRANCH  19  84
ATOM     84  C   LIG d   1      11.991   6.185  -4.837  0.00  0.00    -0.059 C 
ATOM     85  H   LIG d   1      13.069   6.027  -4.803  0.00  0.00     0.024 H 
ATOM     86  H   LIG d   1      11.558   5.574  -5.629  0.00  0.00     0.024 H 
ATOM     87  H   LIG d   1      11.783   7.236  -5.034  0.00  0.00     0.024 H 
ENDBRANCH  19  84
BRANCH  22  88
ATOM     88  O   LIG d   1      10.341   5.890   0.608  0.00  0.00    -0.392 OA
ATOM     89  H   LIG d   1      10.952   5.426   1.198  0.00  0.00     0.210 HD
ENDBRANCH  22  88
TORSDOF 12
ENDMDL
MODEL 9
REMARK VINA RESULT:      -6.8      6.753      9.808
REMARK  12 active torsions:
REMARK  status: ('A' for Active; 'I' for Inactive)
REMARK    1  A    between atoms: C_1  and  C_2 
REMARK    2  A    between atoms: C_2  and  C_4 
REMARK    3  A    between atoms: C_2  and  C_17 
REMARK    4  A    between atoms: C_4  and  C_5 
REMARK    5  A    between atoms: C_5  and  C_6 
REMARK       I    between atoms: C_6  and  N_8 
REMARK    6  A    between atoms: N_8  and  C_9 
REMARK    7  A    between atoms: C_9  and  C_10 
REMARK    8  A    between atoms: C_10  and  C_11 
REMARK    9  A    between atoms: C_23  and  C_44 
REMARK   10  A    between atoms: C_30  and  O_43 
REMARK   11  A    between atoms: C_35  and  C_42 
REMARK   12  A    between atoms: C_38  and  O_41 
ROOT
ATOM      1  C   LIG d   1       4.815  -0.820  -3.088  0.00  0.00    -0.033 C 
ATOM      2  H   LIG d   1       5.140  -0.668  -2.058  0.00  0.00     0.031 H 
ATOM      3  C   LIG d   1       3.957  -2.105  -3.196  0.00  0.00    -0.049 C 
ATOM      4  C   LIG d   1       4.749  -3.086  -4.102  0.00  0.00    -0.049 C 
ATOM      5  C   LIG d   1       6.195  -2.603  -3.948  0.00  0.00    -0.030 C 
ATOM      6  H   LIG d   1       6.597  -2.912  -2.983  0.00  0.00     0.031 H 
ATOM      7  C   LIG d   1       6.020  -1.060  -3.993  0.00  0.00    -0.026 C 
ATOM      8  C   LIG d   1       7.331  -0.438  -3.555  0.00  0.00    -0.047 C 
ATOM      9  C   LIG d   1       8.390  -0.819  -4.602  0.00  0.00    -0.049 C 
ATOM     10  C   LIG d   1       8.504  -2.332  -4.752  0.00  0.00    -0.030 C 
ATOM     11  H   LIG d   1       8.866  -2.752  -3.814  0.00  0.00     0.031 H 
ATOM     12  C   LIG d   1       7.145  -2.992  -5.065  0.00  0.00    -0.008 C 
ATOM     13  H   LIG d   1       6.771  -2.613  -6.016  0.00  0.00     0.033 H 
ATOM     14  C   LIG d   1       7.309  -4.512  -5.120  0.00  0.00     0.059 C 
ATOM     15  H   LIG d   1       7.674  -4.872  -4.158  0.00  0.00     0.060 H 
ATOM     16  C   LIG d   1       8.311  -4.877  -6.216  0.00  0.00    -0.023 C 
ATOM     17  C   LIG d   1       9.664  -4.232  -5.909  0.00  0.00    -0.031 C 
ATOM     18  H   LIG d   1      10.378  -4.494  -6.689  0.00  0.00     0.031 H 
ATOM     19  C   LIG d   1       9.497  -2.675  -5.864  0.00  0.00    -0.026 C 
ATOM     20  C   LIG d   1      10.850  -2.031  -5.554  0.00  0.00    -0.045 C 
ATOM     21  C   LIG d   1      11.365  -2.554  -4.211  0.00  0.00    -0.026 C 
ATOM     22  C   LIG d   1      11.529  -4.074  -4.284  0.00  0.00     0.056 C 
ATOM     23  H   LIG d   1      12.243  -4.325  -5.069  0.00  0.00     0.059 H 
ATOM     24  C   LIG d   1      10.174  -4.737  -4.558  0.00  0.00    -0.023 C 
ATOM     25  H   LIG d   1       3.811  -2.542  -2.209  0.00  0.00     0.027 H 
ATOM     26  H   LIG d   1       2.993  -1.873  -3.649  0.00  0.00     0.027 H 
ATOM     27  H   LIG d   1       4.643  -4.110  -3.746  0.00  0.00     0.027 H 
ATOM     28  H   LIG d   1       4.423  -3.002  -5.139  0.00  0.00     0.027 H 
ATOM     29  H   LIG d   1       7.229   0.646  -3.505  0.00  0.00     0.027 H 
ATOM     30  H   LIG d   1       7.618  -0.829  -2.577  0.00  0.00     0.027 H 
ATOM     31  H   LIG d   1       8.113  -0.384  -5.563  0.00  0.00     0.027 H 
ATOM     32  H   LIG d   1       9.356  -0.417  -4.295  0.00  0.00     0.027 H 
ATOM     33  H   LIG d   1       8.427  -5.960  -6.256  0.00  0.00     0.029 H 
ATOM     34  H   LIG d   1       7.946  -4.515  -7.178  0.00  0.00     0.029 H 
ATOM     35  H   LIG d   1      11.562  -2.284  -6.340  0.00  0.00     0.027 H 
ATOM     36  H   LIG d   1      10.735  -0.948  -5.502  0.00  0.00     0.027 H 
ATOM     37  H   LIG d   1      12.329  -2.096  -3.989  0.00  0.00     0.029 H 
ATOM     38  H   LIG d   1      10.654  -2.303  -3.426  0.00  0.00     0.029 H 
ATOM     39  H   LIG d   1       9.459  -4.474  -3.778  0.00  0.00     0.029 H 
ATOM     40  H   LIG d   1      10.289  -5.820  -4.595  0.00  0.00     0.029 H 
ENDROOT
BRANCH   1  41
ATOM     41  C   LIG d   1       4.019   0.392  -3.576  0.00  0.00    -0.040 C 
ATOM     42  H   LIG d   1       4.601   0.933  -4.322  0.00  0.00     0.030 H 
BRANCH  41  43
ATOM     43  C   LIG d   1       3.721   1.316  -2.394  0.00  0.00    -0.062 C 
ATOM     44  H   LIG d   1       3.306   0.733  -1.571  0.00  0.00     0.023 H 
ATOM     45  H   LIG d   1       4.643   1.799  -2.068  0.00  0.00     0.023 H 
ATOM     46  H   LIG d   1       3.001   2.076  -2.699  0.00  0.00     0.023 H 
ENDBRANCH  41  43
BRANCH  41  47
ATOM     47  C   LIG d   1       2.703  -0.078  -4.200  0.00  0.00    -0.042 C 
ATOM     48  H   LIG d   1       2.875  -0.997  -4.759  0.00  0.00     0.027 H 
ATOM     49  H   LIG d   1       1.974  -0.264  -3.412  0.00  0.00     0.027 H 
BRANCH  47  50
ATOM     50  C   LIG d   1       2.171   1.002  -5.144  0.00  0.00     0.024 C 
ATOM     51  H   LIG d   1       1.081   0.997  -5.124  0.00  0.00     0.036 H 
ATOM     52  H   LIG d   1       2.536   1.978  -4.821  0.00  0.00     0.036 H 
BRANCH  50  53
ATOM     53  C   LIG d   1       2.650   0.725  -6.545  0.00  0.00     0.213 C 
ATOM     54  O   LIG d   1       3.112   1.622  -7.217  0.00  0.00    -0.276 OA
ATOM     55  N   LIG d   1       2.564  -0.521  -7.052  0.00  0.00    -0.315 N 
ATOM     56  H   LIG d   1       2.195  -1.239  -6.514  0.00  0.00     0.149 HD
BRANCH  55  57
ATOM     57  C   LIG d   1       3.029  -0.792  -8.415  0.00  0.00     0.015 C 
ATOM     58  H   LIG d   1       3.839  -0.107  -8.665  0.00  0.00     0.046 H 
ATOM     59  H   LIG d   1       3.391  -1.819  -8.477  0.00  0.00     0.046 H 
BRANCH  57  60
ATOM     60  C   LIG d   1       1.873  -0.598  -9.397  0.00  0.00    -0.016 C 
ATOM     61  H   LIG d   1       1.037  -1.234  -9.106  0.00  0.00     0.033 H 
ATOM     62  H   LIG d   1       1.556   0.446  -9.383  0.00  0.00     0.033 H 
BRANCH  60  63
ATOM     63  C   LIG d   1       2.326  -0.965 -10.785  0.00  0.00    -0.072 C 
ATOM     64  C   LIG d   1       3.511  -0.241 -11.354  0.00  0.00    -0.032 C 
ATOM     65  C   LIG d   1       4.078  -1.017 -12.547  0.00  0.00    -0.049 C 
ATOM     66  H   LIG d   1       3.205   0.753 -11.680  0.00  0.00     0.031 H 
ATOM     67  H   LIG d   1       4.280  -0.147 -10.588  0.00  0.00     0.031 H 
ATOM     68  C   LIG d   1       2.921  -1.357 -13.495  0.00  0.00    -0.049 C 
ATOM     69  H   LIG d   1       4.550  -1.937 -12.200  0.00  0.00     0.027 H 
ATOM     70  H   LIG d   1       4.811  -0.401 -13.069  0.00  0.00     0.027 H 
ATOM     71  C   LIG d   1       2.003  -2.363 -12.798  0.00  0.00    -0.035 C 
ATOM     72  H   LIG d   1       3.315  -1.795 -14.412  0.00  0.00     0.027 H 
ATOM     73  H   LIG d   1       2.361  -0.452 -13.729  0.00  0.00     0.027 H 
ATOM     74  C   LIG d   1       1.666  -1.884 -11.416  0.00  0.00    -0.085 C 
ATOM     75  H   LIG d   1       2.507  -3.328 -12.732  0.00  0.00     0.031 H 
ATOM     76  H   LIG d   1       1.085  -2.476 -13.374  0.00  0.00     0.031 H 
ATOM     77  H   LIG d   1       0.820  -2.332 -10.916  0.00  0.00     0.057 H 
ENDBRANCH  60  63
ENDBRANCH  57  60
ENDBRANCH  55  57
ENDBRANCH  50  53
ENDBRANCH  47  50
ENDBRANCH  41  47
ENDBRANCH   1  41
BRANCH   7  78
ATOM     78  C   LIG d   1       5.690  -0.619  -5.420  0.00  0.00    -0.059 C 
ATOM     79  H   LIG d   1       5.184  -1.429  -5.943  0.00  0.00     0.024 H 
ATOM     80  H   LIG d   1       5.040   0.256  -5.389  0.00  0.00     0.024 H 
ATOM     81  H   LIG d   1       6.612  -0.367  -5.945  0.00  0.00     0.024 H 
ENDBRANCH   7  78
BRANCH  14  82
ATOM     82  O   LIG d   1       6.047  -5.117  -5.406  0.00  0.00    -0.392 OA
ATOM     83  H   LIG d   1       6.108  -5.921  -5.939  0.00  0.00     0.210 HD
ENDBRANCH  14  82
BRANCH  19  84
ATOM     84  C   LIG d   1       8.969  -2.148  -7.201  0.00  0.00    -0.059 C 
ATOM     85  H   LIG d   1       7.904  -1.937  -7.112  0.00  0.00     0.024 H 
ATOM     86  H   LIG d   1       9.500  -1.234  -7.465  0.00  0.00     0.024 H 
ATOM     87  H   LIG d   1       9.128  -2.898  -7.975  0.00  0.00     0.024 H 
ENDBRANCH  19  84
BRANCH  22  88
ATOM     88  O   LIG d   1      12.008  -4.562  -3.030  0.00  0.00    -0.392 OA
ATOM     89  H   LIG d   1      11.344  -5.037  -2.513  0.00  0.00     0.210 HD
ENDBRANCH  22  88
TORSDOF 12
ENDMDL
MODEL 10
REMARK VINA RESULT:      -6.6      7.692     11.457
REMARK  12 active torsions:
REMARK  status: ('A' for Active; 'I' for Inactive)
REMARK    1  A    between atoms: C_1  and  C_2 
REMARK    2  A    between atoms: C_2  and  C_4 
REMARK    3  A    between atoms: C_2  and  C_17 
REMARK    4  A    between atoms: C_4  and  C_5 
REMARK    5  A    between atoms: C_5  and  C_6 
REMARK       I    between atoms: C_6  and  N_8 
REMARK    6  A    between atoms: N_8  and  C_9 
REMARK    7  A    between atoms: C_9  and  C_10 
REMARK    8  A    between atoms: C_10  and  C_11 
REMARK    9  A    between atoms: C_23  and  C_44 
REMARK   10  A    between atoms: C_30  and  O_43 
REMARK   11  A    between atoms: C_35  and  C_42 
REMARK   12  A    between atoms: C_38  and  O_41 
ROOT
ATOM      1  C   LIG d   1       3.593  -0.451 -10.081  0.00  0.00    -0.033 C 
ATOM      2  H   LIG d   1       4.343   0.232 -10.482  0.00  0.00     0.031 H 
ATOM      3  C   LIG d   1       2.382   0.344  -9.534  0.00  0.00    -0.049 C 
ATOM      4  C   LIG d   1       2.340   0.080  -8.004  0.00  0.00    -0.049 C 
ATOM      5  C   LIG d   1       3.790  -0.294  -7.681  0.00  0.00    -0.030 C 
ATOM      6  H   LIG d   1       4.419   0.595  -7.675  0.00  0.00     0.031 H 
ATOM      7  C   LIG d   1       4.155  -1.209  -8.882  0.00  0.00    -0.026 C 
ATOM      8  C   LIG d   1       5.656  -1.420  -8.857  0.00  0.00    -0.047 C 
ATOM      9  C   LIG d   1       5.988  -2.187  -7.566  0.00  0.00    -0.049 C 
ATOM     10  C   LIG d   1       5.501  -1.436  -6.332  0.00  0.00    -0.030 C 
ATOM     11  H   LIG d   1       6.048  -0.497  -6.253  0.00  0.00     0.031 H 
ATOM     12  C   LIG d   1       3.999  -1.097  -6.410  0.00  0.00    -0.008 C 
ATOM     13  H   LIG d   1       3.422  -2.020  -6.458  0.00  0.00     0.033 H 
ATOM     14  C   LIG d   1       3.590  -0.273  -5.187  0.00  0.00     0.059 C 
ATOM     15  H   LIG d   1       4.169   0.650  -5.162  0.00  0.00     0.060 H 
ATOM     16  C   LIG d   1       3.859  -1.081  -3.916  0.00  0.00    -0.023 C 
ATOM     17  C   LIG d   1       5.350  -1.415  -3.828  0.00  0.00    -0.031 C 
ATOM     18  H   LIG d   1       5.541  -1.989  -2.921  0.00  0.00     0.031 H 
ATOM     19  C   LIG d   1       5.764  -2.268  -5.076  0.00  0.00    -0.026 C 
ATOM     20  C   LIG d   1       7.256  -2.599  -4.987  0.00  0.00    -0.045 C 
ATOM     21  C   LIG d   1       8.062  -1.300  -4.934  0.00  0.00    -0.026 C 
ATOM     22  C   LIG d   1       7.646  -0.491  -3.703  0.00  0.00     0.056 C 
ATOM     23  H   LIG d   1       7.840  -1.074  -2.803  0.00  0.00     0.059 H 
ATOM     24  C   LIG d   1       6.162  -0.119  -3.795  0.00  0.00    -0.023 C 
ATOM     25  H   LIG d   1       2.514   1.408  -9.727  0.00  0.00     0.027 H 
ATOM     26  H   LIG d   1       1.462  -0.009 -10.000  0.00  0.00     0.027 H 
ATOM     27  H   LIG d   1       2.044   0.980  -7.466  0.00  0.00     0.027 H 
ATOM     28  H   LIG d   1       1.667  -0.746  -7.773  0.00  0.00     0.027 H 
ATOM     29  H   LIG d   1       5.964  -2.001  -9.725  0.00  0.00     0.027 H 
ATOM     30  H   LIG d   1       6.166  -0.455  -8.856  0.00  0.00     0.027 H 
ATOM     31  H   LIG d   1       5.509  -3.166  -7.601  0.00  0.00     0.027 H 
ATOM     32  H   LIG d   1       7.068  -2.322  -7.499  0.00  0.00     0.027 H 
ATOM     33  H   LIG d   1       3.567  -0.494  -3.045  0.00  0.00     0.029 H 
ATOM     34  H   LIG d   1       3.281  -2.004  -3.943  0.00  0.00     0.029 H 
ATOM     35  H   LIG d   1       7.446  -3.182  -4.086  0.00  0.00     0.027 H 
ATOM     36  H   LIG d   1       7.553  -3.176  -5.863  0.00  0.00     0.027 H 
ATOM     37  H   LIG d   1       9.124  -1.534  -4.872  0.00  0.00     0.029 H 
ATOM     38  H   LIG d   1       7.870  -0.716  -5.833  0.00  0.00     0.029 H 
ATOM     39  H   LIG d   1       5.969   0.454  -4.702  0.00  0.00     0.029 H 
ATOM     40  H   LIG d   1       5.869   0.470  -2.925  0.00  0.00     0.029 H 
ENDROOT
BRANCH   1  41
ATOM     41  C   LIG d   1       3.139  -1.432 -11.163  0.00  0.00    -0.040 C 
ATOM     42  H   LIG d   1       3.012  -2.422 -10.726  0.00  0.00     0.030 H 
BRANCH  41  43
ATOM     43  C   LIG d   1       4.194  -1.495 -12.270  0.00  0.00    -0.062 C 
ATOM     44  H   LIG d   1       5.027  -2.119 -11.943  0.00  0.00     0.023 H 
ATOM     45  H   LIG d   1       3.751  -1.922 -13.170  0.00  0.00     0.023 H 
ATOM     46  H   LIG d   1       4.556  -0.489 -12.485  0.00  0.00     0.023 H 
ENDBRANCH  41  43
BRANCH  41  47
ATOM     47  C   LIG d   1       1.808  -0.961 -11.753  0.00  0.00    -0.042 C 
ATOM     48  H   LIG d   1       1.366  -0.210 -11.099  0.00  0.00     0.027 H 
ATOM     49  H   LIG d   1       1.981  -0.529 -12.738  0.00  0.00     0.027 H 
BRANCH  47  50
ATOM     50  C   LIG d   1       0.856  -2.153 -11.879  0.00  0.00     0.024 C 
ATOM     51  H   LIG d   1       1.428  -3.053 -12.103  0.00  0.00     0.036 H 
ATOM     52  H   LIG d   1       0.318  -2.288 -10.940  0.00  0.00     0.036 H 
BRANCH  50  53
ATOM     53  C   LIG d   1      -0.129  -1.893 -12.990  0.00  0.00     0.213 C 
ATOM     54  O   LIG d   1       0.117  -2.265 -14.117  0.00  0.00    -0.276 OA
ATOM     55  N   LIG d   1      -1.282  -1.247 -12.730  0.00  0.00    -0.315 N 
ATOM     56  H   LIG d   1      -1.479  -0.949 -11.828  0.00  0.00     0.149 HD
BRANCH  55  57
ATOM     57  C   LIG d   1      -2.240  -0.993 -13.810  0.00  0.00     0.015 C 
ATOM     58  H   LIG d   1      -1.904  -0.142 -14.401  0.00  0.00     0.046 H 
ATOM     59  H   LIG d   1      -2.308  -1.875 -14.448  0.00  0.00     0.046 H 
BRANCH  57  60
ATOM     60  C   LIG d   1      -3.615  -0.690 -13.212  0.00  0.00    -0.016 C 
ATOM     61  H   LIG d   1      -4.385  -1.192 -13.797  0.00  0.00     0.033 H 
ATOM     62  H   LIG d   1      -3.650  -1.049 -12.182  0.00  0.00     0.033 H 
BRANCH  60  63
ATOM     63  C   LIG d   1      -3.854   0.797 -13.233  0.00  0.00    -0.072 C 
ATOM     64  C   LIG d   1      -2.700   1.692 -13.575  0.00  0.00    -0.032 C 
ATOM     65  C   LIG d   1      -3.210   3.083 -13.963  0.00  0.00    -0.049 C 
ATOM     66  H   LIG d   1      -2.039   1.775 -12.711  0.00  0.00     0.031 H 
ATOM     67  H   LIG d   1      -2.147   1.265 -14.411  0.00  0.00     0.031 H 
ATOM     68  C   LIG d   1      -4.190   3.556 -12.883  0.00  0.00    -0.049 C 
ATOM     69  H   LIG d   1      -3.721   3.034 -14.925  0.00  0.00     0.027 H 
ATOM     70  H   LIG d   1      -2.371   3.776 -14.027  0.00  0.00     0.027 H 
ATOM     71  C   LIG d   1      -5.438   2.672 -12.939  0.00  0.00    -0.035 C 
ATOM     72  H   LIG d   1      -4.468   4.594 -13.069  0.00  0.00     0.027 H 
ATOM     73  H   LIG d   1      -3.724   3.470 -11.902  0.00  0.00     0.027 H 
ATOM     74  C   LIG d   1      -5.044   1.224 -12.950  0.00  0.00    -0.085 C 
ATOM     75  H   LIG d   1      -6.002   2.899 -13.844  0.00  0.00     0.031 H 
ATOM     76  H   LIG d   1      -6.061   2.870 -12.068  0.00  0.00     0.031 H 
ATOM     77  H   LIG d   1      -5.800   0.491 -12.705  0.00  0.00     0.057 H 
ENDBRANCH  60  63
ENDBRANCH  57  60
ENDBRANCH  55  57
ENDBRANCH  50  53
ENDBRANCH  47  50
ENDBRANCH  41  47
ENDBRANCH   1  41
BRANCH   7  78
ATOM     78  C   LIG d   1       3.443  -2.556  -8.742  0.00  0.00    -0.059 C 
ATOM     79  H   LIG d   1       2.365  -2.404  -8.796  0.00  0.00     0.024 H 
ATOM     80  H   LIG d   1       3.757  -3.218  -9.548  0.00  0.00     0.024 H 
ATOM     81  H   LIG d   1       3.699  -3.005  -7.782  0.00  0.00     0.024 H 
ENDBRANCH   7  78
BRANCH  14  82
ATOM     82  O   LIG d   1       2.199   0.041  -5.267  0.00  0.00    -0.392 OA
ATOM     83  H   LIG d   1       2.016   0.973  -5.442  0.00  0.00     0.210 HD
ENDBRANCH  14  82
BRANCH  19  84
ATOM     84  C   LIG d   1       4.951  -3.563  -5.140  0.00  0.00    -0.059 C 
ATOM     85  H   LIG d   1       4.770  -3.825  -6.182  0.00  0.00     0.024 H 
ATOM     86  H   LIG d   1       5.507  -4.364  -4.655  0.00  0.00     0.024 H 
ATOM     87  H   LIG d   1       3.999  -3.420  -4.630  0.00  0.00     0.024 H 
ENDBRANCH  19  84
BRANCH  22  88
ATOM     88  O   LIG d   1       8.398   0.723  -3.655  0.00  0.00    -0.392 OA
ATOM     89  H   LIG d   1       8.336   1.191  -2.811  0.00  0.00     0.210 HD
ENDBRANCH  22  88
TORSDOF 12
ENDMDL
