MODEL 1
REMARK VINA RESULT:      -8.2      0.000      0.000
REMARK  4 active torsions:
REMARK  status: ('A' for Active; 'I' for Inactive)
REMARK    1  A    between atoms: C_1  and  C_2 
REMARK    2  A    between atoms: C_7  and  C_8 
REMARK    3  A    between atoms: N_27  and  C_30 
REMARK    4  A    between atoms: C_30  and  C_31 
ROOT
ATOM      1  C   LIG d   1       4.811  -1.610  -5.075  0.00  0.00     0.093 C 
ATOM      2  H   LIG d   1       4.017  -2.348  -4.962  0.00  0.00     0.062 H 
ATOM      3  C   LIG d   1       4.575  -0.790  -6.324  0.00  0.00     0.046 A 
ATOM      4  C   LIG d   1       5.322  -0.905  -7.443  0.00  0.00    -0.015 A 
ATOM      5  C   LIG d   1       4.789   0.036  -8.407  0.00  0.00     0.003 A 
ATOM      6  C   LIG d   1       5.150   0.353  -9.720  0.00  0.00    -0.052 A 
ATOM      7  C   LIG d   1       4.403   1.318 -10.352  0.00  0.00    -0.061 A 
ATOM      8  C   LIG d   1       3.341   1.951  -9.729  0.00  0.00    -0.060 A 
ATOM      9  C   LIG d   1       2.964   1.657  -8.430  0.00  0.00    -0.038 A 
ATOM     10  C   LIG d   1       3.703   0.682  -7.764  0.00  0.00     0.047 A 
ATOM     11  N   LIG d   1       3.605   0.159  -6.507  0.00  0.00    -0.356 N 
ATOM     12  H   LIG d   1       2.948   0.421  -5.843  0.00  0.00     0.166 HD
ATOM     13  C   LIG d   1       6.494  -1.838  -7.591  0.00  0.00     0.002 C 
ATOM     14  C   LIG d   1       6.401  -2.929  -6.515  0.00  0.00     0.107 A 
ATOM     15  H   LIG d   1       5.581  -3.601  -6.766  0.00  0.00     0.060 H 
ATOM     16  N   LIG d   1       6.113  -2.292  -5.230  0.00  0.00    -0.276 N 
ATOM     17  C   LIG d   1       6.964  -2.305  -4.203  0.00  0.00     0.234 A 
ATOM     18  O   LIG d   1       6.656  -1.686  -3.205  0.00  0.00    -0.274 OA
ATOM     19  C   LIG d   1       8.251  -3.062  -4.183  0.00  0.00     0.092 A 
ATOM     20  N   LIG d   1       8.494  -3.759  -5.434  0.00  0.00    -0.286 N 
ATOM     21  C   LIG d   1       7.674  -3.710  -6.482  0.00  0.00     0.237 A 
ATOM     22  O   LIG d   1       7.979  -4.342  -7.472  0.00  0.00    -0.274 OA
ATOM     23  H   LIG d   1       5.977  -0.135 -10.214  0.00  0.00     0.062 H 
ATOM     24  H   LIG d   1       4.652   1.590 -11.367  0.00  0.00     0.062 H 
ATOM     25  H   LIG d   1       2.788   2.701 -10.276  0.00  0.00     0.062 H 
ATOM     26  H   LIG d   1       2.133   2.160  -7.956  0.00  0.00     0.064 H 
ATOM     27  H   LIG d   1       7.427  -1.287  -7.475  0.00  0.00     0.034 H 
ATOM     28  H   LIG d   1       6.458  -2.295  -8.580  0.00  0.00     0.034 H 
ATOM     29  H   LIG d   1       8.249  -3.785  -3.368  0.00  0.00     0.056 H 
ATOM     30  H   LIG d   1       9.054  -2.344  -4.016  0.00  0.00     0.056 H 
ENDROOT
BRANCH   1  31
ATOM     31  C   LIG d   1       4.845  -0.708  -3.868  0.00  0.00    -0.018 A 
ATOM     32  C   LIG d   1       4.252  -1.112  -2.686  0.00  0.00    -0.045 A 
ATOM     33  C   LIG d   1       4.287  -0.286  -1.578  0.00  0.00    -0.059 A 
ATOM     34  C   LIG d   1       4.908   0.946  -1.654  0.00  0.00    -0.061 A 
ATOM     35  H   LIG d   1       3.827  -0.604  -0.654  0.00  0.00     0.062 H 
ATOM     36  C   LIG d   1       5.497   1.352  -2.837  0.00  0.00    -0.061 A 
ATOM     37  H   LIG d   1       4.932   1.593  -0.789  0.00  0.00     0.062 H 
ATOM     38  C   LIG d   1       5.465   0.526  -3.945  0.00  0.00    -0.056 A 
ATOM     39  H   LIG d   1       5.981   2.315  -2.896  0.00  0.00     0.062 H 
ATOM     40  H   LIG d   1       5.924   0.842  -4.869  0.00  0.00     0.062 H 
BRANCH  32  41
ATOM     41  C   LIG d   1       3.571  -2.454  -2.606  0.00  0.00    -0.039 C 
ATOM     42  H   LIG d   1       3.183  -2.724  -3.588  0.00  0.00     0.028 H 
ATOM     43  H   LIG d   1       4.288  -3.207  -2.278  0.00  0.00     0.028 H 
ATOM     44  H   LIG d   1       2.749  -2.402  -1.892  0.00  0.00     0.028 H 
ENDBRANCH  32  41
ENDBRANCH   1  31
BRANCH  20  45
ATOM     45  C   LIG d   1       9.711  -4.568  -5.547  0.00  0.00     0.046 C 
ATOM     46  H   LIG d   1      10.584  -3.916  -5.532  0.00  0.00     0.052 H 
ATOM     47  H   LIG d   1       9.690  -5.127  -6.483  0.00  0.00     0.052 H 
BRANCH  45  48
ATOM     48  C   LIG d   1       9.783  -5.531  -4.390  0.00  0.00     0.007 A 
ATOM     49  S   LIG d   1      10.895  -5.527  -2.992  0.00  0.00    -0.100 SA
ATOM     50  C   LIG d   1      10.268  -6.983  -2.169  0.00  0.00    -0.024 A 
ATOM     51  C   LIG d   1       9.271  -7.367  -3.001  0.00  0.00    -0.054 A 
ATOM     52  H   LIG d   1      10.600  -7.438  -1.247  0.00  0.00     0.069 H 
ATOM     53  C   LIG d   1       9.022  -6.623  -4.139  0.00  0.00    -0.050 A 
ATOM     54  H   LIG d   1       8.678  -8.242  -2.777  0.00  0.00     0.062 H 
ATOM     55  H   LIG d   1       8.231  -6.908  -4.818  0.00  0.00     0.063 H 
ENDBRANCH  45  48
ENDBRANCH  20  45
TORSDOF 4
ENDMDL
MODEL 2
REMARK VINA RESULT:      -8.0      2.683      7.071
REMARK  4 active torsions:
REMARK  status: ('A' for Active; 'I' for Inactive)
REMARK    1  A    between atoms: C_1  and  C_2 
REMARK    2  A    between atoms: C_7  and  C_8 
REMARK    3  A    between atoms: N_27  and  C_30 
REMARK    4  A    between atoms: C_30  and  C_31 
ROOT
ATOM      1  C   LIG d   1       6.863  -1.378  -4.780  0.00  0.00     0.093 C 
ATOM      2  H   LIG d   1       7.575  -0.631  -5.131  0.00  0.00     0.062 H 
ATOM      3  C   LIG d   1       7.602  -2.604  -4.295  0.00  0.00     0.046 A 
ATOM      4  C   LIG d   1       7.616  -3.779  -4.961  0.00  0.00    -0.015 A 
ATOM      5  C   LIG d   1       8.426  -4.696  -4.185  0.00  0.00     0.003 A 
ATOM      6  C   LIG d   1       8.793  -6.032  -4.378  0.00  0.00    -0.052 A 
ATOM      7  C   LIG d   1       9.593  -6.600  -3.418  0.00  0.00    -0.061 A 
ATOM      8  C   LIG d   1      10.025  -5.894  -2.307  0.00  0.00    -0.060 A 
ATOM      9  C   LIG d   1       9.675  -4.572  -2.091  0.00  0.00    -0.038 A 
ATOM     10  C   LIG d   1       8.864  -3.969  -3.050  0.00  0.00     0.047 A 
ATOM     11  N   LIG d   1       8.345  -2.710  -3.149  0.00  0.00    -0.356 N 
ATOM     12  H   LIG d   1       8.481  -1.998  -2.504  0.00  0.00     0.166 HD
ATOM     13  C   LIG d   1       6.886  -4.033  -6.251  0.00  0.00     0.002 C 
ATOM     14  C   LIG d   1       6.554  -2.686  -6.910  0.00  0.00     0.107 A 
ATOM     15  H   LIG d   1       7.475  -2.244  -7.288  0.00  0.00     0.060 H 
ATOM     16  N   LIG d   1       5.988  -1.799  -5.895  0.00  0.00    -0.276 N 
ATOM     17  C   LIG d   1       4.730  -1.355  -5.934  0.00  0.00     0.234 A 
ATOM     18  O   LIG d   1       4.339  -0.680  -5.005  0.00  0.00    -0.274 OA
ATOM     19  C   LIG d   1       3.785  -1.599  -7.064  0.00  0.00     0.092 A 
ATOM     20  N   LIG d   1       4.379  -2.415  -8.108  0.00  0.00    -0.286 N 
ATOM     21  C   LIG d   1       5.617  -2.904  -8.053  0.00  0.00     0.237 A 
ATOM     22  O   LIG d   1       6.009  -3.566  -8.991  0.00  0.00    -0.274 OA
ATOM     23  H   LIG d   1       8.461  -6.591  -5.241  0.00  0.00     0.062 H 
ATOM     24  H   LIG d   1       9.896  -7.630  -3.533  0.00  0.00     0.062 H 
ATOM     25  H   LIG d   1      10.655  -6.392  -1.585  0.00  0.00     0.062 H 
ATOM     26  H   LIG d   1      10.019  -4.033  -1.220  0.00  0.00     0.064 H 
ATOM     27  H   LIG d   1       5.965  -4.582  -6.058  0.00  0.00     0.034 H 
ATOM     28  H   LIG d   1       7.529  -4.615  -6.912  0.00  0.00     0.034 H 
ATOM     29  H   LIG d   1       3.461  -0.652  -7.494  0.00  0.00     0.056 H 
ATOM     30  H   LIG d   1       2.916  -2.119  -6.660  0.00  0.00     0.056 H 
ENDROOT
BRANCH   1  31
ATOM     31  C   LIG d   1       6.030  -0.805  -3.663  0.00  0.00    -0.018 A 
ATOM     32  C   LIG d   1       6.140   0.533  -3.335  0.00  0.00    -0.045 A 
ATOM     33  C   LIG d   1       5.373   1.060  -2.312  0.00  0.00    -0.059 A 
ATOM     34  C   LIG d   1       4.502   0.246  -1.613  0.00  0.00    -0.061 A 
ATOM     35  H   LIG d   1       5.457   2.106  -2.058  0.00  0.00     0.062 H 
ATOM     36  C   LIG d   1       4.395  -1.094  -1.937  0.00  0.00    -0.061 A 
ATOM     37  H   LIG d   1       3.906   0.657  -0.811  0.00  0.00     0.062 H 
ATOM     38  C   LIG d   1       5.159  -1.620  -2.962  0.00  0.00    -0.056 A 
ATOM     39  H   LIG d   1       3.715  -1.729  -1.390  0.00  0.00     0.062 H 
ATOM     40  H   LIG d   1       5.077  -2.666  -3.215  0.00  0.00     0.062 H 
BRANCH  32  41
ATOM     41  C   LIG d   1       7.094   1.419  -4.095  0.00  0.00    -0.039 C 
ATOM     42  H   LIG d   1       6.782   1.477  -5.137  0.00  0.00     0.028 H 
ATOM     43  H   LIG d   1       7.089   2.417  -3.657  0.00  0.00     0.028 H 
ATOM     44  H   LIG d   1       8.099   1.003  -4.039  0.00  0.00     0.028 H 
ENDBRANCH  32  41
ENDBRANCH   1  31
BRANCH  20  45
ATOM     45  C   LIG d   1       3.573  -2.712  -9.295  0.00  0.00     0.046 C 
ATOM     46  H   LIG d   1       2.518  -2.739  -9.020  0.00  0.00     0.052 H 
ATOM     47  H   LIG d   1       3.868  -3.679  -9.702  0.00  0.00     0.052 H 
BRANCH  45  48
ATOM     48  C   LIG d   1       3.793  -1.642 -10.333  0.00  0.00     0.007 A 
ATOM     49  S   LIG d   1       4.294  -1.816 -12.038  0.00  0.00    -0.100 SA
ATOM     50  C   LIG d   1       4.294  -0.085 -12.478  0.00  0.00    -0.024 A 
ATOM     51  C   LIG d   1       3.918   0.499 -11.315  0.00  0.00    -0.054 A 
ATOM     52  H   LIG d   1       4.532   0.375 -13.425  0.00  0.00     0.069 H 
ATOM     53  C   LIG d   1       3.661  -0.299 -10.215  0.00  0.00    -0.050 A 
ATOM     54  H   LIG d   1       3.820   1.573 -11.248  0.00  0.00     0.062 H 
ATOM     55  H   LIG d   1       3.359   0.142  -9.276  0.00  0.00     0.063 H 
ENDBRANCH  45  48
ENDBRANCH  20  45
TORSDOF 4
ENDMDL
MODEL 3
REMARK VINA RESULT:      -8.0      1.096      1.189
REMARK  4 active torsions:
REMARK  status: ('A' for Active; 'I' for Inactive)
REMARK    1  A    between atoms: C_1  and  C_2 
REMARK    2  A    between atoms: C_7  and  C_8 
REMARK    3  A    between atoms: N_27  and  C_30 
REMARK    4  A    between atoms: C_30  and  C_31 
ROOT
ATOM      1  C   LIG d   1       4.910  -2.243  -4.791  0.00  0.00     0.093 C 
ATOM      2  H   LIG d   1       4.188  -2.988  -4.454  0.00  0.00     0.062 H 
ATOM      3  C   LIG d   1       4.519  -1.731  -6.158  0.00  0.00     0.046 A 
ATOM      4  C   LIG d   1       5.189  -2.039  -7.290  0.00  0.00    -0.015 A 
ATOM      5  C   LIG d   1       4.512  -1.367  -8.380  0.00  0.00     0.003 A 
ATOM      6  C   LIG d   1       4.749  -1.320  -9.757  0.00  0.00    -0.052 A 
ATOM      7  C   LIG d   1       3.884  -0.565 -10.510  0.00  0.00    -0.061 A 
ATOM      8  C   LIG d   1       2.822   0.121  -9.944  0.00  0.00    -0.060 A 
ATOM      9  C   LIG d   1       2.566   0.094  -8.584  0.00  0.00    -0.038 A 
ATOM     10  C   LIG d   1       3.428  -0.665  -7.795  0.00  0.00     0.047 A 
ATOM     11  N   LIG d   1       3.465  -0.907  -6.452  0.00  0.00    -0.356 N 
ATOM     12  H   LIG d   1       2.839  -0.549  -5.803  0.00  0.00     0.166 HD
ATOM     13  C   LIG d   1       6.417  -2.907  -7.341  0.00  0.00     0.002 C 
ATOM     14  C   LIG d   1       6.491  -3.741  -6.054  0.00  0.00     0.107 A 
ATOM     15  H   LIG d   1       5.712  -4.502  -6.083  0.00  0.00     0.060 H 
ATOM     16  N   LIG d   1       6.248  -2.860  -4.913  0.00  0.00    -0.276 N 
ATOM     17  C   LIG d   1       7.170  -2.595  -3.985  0.00  0.00     0.234 A 
ATOM     18  O   LIG d   1       6.887  -1.795  -3.118  0.00  0.00    -0.274 OA
ATOM     19  C   LIG d   1       8.511  -3.248  -3.920  0.00  0.00     0.092 A 
ATOM     20  N   LIG d   1       8.718  -4.184  -5.012  0.00  0.00    -0.286 N 
ATOM     21  C   LIG d   1       7.822  -4.416  -5.969  0.00  0.00     0.237 A 
ATOM     22  O   LIG d   1       8.103  -5.227  -6.826  0.00  0.00    -0.274 OA
ATOM     23  H   LIG d   1       5.575  -1.851 -10.208  0.00  0.00     0.062 H 
ATOM     24  H   LIG d   1       4.035  -0.505 -11.578  0.00  0.00     0.062 H 
ATOM     25  H   LIG d   1       2.172   0.698 -10.586  0.00  0.00     0.062 H 
ATOM     26  H   LIG d   1       1.734   0.634  -8.155  0.00  0.00     0.064 H 
ATOM     27  H   LIG d   1       7.309  -2.287  -7.426  0.00  0.00     0.034 H 
ATOM     28  H   LIG d   1       6.346  -3.570  -8.203  0.00  0.00     0.034 H 
ATOM     29  H   LIG d   1       8.627  -3.776  -2.974  0.00  0.00     0.056 H 
ATOM     30  H   LIG d   1       9.264  -2.462  -3.980  0.00  0.00     0.056 H 
ENDROOT
BRANCH   1  31
ATOM     31  C   LIG d   1       4.960  -1.100  -3.810  0.00  0.00    -0.018 A 
ATOM     32  C   LIG d   1       4.323  -1.210  -2.588  0.00  0.00    -0.045 A 
ATOM     33  C   LIG d   1       4.372  -0.163  -1.687  0.00  0.00    -0.059 A 
ATOM     34  C   LIG d   1       5.051   0.996  -2.010  0.00  0.00    -0.061 A 
ATOM     35  H   LIG d   1       3.877  -0.249  -0.730  0.00  0.00     0.062 H 
ATOM     36  C   LIG d   1       5.685   1.108  -3.235  0.00  0.00    -0.061 A 
ATOM     37  H   LIG d   1       5.087   1.816  -1.307  0.00  0.00     0.062 H 
ATOM     38  C   LIG d   1       5.639   0.060  -4.135  0.00  0.00    -0.056 A 
ATOM     39  H   LIG d   1       6.215   2.014  -3.487  0.00  0.00     0.062 H 
ATOM     40  H   LIG d   1       6.132   0.147  -5.091  0.00  0.00     0.062 H 
BRANCH  32  41
ATOM     41  C   LIG d   1       3.578  -2.472  -2.237  0.00  0.00    -0.039 C 
ATOM     42  H   LIG d   1       3.436  -2.522  -1.158  0.00  0.00     0.028 H 
ATOM     43  H   LIG d   1       2.607  -2.471  -2.732  0.00  0.00     0.028 H 
ATOM     44  H   LIG d   1       4.153  -3.337  -2.568  0.00  0.00     0.028 H 
ENDBRANCH  32  41
ENDBRANCH   1  31
BRANCH  20  45
ATOM     45  C   LIG d   1       9.984  -4.921  -5.058  0.00  0.00     0.046 C 
ATOM     46  H   LIG d   1      10.815  -4.220  -4.975  0.00  0.00     0.052 H 
ATOM     47  H   LIG d   1      10.056  -5.460  -6.003  0.00  0.00     0.052 H 
BRANCH  45  48
ATOM     48  C   LIG d   1      10.037  -5.901  -3.916  0.00  0.00     0.007 A 
ATOM     49  S   LIG d   1       9.277  -7.512  -3.779  0.00  0.00    -0.100 SA
ATOM     50  C   LIG d   1       9.862  -7.928  -2.144  0.00  0.00    -0.024 A 
ATOM     51  C   LIG d   1      10.585  -6.829  -1.817  0.00  0.00    -0.054 A 
ATOM     52  H   LIG d   1       9.685  -8.823  -1.566  0.00  0.00     0.069 H 
ATOM     53  C   LIG d   1      10.675  -5.790  -2.725  0.00  0.00    -0.050 A 
ATOM     54  H   LIG d   1      11.084  -6.766  -0.861  0.00  0.00     0.062 H 
ATOM     55  H   LIG d   1      11.246  -4.904  -2.489  0.00  0.00     0.063 H 
ENDBRANCH  45  48
ENDBRANCH  20  45
TORSDOF 4
ENDMDL
MODEL 4
REMARK VINA RESULT:      -7.9      3.828      5.660
REMARK  4 active torsions:
REMARK  status: ('A' for Active; 'I' for Inactive)
REMARK    1  A    between atoms: C_1  and  C_2 
REMARK    2  A    between atoms: C_7  and  C_8 
REMARK    3  A    between atoms: N_27  and  C_30 
REMARK    4  A    between atoms: C_30  and  C_31 
ROOT
ATOM      1  C   LIG d   1       6.354  -0.716  -5.625  0.00  0.00     0.093 C 
ATOM      2  H   LIG d   1       6.813  -1.698  -5.733  0.00  0.00     0.062 H 
ATOM      3  C   LIG d   1       5.580  -0.370  -6.877  0.00  0.00     0.046 A 
ATOM      4  C   LIG d   1       5.982   0.561  -7.769  0.00  0.00    -0.015 A 
ATOM      5  C   LIG d   1       4.986   0.599  -8.821  0.00  0.00     0.003 A 
ATOM      6  C   LIG d   1       4.872   1.356  -9.991  0.00  0.00    -0.052 A 
ATOM      7  C   LIG d   1       3.770   1.122 -10.776  0.00  0.00    -0.061 A 
ATOM      8  C   LIG d   1       2.811   0.182 -10.436  0.00  0.00    -0.060 A 
ATOM      9  C   LIG d   1       2.898  -0.578  -9.283  0.00  0.00    -0.038 A 
ATOM     10  C   LIG d   1       4.006  -0.363  -8.467  0.00  0.00     0.047 A 
ATOM     11  N   LIG d   1       4.397  -0.926  -7.287  0.00  0.00    -0.356 N 
ATOM     12  H   LIG d   1       3.911  -1.617  -6.809  0.00  0.00     0.166 HD
ATOM     13  C   LIG d   1       7.229   1.391  -7.628  0.00  0.00     0.002 C 
ATOM     14  C   LIG d   1       8.174   0.704  -6.631  0.00  0.00     0.107 A 
ATOM     15  H   LIG d   1       8.585  -0.192  -7.097  0.00  0.00     0.060 H 
ATOM     16  N   LIG d   1       7.402   0.312  -5.453  0.00  0.00    -0.276 N 
ATOM     17  C   LIG d   1       7.605   0.833  -4.241  0.00  0.00     0.234 A 
ATOM     18  O   LIG d   1       6.863   0.489  -3.345  0.00  0.00    -0.274 OA
ATOM     19  C   LIG d   1       8.710   1.780  -3.905  0.00  0.00     0.092 A 
ATOM     20  N   LIG d   1       9.524   2.104  -5.064  0.00  0.00    -0.286 N 
ATOM     21  C   LIG d   1       9.297   1.627  -6.286  0.00  0.00     0.237 A 
ATOM     22  O   LIG d   1      10.050   1.963  -7.176  0.00  0.00    -0.274 OA
ATOM     23  H   LIG d   1       5.616   2.090 -10.264  0.00  0.00     0.062 H 
ATOM     24  H   LIG d   1       3.648   1.687 -11.688  0.00  0.00     0.062 H 
ATOM     25  H   LIG d   1       1.965   0.039 -11.093  0.00  0.00     0.062 H 
ATOM     26  H   LIG d   1       2.142  -1.308  -9.030  0.00  0.00     0.064 H 
ATOM     27  H   LIG d   1       6.977   2.387  -7.265  0.00  0.00     0.034 H 
ATOM     28  H   LIG d   1       7.715   1.465  -8.600  0.00  0.00     0.034 H 
ATOM     29  H   LIG d   1       9.348   1.354  -3.131  0.00  0.00     0.056 H 
ATOM     30  H   LIG d   1       8.255   2.695  -3.524  0.00  0.00     0.056 H 
ENDROOT
BRANCH   1  31
ATOM     31  C   LIG d   1       5.431  -0.711  -4.434  0.00  0.00    -0.018 A 
ATOM     32  C   LIG d   1       5.494  -1.735  -3.507  0.00  0.00    -0.045 A 
ATOM     33  C   LIG d   1       4.649  -1.729  -2.412  0.00  0.00    -0.059 A 
ATOM     34  C   LIG d   1       3.738  -0.704  -2.248  0.00  0.00    -0.061 A 
ATOM     35  H   LIG d   1       4.701  -2.527  -1.686  0.00  0.00     0.062 H 
ATOM     36  C   LIG d   1       3.671   0.318  -3.178  0.00  0.00    -0.061 A 
ATOM     37  H   LIG d   1       3.075  -0.701  -1.395  0.00  0.00     0.062 H 
ATOM     38  C   LIG d   1       4.517   0.314  -4.271  0.00  0.00    -0.056 A 
ATOM     39  H   LIG d   1       2.959   1.119  -3.050  0.00  0.00     0.062 H 
ATOM     40  H   LIG d   1       4.465   1.111  -4.998  0.00  0.00     0.062 H 
BRANCH  32  41
ATOM     41  C   LIG d   1       6.485  -2.856  -3.688  0.00  0.00    -0.039 C 
ATOM     42  H   LIG d   1       7.270  -2.538  -4.374  0.00  0.00     0.028 H 
ATOM     43  H   LIG d   1       6.925  -3.111  -2.724  0.00  0.00     0.028 H 
ATOM     44  H   LIG d   1       5.976  -3.728  -4.097  0.00  0.00     0.028 H 
ENDBRANCH  32  41
ENDBRANCH   1  31
BRANCH  20  45
ATOM     45  C   LIG d   1      10.665   3.004  -4.875  0.00  0.00     0.046 C 
ATOM     46  H   LIG d   1      11.176   3.147  -5.827  0.00  0.00     0.052 H 
ATOM     47  H   LIG d   1      11.356   2.568  -4.153  0.00  0.00     0.052 H 
BRANCH  45  48
ATOM     48  C   LIG d   1      10.177   4.334  -4.363  0.00  0.00     0.007 A 
ATOM     49  S   LIG d   1      10.315   5.027  -2.722  0.00  0.00    -0.100 SA
ATOM     50  C   LIG d   1       9.487   6.578  -3.034  0.00  0.00    -0.024 A 
ATOM     51  C   LIG d   1       9.166   6.465  -4.345  0.00  0.00    -0.054 A 
ATOM     52  H   LIG d   1       9.293   7.394  -2.353  0.00  0.00     0.069 H 
ATOM     53  C   LIG d   1       9.519   5.315  -5.027  0.00  0.00    -0.050 A 
ATOM     54  H   LIG d   1       8.641   7.263  -4.852  0.00  0.00     0.062 H 
ATOM     55  H   LIG d   1       9.275   5.201  -6.073  0.00  0.00     0.063 H 
ENDBRANCH  45  48
ENDBRANCH  20  45
TORSDOF 4
ENDMDL
MODEL 5
REMARK VINA RESULT:      -7.7      2.231      2.453
REMARK  4 active torsions:
REMARK  status: ('A' for Active; 'I' for Inactive)
REMARK    1  A    between atoms: C_1  and  C_2 
REMARK    2  A    between atoms: C_7  and  C_8 
REMARK    3  A    between atoms: N_27  and  C_30 
REMARK    4  A    between atoms: C_30  and  C_31 
ROOT
ATOM      1  C   LIG d   1       4.109  -1.546  -5.590  0.00  0.00     0.093 C 
ATOM      2  H   LIG d   1       3.114  -1.836  -5.253  0.00  0.00     0.062 H 
ATOM      3  C   LIG d   1       4.003  -0.710  -6.846  0.00  0.00     0.046 A 
ATOM      4  C   LIG d   1       4.356  -1.156  -8.071  0.00  0.00    -0.015 A 
ATOM      5  C   LIG d   1       4.107  -0.076  -9.003  0.00  0.00     0.003 A 
ATOM      6  C   LIG d   1       4.277   0.040 -10.386  0.00  0.00    -0.052 A 
ATOM      7  C   LIG d   1       3.927   1.240 -10.956  0.00  0.00    -0.061 A 
ATOM      8  C   LIG d   1       3.426   2.292 -10.207  0.00  0.00    -0.060 A 
ATOM      9  C   LIG d   1       3.249   2.204  -8.837  0.00  0.00    -0.038 A 
ATOM     10  C   LIG d   1       3.596   0.998  -8.231  0.00  0.00     0.047 A 
ATOM     11  N   LIG d   1       3.549   0.580  -6.933  0.00  0.00    -0.356 N 
ATOM     12  H   LIG d   1       3.241   1.114  -6.184  0.00  0.00     0.166 HD
ATOM     13  C   LIG d   1       4.919  -2.523  -8.348  0.00  0.00     0.002 C 
ATOM     14  C   LIG d   1       4.582  -3.449  -7.170  0.00  0.00     0.107 A 
ATOM     15  H   LIG d   1       3.515  -3.668  -7.190  0.00  0.00     0.060 H 
ATOM     16  N   LIG d   1       4.898  -2.751  -5.924  0.00  0.00    -0.276 N 
ATOM     17  C   LIG d   1       5.852  -3.154  -5.084  0.00  0.00     0.234 A 
ATOM     18  O   LIG d   1       6.080  -2.463  -4.112  0.00  0.00    -0.274 OA
ATOM     19  C   LIG d   1       6.631  -4.418  -5.236  0.00  0.00     0.092 A 
ATOM     20  N   LIG d   1       6.258  -5.150  -6.435  0.00  0.00    -0.286 N 
ATOM     21  C   LIG d   1       5.341  -4.729  -7.305  0.00  0.00     0.237 A 
ATOM     22  O   LIG d   1       5.107  -5.430  -8.267  0.00  0.00    -0.274 OA
ATOM     23  H   LIG d   1       4.667  -0.775 -10.979  0.00  0.00     0.062 H 
ATOM     24  H   LIG d   1       4.044   1.366 -12.022  0.00  0.00     0.062 H 
ATOM     25  H   LIG d   1       3.165   3.212 -10.709  0.00  0.00     0.062 H 
ATOM     26  H   LIG d   1       2.857   3.033  -8.264  0.00  0.00     0.064 H 
ATOM     27  H   LIG d   1       6.001  -2.464  -8.469  0.00  0.00     0.034 H 
ATOM     28  H   LIG d   1       4.468  -2.913  -9.260  0.00  0.00     0.034 H 
ATOM     29  H   LIG d   1       6.482  -5.060  -4.368  0.00  0.00     0.056 H 
ATOM     30  H   LIG d   1       7.687  -4.150  -5.300  0.00  0.00     0.056 H 
ENDROOT
BRANCH   1  31
ATOM     31  C   LIG d   1       4.807  -0.761  -4.509  0.00  0.00    -0.018 A 
ATOM     32  C   LIG d   1       4.248  -0.675  -3.247  0.00  0.00    -0.045 A 
ATOM     33  C   LIG d   1       4.889   0.042  -2.255  0.00  0.00    -0.059 A 
ATOM     34  C   LIG d   1       6.085   0.679  -2.525  0.00  0.00    -0.061 A 
ATOM     35  H   LIG d   1       4.454   0.106  -1.268  0.00  0.00     0.062 H 
ATOM     36  C   LIG d   1       6.642   0.598  -3.788  0.00  0.00    -0.061 A 
ATOM     37  H   LIG d   1       6.584   1.242  -1.750  0.00  0.00     0.062 H 
ATOM     38  C   LIG d   1       6.003  -0.122  -4.780  0.00  0.00    -0.056 A 
ATOM     39  H   LIG d   1       7.576   1.096  -4.000  0.00  0.00     0.062 H 
ATOM     40  H   LIG d   1       6.436  -0.185  -5.767  0.00  0.00     0.062 H 
BRANCH  32  41
ATOM     41  C   LIG d   1       2.941  -1.366  -2.954  0.00  0.00    -0.039 C 
ATOM     42  H   LIG d   1       2.178  -1.007  -3.644  0.00  0.00     0.028 H 
ATOM     43  H   LIG d   1       3.064  -2.443  -3.075  0.00  0.00     0.028 H 
ATOM     44  H   LIG d   1       2.637  -1.149  -1.930  0.00  0.00     0.028 H 
ENDBRANCH  32  41
ENDBRANCH   1  31
BRANCH  20  45
ATOM     45  C   LIG d   1       6.923  -6.428  -6.698  0.00  0.00     0.046 C 
ATOM     46  H   LIG d   1       7.992  -6.327  -6.507  0.00  0.00     0.052 H 
ATOM     47  H   LIG d   1       6.765  -6.713  -7.739  0.00  0.00     0.052 H 
BRANCH  45  48
ATOM     48  C   LIG d   1       6.350  -7.489  -5.795  0.00  0.00     0.007 A 
ATOM     49  S   LIG d   1       7.181  -8.503  -4.582  0.00  0.00    -0.100 SA
ATOM     50  C   LIG d   1       5.764  -9.434  -4.020  0.00  0.00    -0.024 A 
ATOM     51  C   LIG d   1       4.770  -8.918  -4.782  0.00  0.00    -0.054 A 
ATOM     52  H   LIG d   1       5.714 -10.207  -3.268  0.00  0.00     0.069 H 
ATOM     53  C   LIG d   1       5.070  -7.921  -5.692  0.00  0.00    -0.050 A 
ATOM     54  H   LIG d   1       3.757  -9.280  -4.679  0.00  0.00     0.062 H 
ATOM     55  H   LIG d   1       4.295  -7.492  -6.310  0.00  0.00     0.063 H 
ENDBRANCH  45  48
ENDBRANCH  20  45
TORSDOF 4
ENDMDL
MODEL 6
REMARK VINA RESULT:      -7.2      3.719      4.849
REMARK  4 active torsions:
REMARK  status: ('A' for Active; 'I' for Inactive)
REMARK    1  A    between atoms: C_1  and  C_2 
REMARK    2  A    between atoms: C_7  and  C_8 
REMARK    3  A    between atoms: N_27  and  C_30 
REMARK    4  A    between atoms: C_30  and  C_31 
ROOT
ATOM      1  C   LIG d   1       6.206  -0.833  -5.937  0.00  0.00     0.093 C 
ATOM      2  H   LIG d   1       6.807  -1.733  -6.066  0.00  0.00     0.062 H 
ATOM      3  C   LIG d   1       5.452  -0.532  -7.212  0.00  0.00     0.046 A 
ATOM      4  C   LIG d   1       5.758   0.495  -8.034  0.00  0.00    -0.015 A 
ATOM      5  C   LIG d   1       4.819   0.449  -9.137  0.00  0.00     0.003 A 
ATOM      6  C   LIG d   1       4.654   1.246 -10.274  0.00  0.00    -0.052 A 
ATOM      7  C   LIG d   1       3.636   0.902 -11.130  0.00  0.00    -0.061 A 
ATOM      8  C   LIG d   1       2.807  -0.181 -10.889  0.00  0.00    -0.060 A 
ATOM      9  C   LIG d   1       2.947  -0.984  -9.770  0.00  0.00    -0.038 A 
ATOM     10  C   LIG d   1       3.973  -0.660  -8.885  0.00  0.00     0.047 A 
ATOM     11  N   LIG d   1       4.383  -1.226  -7.713  0.00  0.00    -0.356 N 
ATOM     12  H   LIG d   1       3.979  -2.004  -7.297  0.00  0.00     0.166 HD
ATOM     13  C   LIG d   1       6.864   1.484  -7.785  0.00  0.00     0.002 C 
ATOM     14  C   LIG d   1       7.849   0.883  -6.771  0.00  0.00     0.107 A 
ATOM     15  H   LIG d   1       8.406   0.082  -7.255  0.00  0.00     0.060 H 
ATOM     16  N   LIG d   1       7.086   0.322  -5.657  0.00  0.00    -0.276 N 
ATOM     17  C   LIG d   1       7.153   0.798  -4.413  0.00  0.00     0.234 A 
ATOM     18  O   LIG d   1       6.425   0.304  -3.577  0.00  0.00    -0.274 OA
ATOM     19  C   LIG d   1       8.091   1.872  -3.971  0.00  0.00     0.092 A 
ATOM     20  N   LIG d   1       8.905   2.372  -5.065  0.00  0.00    -0.286 N 
ATOM     21  C   LIG d   1       8.809   1.936  -6.320  0.00  0.00     0.237 A 
ATOM     22  O   LIG d   1       9.548   2.424  -7.149  0.00  0.00    -0.274 OA
ATOM     23  H   LIG d   1       5.296   2.092 -10.470  0.00  0.00     0.062 H 
ATOM     24  H   LIG d   1       3.478   1.494 -12.019  0.00  0.00     0.062 H 
ATOM     25  H   LIG d   1       2.023  -0.406 -11.598  0.00  0.00     0.062 H 
ATOM     26  H   LIG d   1       2.293  -1.827  -9.595  0.00  0.00     0.064 H 
ATOM     27  H   LIG d   1       6.453   2.413  -7.390  0.00  0.00     0.034 H 
ATOM     28  H   LIG d   1       7.380   1.680  -8.724  0.00  0.00     0.034 H 
ATOM     29  H   LIG d   1       8.746   1.499  -3.184  0.00  0.00     0.056 H 
ATOM     30  H   LIG d   1       7.492   2.691  -3.572  0.00  0.00     0.056 H 
ENDROOT
BRANCH   1  31
ATOM     31  C   LIG d   1       5.236  -1.025  -4.800  0.00  0.00    -0.018 A 
ATOM     32  C   LIG d   1       5.374  -2.106  -3.948  0.00  0.00    -0.045 A 
ATOM     33  C   LIG d   1       4.486  -2.280  -2.903  0.00  0.00    -0.059 A 
ATOM     34  C   LIG d   1       3.456  -1.378  -2.714  0.00  0.00    -0.061 A 
ATOM     35  H   LIG d   1       4.596  -3.122  -2.236  0.00  0.00     0.062 H 
ATOM     36  C   LIG d   1       3.314  -0.300  -3.569  0.00  0.00    -0.061 A 
ATOM     37  H   LIG d   1       2.760  -1.516  -1.900  0.00  0.00     0.062 H 
ATOM     38  C   LIG d   1       4.204  -0.124  -4.612  0.00  0.00    -0.056 A 
ATOM     39  H   LIG d   1       2.510   0.404  -3.421  0.00  0.00     0.062 H 
ATOM     40  H   LIG d   1       4.094   0.717  -5.279  0.00  0.00     0.062 H 
BRANCH  32  41
ATOM     41  C   LIG d   1       6.495  -3.091  -4.158  0.00  0.00    -0.039 C 
ATOM     42  H   LIG d   1       6.081  -4.052  -4.464  0.00  0.00     0.028 H 
ATOM     43  H   LIG d   1       7.165  -2.720  -4.933  0.00  0.00     0.028 H 
ATOM     44  H   LIG d   1       7.049  -3.214  -3.228  0.00  0.00     0.028 H 
ENDBRANCH  32  41
ENDBRANCH   1  31
BRANCH  20  45
ATOM     45  C   LIG d   1       9.894   3.412  -4.771  0.00  0.00     0.046 C 
ATOM     46  H   LIG d   1       9.596   3.953  -3.872  0.00  0.00     0.052 H 
ATOM     47  H   LIG d   1       9.953   4.106  -5.609  0.00  0.00     0.052 H 
BRANCH  45  48
ATOM     48  C   LIG d   1      11.242   2.776  -4.550  0.00  0.00     0.007 A 
ATOM     49  S   LIG d   1      12.779   3.070  -5.411  0.00  0.00    -0.100 SA
ATOM     50  C   LIG d   1      13.798   1.916  -4.507  0.00  0.00    -0.024 A 
ATOM     51  C   LIG d   1      12.914   1.393  -3.624  0.00  0.00    -0.054 A 
ATOM     52  H   LIG d   1      14.848   1.693  -4.632  0.00  0.00     0.069 H 
ATOM     53  C   LIG d   1      11.603   1.833  -3.646  0.00  0.00    -0.050 A 
ATOM     54  H   LIG d   1      13.227   0.642  -2.914  0.00  0.00     0.062 H 
ATOM     55  H   LIG d   1      10.878   1.433  -2.952  0.00  0.00     0.063 H 
ENDBRANCH  45  48
ENDBRANCH  20  45
TORSDOF 4
ENDMDL
MODEL 7
REMARK VINA RESULT:      -7.2      3.548      5.810
REMARK  4 active torsions:
REMARK  status: ('A' for Active; 'I' for Inactive)
REMARK    1  A    between atoms: C_1  and  C_2 
REMARK    2  A    between atoms: C_7  and  C_8 
REMARK    3  A    between atoms: N_27  and  C_30 
REMARK    4  A    between atoms: C_30  and  C_31 
ROOT
ATOM      1  C   LIG d   1       5.892  -1.993  -4.072  0.00  0.00     0.093 C 
ATOM      2  H   LIG d   1       5.998  -2.287  -3.028  0.00  0.00     0.062 H 
ATOM      3  C   LIG d   1       5.828  -3.223  -4.948  0.00  0.00     0.046 A 
ATOM      4  C   LIG d   1       6.831  -3.609  -5.766  0.00  0.00    -0.015 A 
ATOM      5  C   LIG d   1       6.396  -4.822  -6.428  0.00  0.00     0.003 A 
ATOM      6  C   LIG d   1       7.006  -5.660  -7.367  0.00  0.00    -0.052 A 
ATOM      7  C   LIG d   1       6.285  -6.752  -7.785  0.00  0.00    -0.061 A 
ATOM      8  C   LIG d   1       5.014  -7.022  -7.304  0.00  0.00    -0.060 A 
ATOM      9  C   LIG d   1       4.387  -6.208  -6.376  0.00  0.00    -0.038 A 
ATOM     10  C   LIG d   1       5.095  -5.093  -5.934  0.00  0.00     0.047 A 
ATOM     11  N   LIG d   1       4.784  -4.105  -5.044  0.00  0.00    -0.356 N 
ATOM     12  H   LIG d   1       3.950  -4.038  -4.554  0.00  0.00     0.166 HD
ATOM     13  C   LIG d   1       8.126  -2.861  -5.934  0.00  0.00     0.002 C 
ATOM     14  C   LIG d   1       8.321  -1.926  -4.732  0.00  0.00     0.107 A 
ATOM     15  H   LIG d   1       8.553  -2.527  -3.854  0.00  0.00     0.060 H 
ATOM     16  N   LIG d   1       7.070  -1.207  -4.495  0.00  0.00    -0.276 N 
ATOM     17  C   LIG d   1       6.950   0.114  -4.637  0.00  0.00     0.234 A 
ATOM     18  O   LIG d   1       5.850   0.603  -4.483  0.00  0.00    -0.274 OA
ATOM     19  C   LIG d   1       8.086   1.037  -4.933  0.00  0.00     0.092 A 
ATOM     20  N   LIG d   1       9.343   0.325  -5.089  0.00  0.00    -0.286 N 
ATOM     21  C   LIG d   1       9.461  -0.998  -4.998  0.00  0.00     0.237 A 
ATOM     22  O   LIG d   1      10.565  -1.481  -5.139  0.00  0.00    -0.274 OA
ATOM     23  H   LIG d   1       7.996  -5.457  -7.747  0.00  0.00     0.062 H 
ATOM     24  H   LIG d   1       6.723  -7.421  -8.509  0.00  0.00     0.062 H 
ATOM     25  H   LIG d   1       4.494  -7.896  -7.667  0.00  0.00     0.062 H 
ATOM     26  H   LIG d   1       3.395  -6.431  -6.010  0.00  0.00     0.064 H 
ATOM     27  H   LIG d   1       8.103  -2.276  -6.853  0.00  0.00     0.034 H 
ATOM     28  H   LIG d   1       8.945  -3.579  -5.976  0.00  0.00     0.034 H 
ATOM     29  H   LIG d   1       8.191   1.772  -4.136  0.00  0.00     0.056 H 
ATOM     30  H   LIG d   1       7.855   1.557  -5.864  0.00  0.00     0.056 H 
ENDROOT
BRANCH   1  31
ATOM     31  C   LIG d   1       4.639  -1.173  -4.247  0.00  0.00    -0.018 A 
ATOM     32  C   LIG d   1       3.925  -0.756  -3.139  0.00  0.00    -0.045 A 
ATOM     33  C   LIG d   1       2.779  -0.001  -3.299  0.00  0.00    -0.059 A 
ATOM     34  C   LIG d   1       2.341   0.330  -4.567  0.00  0.00    -0.061 A 
ATOM     35  H   LIG d   1       2.223   0.328  -2.433  0.00  0.00     0.062 H 
ATOM     36  C   LIG d   1       3.052  -0.091  -5.677  0.00  0.00    -0.061 A 
ATOM     37  H   LIG d   1       1.443   0.917  -4.693  0.00  0.00     0.062 H 
ATOM     38  C   LIG d   1       4.201  -0.843  -5.517  0.00  0.00    -0.056 A 
ATOM     39  H   LIG d   1       2.710   0.168  -6.667  0.00  0.00     0.062 H 
ATOM     40  H   LIG d   1       4.756  -1.173  -6.381  0.00  0.00     0.062 H 
BRANCH  32  41
ATOM     41  C   LIG d   1       4.400  -1.122  -1.756  0.00  0.00    -0.039 C 
ATOM     42  H   LIG d   1       5.349  -1.653  -1.827  0.00  0.00     0.028 H 
ATOM     43  H   LIG d   1       4.533  -0.215  -1.166  0.00  0.00     0.028 H 
ATOM     44  H   LIG d   1       3.661  -1.762  -1.275  0.00  0.00     0.028 H 
ENDBRANCH  32  41
ENDBRANCH   1  31
BRANCH  20  45
ATOM     45  C   LIG d   1      10.551   1.109  -5.356  0.00  0.00     0.046 C 
ATOM     46  H   LIG d   1      10.570   1.402  -6.406  0.00  0.00     0.052 H 
ATOM     47  H   LIG d   1      11.432   0.509  -5.129  0.00  0.00     0.052 H 
BRANCH  45  48
ATOM     48  C   LIG d   1      10.550   2.344  -4.491  0.00  0.00     0.007 A 
ATOM     49  S   LIG d   1      10.262   4.044  -4.958  0.00  0.00    -0.100 SA
ATOM     50  C   LIG d   1      10.450   4.783  -3.344  0.00  0.00    -0.024 A 
ATOM     51  C   LIG d   1      10.715   3.703  -2.570  0.00  0.00    -0.054 A 
ATOM     52  H   LIG d   1      10.372   5.822  -3.059  0.00  0.00     0.069 H 
ATOM     53  C   LIG d   1      10.767   2.453  -3.158  0.00  0.00    -0.050 A 
ATOM     54  H   LIG d   1      10.884   3.817  -1.509  0.00  0.00     0.062 H 
ATOM     55  H   LIG d   1      10.976   1.575  -2.563  0.00  0.00     0.063 H 
ENDBRANCH  45  48
ENDBRANCH  20  45
TORSDOF 4
ENDMDL
MODEL 8
REMARK VINA RESULT:      -7.1      3.870      6.392
REMARK  4 active torsions:
REMARK  status: ('A' for Active; 'I' for Inactive)
REMARK    1  A    between atoms: C_1  and  C_2 
REMARK    2  A    between atoms: C_7  and  C_8 
REMARK    3  A    between atoms: N_27  and  C_30 
REMARK    4  A    between atoms: C_30  and  C_31 
ROOT
ATOM      1  C   LIG d   1       8.384  -2.920  -4.943  0.00  0.00     0.093 C 
ATOM      2  H   LIG d   1       7.934  -3.325  -5.849  0.00  0.00     0.062 H 
ATOM      3  C   LIG d   1       7.381  -2.055  -4.214  0.00  0.00     0.046 A 
ATOM      4  C   LIG d   1       7.461  -0.708  -4.155  0.00  0.00    -0.015 A 
ATOM      5  C   LIG d   1       6.328  -0.249  -3.378  0.00  0.00     0.003 A 
ATOM      6  C   LIG d   1       5.897   1.024  -2.994  0.00  0.00    -0.052 A 
ATOM      7  C   LIG d   1       4.749   1.089  -2.242  0.00  0.00    -0.061 A 
ATOM      8  C   LIG d   1       4.043  -0.046  -1.877  0.00  0.00    -0.060 A 
ATOM      9  C   LIG d   1       4.450  -1.318  -2.242  0.00  0.00    -0.038 A 
ATOM     10  C   LIG d   1       5.611  -1.414  -3.006  0.00  0.00     0.047 A 
ATOM     11  N   LIG d   1       6.277  -2.486  -3.527  0.00  0.00    -0.356 N 
ATOM     12  H   LIG d   1       6.010  -3.413  -3.425  0.00  0.00     0.166 HD
ATOM     13  C   LIG d   1       8.562   0.106  -4.780  0.00  0.00     0.002 C 
ATOM     14  C   LIG d   1       9.261  -0.742  -5.853  0.00  0.00     0.107 A 
ATOM     15  H   LIG d   1       8.590  -0.854  -6.704  0.00  0.00     0.060 H 
ATOM     16  N   LIG d   1       9.537  -2.064  -5.294  0.00  0.00    -0.276 N 
ATOM     17  C   LIG d   1      10.772  -2.528  -5.093  0.00  0.00     0.234 A 
ATOM     18  O   LIG d   1      10.891  -3.611  -4.559  0.00  0.00    -0.274 OA
ATOM     19  C   LIG d   1      12.017  -1.822  -5.519  0.00  0.00     0.092 A 
ATOM     20  N   LIG d   1      11.733  -0.543  -6.148  0.00  0.00    -0.286 N 
ATOM     21  C   LIG d   1      10.506  -0.051  -6.306  0.00  0.00     0.237 A 
ATOM     22  O   LIG d   1      10.391   1.025  -6.853  0.00  0.00    -0.274 OA
ATOM     23  H   LIG d   1       6.440   1.914  -3.273  0.00  0.00     0.062 H 
ATOM     24  H   LIG d   1       4.385   2.055  -1.926  0.00  0.00     0.062 H 
ATOM     25  H   LIG d   1       3.146   0.066  -1.286  0.00  0.00     0.062 H 
ATOM     26  H   LIG d   1       3.889  -2.194  -1.951  0.00  0.00     0.064 H 
ATOM     27  H   LIG d   1       9.285   0.403  -4.021  0.00  0.00     0.034 H 
ATOM     28  H   LIG d   1       8.127   0.992  -5.241  0.00  0.00     0.034 H 
ATOM     29  H   LIG d   1      12.582  -2.442  -6.215  0.00  0.00     0.056 H 
ATOM     30  H   LIG d   1      12.621  -1.652  -4.628  0.00  0.00     0.056 H 
ENDROOT
BRANCH   1  31
ATOM     31  C   LIG d   1       8.835  -4.047  -4.049  0.00  0.00    -0.018 A 
ATOM     32  C   LIG d   1       8.831  -5.347  -4.521  0.00  0.00    -0.045 A 
ATOM     33  C   LIG d   1       9.248  -6.380  -3.702  0.00  0.00    -0.059 A 
ATOM     34  C   LIG d   1       9.662  -6.115  -2.411  0.00  0.00    -0.061 A 
ATOM     35  H   LIG d   1       9.248  -7.395  -4.072  0.00  0.00     0.062 H 
ATOM     36  C   LIG d   1       9.661  -4.815  -1.938  0.00  0.00    -0.061 A 
ATOM     37  H   LIG d   1       9.984  -6.922  -1.770  0.00  0.00     0.062 H 
ATOM     38  C   LIG d   1       9.248  -3.781  -2.757  0.00  0.00    -0.056 A 
ATOM     39  H   LIG d   1       9.984  -4.608  -0.929  0.00  0.00     0.062 H 
ATOM     40  H   LIG d   1       9.246  -2.767  -2.388  0.00  0.00     0.062 H 
BRANCH  32  41
ATOM     41  C   LIG d   1       8.375  -5.636  -5.928  0.00  0.00    -0.039 C 
ATOM     42  H   LIG d   1       7.944  -6.636  -5.971  0.00  0.00     0.028 H 
ATOM     43  H   LIG d   1       7.624  -4.903  -6.225  0.00  0.00     0.028 H 
ATOM     44  H   LIG d   1       9.226  -5.578  -6.605  0.00  0.00     0.028 H 
ENDBRANCH  32  41
ENDBRANCH   1  31
BRANCH  20  45
ATOM     45  C   LIG d   1      12.863   0.248  -6.642  0.00  0.00     0.046 C 
ATOM     46  H   LIG d   1      12.490   1.160  -7.108  0.00  0.00     0.052 H 
ATOM     47  H   LIG d   1      13.421  -0.333  -7.375  0.00  0.00     0.052 H 
BRANCH  45  48
ATOM     48  C   LIG d   1      13.767   0.606  -5.491  0.00  0.00     0.007 A 
ATOM     49  S   LIG d   1      13.372   1.461  -3.973  0.00  0.00    -0.100 SA
ATOM     50  C   LIG d   1      15.000   1.434  -3.239  0.00  0.00    -0.024 A 
ATOM     51  C   LIG d   1      15.723   0.787  -4.184  0.00  0.00    -0.054 A 
ATOM     52  H   LIG d   1      15.323   1.832  -2.288  0.00  0.00     0.069 H 
ATOM     53  C   LIG d   1      15.092   0.362  -5.338  0.00  0.00    -0.050 A 
ATOM     54  H   LIG d   1      16.778   0.605  -4.038  0.00  0.00     0.062 H 
ATOM     55  H   LIG d   1      15.645  -0.158  -6.107  0.00  0.00     0.063 H 
ENDBRANCH  45  48
ENDBRANCH  20  45
TORSDOF 4
ENDMDL
MODEL 9
REMARK VINA RESULT:      -7.0      2.634      4.052
REMARK  4 active torsions:
REMARK  status: ('A' for Active; 'I' for Inactive)
REMARK    1  A    between atoms: C_1  and  C_2 
REMARK    2  A    between atoms: C_7  and  C_8 
REMARK    3  A    between atoms: N_27  and  C_30 
REMARK    4  A    between atoms: C_30  and  C_31 
ROOT
ATOM      1  C   LIG d   1       6.242  -0.385  -5.399  0.00  0.00     0.093 C 
ATOM      2  H   LIG d   1       5.858  -0.055  -6.364  0.00  0.00     0.062 H 
ATOM      3  C   LIG d   1       7.395   0.498  -4.977  0.00  0.00     0.046 A 
ATOM      4  C   LIG d   1       8.683   0.092  -4.972  0.00  0.00    -0.015 A 
ATOM      5  C   LIG d   1       9.479   1.211  -4.513  0.00  0.00     0.003 A 
ATOM      6  C   LIG d   1      10.852   1.377  -4.310  0.00  0.00    -0.052 A 
ATOM      7  C   LIG d   1      11.269   2.606  -3.858  0.00  0.00    -0.061 A 
ATOM      8  C   LIG d   1      10.380   3.639  -3.613  0.00  0.00    -0.060 A 
ATOM      9  C   LIG d   1       9.016   3.501  -3.803  0.00  0.00    -0.038 A 
ATOM     10  C   LIG d   1       8.564   2.265  -4.262  0.00  0.00     0.047 A 
ATOM     11  N   LIG d   1       7.315   1.797  -4.551  0.00  0.00    -0.356 N 
ATOM     12  H   LIG d   1       6.494   2.308  -4.467  0.00  0.00     0.166 HD
ATOM     13  C   LIG d   1       9.140  -1.289  -5.359  0.00  0.00     0.002 C 
ATOM     14  C   LIG d   1       8.038  -1.964  -6.188  0.00  0.00     0.107 A 
ATOM     15  H   LIG d   1       7.994  -1.490  -7.167  0.00  0.00     0.060 H 
ATOM     16  N   LIG d   1       6.758  -1.766  -5.509  0.00  0.00    -0.276 N 
ATOM     17  C   LIG d   1       6.041  -2.768  -4.996  0.00  0.00     0.234 A 
ATOM     18  O   LIG d   1       5.027  -2.487  -4.392  0.00  0.00    -0.274 OA
ATOM     19  C   LIG d   1       6.382  -4.213  -5.150  0.00  0.00     0.092 A 
ATOM     20  N   LIG d   1       7.614  -4.409  -5.894  0.00  0.00    -0.286 N 
ATOM     21  C   LIG d   1       8.361  -3.412  -6.366  0.00  0.00     0.237 A 
ATOM     22  O   LIG d   1       9.367  -3.698  -6.982  0.00  0.00    -0.274 OA
ATOM     23  H   LIG d   1      11.553   0.577  -4.499  0.00  0.00     0.062 H 
ATOM     24  H   LIG d   1      12.322   2.771  -3.690  0.00  0.00     0.062 H 
ATOM     25  H   LIG d   1      10.764   4.585  -3.260  0.00  0.00     0.062 H 
ATOM     26  H   LIG d   1       8.333   4.316  -3.607  0.00  0.00     0.064 H 
ATOM     27  H   LIG d   1       9.341  -1.880  -4.466  0.00  0.00     0.034 H 
ATOM     28  H   LIG d   1      10.047  -1.205  -5.956  0.00  0.00     0.034 H 
ATOM     29  H   LIG d   1       5.574  -4.739  -5.657  0.00  0.00     0.056 H 
ATOM     30  H   LIG d   1       6.503  -4.632  -4.150  0.00  0.00     0.056 H 
ENDROOT
BRANCH   1  31
ATOM     31  C   LIG d   1       5.147  -0.328  -4.365  0.00  0.00    -0.018 A 
ATOM     32  C   LIG d   1       3.830  -0.184  -4.761  0.00  0.00    -0.045 A 
ATOM     33  C   LIG d   1       2.825  -0.136  -3.813  0.00  0.00    -0.059 A 
ATOM     34  C   LIG d   1       3.137  -0.223  -2.470  0.00  0.00    -0.061 A 
ATOM     35  H   LIG d   1       1.796  -0.027  -4.123  0.00  0.00     0.062 H 
ATOM     36  C   LIG d   1       4.455  -0.362  -2.074  0.00  0.00    -0.061 A 
ATOM     37  H   LIG d   1       2.352  -0.182  -1.729  0.00  0.00     0.062 H 
ATOM     38  C   LIG d   1       5.460  -0.414  -3.021  0.00  0.00    -0.056 A 
ATOM     39  H   LIG d   1       4.698  -0.430  -1.024  0.00  0.00     0.062 H 
ATOM     40  H   LIG d   1       6.488  -0.522  -2.713  0.00  0.00     0.062 H 
BRANCH  32  41
ATOM     41  C   LIG d   1       3.490  -0.084  -6.226  0.00  0.00    -0.039 C 
ATOM     42  H   LIG d   1       4.171  -0.713  -6.800  0.00  0.00     0.028 H 
ATOM     43  H   LIG d   1       2.465  -0.418  -6.385  0.00  0.00     0.028 H 
ATOM     44  H   LIG d   1       3.590   0.951  -6.552  0.00  0.00     0.028 H 
ENDBRANCH  32  41
ENDBRANCH   1  31
BRANCH  20  45
ATOM     45  C   LIG d   1       8.058  -5.782  -6.146  0.00  0.00     0.046 C 
ATOM     46  H   LIG d   1       8.901  -5.771  -6.837  0.00  0.00     0.052 H 
ATOM     47  H   LIG d   1       7.239  -6.355  -6.582  0.00  0.00     0.052 H 
BRANCH  45  48
ATOM     48  C   LIG d   1       8.481  -6.420  -4.848  0.00  0.00     0.007 A 
ATOM     49  S   LIG d   1       9.471  -5.735  -3.529  0.00  0.00    -0.100 SA
ATOM     50  C   LIG d   1       9.454  -7.150  -2.441  0.00  0.00    -0.024 A 
ATOM     51  C   LIG d   1       8.707  -8.035  -3.144  0.00  0.00    -0.054 A 
ATOM     52  H   LIG d   1       9.919  -7.270  -1.473  0.00  0.00     0.069 H 
ATOM     53  C   LIG d   1       8.208  -7.661  -4.378  0.00  0.00    -0.050 A 
ATOM     54  H   LIG d   1       8.504  -9.019  -2.746  0.00  0.00     0.062 H 
ATOM     55  H   LIG d   1       7.609  -8.347  -4.958  0.00  0.00     0.063 H 
ENDBRANCH  45  48
ENDBRANCH  20  45
TORSDOF 4
ENDMDL
