MODEL 1
REMARK VINA RESULT:      -6.0      0.000      0.000
REMARK  7 active torsions:
REMARK  status: ('A' for Active; 'I' for Inactive)
REMARK    1  A    between atoms: C_1  and  C_2 
REMARK    2  A    between atoms: C_2  and  C_3 
REMARK    3  A    between atoms: C_5  and  C_12 
REMARK    4  A    between atoms: C_6  and  O_11 
REMARK    5  A    between atoms: C_8  and  O_9 
REMARK    6  A    between atoms: O_9  and  C_10 
REMARK    7  A    between atoms: C_13  and  C_18 
ROOT
ATOM      1  C   LIG d   1       5.003  -3.126  -5.300  0.00  0.00     0.104 A 
ATOM      2  C   LIG d   1       4.563  -3.340  -6.630  0.00  0.00     0.027 A 
ATOM      3  C   LIG d   1       4.017  -4.587  -6.685  0.00  0.00     0.031 A 
ATOM      4  N   LIG d   1       4.108  -5.133  -5.454  0.00  0.00    -0.283 N 
ATOM      5  H   LIG d   1       3.798  -6.017  -5.201  0.00  0.00     0.188 HD
ATOM      6  N   LIG d   1       4.730  -4.210  -4.606  0.00  0.00    -0.173 NA
ATOM      7  H   LIG d   1       3.588  -5.056  -7.559  0.00  0.00     0.083 H 
ENDROOT
BRANCH   1   8
ATOM      8  C   LIG d   1       5.661  -1.901  -4.784  0.00  0.00     0.045 A 
ATOM      9  C   LIG d   1       4.909  -0.925  -4.135  0.00  0.00    -0.042 A 
ATOM     10  C   LIG d   1       5.524   0.214  -3.656  0.00  0.00    -0.005 A 
ATOM     11  H   LIG d   1       3.845  -1.059  -4.007  0.00  0.00     0.063 H 
ATOM     12  C   LIG d   1       6.890   0.392  -3.823  0.00  0.00     0.127 A 
ATOM     13  C   LIG d   1       7.647  -0.578  -4.464  0.00  0.00     0.022 A 
ATOM     14  C   LIG d   1       7.039  -1.723  -4.948  0.00  0.00     0.130 A 
ATOM     15  H   LIG d   1       8.710  -0.437  -4.589  0.00  0.00     0.069 H 
BRANCH  10  16
ATOM     16  C   LIG d   1       4.708   1.269  -2.955  0.00  0.00    -0.027 C 
ATOM     17  H   LIG d   1       3.740   1.366  -3.447  0.00  0.00     0.031 H 
ATOM     18  H   LIG d   1       5.234   2.223  -2.996  0.00  0.00     0.031 H 
BRANCH  16  19
ATOM     19  C   LIG d   1       4.498   0.866  -1.494  0.00  0.00    -0.061 C 
ATOM     20  H   LIG d   1       5.380   1.136  -0.912  0.00  0.00     0.023 H 
ATOM     21  H   LIG d   1       3.627   1.384  -1.094  0.00  0.00     0.023 H 
ATOM     22  H   LIG d   1       4.341  -0.211  -1.434  0.00  0.00     0.023 H 
ENDBRANCH  16  19
ENDBRANCH  10  16
BRANCH  12  23
ATOM     23  O   LIG d   1       7.488   1.518  -3.354  0.00  0.00    -0.495 OA
BRANCH  23  24
ATOM     24  C   LIG d   1       8.291   2.259  -4.276  0.00  0.00     0.079 C 
ATOM     25  H   LIG d   1       9.322   1.911  -4.222  0.00  0.00     0.066 H 
ATOM     26  H   LIG d   1       7.910   2.113  -5.287  0.00  0.00     0.066 H 
ATOM     27  H   LIG d   1       8.249   3.318  -4.022  0.00  0.00     0.066 H 
ENDBRANCH  23  24
ENDBRANCH  12  23
BRANCH  14  28
ATOM     28  O   LIG d   1       7.777  -2.672  -5.580  0.00  0.00    -0.506 OA
ATOM     29  H   LIG d   1       7.465  -3.575  -5.433  0.00  0.00     0.292 HD
ENDBRANCH  14  28
ENDBRANCH   1   8
BRANCH   2  30
ATOM     30  C   LIG d   1       4.676  -2.381  -7.757  0.00  0.00    -0.011 A 
ATOM     31  C   LIG d   1       3.833  -1.273  -7.818  0.00  0.00    -0.009 A 
ATOM     32  C   LIG d   1       3.945  -0.377  -8.869  0.00  0.00     0.163 A 
ATOM     33  H   LIG d   1       3.097  -1.112  -7.045  0.00  0.00     0.066 H 
ATOM     34  C   LIG d   1       4.892  -0.589  -9.865  0.00  0.00     0.162 A 
ATOM     35  O   LIG d   1       3.112   0.700  -8.915  0.00  0.00    -0.485 OA
ATOM     36  C   LIG d   1       5.726  -1.696  -9.805  0.00  0.00    -0.016 A 
ATOM     37  O   LIG d   1       5.014   0.282 -10.904  0.00  0.00    -0.485 OA
ATOM     38  C   LIG d   1       5.621  -2.589  -8.759  0.00  0.00    -0.050 A 
ATOM     39  H   LIG d   1       6.460  -1.859 -10.580  0.00  0.00     0.066 H 
ATOM     40  H   LIG d   1       6.273  -3.450  -8.717  0.00  0.00     0.062 H 
ATOM     41  C   LIG d   1       3.916   1.172 -11.131  0.00  0.00     0.124 C 
ATOM     42  C   LIG d   1       3.497   1.772  -9.782  0.00  0.00     0.124 C 
ATOM     43  H   LIG d   1       3.081   0.621 -11.565  0.00  0.00     0.073 H 
ATOM     44  H   LIG d   1       4.223   1.969 -11.809  0.00  0.00     0.073 H 
ATOM     45  H   LIG d   1       2.653   2.447  -9.928  0.00  0.00     0.073 H 
ATOM     46  H   LIG d   1       4.334   2.317  -9.347  0.00  0.00     0.073 H 
ENDBRANCH   2  30
TORSDOF 7
ENDMDL
MODEL 2
REMARK VINA RESULT:      -5.9      2.779      5.943
REMARK  7 active torsions:
REMARK  status: ('A' for Active; 'I' for Inactive)
REMARK    1  A    between atoms: C_1  and  C_2 
REMARK    2  A    between atoms: C_2  and  C_3 
REMARK    3  A    between atoms: C_5  and  C_12 
REMARK    4  A    between atoms: C_6  and  O_11 
REMARK    5  A    between atoms: C_8  and  O_9 
REMARK    6  A    between atoms: O_9  and  C_10 
REMARK    7  A    between atoms: C_13  and  C_18 
ROOT
ATOM      1  C   LIG d   1       4.412  -0.449  -4.077  0.00  0.00     0.104 A 
ATOM      2  C   LIG d   1       4.890  -1.640  -3.476  0.00  0.00     0.027 A 
ATOM      3  C   LIG d   1       4.818  -1.475  -2.125  0.00  0.00     0.031 A 
ATOM      4  N   LIG d   1       4.321  -0.243  -1.886  0.00  0.00    -0.283 N 
ATOM      5  H   LIG d   1       4.162   0.144  -1.010  0.00  0.00     0.188 HD
ATOM      6  N   LIG d   1       4.079   0.383  -3.114  0.00  0.00    -0.173 NA
ATOM      7  H   LIG d   1       5.107  -2.200  -1.380  0.00  0.00     0.083 H 
ENDROOT
BRANCH   1   8
ATOM      8  C   LIG d   1       4.312  -0.185  -5.533  0.00  0.00     0.045 A 
ATOM      9  C   LIG d   1       5.464  -0.141  -6.316  0.00  0.00    -0.042 A 
ATOM     10  C   LIG d   1       5.368   0.104  -7.670  0.00  0.00    -0.005 A 
ATOM     11  H   LIG d   1       6.431  -0.301  -5.862  0.00  0.00     0.063 H 
ATOM     12  C   LIG d   1       4.127   0.314  -8.255  0.00  0.00     0.127 A 
ATOM     13  C   LIG d   1       2.975   0.269  -7.483  0.00  0.00     0.022 A 
ATOM     14  C   LIG d   1       3.062   0.023  -6.124  0.00  0.00     0.130 A 
ATOM     15  H   LIG d   1       2.011   0.429  -7.943  0.00  0.00     0.069 H 
BRANCH  10  16
ATOM     16  C   LIG d   1       6.615   0.150  -8.515  0.00  0.00    -0.027 C 
ATOM     17  H   LIG d   1       6.361  -0.077  -9.550  0.00  0.00     0.031 H 
ATOM     18  H   LIG d   1       7.331  -0.584  -8.147  0.00  0.00     0.031 H 
BRANCH  16  19
ATOM     19  C   LIG d   1       7.233   1.548  -8.437  0.00  0.00    -0.061 C 
ATOM     20  H   LIG d   1       8.262   1.471  -8.085  0.00  0.00     0.023 H 
ATOM     21  H   LIG d   1       7.221   2.007  -9.426  0.00  0.00     0.023 H 
ATOM     22  H   LIG d   1       6.657   2.161  -7.744  0.00  0.00     0.023 H 
ENDBRANCH  16  19
ENDBRANCH  10  16
BRANCH  12  23
ATOM     23  O   LIG d   1       4.040   0.562  -9.588  0.00  0.00    -0.495 OA
BRANCH  23  24
ATOM     24  C   LIG d   1       3.701   1.894  -9.981  0.00  0.00     0.079 C 
ATOM     25  H   LIG d   1       3.859   2.008 -11.053  0.00  0.00     0.066 H 
ATOM     26  H   LIG d   1       2.655   2.086  -9.745  0.00  0.00     0.066 H 
ATOM     27  H   LIG d   1       4.331   2.601  -9.442  0.00  0.00     0.066 H 
ENDBRANCH  23  24
ENDBRANCH  12  23
BRANCH  14  28
ATOM     28  O   LIG d   1       1.935  -0.018  -5.366  0.00  0.00    -0.506 OA
ATOM     29  H   LIG d   1       1.166  -0.382  -5.824  0.00  0.00     0.292 HD
ENDBRANCH  14  28
ENDBRANCH   1   8
BRANCH   2  30
ATOM     30  C   LIG d   1       5.379  -2.847  -4.187  0.00  0.00    -0.011 A 
ATOM     31  C   LIG d   1       4.473  -3.795  -4.659  0.00  0.00    -0.009 A 
ATOM     32  C   LIG d   1       4.933  -4.918  -5.327  0.00  0.00     0.163 A 
ATOM     33  H   LIG d   1       3.414  -3.652  -4.507  0.00  0.00     0.066 H 
ATOM     34  C   LIG d   1       6.298  -5.102  -5.519  0.00  0.00     0.162 A 
ATOM     35  O   LIG d   1       4.035  -5.837  -5.780  0.00  0.00    -0.485 OA
ATOM     36  C   LIG d   1       7.199  -4.159  -5.043  0.00  0.00    -0.016 A 
ATOM     37  O   LIG d   1       6.767  -6.200  -6.173  0.00  0.00    -0.485 OA
ATOM     38  C   LIG d   1       6.746  -3.038  -4.381  0.00  0.00    -0.050 A 
ATOM     39  H   LIG d   1       8.259  -4.305  -5.193  0.00  0.00     0.066 H 
ATOM     40  H   LIG d   1       7.451  -2.307  -4.012  0.00  0.00     0.062 H 
ATOM     41  C   LIG d   1       5.866  -7.304  -6.304  0.00  0.00     0.124 C 
ATOM     42  C   LIG d   1       4.505  -6.763  -6.765  0.00  0.00     0.124 C 
ATOM     43  H   LIG d   1       5.756  -7.805  -5.342  0.00  0.00     0.073 H 
ATOM     44  H   LIG d   1       6.251  -8.007  -7.044  0.00  0.00     0.073 H 
ATOM     45  H   LIG d   1       3.797  -7.586  -6.862  0.00  0.00     0.073 H 
ATOM     46  H   LIG d   1       4.616  -6.258  -7.723  0.00  0.00     0.073 H 
ENDBRANCH   2  30
TORSDOF 7
ENDMDL
MODEL 3
REMARK VINA RESULT:      -5.8      2.562      4.205
REMARK  7 active torsions:
REMARK  status: ('A' for Active; 'I' for Inactive)
REMARK    1  A    between atoms: C_1  and  C_2 
REMARK    2  A    between atoms: C_2  and  C_3 
REMARK    3  A    between atoms: C_5  and  C_12 
REMARK    4  A    between atoms: C_6  and  O_11 
REMARK    5  A    between atoms: C_8  and  O_9 
REMARK    6  A    between atoms: O_9  and  C_10 
REMARK    7  A    between atoms: C_13  and  C_18 
ROOT
ATOM      1  C   LIG d   1       4.395  -2.072  -4.027  0.00  0.00     0.104 A 
ATOM      2  C   LIG d   1       3.945  -0.948  -4.765  0.00  0.00     0.027 A 
ATOM      3  C   LIG d   1       2.979  -0.333  -4.025  0.00  0.00     0.031 A 
ATOM      4  N   LIG d   1       2.828  -1.032  -2.881  0.00  0.00    -0.283 N 
ATOM      5  H   LIG d   1       2.206  -0.821  -2.166  0.00  0.00     0.188 HD
ATOM      6  N   LIG d   1       3.714  -2.115  -2.902  0.00  0.00    -0.173 NA
ATOM      7  H   LIG d   1       2.433   0.555  -4.306  0.00  0.00     0.083 H 
ENDROOT
BRANCH   1   8
ATOM      8  C   LIG d   1       5.442  -3.032  -4.452  0.00  0.00     0.045 A 
ATOM      9  C   LIG d   1       6.766  -2.840  -4.061  0.00  0.00    -0.042 A 
ATOM     10  C   LIG d   1       7.738  -3.735  -4.457  0.00  0.00    -0.005 A 
ATOM     11  H   LIG d   1       7.030  -1.991  -3.448  0.00  0.00     0.063 H 
ATOM     12  C   LIG d   1       7.403  -4.825  -5.249  0.00  0.00     0.127 A 
ATOM     13  C   LIG d   1       6.086  -5.026  -5.638  0.00  0.00     0.022 A 
ATOM     14  C   LIG d   1       5.105  -4.133  -5.246  0.00  0.00     0.130 A 
ATOM     15  H   LIG d   1       5.829  -5.877  -6.251  0.00  0.00     0.069 H 
BRANCH  10  16
ATOM     16  C   LIG d   1       9.169  -3.525  -4.033  0.00  0.00    -0.027 C 
ATOM     17  H   LIG d   1       9.383  -2.457  -3.994  0.00  0.00     0.031 H 
ATOM     18  H   LIG d   1       9.835  -4.003  -4.752  0.00  0.00     0.031 H 
BRANCH  16  19
ATOM     19  C   LIG d   1       9.388  -4.140  -2.650  0.00  0.00    -0.061 C 
ATOM     20  H   LIG d   1       9.974  -3.456  -2.037  0.00  0.00     0.023 H 
ATOM     21  H   LIG d   1       8.423  -4.318  -2.173  0.00  0.00     0.023 H 
ATOM     22  H   LIG d   1       9.922  -5.084  -2.753  0.00  0.00     0.023 H 
ENDBRANCH  16  19
ENDBRANCH  10  16
BRANCH  12  23
ATOM     23  O   LIG d   1       8.366  -5.699  -5.640  0.00  0.00    -0.495 OA
BRANCH  23  24
ATOM     24  C   LIG d   1       8.295  -7.024  -5.108  0.00  0.00     0.079 C 
ATOM     25  H   LIG d   1       8.804  -7.056  -4.144  0.00  0.00     0.066 H 
ATOM     26  H   LIG d   1       7.251  -7.307  -4.977  0.00  0.00     0.066 H 
ATOM     27  H   LIG d   1       8.777  -7.717  -5.797  0.00  0.00     0.066 H 
ENDBRANCH  23  24
ENDBRANCH  12  23
BRANCH  14  28
ATOM     28  O   LIG d   1       3.816  -4.325  -5.630  0.00  0.00    -0.506 OA
ATOM     29  H   LIG d   1       3.392  -3.535  -5.992  0.00  0.00     0.292 HD
ENDBRANCH  14  28
ENDBRANCH   1   8
BRANCH   2  30
ATOM     30  C   LIG d   1       4.435  -0.519  -6.098  0.00  0.00    -0.011 A 
ATOM     31  C   LIG d   1       3.550  -0.424  -7.170  0.00  0.00    -0.009 A 
ATOM     32  C   LIG d   1       4.011  -0.018  -8.412  0.00  0.00     0.163 A 
ATOM     33  H   LIG d   1       2.507  -0.662  -7.031  0.00  0.00     0.066 H 
ATOM     34  C   LIG d   1       5.356   0.285  -8.589  0.00  0.00     0.162 A 
ATOM     35  O   LIG d   1       3.133   0.068  -9.450  0.00  0.00    -0.485 OA
ATOM     36  C   LIG d   1       6.237   0.184  -7.522  0.00  0.00    -0.016 A 
ATOM     37  O   LIG d   1       5.824   0.685  -9.804  0.00  0.00    -0.485 OA
ATOM     38  C   LIG d   1       5.783  -0.215  -6.282  0.00  0.00    -0.050 A 
ATOM     39  H   LIG d   1       7.281   0.419  -7.662  0.00  0.00     0.066 H 
ATOM     40  H   LIG d   1       6.472  -0.294  -5.454  0.00  0.00     0.062 H 
ATOM     41  C   LIG d   1       4.992   0.415 -10.936  0.00  0.00     0.124 C 
ATOM     42  C   LIG d   1       3.556   0.829 -10.587  0.00  0.00     0.124 C 
ATOM     43  H   LIG d   1       5.021  -0.650 -11.168  0.00  0.00     0.073 H 
ATOM     44  H   LIG d   1       5.341   0.988 -11.795  0.00  0.00     0.073 H 
ATOM     45  H   LIG d   1       2.899   0.623 -11.432  0.00  0.00     0.073 H 
ATOM     46  H   LIG d   1       3.528   1.892 -10.350  0.00  0.00     0.073 H 
ENDBRANCH   2  30
TORSDOF 7
ENDMDL
MODEL 4
REMARK VINA RESULT:      -5.8      3.524      5.897
REMARK  7 active torsions:
REMARK  status: ('A' for Active; 'I' for Inactive)
REMARK    1  A    between atoms: C_1  and  C_2 
REMARK    2  A    between atoms: C_2  and  C_3 
REMARK    3  A    between atoms: C_5  and  C_12 
REMARK    4  A    between atoms: C_6  and  O_11 
REMARK    5  A    between atoms: C_8  and  O_9 
REMARK    6  A    between atoms: O_9  and  C_10 
REMARK    7  A    between atoms: C_13  and  C_18 
ROOT
ATOM      1  C   LIG d   1       5.544  -1.089  -2.991  0.00  0.00     0.104 A 
ATOM      2  C   LIG d   1       5.841   0.278  -3.223  0.00  0.00     0.027 A 
ATOM      3  C   LIG d   1       5.068   1.014  -2.377  0.00  0.00     0.031 A 
ATOM      4  N   LIG d   1       4.321   0.158  -1.649  0.00  0.00    -0.283 N 
ATOM      5  H   LIG d   1       3.678   0.406  -0.965  0.00  0.00     0.188 HD
ATOM      6  N   LIG d   1       4.628  -1.147  -2.049  0.00  0.00    -0.173 NA
ATOM      7  H   LIG d   1       5.055   2.092  -2.302  0.00  0.00     0.083 H 
ENDROOT
BRANCH   1   8
ATOM      8  C   LIG d   1       6.153  -2.245  -3.691  0.00  0.00     0.045 A 
ATOM      9  C   LIG d   1       7.490  -2.570  -3.472  0.00  0.00    -0.042 A 
ATOM     10  C   LIG d   1       8.054  -3.647  -4.124  0.00  0.00    -0.005 A 
ATOM     11  H   LIG d   1       8.085  -1.978  -2.791  0.00  0.00     0.063 H 
ATOM     12  C   LIG d   1       7.294  -4.407  -5.003  0.00  0.00     0.127 A 
ATOM     13  C   LIG d   1       5.961  -4.093  -5.223  0.00  0.00     0.022 A 
ATOM     14  C   LIG d   1       5.387  -3.014  -4.573  0.00  0.00     0.130 A 
ATOM     15  H   LIG d   1       5.372  -4.688  -5.905  0.00  0.00     0.069 H 
BRANCH  10  16
ATOM     16  C   LIG d   1       9.500  -3.995  -3.886  0.00  0.00    -0.027 C 
ATOM     17  H   LIG d   1      10.131  -3.169  -4.212  0.00  0.00     0.031 H 
ATOM     18  H   LIG d   1       9.756  -4.892  -4.450  0.00  0.00     0.031 H 
BRANCH  16  19
ATOM     19  C   LIG d   1       9.725  -4.251  -2.394  0.00  0.00    -0.061 C 
ATOM     20  H   LIG d   1       9.506  -5.294  -2.167  0.00  0.00     0.023 H 
ATOM     21  H   LIG d   1      10.763  -4.034  -2.140  0.00  0.00     0.023 H 
ATOM     22  H   LIG d   1       9.066  -3.606  -1.812  0.00  0.00     0.023 H 
ENDBRANCH  16  19
ENDBRANCH  10  16
BRANCH  12  23
ATOM     23  O   LIG d   1       7.857  -5.462  -5.646  0.00  0.00    -0.495 OA
BRANCH  23  24
ATOM     24  C   LIG d   1       7.858  -5.426  -7.075  0.00  0.00     0.079 C 
ATOM     25  H   LIG d   1       7.000  -5.983  -7.453  0.00  0.00     0.066 H 
ATOM     26  H   LIG d   1       7.797  -4.392  -7.412  0.00  0.00     0.066 H 
ATOM     27  H   LIG d   1       8.778  -5.877  -7.448  0.00  0.00     0.066 H 
ENDBRANCH  23  24
ENDBRANCH  12  23
BRANCH  14  28
ATOM     28  O   LIG d   1       4.082  -2.703  -4.791  0.00  0.00    -0.506 OA
ATOM     29  H   LIG d   1       3.589  -3.386  -5.265  0.00  0.00     0.292 HD
ENDBRANCH  14  28
ENDBRANCH   1   8
BRANCH   2  30
ATOM     30  C   LIG d   1       6.816   0.809  -4.208  0.00  0.00    -0.011 A 
ATOM     31  C   LIG d   1       7.744   1.774  -3.820  0.00  0.00    -0.009 A 
ATOM     32  C   LIG d   1       8.656   2.264  -4.741  0.00  0.00     0.163 A 
ATOM     33  H   LIG d   1       7.754   2.135  -2.803  0.00  0.00     0.066 H 
ATOM     34  C   LIG d   1       8.639   1.799  -6.051  0.00  0.00     0.162 A 
ATOM     35  O   LIG d   1       9.555   3.208  -4.348  0.00  0.00    -0.485 OA
ATOM     36  C   LIG d   1       7.710   0.843  -6.436  0.00  0.00    -0.016 A 
ATOM     37  O   LIG d   1       9.528   2.270  -6.968  0.00  0.00    -0.485 OA
ATOM     38  C   LIG d   1       6.802   0.348  -5.522  0.00  0.00    -0.050 A 
ATOM     39  H   LIG d   1       7.698   0.484  -7.455  0.00  0.00     0.066 H 
ATOM     40  H   LIG d   1       6.080  -0.396  -5.827  0.00  0.00     0.062 H 
ATOM     41  C   LIG d   1      10.195   3.495  -6.647  0.00  0.00     0.124 C 
ATOM     42  C   LIG d   1      10.690   3.408  -5.197  0.00  0.00     0.124 C 
ATOM     43  H   LIG d   1       9.501   4.330  -6.749  0.00  0.00     0.073 H 
ATOM     44  H   LIG d   1      11.043   3.639  -7.317  0.00  0.00     0.073 H 
ATOM     45  H   LIG d   1      11.194   4.335  -4.925  0.00  0.00     0.073 H 
ATOM     46  H   LIG d   1      11.380   2.570  -5.094  0.00  0.00     0.073 H 
ENDBRANCH   2  30
TORSDOF 7
ENDMDL
MODEL 5
REMARK VINA RESULT:      -5.8      1.970      6.015
REMARK  7 active torsions:
REMARK  status: ('A' for Active; 'I' for Inactive)
REMARK    1  A    between atoms: C_1  and  C_2 
REMARK    2  A    between atoms: C_2  and  C_3 
REMARK    3  A    between atoms: C_5  and  C_12 
REMARK    4  A    between atoms: C_6  and  O_11 
REMARK    5  A    between atoms: C_8  and  O_9 
REMARK    6  A    between atoms: O_9  and  C_10 
REMARK    7  A    between atoms: C_13  and  C_18 
ROOT
ATOM      1  C   LIG d   1       4.091  -1.135  -4.307  0.00  0.00     0.104 A 
ATOM      2  C   LIG d   1       5.254  -1.001  -3.507  0.00  0.00     0.027 A 
ATOM      3  C   LIG d   1       4.968  -1.518  -2.279  0.00  0.00     0.031 A 
ATOM      4  N   LIG d   1       3.692  -1.956  -2.302  0.00  0.00    -0.283 N 
ATOM      5  H   LIG d   1       3.221  -2.372  -1.562  0.00  0.00     0.188 HD
ATOM      6  N   LIG d   1       3.160  -1.705  -3.572  0.00  0.00    -0.173 NA
ATOM      7  H   LIG d   1       5.643  -1.569  -1.437  0.00  0.00     0.083 H 
ENDROOT
BRANCH   1   8
ATOM      8  C   LIG d   1       3.948  -0.705  -5.718  0.00  0.00     0.045 A 
ATOM      9  C   LIG d   1       4.608  -1.398  -6.731  0.00  0.00    -0.042 A 
ATOM     10  C   LIG d   1       4.473  -0.995  -8.043  0.00  0.00    -0.005 A 
ATOM     11  H   LIG d   1       5.225  -2.251  -6.488  0.00  0.00     0.063 H 
ATOM     12  C   LIG d   1       3.685   0.103  -8.359  0.00  0.00     0.127 A 
ATOM     13  C   LIG d   1       3.021   0.796  -7.357  0.00  0.00     0.022 A 
ATOM     14  C   LIG d   1       3.151   0.399  -6.038  0.00  0.00     0.130 A 
ATOM     15  H   LIG d   1       2.406   1.648  -7.607  0.00  0.00     0.069 H 
BRANCH  10  16
ATOM     16  C   LIG d   1       5.188  -1.747  -9.136  0.00  0.00    -0.027 C 
ATOM     17  H   LIG d   1       4.991  -1.267 -10.095  0.00  0.00     0.031 H 
ATOM     18  H   LIG d   1       4.830  -2.776  -9.165  0.00  0.00     0.031 H 
BRANCH  16  19
ATOM     19  C   LIG d   1       6.693  -1.738  -8.862  0.00  0.00    -0.061 C 
ATOM     20  H   LIG d   1       7.046  -0.708  -8.803  0.00  0.00     0.023 H 
ATOM     21  H   LIG d   1       6.894  -2.245  -7.918  0.00  0.00     0.023 H 
ATOM     22  H   LIG d   1       7.212  -2.254  -9.670  0.00  0.00     0.023 H 
ENDBRANCH  16  19
ENDBRANCH  10  16
BRANCH  12  23
ATOM     23  O   LIG d   1       3.561   0.498  -9.653  0.00  0.00    -0.495 OA
BRANCH  23  24
ATOM     24  C   LIG d   1       4.084   1.784  -9.992  0.00  0.00     0.079 C 
ATOM     25  H   LIG d   1       3.616   2.544  -9.367  0.00  0.00     0.066 H 
ATOM     26  H   LIG d   1       5.162   1.792  -9.828  0.00  0.00     0.066 H 
ATOM     27  H   LIG d   1       3.875   1.995 -11.041  0.00  0.00     0.066 H 
ENDBRANCH  23  24
ENDBRANCH  12  23
BRANCH  14  28
ATOM     28  O   LIG d   1       2.505   1.079  -5.055  0.00  0.00    -0.506 OA
ATOM     29  H   LIG d   1       3.002   1.140  -4.228  0.00  0.00     0.292 HD
ENDBRANCH  14  28
ENDBRANCH   1   8
BRANCH   2  30
ATOM     30  C   LIG d   1       6.546  -0.406  -3.929  0.00  0.00    -0.011 A 
ATOM     31  C   LIG d   1       6.890   0.880  -3.518  0.00  0.00    -0.009 A 
ATOM     32  C   LIG d   1       8.100   1.430  -3.910  0.00  0.00     0.163 A 
ATOM     33  H   LIG d   1       6.216   1.445  -2.891  0.00  0.00     0.066 H 
ATOM     34  C   LIG d   1       8.964   0.702  -4.719  0.00  0.00     0.162 A 
ATOM     35  O   LIG d   1       8.421   2.689  -3.501  0.00  0.00    -0.485 OA
ATOM     36  C   LIG d   1       8.617  -0.577  -5.132  0.00  0.00    -0.016 A 
ATOM     37  O   LIG d   1      10.157   1.228  -5.113  0.00  0.00    -0.485 OA
ATOM     38  C   LIG d   1       7.416  -1.130  -4.742  0.00  0.00    -0.050 A 
ATOM     39  H   LIG d   1       9.290  -1.139  -5.762  0.00  0.00     0.066 H 
ATOM     40  H   LIG d   1       7.149  -2.126  -5.066  0.00  0.00     0.062 H 
ATOM     41  C   LIG d   1      10.306   2.647  -4.992  0.00  0.00     0.124 C 
ATOM     42  C   LIG d   1       9.797   3.068  -3.607  0.00  0.00     0.124 C 
ATOM     43  H   LIG d   1       9.721   3.145  -5.766  0.00  0.00     0.073 H 
ATOM     44  H   LIG d   1      11.357   2.916  -5.095  0.00  0.00     0.073 H 
ATOM     45  H   LIG d   1       9.891   4.148  -3.494  0.00  0.00     0.073 H 
ATOM     46  H   LIG d   1      10.378   2.566  -2.834  0.00  0.00     0.073 H 
ENDBRANCH   2  30
TORSDOF 7
ENDMDL
MODEL 6
REMARK VINA RESULT:      -5.8      5.317      8.017
REMARK  7 active torsions:
REMARK  status: ('A' for Active; 'I' for Inactive)
REMARK    1  A    between atoms: C_1  and  C_2 
REMARK    2  A    between atoms: C_2  and  C_3 
REMARK    3  A    between atoms: C_5  and  C_12 
REMARK    4  A    between atoms: C_6  and  O_11 
REMARK    5  A    between atoms: C_8  and  O_9 
REMARK    6  A    between atoms: O_9  and  C_10 
REMARK    7  A    between atoms: C_13  and  C_18 
ROOT
ATOM      1  C   LIG d   1       4.884  -8.936  -6.115  0.00  0.00     0.104 A 
ATOM      2  C   LIG d   1       4.923  -7.646  -6.702  0.00  0.00     0.027 A 
ATOM      3  C   LIG d   1       4.390  -7.748  -7.952  0.00  0.00     0.031 A 
ATOM      4  N   LIG d   1       4.033  -9.035  -8.144  0.00  0.00    -0.283 N 
ATOM      5  H   LIG d   1       3.627  -9.397  -8.948  0.00  0.00     0.188 HD
ATOM      6  N   LIG d   1       4.353  -9.761  -6.992  0.00  0.00    -0.173 NA
ATOM      7  H   LIG d   1       4.274  -6.942  -8.661  0.00  0.00     0.083 H 
ENDROOT
BRANCH   1   8
ATOM      8  C   LIG d   1       5.363  -9.292  -4.758  0.00  0.00     0.045 A 
ATOM      9  C   LIG d   1       6.686  -9.048  -4.397  0.00  0.00    -0.042 A 
ATOM     10  C   LIG d   1       7.129  -9.380  -3.133  0.00  0.00    -0.005 A 
ATOM     11  H   LIG d   1       7.365  -8.597  -5.106  0.00  0.00     0.063 H 
ATOM     12  C   LIG d   1       6.261  -9.964  -2.221  0.00  0.00     0.127 A 
ATOM     13  C   LIG d   1       4.940 -10.207  -2.571  0.00  0.00     0.022 A 
ATOM     14  C   LIG d   1       4.488  -9.876  -3.836  0.00  0.00     0.130 A 
ATOM     15  H   LIG d   1       4.267 -10.658  -1.857  0.00  0.00     0.069 H 
BRANCH  10  16
ATOM     16  C   LIG d   1       8.560  -9.115  -2.745  0.00  0.00    -0.027 C 
ATOM     17  H   LIG d   1       9.211  -9.831  -3.247  0.00  0.00     0.031 H 
ATOM     18  H   LIG d   1       8.670  -9.218  -1.666  0.00  0.00     0.031 H 
BRANCH  16  19
ATOM     19  C   LIG d   1       8.948  -7.695  -3.163  0.00  0.00    -0.061 C 
ATOM     20  H   LIG d   1       8.085  -7.199  -3.609  0.00  0.00     0.023 H 
ATOM     21  H   LIG d   1       9.276  -7.134  -2.288  0.00  0.00     0.023 H 
ATOM     22  H   LIG d   1       9.757  -7.739  -3.892  0.00  0.00     0.023 H 
ENDBRANCH  16  19
ENDBRANCH  10  16
BRANCH  12  23
ATOM     23  O   LIG d   1       6.704 -10.294  -0.980  0.00  0.00    -0.495 OA
BRANCH  23  24
ATOM     24  C   LIG d   1       6.687 -11.681  -0.632  0.00  0.00     0.079 C 
ATOM     25  H   LIG d   1       7.633 -11.949  -0.163  0.00  0.00     0.066 H 
ATOM     26  H   LIG d   1       5.869 -11.870   0.063  0.00  0.00     0.066 H 
ATOM     27  H   LIG d   1       6.544 -12.278  -1.532  0.00  0.00     0.066 H 
ENDBRANCH  23  24
ENDBRANCH  12  23
BRANCH  14  28
ATOM     28  O   LIG d   1       3.196 -10.117  -4.183  0.00  0.00    -0.506 OA
ATOM     29  H   LIG d   1       3.097 -10.639  -4.991  0.00  0.00     0.292 HD
ENDBRANCH  14  28
ENDBRANCH   1   8
BRANCH   2  30
ATOM     30  C   LIG d   1       5.449  -6.410  -6.070  0.00  0.00    -0.011 A 
ATOM     31  C   LIG d   1       4.569  -5.472  -5.534  0.00  0.00    -0.009 A 
ATOM     32  C   LIG d   1       5.063  -4.322  -4.941  0.00  0.00     0.163 A 
ATOM     33  H   LIG d   1       3.504  -5.644  -5.578  0.00  0.00     0.066 H 
ATOM     34  C   LIG d   1       6.435  -4.101  -4.888  0.00  0.00     0.162 A 
ATOM     35  O   LIG d   1       4.191  -3.413  -4.423  0.00  0.00    -0.485 OA
ATOM     36  C   LIG d   1       7.309  -5.034  -5.428  0.00  0.00    -0.016 A 
ATOM     37  O   LIG d   1       6.937  -2.976  -4.309  0.00  0.00    -0.485 OA
ATOM     38  C   LIG d   1       6.822  -6.183  -6.017  0.00  0.00    -0.050 A 
ATOM     39  H   LIG d   1       8.374  -4.860  -5.387  0.00  0.00     0.066 H 
ATOM     40  H   LIG d   1       7.506  -6.906  -6.436  0.00  0.00     0.062 H 
ATOM     41  C   LIG d   1       6.025  -1.890  -4.115  0.00  0.00     0.124 C 
ATOM     42  C   LIG d   1       4.731  -2.451  -3.511  0.00  0.00     0.124 C 
ATOM     43  H   LIG d   1       5.809  -1.416  -5.073  0.00  0.00     0.073 H 
ATOM     44  H   LIG d   1       6.462  -1.160  -3.434  0.00  0.00     0.073 H 
ATOM     45  H   LIG d   1       4.014  -1.642  -3.363  0.00  0.00     0.073 H 
ATOM     46  H   LIG d   1       4.948  -2.929  -2.556  0.00  0.00     0.073 H 
ENDBRANCH   2  30
TORSDOF 7
ENDMDL
MODEL 7
REMARK VINA RESULT:      -5.6      1.738      2.464
REMARK  7 active torsions:
REMARK  status: ('A' for Active; 'I' for Inactive)
REMARK    1  A    between atoms: C_1  and  C_2 
REMARK    2  A    between atoms: C_2  and  C_3 
REMARK    3  A    between atoms: C_5  and  C_12 
REMARK    4  A    between atoms: C_6  and  O_11 
REMARK    5  A    between atoms: C_8  and  O_9 
REMARK    6  A    between atoms: O_9  and  C_10 
REMARK    7  A    between atoms: C_13  and  C_18 
ROOT
ATOM      1  C   LIG d   1       6.509  -3.162  -5.567  0.00  0.00     0.104 A 
ATOM      2  C   LIG d   1       6.522  -3.053  -6.980  0.00  0.00     0.027 A 
ATOM      3  C   LIG d   1       6.910  -4.259  -7.481  0.00  0.00     0.031 A 
ATOM      4  N   LIG d   1       7.130  -5.087  -6.438  0.00  0.00    -0.283 N 
ATOM      5  H   LIG d   1       7.417  -6.012  -6.499  0.00  0.00     0.188 HD
ATOM      6  N   LIG d   1       6.880  -4.384  -5.254  0.00  0.00    -0.173 NA
ATOM      7  H   LIG d   1       7.021  -4.509  -8.526  0.00  0.00     0.083 H 
ENDROOT
BRANCH   1   8
ATOM      8  C   LIG d   1       6.147  -2.087  -4.612  0.00  0.00     0.045 A 
ATOM      9  C   LIG d   1       6.884  -0.905  -4.579  0.00  0.00    -0.042 A 
ATOM     10  C   LIG d   1       6.545   0.094  -3.690  0.00  0.00    -0.005 A 
ATOM     11  H   LIG d   1       7.719  -0.770  -5.251  0.00  0.00     0.063 H 
ATOM     12  C   LIG d   1       5.475  -0.077  -2.822  0.00  0.00     0.127 A 
ATOM     13  C   LIG d   1       4.734  -1.249  -2.852  0.00  0.00     0.022 A 
ATOM     14  C   LIG d   1       5.067  -2.256  -3.741  0.00  0.00     0.130 A 
ATOM     15  H   LIG d   1       3.900  -1.377  -2.178  0.00  0.00     0.069 H 
BRANCH  10  16
ATOM     16  C   LIG d   1       7.343   1.372  -3.656  0.00  0.00    -0.027 C 
ATOM     17  H   LIG d   1       8.070   1.324  -2.845  0.00  0.00     0.031 H 
ATOM     18  H   LIG d   1       6.673   2.216  -3.494  0.00  0.00     0.031 H 
BRANCH  16  19
ATOM     19  C   LIG d   1       8.077   1.551  -4.987  0.00  0.00    -0.061 C 
ATOM     20  H   LIG d   1       7.644   0.884  -5.733  0.00  0.00     0.023 H 
ATOM     21  H   LIG d   1       7.976   2.584  -5.322  0.00  0.00     0.023 H 
ATOM     22  H   LIG d   1       9.132   1.313  -4.855  0.00  0.00     0.023 H 
ENDBRANCH  16  19
ENDBRANCH  10  16
BRANCH  12  23
ATOM     23  O   LIG d   1       5.151   0.908  -1.945  0.00  0.00    -0.495 OA
BRANCH  23  24
ATOM     24  C   LIG d   1       3.870   1.523  -2.103  0.00  0.00     0.079 C 
ATOM     25  H   LIG d   1       3.245   1.288  -1.242  0.00  0.00     0.066 H 
ATOM     26  H   LIG d   1       3.993   2.603  -2.180  0.00  0.00     0.066 H 
ATOM     27  H   LIG d   1       3.397   1.146  -3.010  0.00  0.00     0.066 H 
ENDBRANCH  23  24
ENDBRANCH  12  23
BRANCH  14  28
ATOM     28  O   LIG d   1       4.344  -3.407  -3.768  0.00  0.00    -0.506 OA
ATOM     29  H   LIG d   1       3.702  -3.450  -4.489  0.00  0.00     0.292 HD
ENDBRANCH  14  28
ENDBRANCH   1   8
BRANCH   2  30
ATOM     30  C   LIG d   1       6.177  -1.845  -7.771  0.00  0.00    -0.011 A 
ATOM     31  C   LIG d   1       4.843  -1.489  -7.955  0.00  0.00    -0.009 A 
ATOM     32  C   LIG d   1       4.525  -0.358  -8.690  0.00  0.00     0.163 A 
ATOM     33  H   LIG d   1       4.059  -2.091  -7.523  0.00  0.00     0.066 H 
ATOM     34  C   LIG d   1       5.537   0.415  -9.248  0.00  0.00     0.162 A 
ATOM     35  O   LIG d   1       3.216  -0.024  -8.862  0.00  0.00    -0.485 OA
ATOM     36  C   LIG d   1       6.865   0.055  -9.069  0.00  0.00    -0.016 A 
ATOM     37  O   LIG d   1       5.241   1.529  -9.973  0.00  0.00    -0.485 OA
ATOM     38  C   LIG d   1       7.187  -1.068  -8.335  0.00  0.00    -0.050 A 
ATOM     39  H   LIG d   1       7.649   0.657  -9.505  0.00  0.00     0.066 H 
ATOM     40  H   LIG d   1       8.222  -1.344  -8.198  0.00  0.00     0.062 H 
ATOM     41  C   LIG d   1       3.896   1.650 -10.448  0.00  0.00     0.124 C 
ATOM     42  C   LIG d   1       2.945   1.315  -9.291  0.00  0.00     0.124 C 
ATOM     43  H   LIG d   1       3.733   0.954 -11.271  0.00  0.00     0.073 H 
ATOM     44  H   LIG d   1       3.716   2.670 -10.788  0.00  0.00     0.073 H 
ATOM     45  H   LIG d   1       1.912   1.390  -9.632  0.00  0.00     0.073 H 
ATOM     46  H   LIG d   1       3.112   2.007  -8.466  0.00  0.00     0.073 H 
ENDBRANCH   2  30
TORSDOF 7
ENDMDL
MODEL 8
REMARK VINA RESULT:      -5.5      1.900      5.943
REMARK  7 active torsions:
REMARK  status: ('A' for Active; 'I' for Inactive)
REMARK    1  A    between atoms: C_1  and  C_2 
REMARK    2  A    between atoms: C_2  and  C_3 
REMARK    3  A    between atoms: C_5  and  C_12 
REMARK    4  A    between atoms: C_6  and  O_11 
REMARK    5  A    between atoms: C_8  and  O_9 
REMARK    6  A    between atoms: O_9  and  C_10 
REMARK    7  A    between atoms: C_13  and  C_18 
ROOT
ATOM      1  C   LIG d   1       4.238  -1.332  -4.375  0.00  0.00     0.104 A 
ATOM      2  C   LIG d   1       5.283  -0.899  -3.521  0.00  0.00     0.027 A 
ATOM      3  C   LIG d   1       4.873  -1.102  -2.237  0.00  0.00     0.031 A 
ATOM      4  N   LIG d   1       3.634  -1.635  -2.279  0.00  0.00    -0.283 N 
ATOM      5  H   LIG d   1       3.096  -1.882  -1.509  0.00  0.00     0.188 HD
ATOM      6  N   LIG d   1       3.253  -1.766  -3.619  0.00  0.00    -0.173 NA
ATOM      7  H   LIG d   1       5.439  -0.877  -1.345  0.00  0.00     0.083 H 
ENDROOT
BRANCH   1   8
ATOM      8  C   LIG d   1       4.251  -1.295  -5.857  0.00  0.00     0.045 A 
ATOM      9  C   LIG d   1       4.278  -0.073  -6.526  0.00  0.00    -0.042 A 
ATOM     10  C   LIG d   1       4.290  -0.041  -7.905  0.00  0.00    -0.005 A 
ATOM     11  H   LIG d   1       4.290   0.850  -5.964  0.00  0.00     0.063 H 
ATOM     12  C   LIG d   1       4.270  -1.225  -8.630  0.00  0.00     0.127 A 
ATOM     13  C   LIG d   1       4.248  -2.446  -7.972  0.00  0.00     0.022 A 
ATOM     14  C   LIG d   1       4.235  -2.487  -6.589  0.00  0.00     0.130 A 
ATOM     15  H   LIG d   1       4.236  -3.365  -8.540  0.00  0.00     0.069 H 
BRANCH  10  16
ATOM     16  C   LIG d   1       4.319   1.281  -8.625  0.00  0.00    -0.027 C 
ATOM     17  H   LIG d   1       4.600   1.122  -9.667  0.00  0.00     0.031 H 
ATOM     18  H   LIG d   1       5.046   1.939  -8.150  0.00  0.00     0.031 H 
BRANCH  16  19
ATOM     19  C   LIG d   1       2.933   1.926  -8.565  0.00  0.00    -0.061 C 
ATOM     20  H   LIG d   1       2.765   2.511  -9.470  0.00  0.00     0.023 H 
ATOM     21  H   LIG d   1       2.172   1.149  -8.489  0.00  0.00     0.023 H 
ATOM     22  H   LIG d   1       2.875   2.580  -7.694  0.00  0.00     0.023 H 
ENDBRANCH  16  19
ENDBRANCH  10  16
BRANCH  12  23
ATOM     23  O   LIG d   1       4.276  -1.187  -9.988  0.00  0.00    -0.495 OA
BRANCH  23  24
ATOM     24  C   LIG d   1       3.104  -1.659 -10.656  0.00  0.00     0.079 C 
ATOM     25  H   LIG d   1       3.173  -1.426 -11.719  0.00  0.00     0.066 H 
ATOM     26  H   LIG d   1       3.020  -2.737 -10.525  0.00  0.00     0.066 H 
ATOM     27  H   LIG d   1       2.225  -1.172 -10.233  0.00  0.00     0.066 H 
ENDBRANCH  23  24
ENDBRANCH  12  23
BRANCH  14  28
ATOM     28  O   LIG d   1       4.209  -3.682  -5.943  0.00  0.00    -0.506 OA
ATOM     29  H   LIG d   1       4.973  -4.246  -6.128  0.00  0.00     0.292 HD
ENDBRANCH  14  28
ENDBRANCH   1   8
BRANCH   2  30
ATOM     30  C   LIG d   1       6.586  -0.329  -3.946  0.00  0.00    -0.011 A 
ATOM     31  C   LIG d   1       6.970   0.936  -3.507  0.00  0.00    -0.009 A 
ATOM     32  C   LIG d   1       8.190   1.463  -3.902  0.00  0.00     0.163 A 
ATOM     33  H   LIG d   1       6.321   1.503  -2.858  0.00  0.00     0.066 H 
ATOM     34  C   LIG d   1       9.023   0.732  -4.741  0.00  0.00     0.162 A 
ATOM     35  O   LIG d   1       8.551   2.702  -3.466  0.00  0.00    -0.485 OA
ATOM     36  C   LIG d   1       8.635  -0.526  -5.181  0.00  0.00    -0.016 A 
ATOM     37  O   LIG d   1      10.224   1.235  -5.138  0.00  0.00    -0.485 OA
ATOM     38  C   LIG d   1       7.424  -1.056  -4.788  0.00  0.00    -0.050 A 
ATOM     39  H   LIG d   1       9.284  -1.091  -5.834  0.00  0.00     0.066 H 
ATOM     40  H   LIG d   1       7.126  -2.036  -5.133  0.00  0.00     0.062 H 
ATOM     41  C   LIG d   1      10.414   2.645  -4.984  0.00  0.00     0.124 C 
ATOM     42  C   LIG d   1       9.936   3.045  -3.582  0.00  0.00     0.124 C 
ATOM     43  H   LIG d   1       9.833   3.178  -5.737  0.00  0.00     0.073 H 
ATOM     44  H   LIG d   1      11.471   2.888  -5.095  0.00  0.00     0.073 H 
ATOM     45  H   LIG d   1      10.060   4.119  -3.444  0.00  0.00     0.073 H 
ATOM     46  H   LIG d   1      10.513   2.508  -2.830  0.00  0.00     0.073 H 
ENDBRANCH   2  30
TORSDOF 7
ENDMDL
MODEL 9
REMARK VINA RESULT:      -5.5      8.073     10.574
REMARK  7 active torsions:
REMARK  status: ('A' for Active; 'I' for Inactive)
REMARK    1  A    between atoms: C_1  and  C_2 
REMARK    2  A    between atoms: C_2  and  C_3 
REMARK    3  A    between atoms: C_5  and  C_12 
REMARK    4  A    between atoms: C_6  and  O_11 
REMARK    5  A    between atoms: C_8  and  O_9 
REMARK    6  A    between atoms: O_9  and  C_10 
REMARK    7  A    between atoms: C_13  and  C_18 
ROOT
ATOM      1  C   LIG d   1       9.800   4.891  -3.045  0.00  0.00     0.104 A 
ATOM      2  C   LIG d   1       9.818   5.189  -4.431  0.00  0.00     0.027 A 
ATOM      3  C   LIG d   1       9.479   4.051  -5.099  0.00  0.00     0.031 A 
ATOM      4  N   LIG d   1       9.259   3.084  -4.183  0.00  0.00    -0.283 N 
ATOM      5  H   LIG d   1       9.002   2.168  -4.376  0.00  0.00     0.188 HD
ATOM      6  N   LIG d   1       9.468   3.625  -2.910  0.00  0.00    -0.173 NA
ATOM      7  H   LIG d   1       9.401   3.942  -6.171  0.00  0.00     0.083 H 
ENDROOT
BRANCH   1   8
ATOM      8  C   LIG d   1      10.106   5.836  -1.945  0.00  0.00     0.045 A 
ATOM      9  C   LIG d   1       9.477   7.078  -1.895  0.00  0.00    -0.042 A 
ATOM     10  C   LIG d   1       9.764   7.955  -0.869  0.00  0.00    -0.005 A 
ATOM     11  H   LIG d   1       8.764   7.353  -2.658  0.00  0.00     0.063 H 
ATOM     12  C   LIG d   1      10.683   7.607   0.111  0.00  0.00     0.127 A 
ATOM     13  C   LIG d   1      11.311   6.370   0.071  0.00  0.00     0.022 A 
ATOM     14  C   LIG d   1      11.029   5.484  -0.954  0.00  0.00     0.130 A 
ATOM     15  H   LIG d   1      12.022   6.102   0.837  0.00  0.00     0.069 H 
BRANCH  10  16
ATOM     16  C   LIG d   1       9.082   9.298  -0.818  0.00  0.00    -0.027 C 
ATOM     17  H   LIG d   1       9.309   9.784   0.131  0.00  0.00     0.031 H 
ATOM     18  H   LIG d   1       8.004   9.163  -0.907  0.00  0.00     0.031 H 
BRANCH  16  19
ATOM     19  C   LIG d   1       9.583  10.170  -1.970  0.00  0.00    -0.061 C 
ATOM     20  H   LIG d   1      10.467  10.722  -1.650  0.00  0.00     0.023 H 
ATOM     21  H   LIG d   1       9.838   9.539  -2.821  0.00  0.00     0.023 H 
ATOM     22  H   LIG d   1       8.802  10.873  -2.260  0.00  0.00     0.023 H 
ENDBRANCH  16  19
ENDBRANCH  10  16
BRANCH  12  23
ATOM     23  O   LIG d   1      10.965   8.478   1.114  0.00  0.00    -0.495 OA
BRANCH  23  24
ATOM     24  C   LIG d   1      12.261   9.082   1.105  0.00  0.00     0.079 C 
ATOM     25  H   LIG d   1      12.500   9.413   0.094  0.00  0.00     0.066 H 
ATOM     26  H   LIG d   1      12.267   9.938   1.779  0.00  0.00     0.066 H 
ATOM     27  H   LIG d   1      13.002   8.354   1.435  0.00  0.00     0.066 H 
ENDBRANCH  23  24
ENDBRANCH  12  23
BRANCH  14  28
ATOM     28  O   LIG d   1      11.646   4.274  -0.998  0.00  0.00    -0.506 OA
ATOM     29  H   LIG d   1      12.037   4.002  -0.156  0.00  0.00     0.292 HD
ENDBRANCH  14  28
ENDBRANCH   1   8
BRANCH   2  30
ATOM     30  C   LIG d   1      10.145   6.501  -5.043  0.00  0.00    -0.011 A 
ATOM     31  C   LIG d   1      11.475   6.872  -5.227  0.00  0.00    -0.009 A 
ATOM     32  C   LIG d   1      11.777   8.096  -5.803  0.00  0.00     0.163 A 
ATOM     33  H   LIG d   1      12.269   6.206  -4.924  0.00  0.00     0.066 H 
ATOM     34  C   LIG d   1      10.753   8.954  -6.189  0.00  0.00     0.162 A 
ATOM     35  O   LIG d   1      13.082   8.446  -5.974  0.00  0.00    -0.485 OA
ATOM     36  C   LIG d   1       9.429   8.584  -5.999  0.00  0.00    -0.016 A 
ATOM     37  O   LIG d   1      11.033  10.159  -6.756  0.00  0.00    -0.485 OA
ATOM     38  C   LIG d   1       9.123   7.365  -5.430  0.00  0.00    -0.050 A 
ATOM     39  H   LIG d   1       8.636   9.252  -6.299  0.00  0.00     0.066 H 
ATOM     40  H   LIG d   1       8.091   7.082  -5.283  0.00  0.00     0.062 H 
ATOM     41  C   LIG d   1      12.365  10.657  -6.587  0.00  0.00     0.124 C 
ATOM     42  C   LIG d   1      13.346   9.516  -6.888  0.00  0.00     0.124 C 
ATOM     43  H   LIG d   1      12.502  10.999  -5.562  0.00  0.00     0.073 H 
ATOM     44  H   LIG d   1      12.539  11.483  -7.277  0.00  0.00     0.073 H 
ATOM     45  H   LIG d   1      14.369   9.868  -6.756  0.00  0.00     0.073 H 
ATOM     46  H   LIG d   1      13.205   9.170  -7.911  0.00  0.00     0.073 H 
ENDBRANCH   2  30
TORSDOF 7
ENDMDL
MODEL 10
REMARK VINA RESULT:      -5.4      2.949      6.581
REMARK  7 active torsions:
REMARK  status: ('A' for Active; 'I' for Inactive)
REMARK    1  A    between atoms: C_1  and  C_2 
REMARK    2  A    between atoms: C_2  and  C_3 
REMARK    3  A    between atoms: C_5  and  C_12 
REMARK    4  A    between atoms: C_6  and  O_11 
REMARK    5  A    between atoms: C_8  and  O_9 
REMARK    6  A    between atoms: O_9  and  C_10 
REMARK    7  A    between atoms: C_13  and  C_18 
ROOT
ATOM      1  C   LIG d   1       3.282   0.280  -6.095  0.00  0.00     0.104 A 
ATOM      2  C   LIG d   1       4.034  -0.494  -5.177  0.00  0.00     0.027 A 
ATOM      3  C   LIG d   1       3.913   0.092  -3.952  0.00  0.00     0.031 A 
ATOM      4  N   LIG d   1       3.127   1.179  -4.091  0.00  0.00    -0.283 N 
ATOM      5  H   LIG d   1       2.871   1.789  -3.380  0.00  0.00     0.188 HD
ATOM      6  N   LIG d   1       2.747   1.283  -5.434  0.00  0.00    -0.173 NA
ATOM      7  H   LIG d   1       4.367  -0.253  -3.035  0.00  0.00     0.083 H 
ENDROOT
BRANCH   1   8
ATOM      8  C   LIG d   1       3.130   0.010  -7.546  0.00  0.00     0.045 A 
ATOM      9  C   LIG d   1       3.074  -1.302  -8.010  0.00  0.00    -0.042 A 
ATOM     10  C   LIG d   1       2.932  -1.550  -9.360  0.00  0.00    -0.005 A 
ATOM     11  H   LIG d   1       3.139  -2.125  -7.313  0.00  0.00     0.063 H 
ATOM     12  C   LIG d   1       2.852  -0.496 -10.259  0.00  0.00     0.127 A 
ATOM     13  C   LIG d   1       2.903   0.814  -9.804  0.00  0.00     0.022 A 
ATOM     14  C   LIG d   1       3.045   1.072  -8.452  0.00  0.00     0.130 A 
ATOM     15  H   LIG d   1       2.837   1.632 -10.506  0.00  0.00     0.069 H 
BRANCH  10  16
ATOM     16  C   LIG d   1       2.871  -2.970  -9.860  0.00  0.00    -0.027 C 
ATOM     17  H   LIG d   1       3.433  -3.052 -10.791  0.00  0.00     0.031 H 
ATOM     18  H   LIG d   1       1.832  -3.250 -10.037  0.00  0.00     0.031 H 
BRANCH  16  19
ATOM     19  C   LIG d   1       3.479  -3.907  -8.814  0.00  0.00    -0.061 C 
ATOM     20  H   LIG d   1       3.578  -3.377  -7.866  0.00  0.00     0.023 H 
ATOM     21  H   LIG d   1       2.831  -4.773  -8.679  0.00  0.00     0.023 H 
ATOM     22  H   LIG d   1       4.462  -4.236  -9.150  0.00  0.00     0.023 H 
ENDBRANCH  16  19
ENDBRANCH  10  16
BRANCH  12  23
ATOM     23  O   LIG d   1       2.719  -0.746 -11.587  0.00  0.00    -0.495 OA
BRANCH  23  24
ATOM     24  C   LIG d   1       3.852  -0.478 -12.416  0.00  0.00     0.079 C 
ATOM     25  H   LIG d   1       4.186   0.547 -12.254  0.00  0.00     0.066 H 
ATOM     26  H   LIG d   1       4.658  -1.167 -12.162  0.00  0.00     0.066 H 
ATOM     27  H   LIG d   1       3.576  -0.611 -13.461  0.00  0.00     0.066 H 
ENDBRANCH  23  24
ENDBRANCH  12  23
BRANCH  14  28
ATOM     28  O   LIG d   1       3.099   2.354  -8.004  0.00  0.00    -0.506 OA
ATOM     29  H   LIG d   1       3.480   2.446  -7.120  0.00  0.00     0.292 HD
ENDBRANCH  14  28
ENDBRANCH   1   8
BRANCH   2  30
ATOM     30  C   LIG d   1       4.810  -1.720  -5.490  0.00  0.00    -0.011 A 
ATOM     31  C   LIG d   1       4.307  -2.972  -5.145  0.00  0.00    -0.009 A 
ATOM     32  C   LIG d   1       5.033  -4.114  -5.444  0.00  0.00     0.163 A 
ATOM     33  H   LIG d   1       3.352  -3.053  -4.649  0.00  0.00     0.066 H 
ATOM     34  C   LIG d   1       6.265  -4.008  -6.081  0.00  0.00     0.162 A 
ATOM     35  O   LIG d   1       4.529  -5.331  -5.099  0.00  0.00    -0.485 OA
ATOM     36  C   LIG d   1       6.766  -2.759  -6.418  0.00  0.00    -0.016 A 
ATOM     37  O   LIG d   1       6.990  -5.120  -6.381  0.00  0.00    -0.485 OA
ATOM     38  C   LIG d   1       6.046  -1.619  -6.126  0.00  0.00    -0.050 A 
ATOM     39  H   LIG d   1       7.724  -2.679  -6.911  0.00  0.00     0.066 H 
ATOM     40  H   LIG d   1       6.441  -0.649  -6.390  0.00  0.00     0.062 H 
ATOM     41  C   LIG d   1       6.635  -6.325  -5.695  0.00  0.00     0.124 C 
ATOM     42  C   LIG d   1       5.108  -6.472  -5.741  0.00  0.00     0.124 C 
ATOM     43  H   LIG d   1       6.969  -6.270  -4.659  0.00  0.00     0.073 H 
ATOM     44  H   LIG d   1       7.101  -7.179  -6.187  0.00  0.00     0.073 H 
ATOM     45  H   LIG d   1       4.811  -7.380  -5.215  0.00  0.00     0.073 H 
ATOM     46  H   LIG d   1       4.774  -6.522  -6.777  0.00  0.00     0.073 H 
ENDBRANCH   2  30
TORSDOF 7
ENDMDL
