MODEL 1
REMARK VINA RESULT:      -4.9      0.000      0.000
REMARK  13 active torsions:
REMARK  status: ('A' for Active; 'I' for Inactive)
REMARK    1  A    between atoms: C_1  and  N_2 
REMARK    2  A    between atoms: N_2  and  C_3 
REMARK    3  A    between atoms: C_10  and  O_30 
REMARK    4  A    between atoms: C_11  and  O_28 
REMARK    5  A    between atoms: C_14  and  C_16 
REMARK    6  A    between atoms: C_18  and  O_26 
REMARK    7  A    between atoms: C_19  and  O_24 
REMARK    8  A    between atoms: C_20  and  O_22 
REMARK    9  A    between atoms: O_22  and  C_23 
REMARK   10  A    between atoms: O_24  and  C_25 
REMARK   11  A    between atoms: O_26  and  C_27 
REMARK   12  A    between atoms: O_28  and  C_29 
REMARK   13  A    between atoms: O_30  and  C_31 
ROOT
ATOM      1  C   LIG d   1      10.271  -2.801  -5.394  0.00  0.00     0.133 C 
ATOM      2  S   LIG d   1      11.649  -3.553  -4.708  0.00  0.00    -0.019 SA
ATOM      3  N   LIG d   1       9.036  -3.178  -5.010  0.00  0.00    -0.301 N 
ATOM      4  C   LIG d   1       8.835  -4.150  -3.922  0.00  0.00     0.019 C 
ATOM      5  C   LIG d   1       8.175  -5.392  -4.518  0.00  0.00    -0.011 C 
ATOM      6  C   LIG d   1       7.009  -5.011  -5.393  0.00  0.00    -0.037 A 
ATOM      7  C   LIG d   1       6.059  -5.990  -5.659  0.00  0.00    -0.013 A 
ATOM      8  C   LIG d   1       4.969  -5.712  -6.462  0.00  0.00     0.162 A 
ATOM      9  C   LIG d   1       4.823  -4.441  -7.011  0.00  0.00     0.162 A 
ATOM     10  C   LIG d   1       5.768  -3.470  -6.742  0.00  0.00    -0.011 A 
ATOM     11  C   LIG d   1       6.859  -3.752  -5.929  0.00  0.00    -0.016 A 
ATOM     12  C   LIG d   1       7.837  -2.637  -5.657  0.00  0.00     0.076 C 
ATOM     13  H   LIG d   1       8.117  -2.162  -6.598  0.00  0.00     0.060 H 
ATOM     14  H   LIG d   1       8.189  -3.720  -3.157  0.00  0.00     0.047 H 
ATOM     15  H   LIG d   1       9.797  -4.418  -3.485  0.00  0.00     0.047 H 
ATOM     16  H   LIG d   1       7.821  -6.032  -3.710  0.00  0.00     0.033 H 
ATOM     17  H   LIG d   1       8.907  -5.936  -5.114  0.00  0.00     0.033 H 
ATOM     18  H   LIG d   1       6.173  -6.976  -5.235  0.00  0.00     0.066 H 
ATOM     19  H   LIG d   1       5.657  -2.483  -7.167  0.00  0.00     0.066 H 
ENDROOT
BRANCH  12  20
ATOM     20  C   LIG d   1       7.196  -1.617  -4.751  0.00  0.00    -0.015 A 
ATOM     21  C   LIG d   1       6.318  -2.026  -3.765  0.00  0.00    -0.011 A 
ATOM     22  C   LIG d   1       5.727  -1.092  -2.929  0.00  0.00     0.166 A 
ATOM     23  H   LIG d   1       6.093  -3.076  -3.645  0.00  0.00     0.066 H 
ATOM     24  C   LIG d   1       6.017   0.259  -3.084  0.00  0.00     0.203 A 
ATOM     25  C   LIG d   1       6.901   0.666  -4.077  0.00  0.00     0.166 A 
ATOM     26  C   LIG d   1       7.493  -0.275  -4.904  0.00  0.00    -0.011 A 
ATOM     27  H   LIG d   1       8.183   0.039  -5.673  0.00  0.00     0.066 H 
BRANCH  22  28
ATOM     28  O   LIG d   1       4.863  -1.496  -1.959  0.00  0.00    -0.491 OA
BRANCH  28  29
ATOM     29  C   LIG d   1       3.661  -2.138  -2.387  0.00  0.00     0.079 C 
ATOM     30  H   LIG d   1       3.802  -3.218  -2.376  0.00  0.00     0.066 H 
ATOM     31  H   LIG d   1       2.847  -1.871  -1.713  0.00  0.00     0.066 H 
ATOM     32  H   LIG d   1       3.416  -1.814  -3.398  0.00  0.00     0.066 H 
ENDBRANCH  28  29
ENDBRANCH  22  28
BRANCH  24  33
ATOM     33  O   LIG d   1       5.440   1.179  -2.265  0.00  0.00    -0.488 OA
BRANCH  33  34
ATOM     34  C   LIG d   1       4.117   1.605  -2.597  0.00  0.00     0.079 C 
ATOM     35  H   LIG d   1       3.412   0.804  -2.380  0.00  0.00     0.066 H 
ATOM     36  H   LIG d   1       3.859   2.485  -2.007  0.00  0.00     0.066 H 
ATOM     37  H   LIG d   1       4.070   1.853  -3.658  0.00  0.00     0.066 H 
ENDBRANCH  33  34
ENDBRANCH  24  33
BRANCH  25  38
ATOM     38  O   LIG d   1       7.188   1.986  -4.231  0.00  0.00    -0.491 OA
BRANCH  38  39
ATOM     39  C   LIG d   1       8.397   2.309  -4.921  0.00  0.00     0.079 C 
ATOM     40  H   LIG d   1       9.034   1.426  -4.973  0.00  0.00     0.066 H 
ATOM     41  H   LIG d   1       8.161   2.647  -5.930  0.00  0.00     0.066 H 
ATOM     42  H   LIG d   1       8.921   3.102  -4.385  0.00  0.00     0.066 H 
ENDBRANCH  38  39
ENDBRANCH  25  38
ENDBRANCH  12  20
BRANCH   1  43
ATOM     43  N   LIG d   1      10.424  -1.833  -6.319  0.00  0.00    -0.330 N 
ATOM     44  H   LIG d   1      10.117  -1.977  -7.228  0.00  0.00     0.147 HD
BRANCH  43  45
ATOM     45  C   LIG d   1      11.053  -0.561  -5.952  0.00  0.00    -0.001 C 
ATOM     46  H   LIG d   1      10.405   0.264  -6.250  0.00  0.00     0.043 H 
ATOM     47  H   LIG d   1      11.207  -0.531  -4.874  0.00  0.00     0.043 H 
ATOM     48  H   LIG d   1      12.013  -0.472  -6.460  0.00  0.00     0.043 H 
ENDBRANCH  43  45
ENDBRANCH   1  43
BRANCH   9  49
ATOM     49  O   LIG d   1       3.757  -4.158  -7.808  0.00  0.00    -0.491 OA
BRANCH  49  50
ATOM     50  C   LIG d   1       3.732  -2.868  -8.424  0.00  0.00     0.079 C 
ATOM     51  H   LIG d   1       3.662  -2.101  -7.654  0.00  0.00     0.066 H 
ATOM     52  H   LIG d   1       4.645  -2.723  -8.999  0.00  0.00     0.066 H 
ATOM     53  H   LIG d   1       2.869  -2.799  -9.086  0.00  0.00     0.066 H 
ENDBRANCH  49  50
ENDBRANCH   9  49
BRANCH   8  54
ATOM     54  O   LIG d   1       4.044  -6.677  -6.716  0.00  0.00    -0.491 OA
BRANCH  54  55
ATOM     55  C   LIG d   1       4.411  -7.700  -7.643  0.00  0.00     0.079 C 
ATOM     56  H   LIG d   1       5.495  -7.720  -7.752  0.00  0.00     0.066 H 
ATOM     57  H   LIG d   1       4.065  -8.666  -7.274  0.00  0.00     0.066 H 
ATOM     58  H   LIG d   1       3.952  -7.496  -8.611  0.00  0.00     0.066 H 
ENDBRANCH  54  55
ENDBRANCH   8  54
TORSDOF 13
ENDMDL
MODEL 2
REMARK VINA RESULT:      -4.9      0.474      2.374
REMARK  13 active torsions:
REMARK  status: ('A' for Active; 'I' for Inactive)
REMARK    1  A    between atoms: C_1  and  N_2 
REMARK    2  A    between atoms: N_2  and  C_3 
REMARK    3  A    between atoms: C_10  and  O_30 
REMARK    4  A    between atoms: C_11  and  O_28 
REMARK    5  A    between atoms: C_14  and  C_16 
REMARK    6  A    between atoms: C_18  and  O_26 
REMARK    7  A    between atoms: C_19  and  O_24 
REMARK    8  A    between atoms: C_20  and  O_22 
REMARK    9  A    between atoms: O_22  and  C_23 
REMARK   10  A    between atoms: O_24  and  C_25 
REMARK   11  A    between atoms: O_26  and  C_27 
REMARK   12  A    between atoms: O_28  and  C_29 
REMARK   13  A    between atoms: O_30  and  C_31 
ROOT
ATOM      1  C   LIG d   1      10.270  -2.833  -5.458  0.00  0.00     0.133 C 
ATOM      2  S   LIG d   1      11.664  -3.577  -4.798  0.00  0.00    -0.019 SA
ATOM      3  N   LIG d   1       9.044  -3.217  -5.052  0.00  0.00    -0.301 N 
ATOM      4  C   LIG d   1       8.868  -4.191  -3.961  0.00  0.00     0.019 C 
ATOM      5  C   LIG d   1       8.205  -5.437  -4.546  0.00  0.00    -0.011 C 
ATOM      6  C   LIG d   1       7.021  -5.061  -5.400  0.00  0.00    -0.037 A 
ATOM      7  C   LIG d   1       6.071  -6.045  -5.649  0.00  0.00    -0.013 A 
ATOM      8  C   LIG d   1       4.965  -5.773  -6.433  0.00  0.00     0.162 A 
ATOM      9  C   LIG d   1       4.803  -4.503  -6.978  0.00  0.00     0.162 A 
ATOM     10  C   LIG d   1       5.747  -3.526  -6.724  0.00  0.00    -0.011 A 
ATOM     11  C   LIG d   1       6.854  -3.802  -5.932  0.00  0.00    -0.016 A 
ATOM     12  C   LIG d   1       7.831  -2.682  -5.677  0.00  0.00     0.076 C 
ATOM     13  H   LIG d   1       8.091  -2.205  -6.622  0.00  0.00     0.060 H 
ATOM     14  H   LIG d   1       8.234  -3.765  -3.185  0.00  0.00     0.047 H 
ATOM     15  H   LIG d   1       9.840  -4.454  -3.542  0.00  0.00     0.047 H 
ATOM     16  H   LIG d   1       7.869  -6.079  -3.733  0.00  0.00     0.033 H 
ATOM     17  H   LIG d   1       8.928  -5.976  -5.156  0.00  0.00     0.033 H 
ATOM     18  H   LIG d   1       6.199  -7.031  -5.228  0.00  0.00     0.066 H 
ATOM     19  H   LIG d   1       5.623  -2.539  -7.146  0.00  0.00     0.066 H 
ENDROOT
BRANCH  12  20
ATOM     20  C   LIG d   1       7.200  -1.666  -4.758  0.00  0.00    -0.015 A 
ATOM     21  C   LIG d   1       7.515  -0.327  -4.892  0.00  0.00    -0.011 A 
ATOM     22  C   LIG d   1       6.937   0.610  -4.050  0.00  0.00     0.166 A 
ATOM     23  H   LIG d   1       8.213  -0.010  -5.654  0.00  0.00     0.066 H 
ATOM     24  C   LIG d   1       6.040   0.202  -3.070  0.00  0.00     0.203 A 
ATOM     25  C   LIG d   1       5.725  -1.146  -2.939  0.00  0.00     0.166 A 
ATOM     26  C   LIG d   1       6.303  -2.076  -3.790  0.00  0.00    -0.011 A 
ATOM     27  H   LIG d   1       6.056  -3.123  -3.692  0.00  0.00     0.066 H 
BRANCH  22  28
ATOM     28  O   LIG d   1       7.248   1.928  -4.183  0.00  0.00    -0.491 OA
BRANCH  28  29
ATOM     29  C   LIG d   1       8.585   2.315  -3.862  0.00  0.00     0.079 C 
ATOM     30  H   LIG d   1       9.107   2.608  -4.772  0.00  0.00     0.066 H 
ATOM     31  H   LIG d   1       8.563   3.156  -3.169  0.00  0.00     0.066 H 
ATOM     32  H   LIG d   1       9.105   1.476  -3.398  0.00  0.00     0.066 H 
ENDBRANCH  28  29
ENDBRANCH  22  28
BRANCH  24  33
ATOM     33  O   LIG d   1       5.469   1.119  -2.242  0.00  0.00    -0.488 OA
BRANCH  33  34
ATOM     34  C   LIG d   1       4.160   1.578  -2.585  0.00  0.00     0.079 C 
ATOM     35  H   LIG d   1       4.231   2.312  -3.387  0.00  0.00     0.066 H 
ATOM     36  H   LIG d   1       3.555   0.735  -2.918  0.00  0.00     0.066 H 
ATOM     37  H   LIG d   1       3.695   2.037  -1.712  0.00  0.00     0.066 H 
ENDBRANCH  33  34
ENDBRANCH  24  33
BRANCH  25  38
ATOM     38  O   LIG d   1       4.848  -1.550  -1.983  0.00  0.00    -0.491 OA
BRANCH  38  39
ATOM     39  C   LIG d   1       3.631  -2.150  -2.432  0.00  0.00     0.079 C 
ATOM     40  H   LIG d   1       2.799  -1.473  -2.238  0.00  0.00     0.066 H 
ATOM     41  H   LIG d   1       3.697  -2.349  -3.502  0.00  0.00     0.066 H 
ATOM     42  H   LIG d   1       3.469  -3.086  -1.897  0.00  0.00     0.066 H 
ENDBRANCH  38  39
ENDBRANCH  25  38
ENDBRANCH  12  20
BRANCH   1  43
ATOM     43  N   LIG d   1      10.400  -1.863  -6.384  0.00  0.00    -0.330 N 
ATOM     44  H   LIG d   1      10.036  -0.979  -6.216  0.00  0.00     0.147 HD
BRANCH  43  45
ATOM     45  C   LIG d   1      11.090  -2.142  -7.646  0.00  0.00    -0.001 C 
ATOM     46  H   LIG d   1      11.856  -2.899  -7.482  0.00  0.00     0.043 H 
ATOM     47  H   LIG d   1      10.371  -2.504  -8.380  0.00  0.00     0.043 H 
ATOM     48  H   LIG d   1      11.556  -1.227  -8.014  0.00  0.00     0.043 H 
ENDBRANCH  43  45
ENDBRANCH   1  43
BRANCH   9  49
ATOM     49  O   LIG d   1       3.721  -4.224  -7.755  0.00  0.00    -0.491 OA
BRANCH  49  50
ATOM     50  C   LIG d   1       3.757  -3.009  -8.505  0.00  0.00     0.079 C 
ATOM     51  H   LIG d   1       4.668  -2.462  -8.266  0.00  0.00     0.066 H 
ATOM     52  H   LIG d   1       3.739  -3.239  -9.570  0.00  0.00     0.066 H 
ATOM     53  H   LIG d   1       2.889  -2.399  -8.250  0.00  0.00     0.066 H 
ENDBRANCH  49  50
ENDBRANCH   9  49
BRANCH   8  54
ATOM     54  O   LIG d   1       4.042  -6.743  -6.671  0.00  0.00    -0.491 OA
BRANCH  54  55
ATOM     55  C   LIG d   1       4.471  -7.876  -7.427  0.00  0.00     0.079 C 
ATOM     56  H   LIG d   1       3.609  -8.495  -7.675  0.00  0.00     0.066 H 
ATOM     57  H   LIG d   1       4.952  -7.539  -8.346  0.00  0.00     0.066 H 
ATOM     58  H   LIG d   1       5.180  -8.459  -6.839  0.00  0.00     0.066 H 
ENDBRANCH  54  55
ENDBRANCH   8  54
TORSDOF 13
ENDMDL
MODEL 3
REMARK VINA RESULT:      -4.8      3.385      5.343
REMARK  13 active torsions:
REMARK  status: ('A' for Active; 'I' for Inactive)
REMARK    1  A    between atoms: C_1  and  N_2 
REMARK    2  A    between atoms: N_2  and  C_3 
REMARK    3  A    between atoms: C_10  and  O_30 
REMARK    4  A    between atoms: C_11  and  O_28 
REMARK    5  A    between atoms: C_14  and  C_16 
REMARK    6  A    between atoms: C_18  and  O_26 
REMARK    7  A    between atoms: C_19  and  O_24 
REMARK    8  A    between atoms: C_20  and  O_22 
REMARK    9  A    between atoms: O_22  and  C_23 
REMARK   10  A    between atoms: O_24  and  C_25 
REMARK   11  A    between atoms: O_26  and  C_27 
REMARK   12  A    between atoms: O_28  and  C_29 
REMARK   13  A    between atoms: O_30  and  C_31 
ROOT
ATOM      1  C   LIG d   1       4.100  -0.689  -3.007  0.00  0.00     0.133 C 
ATOM      2  S   LIG d   1       2.411  -0.728  -3.291  0.00  0.00    -0.019 SA
ATOM      3  N   LIG d   1       4.951  -1.163  -3.937  0.00  0.00    -0.301 N 
ATOM      4  C   LIG d   1       4.472  -1.616  -5.255  0.00  0.00     0.019 C 
ATOM      5  C   LIG d   1       4.753  -3.114  -5.367  0.00  0.00    -0.011 C 
ATOM      6  C   LIG d   1       6.166  -3.426  -4.946  0.00  0.00    -0.037 A 
ATOM      7  C   LIG d   1       6.714  -4.627  -5.381  0.00  0.00    -0.013 A 
ATOM      8  C   LIG d   1       8.002  -4.982  -5.024  0.00  0.00     0.162 A 
ATOM      9  C   LIG d   1       8.755  -4.129  -4.222  0.00  0.00     0.162 A 
ATOM     10  C   LIG d   1       8.208  -2.934  -3.795  0.00  0.00    -0.011 A 
ATOM     11  C   LIG d   1       6.915  -2.579  -4.161  0.00  0.00    -0.016 A 
ATOM     12  C   LIG d   1       6.392  -1.249  -3.680  0.00  0.00     0.076 C 
ATOM     13  H   LIG d   1       6.575  -1.152  -2.610  0.00  0.00     0.060 H 
ATOM     14  H   LIG d   1       5.000  -1.081  -6.043  0.00  0.00     0.047 H 
ATOM     15  H   LIG d   1       3.400  -1.435  -5.339  0.00  0.00     0.047 H 
ATOM     16  H   LIG d   1       4.610  -3.429  -6.400  0.00  0.00     0.033 H 
ATOM     17  H   LIG d   1       4.061  -3.658  -4.726  0.00  0.00     0.033 H 
ATOM     18  H   LIG d   1       6.130  -5.289  -6.001  0.00  0.00     0.066 H 
ATOM     19  H   LIG d   1       8.790  -2.271  -3.173  0.00  0.00     0.066 H 
ENDROOT
BRANCH  12  20
ATOM     20  C   LIG d   1       7.098  -0.137  -4.413  0.00  0.00    -0.015 A 
ATOM     21  C   LIG d   1       7.698   0.885  -3.702  0.00  0.00    -0.011 A 
ATOM     22  C   LIG d   1       8.349   1.909  -4.372  0.00  0.00     0.166 A 
ATOM     23  H   LIG d   1       7.658   0.886  -2.622  0.00  0.00     0.066 H 
ATOM     24  C   LIG d   1       8.399   1.907  -5.760  0.00  0.00     0.203 A 
ATOM     25  C   LIG d   1       7.796   0.877  -6.472  0.00  0.00     0.166 A 
ATOM     26  C   LIG d   1       7.152  -0.147  -5.794  0.00  0.00    -0.011 A 
ATOM     27  H   LIG d   1       6.687  -0.950  -6.346  0.00  0.00     0.066 H 
BRANCH  22  28
ATOM     28  O   LIG d   1       8.939   2.915  -3.670  0.00  0.00    -0.491 OA
BRANCH  28  29
ATOM     29  C   LIG d   1      10.209   2.636  -3.080  0.00  0.00     0.079 C 
ATOM     30  H   LIG d   1      10.924   2.378  -3.861  0.00  0.00     0.066 H 
ATOM     31  H   LIG d   1      10.561   3.516  -2.542  0.00  0.00     0.066 H 
ATOM     32  H   LIG d   1      10.113   1.801  -2.386  0.00  0.00     0.066 H 
ENDBRANCH  28  29
ENDBRANCH  22  28
BRANCH  24  33
ATOM     33  O   LIG d   1       9.039   2.910  -6.422  0.00  0.00    -0.488 OA
BRANCH  33  34
ATOM     34  C   LIG d   1      10.405   2.687  -6.775  0.00  0.00     0.079 C 
ATOM     35  H   LIG d   1      10.989   3.579  -6.552  0.00  0.00     0.066 H 
ATOM     36  H   LIG d   1      10.796   1.845  -6.202  0.00  0.00     0.066 H 
ATOM     37  H   LIG d   1      10.474   2.464  -7.840  0.00  0.00     0.066 H 
ENDBRANCH  33  34
ENDBRANCH  24  33
BRANCH  25  38
ATOM     38  O   LIG d   1       7.843   0.870  -7.831  0.00  0.00    -0.491 OA
BRANCH  38  39
ATOM     39  C   LIG d   1       6.694   1.362  -8.522  0.00  0.00     0.079 C 
ATOM     40  H   LIG d   1       6.893   2.370  -8.888  0.00  0.00     0.066 H 
ATOM     41  H   LIG d   1       6.467   0.708  -9.363  0.00  0.00     0.066 H 
ATOM     42  H   LIG d   1       5.842   1.387  -7.840  0.00  0.00     0.066 H 
ENDBRANCH  38  39
ENDBRANCH  25  38
ENDBRANCH  12  20
BRANCH   1  43
ATOM     43  N   LIG d   1       4.576  -0.183  -1.852  0.00  0.00    -0.330 N 
ATOM     44  H   LIG d   1       4.938  -0.777  -1.176  0.00  0.00     0.147 HD
BRANCH  43  45
ATOM     45  C   LIG d   1       4.548   1.263  -1.617  0.00  0.00    -0.001 C 
ATOM     46  H   LIG d   1       4.460   1.456  -0.548  0.00  0.00     0.043 H 
ATOM     47  H   LIG d   1       5.468   1.709  -1.993  0.00  0.00     0.043 H 
ATOM     48  H   LIG d   1       3.694   1.698  -2.137  0.00  0.00     0.043 H 
ENDBRANCH  43  45
ENDBRANCH   1  43
BRANCH   9  49
ATOM     49  O   LIG d   1      10.022  -4.470  -3.861  0.00  0.00    -0.491 OA
BRANCH  49  50
ATOM     50  C   LIG d   1      10.254  -4.726  -2.474  0.00  0.00     0.079 C 
ATOM     51  H   LIG d   1      10.612  -5.748  -2.349  0.00  0.00     0.066 H 
ATOM     52  H   LIG d   1      11.002  -4.031  -2.096  0.00  0.00     0.066 H 
ATOM     53  H   LIG d   1       9.324  -4.597  -1.919  0.00  0.00     0.066 H 
ENDBRANCH  49  50
ENDBRANCH   9  49
BRANCH   8  54
ATOM     54  O   LIG d   1       8.530  -6.159  -5.455  0.00  0.00    -0.491 OA
BRANCH  54  55
ATOM     55  C   LIG d   1       7.725  -7.329  -5.293  0.00  0.00     0.079 C 
ATOM     56  H   LIG d   1       7.020  -7.402  -6.122  0.00  0.00     0.066 H 
ATOM     57  H   LIG d   1       8.365  -8.212  -5.282  0.00  0.00     0.066 H 
ATOM     58  H   LIG d   1       7.176  -7.266  -4.354  0.00  0.00     0.066 H 
ENDBRANCH  54  55
ENDBRANCH   8  54
TORSDOF 13
ENDMDL
MODEL 4
REMARK VINA RESULT:      -4.8      3.583      6.684
REMARK  13 active torsions:
REMARK  status: ('A' for Active; 'I' for Inactive)
REMARK    1  A    between atoms: C_1  and  N_2 
REMARK    2  A    between atoms: N_2  and  C_3 
REMARK    3  A    between atoms: C_10  and  O_30 
REMARK    4  A    between atoms: C_11  and  O_28 
REMARK    5  A    between atoms: C_14  and  C_16 
REMARK    6  A    between atoms: C_18  and  O_26 
REMARK    7  A    between atoms: C_19  and  O_24 
REMARK    8  A    between atoms: C_20  and  O_22 
REMARK    9  A    between atoms: O_22  and  C_23 
REMARK   10  A    between atoms: O_24  and  C_25 
REMARK   11  A    between atoms: O_26  and  C_27 
REMARK   12  A    between atoms: O_28  and  C_29 
REMARK   13  A    between atoms: O_30  and  C_31 
ROOT
ATOM      1  C   LIG d   1       3.757  -0.227  -5.556  0.00  0.00     0.133 C 
ATOM      2  S   LIG d   1       2.768   0.526  -4.378  0.00  0.00    -0.019 SA
ATOM      3  N   LIG d   1       4.426  -1.357  -5.253  0.00  0.00    -0.301 N 
ATOM      4  C   LIG d   1       4.238  -2.034  -3.958  0.00  0.00     0.019 C 
ATOM      5  C   LIG d   1       5.565  -1.980  -3.203  0.00  0.00    -0.011 C 
ATOM      6  C   LIG d   1       6.706  -2.394  -4.097  0.00  0.00    -0.037 A 
ATOM      7  C   LIG d   1       7.883  -2.810  -3.484  0.00  0.00    -0.013 A 
ATOM      8  C   LIG d   1       8.973  -3.194  -4.242  0.00  0.00     0.162 A 
ATOM      9  C   LIG d   1       8.891  -3.164  -5.632  0.00  0.00     0.162 A 
ATOM     10  C   LIG d   1       7.718  -2.755  -6.237  0.00  0.00    -0.011 A 
ATOM     11  C   LIG d   1       6.624  -2.374  -5.471  0.00  0.00    -0.016 A 
ATOM     12  C   LIG d   1       5.368  -1.963  -6.198  0.00  0.00     0.076 C 
ATOM     13  H   LIG d   1       5.619  -1.239  -6.974  0.00  0.00     0.060 H 
ATOM     14  H   LIG d   1       3.949  -3.071  -4.123  0.00  0.00     0.047 H 
ATOM     15  H   LIG d   1       3.466  -1.522  -3.383  0.00  0.00     0.047 H 
ATOM     16  H   LIG d   1       5.519  -2.653  -2.348  0.00  0.00     0.033 H 
ATOM     17  H   LIG d   1       5.738  -0.963  -2.853  0.00  0.00     0.033 H 
ATOM     18  H   LIG d   1       7.947  -2.831  -2.407  0.00  0.00     0.066 H 
ATOM     19  H   LIG d   1       7.652  -2.731  -7.315  0.00  0.00     0.066 H 
ENDROOT
BRANCH  12  20
ATOM     20  C   LIG d   1       4.734  -3.176  -6.829  0.00  0.00    -0.015 A 
ATOM     21  C   LIG d   1       4.668  -4.364  -6.125  0.00  0.00    -0.011 A 
ATOM     22  C   LIG d   1       4.085  -5.482  -6.702  0.00  0.00     0.166 A 
ATOM     23  H   LIG d   1       5.071  -4.422  -5.125  0.00  0.00     0.066 H 
ATOM     24  C   LIG d   1       3.566  -5.407  -7.989  0.00  0.00     0.203 A 
ATOM     25  C   LIG d   1       3.634  -4.211  -8.693  0.00  0.00     0.166 A 
ATOM     26  C   LIG d   1       4.213  -3.095  -8.107  0.00  0.00    -0.011 A 
ATOM     27  H   LIG d   1       4.262  -2.164  -8.651  0.00  0.00     0.066 H 
BRANCH  22  28
ATOM     28  O   LIG d   1       4.021  -6.651  -6.008  0.00  0.00    -0.491 OA
BRANCH  28  29
ATOM     29  C   LIG d   1       5.261  -7.258  -5.644  0.00  0.00     0.079 C 
ATOM     30  H   LIG d   1       5.217  -8.327  -5.851  0.00  0.00     0.066 H 
ATOM     31  H   LIG d   1       6.069  -6.810  -6.223  0.00  0.00     0.066 H 
ATOM     32  H   LIG d   1       5.445  -7.101  -4.581  0.00  0.00     0.066 H 
ENDBRANCH  28  29
ENDBRANCH  22  28
BRANCH  24  33
ATOM     33  O   LIG d   1       2.992  -6.502  -8.558  0.00  0.00    -0.488 OA
BRANCH  33  34
ATOM     34  C   LIG d   1       3.853  -7.387  -9.278  0.00  0.00     0.079 C 
ATOM     35  H   LIG d   1       3.568  -8.418  -9.072  0.00  0.00     0.066 H 
ATOM     36  H   LIG d   1       3.764  -7.192 -10.347  0.00  0.00     0.066 H 
ATOM     37  H   LIG d   1       4.885  -7.226  -8.964  0.00  0.00     0.066 H 
ENDBRANCH  33  34
ENDBRANCH  24  33
BRANCH  25  38
ATOM     38  O   LIG d   1       3.127  -4.133  -9.952  0.00  0.00    -0.491 OA
BRANCH  38  39
ATOM     39  C   LIG d   1       1.989  -3.290 -10.142  0.00  0.00     0.079 C 
ATOM     40  H   LIG d   1       1.963  -2.941 -11.174  0.00  0.00     0.066 H 
ATOM     41  H   LIG d   1       1.080  -3.853  -9.926  0.00  0.00     0.066 H 
ATOM     42  H   LIG d   1       2.054  -2.433  -9.471  0.00  0.00     0.066 H 
ENDBRANCH  38  39
ENDBRANCH  25  38
ENDBRANCH  12  20
BRANCH   1  43
ATOM     43  N   LIG d   1       3.868   0.312  -6.786  0.00  0.00    -0.330 N 
ATOM     44  H   LIG d   1       4.690   0.756  -7.049  0.00  0.00     0.147 HD
BRANCH  43  45
ATOM     45  C   LIG d   1       2.747   0.229  -7.726  0.00  0.00    -0.001 C 
ATOM     46  H   LIG d   1       2.008   0.991  -7.478  0.00  0.00     0.043 H 
ATOM     47  H   LIG d   1       3.112   0.394  -8.740  0.00  0.00     0.043 H 
ATOM     48  H   LIG d   1       2.290  -0.758  -7.659  0.00  0.00     0.043 H 
ENDBRANCH  43  45
ENDBRANCH   1  43
BRANCH   9  49
ATOM     49  O   LIG d   1       9.959  -3.536  -6.389  0.00  0.00    -0.491 OA
BRANCH  49  50
ATOM     50  C   LIG d   1       9.795  -4.683  -7.224  0.00  0.00     0.079 C 
ATOM     51  H   LIG d   1       8.739  -4.951  -7.268  0.00  0.00     0.066 H 
ATOM     52  H   LIG d   1      10.154  -4.457  -8.227  0.00  0.00     0.066 H 
ATOM     53  H   LIG d   1      10.365  -5.517  -6.813  0.00  0.00     0.066 H 
ENDBRANCH  49  50
ENDBRANCH   9  49
BRANCH   8  54
ATOM     54  O   LIG d   1      10.120  -3.599  -3.634  0.00  0.00    -0.491 OA
BRANCH  54  55
ATOM     55  C   LIG d   1       9.983  -4.370  -2.438  0.00  0.00     0.079 C 
ATOM     56  H   LIG d   1       9.322  -3.851  -1.744  0.00  0.00     0.066 H 
ATOM     57  H   LIG d   1       9.561  -5.345  -2.681  0.00  0.00     0.066 H 
ATOM     58  H   LIG d   1      10.962  -4.503  -1.978  0.00  0.00     0.066 H 
ENDBRANCH  54  55
ENDBRANCH   8  54
TORSDOF 13
ENDMDL
MODEL 5
REMARK VINA RESULT:      -4.8      3.548      6.889
REMARK  13 active torsions:
REMARK  status: ('A' for Active; 'I' for Inactive)
REMARK    1  A    between atoms: C_1  and  N_2 
REMARK    2  A    between atoms: N_2  and  C_3 
REMARK    3  A    between atoms: C_10  and  O_30 
REMARK    4  A    between atoms: C_11  and  O_28 
REMARK    5  A    between atoms: C_14  and  C_16 
REMARK    6  A    between atoms: C_18  and  O_26 
REMARK    7  A    between atoms: C_19  and  O_24 
REMARK    8  A    between atoms: C_20  and  O_22 
REMARK    9  A    between atoms: O_22  and  C_23 
REMARK   10  A    between atoms: O_24  and  C_25 
REMARK   11  A    between atoms: O_26  and  C_27 
REMARK   12  A    between atoms: O_28  and  C_29 
REMARK   13  A    between atoms: O_30  and  C_31 
ROOT
ATOM      1  C   LIG d   1       3.751  -0.227  -5.563  0.00  0.00     0.133 C 
ATOM      2  S   LIG d   1       2.760   0.533  -4.390  0.00  0.00    -0.019 SA
ATOM      3  N   LIG d   1       4.421  -1.354  -5.251  0.00  0.00    -0.301 N 
ATOM      4  C   LIG d   1       4.234  -2.022  -3.952  0.00  0.00     0.019 C 
ATOM      5  C   LIG d   1       5.562  -1.960  -3.197  0.00  0.00    -0.011 C 
ATOM      6  C   LIG d   1       6.703  -2.379  -4.086  0.00  0.00    -0.037 A 
ATOM      7  C   LIG d   1       7.881  -2.788  -3.470  0.00  0.00    -0.013 A 
ATOM      8  C   LIG d   1       8.971  -3.176  -4.226  0.00  0.00     0.162 A 
ATOM      9  C   LIG d   1       8.890  -3.156  -5.615  0.00  0.00     0.162 A 
ATOM     10  C   LIG d   1       7.716  -2.753  -6.224  0.00  0.00    -0.011 A 
ATOM     11  C   LIG d   1       6.621  -2.369  -5.461  0.00  0.00    -0.016 A 
ATOM     12  C   LIG d   1       5.365  -1.965  -6.191  0.00  0.00     0.076 C 
ATOM     13  H   LIG d   1       5.615  -1.246  -6.972  0.00  0.00     0.060 H 
ATOM     14  H   LIG d   1       3.947  -3.061  -4.109  0.00  0.00     0.047 H 
ATOM     15  H   LIG d   1       3.462  -1.507  -3.380  0.00  0.00     0.047 H 
ATOM     16  H   LIG d   1       5.516  -2.627  -2.336  0.00  0.00     0.033 H 
ATOM     17  H   LIG d   1       5.732  -0.940  -2.853  0.00  0.00     0.033 H 
ATOM     18  H   LIG d   1       7.944  -2.801  -2.393  0.00  0.00     0.066 H 
ATOM     19  H   LIG d   1       7.651  -2.737  -7.302  0.00  0.00     0.066 H 
ENDROOT
BRANCH  12  20
ATOM     20  C   LIG d   1       4.733  -3.184  -6.814  0.00  0.00    -0.015 A 
ATOM     21  C   LIG d   1       4.221  -3.115  -8.096  0.00  0.00    -0.011 A 
ATOM     22  C   LIG d   1       3.639  -4.234  -8.672  0.00  0.00     0.166 A 
ATOM     23  H   LIG d   1       4.273  -2.189  -8.649  0.00  0.00     0.066 H 
ATOM     24  C   LIG d   1       3.572  -5.425  -7.960  0.00  0.00     0.203 A 
ATOM     25  C   LIG d   1       4.089  -5.490  -6.671  0.00  0.00     0.166 A 
ATOM     26  C   LIG d   1       4.675  -4.368  -6.104  0.00  0.00    -0.011 A 
ATOM     27  H   LIG d   1       5.081  -4.419  -5.105  0.00  0.00     0.066 H 
BRANCH  22  28
ATOM     28  O   LIG d   1       3.135  -4.165  -9.934  0.00  0.00    -0.491 OA
BRANCH  28  29
ATOM     29  C   LIG d   1       1.990  -3.334 -10.131  0.00  0.00     0.079 C 
ATOM     30  H   LIG d   1       1.796  -3.229 -11.198  0.00  0.00     0.066 H 
ATOM     31  H   LIG d   1       1.125  -3.786  -9.647  0.00  0.00     0.066 H 
ATOM     32  H   LIG d   1       2.176  -2.351  -9.698  0.00  0.00     0.066 H 
ENDBRANCH  28  29
ENDBRANCH  22  28
BRANCH  24  33
ATOM     33  O   LIG d   1       3.003  -6.526  -8.523  0.00  0.00    -0.488 OA
BRANCH  33  34
ATOM     34  C   LIG d   1       3.869  -7.412  -9.234  0.00  0.00     0.079 C 
ATOM     35  H   LIG d   1       3.359  -8.360  -9.405  0.00  0.00     0.066 H 
ATOM     36  H   LIG d   1       4.137  -6.967 -10.193  0.00  0.00     0.066 H 
ATOM     37  H   LIG d   1       4.772  -7.586  -8.649  0.00  0.00     0.066 H 
ENDBRANCH  33  34
ENDBRANCH  24  33
BRANCH  25  38
ATOM     38  O   LIG d   1       4.026  -6.653  -5.971  0.00  0.00    -0.491 OA
BRANCH  38  39
ATOM     39  C   LIG d   1       5.268  -7.261  -5.610  0.00  0.00     0.079 C 
ATOM     40  H   LIG d   1       5.683  -6.752  -4.739  0.00  0.00     0.066 H 
ATOM     41  H   LIG d   1       5.104  -8.312  -5.372  0.00  0.00     0.066 H 
ATOM     42  H   LIG d   1       5.968  -7.181  -6.443  0.00  0.00     0.066 H 
ENDBRANCH  38  39
ENDBRANCH  25  38
ENDBRANCH  12  20
BRANCH   1  43
ATOM     43  N   LIG d   1       3.861   0.304  -6.796  0.00  0.00    -0.330 N 
ATOM     44  H   LIG d   1       4.683   0.746  -7.063  0.00  0.00     0.147 HD
BRANCH  43  45
ATOM     45  C   LIG d   1       2.741   0.212  -7.736  0.00  0.00    -0.001 C 
ATOM     46  H   LIG d   1       1.844   0.622  -7.273  0.00  0.00     0.043 H 
ATOM     47  H   LIG d   1       2.976   0.779  -8.636  0.00  0.00     0.043 H 
ATOM     48  H   LIG d   1       2.571  -0.832  -7.998  0.00  0.00     0.043 H 
ENDBRANCH  43  45
ENDBRANCH   1  43
BRANCH   9  49
ATOM     49  O   LIG d   1       9.959  -3.531  -6.369  0.00  0.00    -0.491 OA
BRANCH  49  50
ATOM     50  C   LIG d   1      10.724  -2.487  -6.975  0.00  0.00     0.079 C 
ATOM     51  H   LIG d   1      11.720  -2.859  -7.212  0.00  0.00     0.066 H 
ATOM     52  H   LIG d   1      10.231  -2.159  -7.889  0.00  0.00     0.066 H 
ATOM     53  H   LIG d   1      10.804  -1.647  -6.284  0.00  0.00     0.066 H 
ENDBRANCH  49  50
ENDBRANCH   9  49
BRANCH   8  54
ATOM     54  O   LIG d   1      10.119  -3.574  -3.614  0.00  0.00    -0.491 OA
BRANCH  54  55
ATOM     55  C   LIG d   1       9.986  -4.445  -2.488  0.00  0.00     0.079 C 
ATOM     56  H   LIG d   1       8.959  -4.412  -2.123  0.00  0.00     0.066 H 
ATOM     57  H   LIG d   1      10.234  -5.464  -2.785  0.00  0.00     0.066 H 
ATOM     58  H   LIG d   1      10.663  -4.122  -1.697  0.00  0.00     0.066 H 
ENDBRANCH  54  55
ENDBRANCH   8  54
TORSDOF 13
ENDMDL
MODEL 6
REMARK VINA RESULT:      -4.8      3.439      7.535
REMARK  13 active torsions:
REMARK  status: ('A' for Active; 'I' for Inactive)
REMARK    1  A    between atoms: C_1  and  N_2 
REMARK    2  A    between atoms: N_2  and  C_3 
REMARK    3  A    between atoms: C_10  and  O_30 
REMARK    4  A    between atoms: C_11  and  O_28 
REMARK    5  A    between atoms: C_14  and  C_16 
REMARK    6  A    between atoms: C_18  and  O_26 
REMARK    7  A    between atoms: C_19  and  O_24 
REMARK    8  A    between atoms: C_20  and  O_22 
REMARK    9  A    between atoms: O_22  and  C_23 
REMARK   10  A    between atoms: O_24  and  C_25 
REMARK   11  A    between atoms: O_26  and  C_27 
REMARK   12  A    between atoms: O_28  and  C_29 
REMARK   13  A    between atoms: O_30  and  C_31 
ROOT
ATOM      1  C   LIG d   1       4.523   0.196  -9.566  0.00  0.00     0.133 C 
ATOM      2  S   LIG d   1       3.599   1.392 -10.371  0.00  0.00    -0.019 SA
ATOM      3  N   LIG d   1       4.039  -0.398  -8.457  0.00  0.00    -0.301 N 
ATOM      4  C   LIG d   1       2.673  -0.127  -7.977  0.00  0.00     0.019 C 
ATOM      5  C   LIG d   1       2.781   0.554  -6.613  0.00  0.00    -0.011 C 
ATOM      6  C   LIG d   1       3.746  -0.184  -5.722  0.00  0.00    -0.037 A 
ATOM      7  C   LIG d   1       3.645   0.029  -4.352  0.00  0.00    -0.013 A 
ATOM      8  C   LIG d   1       4.504  -0.609  -3.476  0.00  0.00     0.162 A 
ATOM      9  C   LIG d   1       5.479  -1.469  -3.971  0.00  0.00     0.162 A 
ATOM     10  C   LIG d   1       5.574  -1.681  -5.333  0.00  0.00    -0.011 A 
ATOM     11  C   LIG d   1       4.705  -1.043  -6.209  0.00  0.00    -0.016 A 
ATOM     12  C   LIG d   1       4.849  -1.341  -7.680  0.00  0.00     0.076 C 
ATOM     13  H   LIG d   1       5.896  -1.242  -7.969  0.00  0.00     0.060 H 
ATOM     14  H   LIG d   1       2.124  -1.062  -7.880  0.00  0.00     0.047 H 
ATOM     15  H   LIG d   1       2.160   0.532  -8.678  0.00  0.00     0.047 H 
ATOM     16  H   LIG d   1       1.799   0.570  -6.142  0.00  0.00     0.033 H 
ATOM     17  H   LIG d   1       3.132   1.577  -6.750  0.00  0.00     0.033 H 
ATOM     18  H   LIG d   1       2.890   0.698  -3.968  0.00  0.00     0.066 H 
ATOM     19  H   LIG d   1       6.330  -2.349  -5.719  0.00  0.00     0.066 H 
ENDROOT
BRANCH  12  20
ATOM     20  C   LIG d   1       4.383  -2.747  -7.956  0.00  0.00    -0.015 A 
ATOM     21  C   LIG d   1       4.120  -3.144  -9.253  0.00  0.00    -0.011 A 
ATOM     22  C   LIG d   1       3.691  -4.437  -9.511  0.00  0.00     0.166 A 
ATOM     23  H   LIG d   1       4.247  -2.446 -10.068  0.00  0.00     0.066 H 
ATOM     24  C   LIG d   1       3.526  -5.335  -8.463  0.00  0.00     0.203 A 
ATOM     25  C   LIG d   1       3.793  -4.932  -7.160  0.00  0.00     0.166 A 
ATOM     26  C   LIG d   1       4.227  -3.639  -6.911  0.00  0.00    -0.011 A 
ATOM     27  H   LIG d   1       4.439  -3.326  -5.900  0.00  0.00     0.066 H 
BRANCH  22  28
ATOM     28  O   LIG d   1       3.432  -4.827 -10.789  0.00  0.00    -0.491 OA
BRANCH  28  29
ATOM     29  C   LIG d   1       3.818  -3.930 -11.831  0.00  0.00     0.079 C 
ATOM     30  H   LIG d   1       4.877  -3.691 -11.731  0.00  0.00     0.066 H 
ATOM     31  H   LIG d   1       3.642  -4.400 -12.798  0.00  0.00     0.066 H 
ATOM     32  H   LIG d   1       3.231  -3.015 -11.760  0.00  0.00     0.066 H 
ENDBRANCH  28  29
ENDBRANCH  22  28
BRANCH  24  33
ATOM     33  O   LIG d   1       3.107  -6.606  -8.712  0.00  0.00    -0.488 OA
BRANCH  33  34
ATOM     34  C   LIG d   1       4.115  -7.581  -8.979  0.00  0.00     0.079 C 
ATOM     35  H   LIG d   1       4.414  -7.519 -10.025  0.00  0.00     0.066 H 
ATOM     36  H   LIG d   1       4.981  -7.394  -8.343  0.00  0.00     0.066 H 
ATOM     37  H   LIG d   1       3.722  -8.577  -8.772  0.00  0.00     0.066 H 
ENDBRANCH  33  34
ENDBRANCH  24  33
BRANCH  25  38
ATOM     38  O   LIG d   1       3.634  -5.807  -6.131  0.00  0.00    -0.491 OA
BRANCH  38  39
ATOM     39  C   LIG d   1       4.822  -6.338  -5.542  0.00  0.00     0.079 C 
ATOM     40  H   LIG d   1       5.636  -6.300  -6.267  0.00  0.00     0.066 H 
ATOM     41  H   LIG d   1       5.089  -5.747  -4.666  0.00  0.00     0.066 H 
ATOM     42  H   LIG d   1       4.650  -7.373  -5.245  0.00  0.00     0.066 H 
ENDBRANCH  38  39
ENDBRANCH  25  38
ENDBRANCH  12  20
BRANCH   1  43
ATOM     43  N   LIG d   1       5.735  -0.150 -10.041  0.00  0.00    -0.330 N 
ATOM     44  H   LIG d   1       6.518  -0.077  -9.472  0.00  0.00     0.147 HD
BRANCH  43  45
ATOM     45  C   LIG d   1       5.873  -0.637 -11.416  0.00  0.00    -0.001 C 
ATOM     46  H   LIG d   1       6.894  -0.981 -11.579  0.00  0.00     0.043 H 
ATOM     47  H   LIG d   1       5.180  -1.462 -11.579  0.00  0.00     0.043 H 
ATOM     48  H   LIG d   1       5.646   0.172 -12.111  0.00  0.00     0.043 H 
ENDBRANCH  43  45
ENDBRANCH   1  43
BRANCH   9  49
ATOM     49  O   LIG d   1       6.334  -2.098  -3.119  0.00  0.00    -0.491 OA
BRANCH  49  50
ATOM     50  C   LIG d   1       7.557  -2.589  -3.671  0.00  0.00     0.079 C 
ATOM     51  H   LIG d   1       8.382  -2.338  -3.005  0.00  0.00     0.066 H 
ATOM     52  H   LIG d   1       7.496  -3.671  -3.784  0.00  0.00     0.066 H 
ATOM     53  H   LIG d   1       7.725  -2.131  -4.647  0.00  0.00     0.066 H 
ENDBRANCH  49  50
ENDBRANCH   9  49
BRANCH   8  54
ATOM     54  O   LIG d   1       4.397  -0.394  -2.137  0.00  0.00    -0.491 OA
BRANCH  54  55
ATOM     55  C   LIG d   1       4.572   0.948  -1.679  0.00  0.00     0.079 C 
ATOM     56  H   LIG d   1       4.756   1.602  -2.530  0.00  0.00     0.066 H 
ATOM     57  H   LIG d   1       3.671   1.275  -1.158  0.00  0.00     0.066 H 
ATOM     58  H   LIG d   1       5.420   0.992  -0.996  0.00  0.00     0.066 H 
ENDBRANCH  54  55
ENDBRANCH   8  54
TORSDOF 13
ENDMDL
MODEL 7
REMARK VINA RESULT:      -4.8      3.408      5.315
REMARK  13 active torsions:
REMARK  status: ('A' for Active; 'I' for Inactive)
REMARK    1  A    between atoms: C_1  and  N_2 
REMARK    2  A    between atoms: N_2  and  C_3 
REMARK    3  A    between atoms: C_10  and  O_30 
REMARK    4  A    between atoms: C_11  and  O_28 
REMARK    5  A    between atoms: C_14  and  C_16 
REMARK    6  A    between atoms: C_18  and  O_26 
REMARK    7  A    between atoms: C_19  and  O_24 
REMARK    8  A    between atoms: C_20  and  O_22 
REMARK    9  A    between atoms: O_22  and  C_23 
REMARK   10  A    between atoms: O_24  and  C_25 
REMARK   11  A    between atoms: O_26  and  C_27 
REMARK   12  A    between atoms: O_28  and  C_29 
REMARK   13  A    between atoms: O_30  and  C_31 
ROOT
ATOM      1  C   LIG d   1       4.107  -0.690  -3.007  0.00  0.00     0.133 C 
ATOM      2  S   LIG d   1       2.420  -0.738  -3.299  0.00  0.00    -0.019 SA
ATOM      3  N   LIG d   1       4.965  -1.163  -3.933  0.00  0.00    -0.301 N 
ATOM      4  C   LIG d   1       4.494  -1.620  -5.251  0.00  0.00     0.019 C 
ATOM      5  C   LIG d   1       4.783  -3.117  -5.359  0.00  0.00    -0.011 C 
ATOM      6  C   LIG d   1       6.195  -3.422  -4.931  0.00  0.00    -0.037 A 
ATOM      7  C   LIG d   1       6.752  -4.621  -5.361  0.00  0.00    -0.013 A 
ATOM      8  C   LIG d   1       8.039  -4.969  -4.998  0.00  0.00     0.162 A 
ATOM      9  C   LIG d   1       8.785  -4.111  -4.194  0.00  0.00     0.162 A 
ATOM     10  C   LIG d   1       8.229  -2.918  -3.772  0.00  0.00    -0.011 A 
ATOM     11  C   LIG d   1       6.937  -2.570  -4.144  0.00  0.00    -0.016 A 
ATOM     12  C   LIG d   1       6.405  -1.241  -3.669  0.00  0.00     0.076 C 
ATOM     13  H   LIG d   1       6.582  -1.141  -2.597  0.00  0.00     0.060 H 
ATOM     14  H   LIG d   1       5.023  -1.085  -6.038  0.00  0.00     0.047 H 
ATOM     15  H   LIG d   1       3.422  -1.445  -5.341  0.00  0.00     0.047 H 
ATOM     16  H   LIG d   1       4.646  -3.435  -6.392  0.00  0.00     0.033 H 
ATOM     17  H   LIG d   1       4.090  -3.663  -4.720  0.00  0.00     0.033 H 
ATOM     18  H   LIG d   1       6.173  -5.288  -5.982  0.00  0.00     0.066 H 
ATOM     19  H   LIG d   1       8.806  -2.251  -3.148  0.00  0.00     0.066 H 
ENDROOT
BRANCH  12  20
ATOM     20  C   LIG d   1       7.109  -0.128  -4.401  0.00  0.00    -0.015 A 
ATOM     21  C   LIG d   1       7.154  -0.131  -5.782  0.00  0.00    -0.011 A 
ATOM     22  C   LIG d   1       7.800   0.891  -6.459  0.00  0.00     0.166 A 
ATOM     23  H   LIG d   1       6.685  -0.932  -6.335  0.00  0.00     0.066 H 
ATOM     24  C   LIG d   1       8.405   1.921  -5.747  0.00  0.00     0.203 A 
ATOM     25  C   LIG d   1       8.357   1.921  -4.358  0.00  0.00     0.166 A 
ATOM     26  C   LIG d   1       7.703   0.898  -3.688  0.00  0.00    -0.011 A 
ATOM     27  H   LIG d   1       7.661   0.899  -2.610  0.00  0.00     0.066 H 
BRANCH  22  28
ATOM     28  O   LIG d   1       7.844   0.887  -7.819  0.00  0.00    -0.491 OA
BRANCH  28  29
ATOM     29  C   LIG d   1       6.694   1.383  -8.506  0.00  0.00     0.079 C 
ATOM     30  H   LIG d   1       6.170   2.096  -7.871  0.00  0.00     0.066 H 
ATOM     31  H   LIG d   1       7.006   1.876  -9.426  0.00  0.00     0.066 H 
ATOM     32  H   LIG d   1       6.028   0.553  -8.747  0.00  0.00     0.066 H 
ENDBRANCH  28  29
ENDBRANCH  22  28
BRANCH  24  33
ATOM     33  O   LIG d   1       9.039   2.927  -6.408  0.00  0.00    -0.488 OA
BRANCH  33  34
ATOM     34  C   LIG d   1      10.403   2.707  -6.770  0.00  0.00     0.079 C 
ATOM     35  H   LIG d   1      10.473   2.553  -7.846  0.00  0.00     0.066 H 
ATOM     36  H   LIG d   1      11.000   3.575  -6.488  0.00  0.00     0.066 H 
ATOM     37  H   LIG d   1      10.780   1.825  -6.251  0.00  0.00     0.066 H 
ENDBRANCH  33  34
ENDBRANCH  24  33
BRANCH  25  38
ATOM     38  O   LIG d   1       8.946   2.926  -3.657  0.00  0.00    -0.491 OA
BRANCH  38  39
ATOM     39  C   LIG d   1      10.220   2.649  -3.073  0.00  0.00     0.079 C 
ATOM     40  H   LIG d   1      10.092   2.402  -2.019  0.00  0.00     0.066 H 
ATOM     41  H   LIG d   1      10.682   1.808  -3.590  0.00  0.00     0.066 H 
ATOM     42  H   LIG d   1      10.860   3.527  -3.165  0.00  0.00     0.066 H 
ENDBRANCH  38  39
ENDBRANCH  25  38
ENDBRANCH  12  20
BRANCH   1  43
ATOM     43  N   LIG d   1       4.576  -0.181  -1.851  0.00  0.00    -0.330 N 
ATOM     44  H   LIG d   1       4.933  -0.771  -1.170  0.00  0.00     0.147 HD
BRANCH  43  45
ATOM     45  C   LIG d   1       4.546   1.267  -1.623  0.00  0.00    -0.001 C 
ATOM     46  H   LIG d   1       4.110   1.471  -0.645  0.00  0.00     0.043 H 
ATOM     47  H   LIG d   1       5.561   1.659  -1.657  0.00  0.00     0.043 H 
ATOM     48  H   LIG d   1       3.944   1.744  -2.396  0.00  0.00     0.043 H 
ENDBRANCH  43  45
ENDBRANCH   1  43
BRANCH   9  49
ATOM     49  O   LIG d   1      10.051  -4.446  -3.825  0.00  0.00    -0.491 OA
BRANCH  49  50
ATOM     50  C   LIG d   1      10.242  -4.874  -2.476  0.00  0.00     0.079 C 
ATOM     51  H   LIG d   1      10.265  -4.004  -1.819  0.00  0.00     0.066 H 
ATOM     52  H   LIG d   1       9.423  -5.529  -2.183  0.00  0.00     0.066 H 
ATOM     53  H   LIG d   1      11.186  -5.414  -2.396  0.00  0.00     0.066 H 
ENDBRANCH  49  50
ENDBRANCH   9  49
BRANCH   8  54
ATOM     54  O   LIG d   1       8.574  -6.145  -5.423  0.00  0.00    -0.491 OA
BRANCH  54  55
ATOM     55  C   LIG d   1       8.941  -6.230  -6.801  0.00  0.00     0.079 C 
ATOM     56  H   LIG d   1       9.982  -5.929  -6.920  0.00  0.00     0.066 H 
ATOM     57  H   LIG d   1       8.819  -7.257  -7.147  0.00  0.00     0.066 H 
ATOM     58  H   LIG d   1       8.302  -5.572  -7.389  0.00  0.00     0.066 H 
ENDBRANCH  54  55
ENDBRANCH   8  54
TORSDOF 13
ENDMDL
MODEL 8
REMARK VINA RESULT:      -4.8      2.400      6.656
REMARK  13 active torsions:
REMARK  status: ('A' for Active; 'I' for Inactive)
REMARK    1  A    between atoms: C_1  and  N_2 
REMARK    2  A    between atoms: N_2  and  C_3 
REMARK    3  A    between atoms: C_10  and  O_30 
REMARK    4  A    between atoms: C_11  and  O_28 
REMARK    5  A    between atoms: C_14  and  C_16 
REMARK    6  A    between atoms: C_18  and  O_26 
REMARK    7  A    between atoms: C_19  and  O_24 
REMARK    8  A    between atoms: C_20  and  O_22 
REMARK    9  A    between atoms: O_22  and  C_23 
REMARK   10  A    between atoms: O_24  and  C_25 
REMARK   11  A    between atoms: O_26  and  C_27 
REMARK   12  A    between atoms: O_28  and  C_29 
REMARK   13  A    between atoms: O_30  and  C_31 
ROOT
ATOM      1  C   LIG d   1       6.570  -6.741  -5.587  0.00  0.00     0.133 C 
ATOM      2  S   LIG d   1       8.117  -7.444  -5.797  0.00  0.00    -0.019 SA
ATOM      3  N   LIG d   1       6.416  -5.407  -5.696  0.00  0.00    -0.301 N 
ATOM      4  C   LIG d   1       7.530  -4.537  -6.107  0.00  0.00     0.019 C 
ATOM      5  C   LIG d   1       7.861  -3.612  -4.936  0.00  0.00    -0.011 C 
ATOM      6  C   LIG d   1       6.609  -2.993  -4.373  0.00  0.00    -0.037 A 
ATOM      7  C   LIG d   1       6.749  -1.834  -3.617  0.00  0.00    -0.013 A 
ATOM      8  C   LIG d   1       5.643  -1.218  -3.062  0.00  0.00     0.162 A 
ATOM      9  C   LIG d   1       4.378  -1.763  -3.261  0.00  0.00     0.162 A 
ATOM     10  C   LIG d   1       4.242  -2.913  -4.016  0.00  0.00    -0.011 A 
ATOM     11  C   LIG d   1       5.356  -3.525  -4.577  0.00  0.00    -0.016 A 
ATOM     12  C   LIG d   1       5.130  -4.762  -5.410  0.00  0.00     0.076 C 
ATOM     13  H   LIG d   1       4.490  -5.456  -4.864  0.00  0.00     0.060 H 
ATOM     14  H   LIG d   1       7.237  -3.945  -6.973  0.00  0.00     0.047 H 
ATOM     15  H   LIG d   1       8.401  -5.145  -6.353  0.00  0.00     0.047 H 
ATOM     16  H   LIG d   1       8.528  -2.822  -5.281  0.00  0.00     0.033 H 
ATOM     17  H   LIG d   1       8.358  -4.186  -4.155  0.00  0.00     0.033 H 
ATOM     18  H   LIG d   1       7.731  -1.413  -3.461  0.00  0.00     0.066 H 
ATOM     19  H   LIG d   1       3.261  -3.338  -4.172  0.00  0.00     0.066 H 
ENDROOT
BRANCH  12  20
ATOM     20  C   LIG d   1       4.463  -4.378  -6.707  0.00  0.00    -0.015 A 
ATOM     21  C   LIG d   1       4.529  -3.073  -7.155  0.00  0.00    -0.011 A 
ATOM     22  C   LIG d   1       3.918  -2.716  -8.347  0.00  0.00     0.166 A 
ATOM     23  H   LIG d   1       5.057  -2.329  -6.577  0.00  0.00     0.066 H 
ATOM     24  C   LIG d   1       3.238  -3.673  -9.091  0.00  0.00     0.203 A 
ATOM     25  C   LIG d   1       3.175  -4.985  -8.637  0.00  0.00     0.166 A 
ATOM     26  C   LIG d   1       3.794  -5.335  -7.447  0.00  0.00    -0.011 A 
ATOM     27  H   LIG d   1       3.749  -6.355  -7.095  0.00  0.00     0.066 H 
BRANCH  22  28
ATOM     28  O   LIG d   1       3.983  -1.431  -8.788  0.00  0.00    -0.491 OA
BRANCH  28  29
ATOM     29  C   LIG d   1       3.248  -0.453  -8.051  0.00  0.00     0.079 C 
ATOM     30  H   LIG d   1       2.505   0.009  -8.700  0.00  0.00     0.066 H 
ATOM     31  H   LIG d   1       2.746  -0.934  -7.211  0.00  0.00     0.066 H 
ATOM     32  H   LIG d   1       3.930   0.311  -7.678  0.00  0.00     0.066 H 
ENDBRANCH  28  29
ENDBRANCH  22  28
BRANCH  24  33
ATOM     33  O   LIG d   1       2.637  -3.327 -10.263  0.00  0.00    -0.488 OA
BRANCH  33  34
ATOM     34  C   LIG d   1       1.293  -2.849 -10.187  0.00  0.00     0.079 C 
ATOM     35  H   LIG d   1       0.835  -2.894 -11.174  0.00  0.00     0.066 H 
ATOM     36  H   LIG d   1       0.725  -3.469  -9.494  0.00  0.00     0.066 H 
ATOM     37  H   LIG d   1       1.294  -1.817  -9.833  0.00  0.00     0.066 H 
ENDBRANCH  33  34
ENDBRANCH  24  33
BRANCH  25  38
ATOM     38  O   LIG d   1       2.511  -5.925  -9.361  0.00  0.00    -0.491 OA
BRANCH  38  39
ATOM     39  C   LIG d   1       3.144  -7.198  -9.505  0.00  0.00     0.079 C 
ATOM     40  H   LIG d   1       3.581  -7.497  -8.552  0.00  0.00     0.066 H 
ATOM     41  H   LIG d   1       2.405  -7.938  -9.814  0.00  0.00     0.066 H 
ATOM     42  H   LIG d   1       3.929  -7.131 -10.259  0.00  0.00     0.066 H 
ENDBRANCH  38  39
ENDBRANCH  25  38
ENDBRANCH  12  20
BRANCH   1  43
ATOM     43  N   LIG d   1       5.508  -7.522  -5.312  0.00  0.00    -0.330 N 
ATOM     44  H   LIG d   1       5.003  -7.386  -4.494  0.00  0.00     0.147 HD
BRANCH  43  45
ATOM     45  C   LIG d   1       5.113  -8.579  -6.247  0.00  0.00    -0.001 C 
ATOM     46  H   LIG d   1       4.790  -8.131  -7.187  0.00  0.00     0.043 H 
ATOM     47  H   LIG d   1       5.963  -9.236  -6.431  0.00  0.00     0.043 H 
ATOM     48  H   LIG d   1       4.293  -9.156  -5.818  0.00  0.00     0.043 H 
ENDBRANCH  43  45
ENDBRANCH   1  43
BRANCH   9  49
ATOM     49  O   LIG d   1       3.283  -1.169  -2.715  0.00  0.00    -0.491 OA
BRANCH  49  50
ATOM     50  C   LIG d   1       2.418  -0.460  -3.605  0.00  0.00     0.079 C 
ATOM     51  H   LIG d   1       2.312   0.569  -3.264  0.00  0.00     0.066 H 
ATOM     52  H   LIG d   1       2.843  -0.469  -4.608  0.00  0.00     0.066 H 
ATOM     53  H   LIG d   1       1.439  -0.941  -3.621  0.00  0.00     0.066 H 
ENDBRANCH  49  50
ENDBRANCH   9  49
BRANCH   8  54
ATOM     54  O   LIG d   1       5.791  -0.085  -2.324  0.00  0.00    -0.491 OA
BRANCH  54  55
ATOM     55  C   LIG d   1       5.805   1.155  -3.034  0.00  0.00     0.079 C 
ATOM     56  H   LIG d   1       5.511   1.961  -2.363  0.00  0.00     0.066 H 
ATOM     57  H   LIG d   1       6.809   1.346  -3.414  0.00  0.00     0.066 H 
ATOM     58  H   LIG d   1       5.105   1.104  -3.868  0.00  0.00     0.066 H 
ENDBRANCH  54  55
ENDBRANCH   8  54
TORSDOF 13
ENDMDL
MODEL 9
REMARK VINA RESULT:      -4.8      2.304      6.298
REMARK  13 active torsions:
REMARK  status: ('A' for Active; 'I' for Inactive)
REMARK    1  A    between atoms: C_1  and  N_2 
REMARK    2  A    between atoms: N_2  and  C_3 
REMARK    3  A    between atoms: C_10  and  O_30 
REMARK    4  A    between atoms: C_11  and  O_28 
REMARK    5  A    between atoms: C_14  and  C_16 
REMARK    6  A    between atoms: C_18  and  O_26 
REMARK    7  A    between atoms: C_19  and  O_24 
REMARK    8  A    between atoms: C_20  and  O_22 
REMARK    9  A    between atoms: O_22  and  C_23 
REMARK   10  A    between atoms: O_24  and  C_25 
REMARK   11  A    between atoms: O_26  and  C_27 
REMARK   12  A    between atoms: O_28  and  C_29 
REMARK   13  A    between atoms: O_30  and  C_31 
ROOT
ATOM      1  C   LIG d   1       7.014  -6.584  -5.583  0.00  0.00     0.133 C 
ATOM      2  S   LIG d   1       8.621  -7.141  -5.783  0.00  0.00    -0.019 SA
ATOM      3  N   LIG d   1       6.738  -5.269  -5.688  0.00  0.00    -0.301 N 
ATOM      4  C   LIG d   1       7.772  -4.298  -6.086  0.00  0.00     0.019 C 
ATOM      5  C   LIG d   1       8.007  -3.353  -4.908  0.00  0.00    -0.011 C 
ATOM      6  C   LIG d   1       6.698  -2.854  -4.353  0.00  0.00    -0.037 A 
ATOM      7  C   LIG d   1       6.726  -1.691  -3.591  0.00  0.00    -0.013 A 
ATOM      8  C   LIG d   1       5.564  -1.182  -3.043  0.00  0.00     0.162 A 
ATOM      9  C   LIG d   1       4.355  -1.840  -3.256  0.00  0.00     0.162 A 
ATOM     10  C   LIG d   1       4.331  -2.993  -4.017  0.00  0.00    -0.011 A 
ATOM     11  C   LIG d   1       5.501  -3.498  -4.570  0.00  0.00    -0.016 A 
ATOM     12  C   LIG d   1       5.397  -4.746  -5.411  0.00  0.00     0.076 C 
ATOM     13  H   LIG d   1       4.819  -5.498  -4.874  0.00  0.00     0.060 H 
ATOM     14  H   LIG d   1       7.433  -3.731  -6.952  0.00  0.00     0.047 H 
ATOM     15  H   LIG d   1       8.697  -4.823  -6.327  0.00  0.00     0.047 H 
ATOM     16  H   LIG d   1       8.601  -2.504  -5.243  0.00  0.00     0.033 H 
ATOM     17  H   LIG d   1       8.548  -3.883  -4.125  0.00  0.00     0.033 H 
ATOM     18  H   LIG d   1       7.663  -1.182  -3.425  0.00  0.00     0.066 H 
ATOM     19  H   LIG d   1       3.395  -3.505  -4.183  0.00  0.00     0.066 H 
ENDROOT
BRANCH  12  20
ATOM     20  C   LIG d   1       4.709  -4.418  -6.712  0.00  0.00    -0.015 A 
ATOM     21  C   LIG d   1       3.920  -5.369  -7.332  0.00  0.00    -0.011 A 
ATOM     22  C   LIG d   1       3.285  -5.072  -8.528  0.00  0.00     0.166 A 
ATOM     23  H   LIG d   1       3.799  -6.345  -6.885  0.00  0.00     0.066 H 
ATOM     24  C   LIG d   1       3.442  -3.816  -9.103  0.00  0.00     0.203 A 
ATOM     25  C   LIG d   1       4.235  -2.863  -8.475  0.00  0.00     0.166 A 
ATOM     26  C   LIG d   1       4.862  -3.166  -7.276  0.00  0.00    -0.011 A 
ATOM     27  H   LIG d   1       5.474  -2.425  -6.785  0.00  0.00     0.066 H 
BRANCH  22  28
ATOM     28  O   LIG d   1       2.509  -6.008  -9.138  0.00  0.00    -0.491 OA
BRANCH  28  29
ATOM     29  C   LIG d   1       3.158  -7.203  -9.576  0.00  0.00     0.079 C 
ATOM     30  H   LIG d   1       3.200  -7.216 -10.665  0.00  0.00     0.066 H 
ATOM     31  H   LIG d   1       4.170  -7.236  -9.173  0.00  0.00     0.066 H 
ATOM     32  H   LIG d   1       2.599  -8.070  -9.224  0.00  0.00     0.066 H 
ENDBRANCH  28  29
ENDBRANCH  22  28
BRANCH  24  33
ATOM     33  O   LIG d   1       2.819  -3.520 -10.276  0.00  0.00    -0.488 OA
BRANCH  33  34
ATOM     34  C   LIG d   1       1.517  -2.936 -10.191  0.00  0.00     0.079 C 
ATOM     35  H   LIG d   1       1.476  -2.048 -10.820  0.00  0.00     0.066 H 
ATOM     36  H   LIG d   1       0.773  -3.656 -10.530  0.00  0.00     0.066 H 
ATOM     37  H   LIG d   1       1.310  -2.660  -9.157  0.00  0.00     0.066 H 
ENDBRANCH  33  34
ENDBRANCH  24  33
BRANCH  25  38
ATOM     38  O   LIG d   1       4.390  -1.633  -9.033  0.00  0.00    -0.491 OA
BRANCH  38  39
ATOM     39  C   LIG d   1       3.781  -0.532  -8.356  0.00  0.00     0.079 C 
ATOM     40  H   LIG d   1       4.337   0.381  -8.572  0.00  0.00     0.066 H 
ATOM     41  H   LIG d   1       2.752  -0.420  -8.697  0.00  0.00     0.066 H 
ATOM     42  H   LIG d   1       3.790  -0.716  -7.281  0.00  0.00     0.066 H 
ENDBRANCH  38  39
ENDBRANCH  25  38
ENDBRANCH  12  20
BRANCH   1  43
ATOM     43  N   LIG d   1       6.025  -7.461  -5.322  0.00  0.00    -0.330 N 
ATOM     44  H   LIG d   1       5.110  -7.248  -5.564  0.00  0.00     0.147 HD
BRANCH  43  45
ATOM     45  C   LIG d   1       6.331  -8.737  -4.669  0.00  0.00    -0.001 C 
ATOM     46  H   LIG d   1       5.622  -8.909  -3.859  0.00  0.00     0.043 H 
ATOM     47  H   LIG d   1       6.254  -9.543  -5.397  0.00  0.00     0.043 H 
ATOM     48  H   LIG d   1       7.343  -8.705  -4.266  0.00  0.00     0.043 H 
ENDBRANCH  43  45
ENDBRANCH   1  43
BRANCH   9  49
ATOM     49  O   LIG d   1       3.206  -1.351  -2.717  0.00  0.00    -0.491 OA
BRANCH  49  50
ATOM     50  C   LIG d   1       2.420  -0.486  -3.540  0.00  0.00     0.079 C 
ATOM     51  H   LIG d   1       1.798  -1.085  -4.205  0.00  0.00     0.066 H 
ATOM     52  H   LIG d   1       1.784   0.136  -2.911  0.00  0.00     0.066 H 
ATOM     53  H   LIG d   1       3.079   0.150  -4.133  0.00  0.00     0.066 H 
ENDBRANCH  49  50
ENDBRANCH   9  49
BRANCH   8  54
ATOM     54  O   LIG d   1       5.601  -0.044  -2.300  0.00  0.00    -0.491 OA
BRANCH  54  55
ATOM     55  C   LIG d   1       5.776   1.187  -3.004  0.00  0.00     0.079 C 
ATOM     56  H   LIG d   1       5.287   1.122  -3.976  0.00  0.00     0.066 H 
ATOM     57  H   LIG d   1       5.335   2.001  -2.428  0.00  0.00     0.066 H 
ATOM     58  H   LIG d   1       6.840   1.377  -3.144  0.00  0.00     0.066 H 
ENDBRANCH  54  55
ENDBRANCH   8  54
TORSDOF 13
ENDMDL
MODEL 10
REMARK VINA RESULT:      -4.7      6.150      9.453
REMARK  13 active torsions:
REMARK  status: ('A' for Active; 'I' for Inactive)
REMARK    1  A    between atoms: C_1  and  N_2 
REMARK    2  A    between atoms: N_2  and  C_3 
REMARK    3  A    between atoms: C_10  and  O_30 
REMARK    4  A    between atoms: C_11  and  O_28 
REMARK    5  A    between atoms: C_14  and  C_16 
REMARK    6  A    between atoms: C_18  and  O_26 
REMARK    7  A    between atoms: C_19  and  O_24 
REMARK    8  A    between atoms: C_20  and  O_22 
REMARK    9  A    between atoms: O_22  and  C_23 
REMARK   10  A    between atoms: O_24  and  C_25 
REMARK   11  A    between atoms: O_26  and  C_27 
REMARK   12  A    between atoms: O_28  and  C_29 
REMARK   13  A    between atoms: O_30  and  C_31 
ROOT
ATOM      1  C   LIG d   1      10.872   8.054  -6.341  0.00  0.00     0.133 C 
ATOM      2  S   LIG d   1      12.156   8.779  -7.213  0.00  0.00    -0.019 SA
ATOM      3  N   LIG d   1      11.051   6.855  -5.752  0.00  0.00    -0.301 N 
ATOM      4  C   LIG d   1      12.367   6.195  -5.741  0.00  0.00     0.019 C 
ATOM      5  C   LIG d   1      12.250   4.902  -6.547  0.00  0.00    -0.011 C 
ATOM      6  C   LIG d   1      11.028   4.123  -6.135  0.00  0.00    -0.037 A 
ATOM      7  C   LIG d   1      10.998   2.767  -6.439  0.00  0.00    -0.013 A 
ATOM      8  C   LIG d   1       9.904   1.993  -6.099  0.00  0.00     0.162 A 
ATOM      9  C   LIG d   1       8.822   2.578  -5.447  0.00  0.00     0.162 A 
ATOM     10  C   LIG d   1       8.857   3.926  -5.143  0.00  0.00    -0.011 A 
ATOM     11  C   LIG d   1       9.961   4.698  -5.482  0.00  0.00    -0.016 A 
ATOM     12  C   LIG d   1       9.942   6.156  -5.096  0.00  0.00     0.076 C 
ATOM     13  H   LIG d   1       8.997   6.601  -5.409  0.00  0.00     0.060 H 
ATOM     14  H   LIG d   1      12.656   5.966  -4.716  0.00  0.00     0.047 H 
ATOM     15  H   LIG d   1      13.111   6.848  -6.198  0.00  0.00     0.047 H 
ATOM     16  H   LIG d   1      13.137   4.292  -6.377  0.00  0.00     0.033 H 
ATOM     17  H   LIG d   1      12.178   5.145  -7.606  0.00  0.00     0.033 H 
ATOM     18  H   LIG d   1      11.836   2.313  -6.946  0.00  0.00     0.066 H 
ATOM     19  H   LIG d   1       8.019   4.382  -4.637  0.00  0.00     0.066 H 
ENDROOT
BRANCH  12  20
ATOM     20  C   LIG d   1      10.086   6.281  -3.600  0.00  0.00    -0.015 A 
ATOM     21  C   LIG d   1       9.220   7.092  -2.891  0.00  0.00    -0.011 A 
ATOM     22  C   LIG d   1       9.348   7.209  -1.516  0.00  0.00     0.166 A 
ATOM     23  H   LIG d   1       8.442   7.635  -3.408  0.00  0.00     0.066 H 
ATOM     24  C   LIG d   1      10.349   6.512  -0.851  0.00  0.00     0.203 A 
ATOM     25  C   LIG d   1      11.217   5.697  -1.568  0.00  0.00     0.166 A 
ATOM     26  C   LIG d   1      11.078   5.580  -2.943  0.00  0.00    -0.011 A 
ATOM     27  H   LIG d   1      11.749   4.944  -3.500  0.00  0.00     0.066 H 
BRANCH  22  28
ATOM     28  O   LIG d   1       8.495   8.007  -0.818  0.00  0.00    -0.491 OA
BRANCH  28  29
ATOM     29  C   LIG d   1       8.728   9.415  -0.878  0.00  0.00     0.079 C 
ATOM     30  H   LIG d   1       9.023   9.692  -1.890  0.00  0.00     0.066 H 
ATOM     31  H   LIG d   1       7.816   9.946  -0.608  0.00  0.00     0.066 H 
ATOM     32  H   LIG d   1       9.523   9.683  -0.182  0.00  0.00     0.066 H 
ENDBRANCH  28  29
ENDBRANCH  22  28
BRANCH  24  33
ATOM     33  O   LIG d   1      10.478   6.623   0.500  0.00  0.00    -0.488 OA
BRANCH  33  34
ATOM     34  C   LIG d   1      11.348   7.646   0.987  0.00  0.00     0.079 C 
ATOM     35  H   LIG d   1      11.002   8.617   0.632  0.00  0.00     0.066 H 
ATOM     36  H   LIG d   1      11.347   7.637   2.077  0.00  0.00     0.066 H 
ATOM     37  H   LIG d   1      12.360   7.466   0.624  0.00  0.00     0.066 H 
ENDBRANCH  33  34
ENDBRANCH  24  33
BRANCH  25  38
ATOM     38  O   LIG d   1      12.198   5.012  -0.922  0.00  0.00    -0.491 OA
BRANCH  38  39
ATOM     39  C   LIG d   1      13.544   5.420  -1.168  0.00  0.00     0.079 C 
ATOM     40  H   LIG d   1      13.614   5.864  -2.161  0.00  0.00     0.066 H 
ATOM     41  H   LIG d   1      13.845   6.153  -0.420  0.00  0.00     0.066 H 
ATOM     42  H   LIG d   1      14.203   4.553  -1.113  0.00  0.00     0.066 H 
ENDBRANCH  38  39
ENDBRANCH  25  38
ENDBRANCH  12  20
BRANCH   1  43
ATOM     43  N   LIG d   1       9.685   8.683  -6.245  0.00  0.00    -0.330 N 
ATOM     44  H   LIG d   1       8.914   8.339  -6.722  0.00  0.00     0.147 HD
BRANCH  43  45
ATOM     45  C   LIG d   1       9.558   9.888  -5.420  0.00  0.00    -0.001 C 
ATOM     46  H   LIG d   1      10.279  10.634  -5.752  0.00  0.00     0.043 H 
ATOM     47  H   LIG d   1       8.550  10.288  -5.517  0.00  0.00     0.043 H 
ATOM     48  H   LIG d   1       9.750   9.635  -4.377  0.00  0.00     0.043 H 
ENDBRANCH  43  45
ENDBRANCH   1  43
BRANCH   9  49
ATOM     49  O   LIG d   1       7.738   1.829  -5.112  0.00  0.00    -0.491 OA
BRANCH  49  50
ATOM     50  C   LIG d   1       7.631   1.414  -3.748  0.00  0.00     0.079 C 
ATOM     51  H   LIG d   1       6.673   1.740  -3.345  0.00  0.00     0.066 H 
ATOM     52  H   LIG d   1       7.699   0.329  -3.692  0.00  0.00     0.066 H 
ATOM     53  H   LIG d   1       8.440   1.860  -3.169  0.00  0.00     0.066 H 
ENDBRANCH  49  50
ENDBRANCH   9  49
BRANCH   8  54
ATOM     54  O   LIG d   1       9.885   0.667  -6.401  0.00  0.00    -0.491 OA
BRANCH  54  55
ATOM     55  C   LIG d   1      10.800  -0.173  -5.695  0.00  0.00     0.079 C 
ATOM     56  H   LIG d   1      10.917   0.193  -4.675  0.00  0.00     0.066 H 
ATOM     57  H   LIG d   1      10.415  -1.193  -5.674  0.00  0.00     0.066 H 
ATOM     58  H   LIG d   1      11.767  -0.161  -6.199  0.00  0.00     0.066 H 
ENDBRANCH  54  55
ENDBRANCH   8  54
TORSDOF 13
ENDMDL
