MODEL 1
REMARK VINA RESULT:      -4.9      0.000      0.000
REMARK  5 active torsions:
REMARK  status: ('A' for Active; 'I' for Inactive)
REMARK    1  A    between atoms: C_1  and  C_2 
REMARK    2  A    between atoms: C_2  and  C_4 
REMARK    3  A    between atoms: C_5  and  O_15 
REMARK    4  A    between atoms: C_8  and  C_11 
REMARK    5  A    between atoms: C_11  and  C_13 
ROOT
ATOM      1  C   LIG d   1       3.444  -0.074  -5.440  0.00  0.00     0.051 A 
ATOM      2  C   LIG d   1       2.447  -0.322  -4.475  0.00  0.00     0.126 A 
ATOM      3  C   LIG d   1       2.799  -0.723  -3.197  0.00  0.00    -0.027 A 
ATOM      4  C   LIG d   1       4.131  -0.884  -2.854  0.00  0.00    -0.095 A 
ATOM      5  C   LIG d   1       5.143  -0.640  -3.804  0.00  0.00     0.003 A 
ATOM      6  C   LIG d   1       4.796  -0.240  -5.104  0.00  0.00    -0.084 A 
ATOM      7  O   LIG d   1       5.760  -0.009  -6.025  0.00  0.00    -0.873 OA
ATOM      8  O   LIG d   1       4.463  -1.276  -1.601  0.00  0.00    -0.873 OA
ATOM      9  H   LIG d   1       2.030  -0.910  -2.463  0.00  0.00     0.065 H 
ENDROOT
BRANCH   1  10
ATOM     10  C   LIG d   1       3.070   0.349  -6.789  0.00  0.00     0.163 C 
ATOM     11  O   LIG d   1       2.858   1.522  -7.019  0.00  0.00    -0.292 OA
BRANCH  10  12
ATOM     12  C   LIG d   1       2.949  -0.669  -7.892  0.00  0.00    -0.001 C 
ATOM     13  H   LIG d   1       2.031  -0.492  -8.451  0.00  0.00     0.031 H 
ATOM     14  H   LIG d   1       3.805  -0.582  -8.562  0.00  0.00     0.031 H 
ATOM     15  H   LIG d   1       2.926  -1.670  -7.461  0.00  0.00     0.031 H 
ENDBRANCH  10  12
ENDBRANCH   1  10
BRANCH   2  16
ATOM     16  O   LIG d   1       1.141  -0.167  -4.797  0.00  0.00    -0.506 OA
ATOM     17  H   LIG d   1       0.865   0.755  -4.888  0.00  0.00     0.292 HD
ENDBRANCH   2  16
BRANCH   5  18
ATOM     18  C   LIG d   1       6.548  -0.811  -3.439  0.00  0.00     0.159 C 
ATOM     19  O   LIG d   1       7.203   0.145  -3.079  0.00  0.00    -0.292 OA
BRANCH  18  20
ATOM     20  C   LIG d   1       7.184  -2.176  -3.509  0.00  0.00    -0.001 C 
ATOM     21  H   LIG d   1       6.849  -2.687  -4.412  0.00  0.00     0.031 H 
ATOM     22  H   LIG d   1       8.268  -2.071  -3.531  0.00  0.00     0.031 H 
ATOM     23  H   LIG d   1       6.893  -2.758  -2.634  0.00  0.00     0.031 H 
ENDBRANCH  18  20
ENDBRANCH   5  18
TORSDOF 5
ENDMDL
MODEL 2
REMARK VINA RESULT:      -4.7      1.999      2.246
REMARK  5 active torsions:
REMARK  status: ('A' for Active; 'I' for Inactive)
REMARK    1  A    between atoms: C_1  and  C_2 
REMARK    2  A    between atoms: C_2  and  C_4 
REMARK    3  A    between atoms: C_5  and  O_15 
REMARK    4  A    between atoms: C_8  and  C_11 
REMARK    5  A    between atoms: C_11  and  C_13 
ROOT
ATOM      1  C   LIG d   1       3.644  -0.358  -6.192  0.00  0.00     0.051 A 
ATOM      2  C   LIG d   1       3.117   0.215  -5.017  0.00  0.00     0.126 A 
ATOM      3  C   LIG d   1       3.259  -0.432  -3.801  0.00  0.00    -0.027 A 
ATOM      4  C   LIG d   1       3.918  -1.648  -3.726  0.00  0.00    -0.095 A 
ATOM      5  C   LIG d   1       4.453  -2.237  -4.888  0.00  0.00     0.003 A 
ATOM      6  C   LIG d   1       4.309  -1.593  -6.126  0.00  0.00    -0.084 A 
ATOM      7  O   LIG d   1       4.814  -2.154  -7.249  0.00  0.00    -0.873 OA
ATOM      8  O   LIG d   1       4.050  -2.271  -2.531  0.00  0.00    -0.873 OA
ATOM      9  H   LIG d   1       2.853   0.014  -2.906  0.00  0.00     0.065 H 
ENDROOT
BRANCH   1  10
ATOM     10  C   LIG d   1       3.494   0.327  -7.474  0.00  0.00     0.163 C 
ATOM     11  O   LIG d   1       4.236   1.243  -7.763  0.00  0.00    -0.292 OA
BRANCH  10  12
ATOM     12  C   LIG d   1       2.418  -0.103  -8.437  0.00  0.00    -0.001 C 
ATOM     13  H   LIG d   1       1.439   0.067  -7.989  0.00  0.00     0.031 H 
ATOM     14  H   LIG d   1       2.502   0.475  -9.358  0.00  0.00     0.031 H 
ATOM     15  H   LIG d   1       2.536  -1.164  -8.663  0.00  0.00     0.031 H 
ENDBRANCH  10  12
ENDBRANCH   1  10
BRANCH   2  16
ATOM     16  O   LIG d   1       2.471   1.404  -5.077  0.00  0.00    -0.506 OA
ATOM     17  H   LIG d   1       1.983   1.627  -4.273  0.00  0.00     0.292 HD
ENDBRANCH   2  16
BRANCH   5  18
ATOM     18  C   LIG d   1       5.149  -3.520  -4.806  0.00  0.00     0.159 C 
ATOM     19  O   LIG d   1       4.520  -4.557  -4.862  0.00  0.00    -0.292 OA
BRANCH  18  20
ATOM     20  C   LIG d   1       6.647  -3.556  -4.651  0.00  0.00    -0.001 C 
ATOM     21  H   LIG d   1       6.988  -4.591  -4.645  0.00  0.00     0.031 H 
ATOM     22  H   LIG d   1       7.111  -3.024  -5.481  0.00  0.00     0.031 H 
ATOM     23  H   LIG d   1       6.927  -3.077  -3.712  0.00  0.00     0.031 H 
ENDBRANCH  18  20
ENDBRANCH   5  18
TORSDOF 5
ENDMDL
MODEL 3
REMARK VINA RESULT:      -4.7      1.582      5.009
REMARK  5 active torsions:
REMARK  status: ('A' for Active; 'I' for Inactive)
REMARK    1  A    between atoms: C_1  and  C_2 
REMARK    2  A    between atoms: C_2  and  C_4 
REMARK    3  A    between atoms: C_5  and  O_15 
REMARK    4  A    between atoms: C_8  and  C_11 
REMARK    5  A    between atoms: C_11  and  C_13 
ROOT
ATOM      1  C   LIG d   1       4.181  -0.460  -4.400  0.00  0.00     0.051 A 
ATOM      2  C   LIG d   1       5.472  -0.932  -4.712  0.00  0.00     0.126 A 
ATOM      3  C   LIG d   1       5.897  -0.980  -6.029  0.00  0.00    -0.027 A 
ATOM      4  C   LIG d   1       5.060  -0.566  -7.052  0.00  0.00    -0.095 A 
ATOM      5  C   LIG d   1       3.766  -0.091  -6.761  0.00  0.00     0.003 A 
ATOM      6  C   LIG d   1       3.323  -0.044  -5.430  0.00  0.00    -0.084 A 
ATOM      7  O   LIG d   1       2.080   0.406  -5.141  0.00  0.00    -0.873 OA
ATOM      8  O   LIG d   1       5.487  -0.618  -8.336  0.00  0.00    -0.873 OA
ATOM      9  H   LIG d   1       6.887  -1.342  -6.260  0.00  0.00     0.065 H 
ENDROOT
BRANCH   1  10
ATOM     10  C   LIG d   1       3.734  -0.410  -3.009  0.00  0.00     0.163 C 
ATOM     11  O   LIG d   1       3.302  -1.410  -2.475  0.00  0.00    -0.292 OA
BRANCH  10  12
ATOM     12  C   LIG d   1       3.812   0.882  -2.239  0.00  0.00    -0.001 C 
ATOM     13  H   LIG d   1       3.726   1.722  -2.928  0.00  0.00     0.031 H 
ATOM     14  H   LIG d   1       3.000   0.922  -1.513  0.00  0.00     0.031 H 
ATOM     15  H   LIG d   1       4.768   0.937  -1.716  0.00  0.00     0.031 H 
ENDBRANCH  10  12
ENDBRANCH   1  10
BRANCH   2  16
ATOM     16  O   LIG d   1       6.300  -1.339  -3.721  0.00  0.00    -0.506 OA
ATOM     17  H   LIG d   1       6.728  -2.189  -3.890  0.00  0.00     0.292 HD
ENDBRANCH   2  16
BRANCH   5  18
ATOM     18  C   LIG d   1       2.885   0.345  -7.843  0.00  0.00     0.159 C 
ATOM     19  O   LIG d   1       2.129  -0.446  -8.368  0.00  0.00    -0.292 OA
BRANCH  18  20
ATOM     20  C   LIG d   1       2.915   1.779  -8.308  0.00  0.00    -0.001 C 
ATOM     21  H   LIG d   1       1.920   2.074  -8.640  0.00  0.00     0.031 H 
ATOM     22  H   LIG d   1       3.230   2.420  -7.485  0.00  0.00     0.031 H 
ATOM     23  H   LIG d   1       3.618   1.878  -9.136  0.00  0.00     0.031 H 
ENDBRANCH  18  20
ENDBRANCH   5  18
TORSDOF 5
ENDMDL
MODEL 4
REMARK VINA RESULT:      -4.7      1.600      3.255
REMARK  5 active torsions:
REMARK  status: ('A' for Active; 'I' for Inactive)
REMARK    1  A    between atoms: C_1  and  C_2 
REMARK    2  A    between atoms: C_2  and  C_4 
REMARK    3  A    between atoms: C_5  and  O_15 
REMARK    4  A    between atoms: C_8  and  C_11 
REMARK    5  A    between atoms: C_11  and  C_13 
ROOT
ATOM      1  C   LIG d   1       3.745  -0.098  -6.779  0.00  0.00     0.051 A 
ATOM      2  C   LIG d   1       5.039  -0.587  -7.050  0.00  0.00     0.126 A 
ATOM      3  C   LIG d   1       5.860  -1.000  -6.013  0.00  0.00    -0.027 A 
ATOM      4  C   LIG d   1       5.418  -0.937  -4.702  0.00  0.00    -0.095 A 
ATOM      5  C   LIG d   1       4.128  -0.453  -4.410  0.00  0.00     0.003 A 
ATOM      6  C   LIG d   1       3.292  -0.026  -5.452  0.00  0.00    -0.084 A 
ATOM      7  O   LIG d   1       2.053   0.446  -5.182  0.00  0.00    -0.873 OA
ATOM      8  O   LIG d   1       6.230  -1.344  -3.697  0.00  0.00    -0.873 OA
ATOM      9  H   LIG d   1       6.849  -1.373  -6.229  0.00  0.00     0.065 H 
ENDROOT
BRANCH   1  10
ATOM     10  C   LIG d   1       2.881   0.337  -7.874  0.00  0.00     0.163 C 
ATOM     11  O   LIG d   1       2.178  -0.469  -8.449  0.00  0.00    -0.292 OA
BRANCH  10  12
ATOM     12  C   LIG d   1       2.860   1.785  -8.289  0.00  0.00    -0.001 C 
ATOM     13  H   LIG d   1       2.132   2.326  -7.686  0.00  0.00     0.031 H 
ATOM     14  H   LIG d   1       3.849   2.219  -8.141  0.00  0.00     0.031 H 
ATOM     15  H   LIG d   1       2.587   1.857  -9.342  0.00  0.00     0.031 H 
ENDBRANCH  10  12
ENDBRANCH   1  10
BRANCH   2  16
ATOM     16  O   LIG d   1       5.482  -0.653  -8.328  0.00  0.00    -0.506 OA
ATOM     17  H   LIG d   1       6.355  -1.057  -8.421  0.00  0.00     0.292 HD
ENDBRANCH   2  16
BRANCH   5  18
ATOM     18  C   LIG d   1       3.666  -0.388  -3.025  0.00  0.00     0.159 C 
ATOM     19  O   LIG d   1       3.092  -1.336  -2.531  0.00  0.00    -0.292 OA
BRANCH  18  20
ATOM     20  C   LIG d   1       3.902   0.857  -2.209  0.00  0.00    -0.001 C 
ATOM     21  H   LIG d   1       4.348   1.626  -2.840  0.00  0.00     0.031 H 
ATOM     22  H   LIG d   1       2.953   1.217  -1.813  0.00  0.00     0.031 H 
ATOM     23  H   LIG d   1       4.577   0.629  -1.383  0.00  0.00     0.031 H 
ENDBRANCH  18  20
ENDBRANCH   5  18
TORSDOF 5
ENDMDL
MODEL 5
REMARK VINA RESULT:      -4.5      3.037      4.397
REMARK  5 active torsions:
REMARK  status: ('A' for Active; 'I' for Inactive)
REMARK    1  A    between atoms: C_1  and  C_2 
REMARK    2  A    between atoms: C_2  and  C_4 
REMARK    3  A    between atoms: C_5  and  O_15 
REMARK    4  A    between atoms: C_8  and  C_11 
REMARK    5  A    between atoms: C_11  and  C_13 
ROOT
ATOM      1  C   LIG d   1       7.442  -0.344  -4.477  0.00  0.00     0.051 A 
ATOM      2  C   LIG d   1       7.232  -1.735  -4.375  0.00  0.00     0.126 A 
ATOM      3  C   LIG d   1       6.205  -2.229  -3.589  0.00  0.00    -0.027 A 
ATOM      4  C   LIG d   1       5.374  -1.365  -2.895  0.00  0.00    -0.095 A 
ATOM      5  C   LIG d   1       5.567   0.028  -2.984  0.00  0.00     0.003 A 
ATOM      6  C   LIG d   1       6.608   0.539  -3.773  0.00  0.00    -0.084 A 
ATOM      7  O   LIG d   1       6.804   1.875  -3.860  0.00  0.00    -0.873 OA
ATOM      8  O   LIG d   1       4.374  -1.860  -2.129  0.00  0.00    -0.873 OA
ATOM      9  H   LIG d   1       6.051  -3.295  -3.516  0.00  0.00     0.065 H 
ENDROOT
BRANCH   1  10
ATOM     10  C   LIG d   1       8.526   0.175  -5.308  0.00  0.00     0.163 C 
ATOM     11  O   LIG d   1       9.667   0.159  -4.895  0.00  0.00    -0.292 OA
BRANCH  10  12
ATOM     12  C   LIG d   1       8.228   0.729  -6.677  0.00  0.00    -0.001 C 
ATOM     13  H   LIG d   1       8.208   1.818  -6.632  0.00  0.00     0.031 H 
ATOM     14  H   LIG d   1       9.001   0.408  -7.375  0.00  0.00     0.031 H 
ATOM     15  H   LIG d   1       7.259   0.361  -7.014  0.00  0.00     0.031 H 
ENDBRANCH  10  12
ENDBRANCH   1  10
BRANCH   2  16
ATOM     16  O   LIG d   1       8.037  -2.590  -5.049  0.00  0.00    -0.506 OA
ATOM     17  H   LIG d   1       7.623  -2.990  -5.826  0.00  0.00     0.292 HD
ENDBRANCH   2  16
BRANCH   5  18
ATOM     18  C   LIG d   1       4.688   0.937  -2.250  0.00  0.00     0.159 C 
ATOM     19  O   LIG d   1       4.935   1.224  -1.097  0.00  0.00    -0.292 OA
BRANCH  18  20
ATOM     20  C   LIG d   1       3.473   1.520  -2.927  0.00  0.00    -0.001 C 
ATOM     21  H   LIG d   1       3.288   2.523  -2.540  0.00  0.00     0.031 H 
ATOM     22  H   LIG d   1       3.645   1.570  -4.001  0.00  0.00     0.031 H 
ATOM     23  H   LIG d   1       2.607   0.889  -2.726  0.00  0.00     0.031 H 
ENDBRANCH  18  20
ENDBRANCH   5  18
TORSDOF 5
ENDMDL
MODEL 6
REMARK VINA RESULT:      -4.4      2.205      4.653
REMARK  5 active torsions:
REMARK  status: ('A' for Active; 'I' for Inactive)
REMARK    1  A    between atoms: C_1  and  C_2 
REMARK    2  A    between atoms: C_2  and  C_4 
REMARK    3  A    between atoms: C_5  and  O_15 
REMARK    4  A    between atoms: C_8  and  C_11 
REMARK    5  A    between atoms: C_11  and  C_13 
ROOT
ATOM      1  C   LIG d   1       6.466  -1.909  -4.487  0.00  0.00     0.051 A 
ATOM      2  C   LIG d   1       7.324  -0.853  -4.119  0.00  0.00     0.126 A 
ATOM      3  C   LIG d   1       6.801   0.333  -3.631  0.00  0.00    -0.027 A 
ATOM      4  C   LIG d   1       5.432   0.493  -3.497  0.00  0.00    -0.095 A 
ATOM      5  C   LIG d   1       4.557  -0.550  -3.858  0.00  0.00     0.003 A 
ATOM      6  C   LIG d   1       5.076  -1.753  -4.360  0.00  0.00    -0.084 A 
ATOM      7  O   LIG d   1       4.244  -2.759  -4.714  0.00  0.00    -0.873 OA
ATOM      8  O   LIG d   1       4.933   1.657  -3.018  0.00  0.00    -0.873 OA
ATOM      9  H   LIG d   1       7.465   1.136  -3.352  0.00  0.00     0.065 H 
ENDROOT
BRANCH   1  10
ATOM     10  C   LIG d   1       7.020  -3.160  -5.002  0.00  0.00     0.163 C 
ATOM     11  O   LIG d   1       7.605  -3.917  -4.255  0.00  0.00    -0.292 OA
BRANCH  10  12
ATOM     12  C   LIG d   1       6.864  -3.510  -6.459  0.00  0.00    -0.001 C 
ATOM     13  H   LIG d   1       7.772  -3.995  -6.815  0.00  0.00     0.031 H 
ATOM     14  H   LIG d   1       6.018  -4.187  -6.581  0.00  0.00     0.031 H 
ATOM     15  H   LIG d   1       6.687  -2.600  -7.034  0.00  0.00     0.031 H 
ENDBRANCH  10  12
ENDBRANCH   1  10
BRANCH   2  16
ATOM     16  O   LIG d   1       8.664  -0.998  -4.245  0.00  0.00    -0.506 OA
ATOM     17  H   LIG d   1       8.940  -1.417  -5.071  0.00  0.00     0.292 HD
ENDBRANCH   2  16
BRANCH   5  18
ATOM     18  C   LIG d   1       3.113  -0.377  -3.716  0.00  0.00     0.159 C 
ATOM     19  O   LIG d   1       2.543  -0.806  -2.733  0.00  0.00    -0.292 OA
BRANCH  18  20
ATOM     20  C   LIG d   1       2.330   0.333  -4.790  0.00  0.00    -0.001 C 
ATOM     21  H   LIG d   1       1.997  -0.390  -5.535  0.00  0.00     0.031 H 
ATOM     22  H   LIG d   1       1.464   0.822  -4.345  0.00  0.00     0.031 H 
ATOM     23  H   LIG d   1       2.964   1.081  -5.268  0.00  0.00     0.031 H 
ENDBRANCH  18  20
ENDBRANCH   5  18
TORSDOF 5
ENDMDL
MODEL 7
REMARK VINA RESULT:      -4.3     11.385     13.109
REMARK  5 active torsions:
REMARK  status: ('A' for Active; 'I' for Inactive)
REMARK    1  A    between atoms: C_1  and  C_2 
REMARK    2  A    between atoms: C_2  and  C_4 
REMARK    3  A    between atoms: C_5  and  O_15 
REMARK    4  A    between atoms: C_8  and  C_11 
REMARK    5  A    between atoms: C_11  and  C_13 
ROOT
ATOM      1  C   LIG d   1      11.203  10.237   0.573  0.00  0.00     0.051 A 
ATOM      2  C   LIG d   1      10.114  10.535  -0.272  0.00  0.00     0.126 A 
ATOM      3  C   LIG d   1       9.387   9.513  -0.859  0.00  0.00    -0.027 A 
ATOM      4  C   LIG d   1       9.721   8.189  -0.623  0.00  0.00    -0.095 A 
ATOM      5  C   LIG d   1      10.805   7.871   0.218  0.00  0.00     0.003 A 
ATOM      6  C   LIG d   1      11.552   8.899   0.813  0.00  0.00    -0.084 A 
ATOM      7  O   LIG d   1      12.598   8.604   1.618  0.00  0.00    -0.873 OA
ATOM      8  O   LIG d   1       9.003   7.199  -1.203  0.00  0.00    -0.873 OA
ATOM      9  H   LIG d   1       8.555   9.749  -1.504  0.00  0.00     0.065 H 
ENDROOT
BRANCH   1  10
ATOM     10  C   LIG d   1      11.968  11.318   1.191  0.00  0.00     0.163 C 
ATOM     11  O   LIG d   1      11.557  11.850   2.202  0.00  0.00    -0.292 OA
BRANCH  10  12
ATOM     12  C   LIG d   1      13.267  11.770   0.576  0.00  0.00    -0.001 C 
ATOM     13  H   LIG d   1      13.434  12.821   0.812  0.00  0.00     0.031 H 
ATOM     14  H   LIG d   1      14.086  11.173   0.977  0.00  0.00     0.031 H 
ATOM     15  H   LIG d   1      13.220  11.643  -0.506  0.00  0.00     0.031 H 
ENDBRANCH  10  12
ENDBRANCH   1  10
BRANCH   2  16
ATOM     16  O   LIG d   1       9.777  11.824  -0.510  0.00  0.00    -0.506 OA
ATOM     17  H   LIG d   1      10.383  12.468  -0.118  0.00  0.00     0.292 HD
ENDBRANCH   2  16
BRANCH   5  18
ATOM     18  C   LIG d   1      11.155   6.473   0.465  0.00  0.00     0.159 C 
ATOM     19  O   LIG d   1      10.652   5.876   1.394  0.00  0.00    -0.292 OA
BRANCH  18  20
ATOM     20  C   LIG d   1      12.142   5.773  -0.434  0.00  0.00    -0.001 C 
ATOM     21  H   LIG d   1      12.219   6.313  -1.378  0.00  0.00     0.031 H 
ATOM     22  H   LIG d   1      13.117   5.744   0.050  0.00  0.00     0.031 H 
ATOM     23  H   LIG d   1      11.801   4.755  -0.626  0.00  0.00     0.031 H 
ENDBRANCH  18  20
ENDBRANCH   5  18
TORSDOF 5
ENDMDL
MODEL 8
REMARK VINA RESULT:      -4.2      2.693      4.331
REMARK  5 active torsions:
REMARK  status: ('A' for Active; 'I' for Inactive)
REMARK    1  A    between atoms: C_1  and  C_2 
REMARK    2  A    between atoms: C_2  and  C_4 
REMARK    3  A    between atoms: C_5  and  O_15 
REMARK    4  A    between atoms: C_8  and  C_11 
REMARK    5  A    between atoms: C_11  and  C_13 
ROOT
ATOM      1  C   LIG d   1       5.649  -0.596  -3.402  0.00  0.00     0.051 A 
ATOM      2  C   LIG d   1       6.087  -1.813  -3.965  0.00  0.00     0.126 A 
ATOM      3  C   LIG d   1       7.302  -1.878  -4.625  0.00  0.00    -0.027 A 
ATOM      4  C   LIG d   1       8.099  -0.751  -4.741  0.00  0.00    -0.095 A 
ATOM      5  C   LIG d   1       7.680   0.473  -4.186  0.00  0.00     0.003 A 
ATOM      6  C   LIG d   1       6.448   0.552  -3.519  0.00  0.00    -0.084 A 
ATOM      7  O   LIG d   1       6.034   1.725  -2.988  0.00  0.00    -0.873 OA
ATOM      8  O   LIG d   1       9.285  -0.828  -5.390  0.00  0.00    -0.873 OA
ATOM      9  H   LIG d   1       7.630  -2.813  -5.053  0.00  0.00     0.065 H 
ENDROOT
BRANCH   1  10
ATOM     10  C   LIG d   1       4.366  -0.530  -2.705  0.00  0.00     0.163 C 
ATOM     11  O   LIG d   1       4.284  -0.896  -1.551  0.00  0.00    -0.292 OA
BRANCH  10  12
ATOM     12  C   LIG d   1       3.147  -0.006  -3.418  0.00  0.00    -0.001 C 
ATOM     13  H   LIG d   1       3.044  -0.508  -4.380  0.00  0.00     0.031 H 
ATOM     14  H   LIG d   1       2.261  -0.198  -2.812  0.00  0.00     0.031 H 
ATOM     15  H   LIG d   1       3.252   1.067  -3.577  0.00  0.00     0.031 H 
ENDBRANCH  10  12
ENDBRANCH   1  10
BRANCH   2  16
ATOM     16  O   LIG d   1       5.317  -2.922  -3.858  0.00  0.00    -0.506 OA
ATOM     17  H   LIG d   1       4.483  -2.778  -3.389  0.00  0.00     0.292 HD
ENDBRANCH   2  16
BRANCH   5  18
ATOM     18  C   LIG d   1       8.524   1.661  -4.309  0.00  0.00     0.159 C 
ATOM     19  O   LIG d   1       9.274   1.970  -3.407  0.00  0.00    -0.292 OA
BRANCH  18  20
ATOM     20  C   LIG d   1       8.463   2.502  -5.559  0.00  0.00    -0.001 C 
ATOM     21  H   LIG d   1       7.422   2.656  -5.842  0.00  0.00     0.031 H 
ATOM     22  H   LIG d   1       8.936   3.465  -5.371  0.00  0.00     0.031 H 
ATOM     23  H   LIG d   1       8.987   1.991  -6.367  0.00  0.00     0.031 H 
ENDBRANCH  18  20
ENDBRANCH   5  18
TORSDOF 5
ENDMDL
MODEL 9
REMARK VINA RESULT:      -4.1      3.200      4.628
REMARK  5 active torsions:
REMARK  status: ('A' for Active; 'I' for Inactive)
REMARK    1  A    between atoms: C_1  and  C_2 
REMARK    2  A    between atoms: C_2  and  C_4 
REMARK    3  A    between atoms: C_5  and  O_15 
REMARK    4  A    between atoms: C_8  and  C_11 
REMARK    5  A    between atoms: C_11  and  C_13 
ROOT
ATOM      1  C   LIG d   1       5.417  -2.928  -4.379  0.00  0.00     0.051 A 
ATOM      2  C   LIG d   1       5.080  -4.005  -5.223  0.00  0.00     0.126 A 
ATOM      3  C   LIG d   1       6.058  -4.887  -5.653  0.00  0.00    -0.027 A 
ATOM      4  C   LIG d   1       7.375  -4.720  -5.259  0.00  0.00    -0.095 A 
ATOM      5  C   LIG d   1       7.733  -3.650  -4.415  0.00  0.00     0.003 A 
ATOM      6  C   LIG d   1       6.751  -2.748  -3.979  0.00  0.00    -0.084 A 
ATOM      7  O   LIG d   1       7.085  -1.714  -3.173  0.00  0.00    -0.873 OA
ATOM      8  O   LIG d   1       8.322  -5.589  -5.686  0.00  0.00    -0.873 OA
ATOM      9  H   LIG d   1       5.791  -5.709  -6.299  0.00  0.00     0.065 H 
ENDROOT
BRANCH   1  10
ATOM     10  C   LIG d   1       4.384  -1.999  -3.926  0.00  0.00     0.163 C 
ATOM     11  O   LIG d   1       3.972  -1.137  -4.676  0.00  0.00    -0.292 OA
BRANCH  10  12
ATOM     12  C   LIG d   1       3.828  -2.111  -2.531  0.00  0.00    -0.001 C 
ATOM     13  H   LIG d   1       3.613  -1.115  -2.144  0.00  0.00     0.031 H 
ATOM     14  H   LIG d   1       2.910  -2.699  -2.551  0.00  0.00     0.031 H 
ATOM     15  H   LIG d   1       4.559  -2.601  -1.887  0.00  0.00     0.031 H 
ENDBRANCH  10  12
ENDBRANCH   1  10
BRANCH   2  16
ATOM     16  O   LIG d   1       3.796  -4.179  -5.615  0.00  0.00    -0.506 OA
ATOM     17  H   LIG d   1       3.215  -4.521  -4.921  0.00  0.00     0.292 HD
ENDBRANCH   2  16
BRANCH   5  18
ATOM     18  C   LIG d   1       9.124  -3.477  -4.001  0.00  0.00     0.159 C 
ATOM     19  O   LIG d   1       9.521  -3.989  -2.974  0.00  0.00    -0.292 OA
BRANCH  18  20
ATOM     20  C   LIG d   1      10.067  -2.663  -4.849  0.00  0.00    -0.001 C 
ATOM     21  H   LIG d   1      11.032  -3.166  -4.906  0.00  0.00     0.031 H 
ATOM     22  H   LIG d   1       9.652  -2.555  -5.851  0.00  0.00     0.031 H 
ATOM     23  H   LIG d   1      10.198  -1.676  -4.403  0.00  0.00     0.031 H 
ENDBRANCH  18  20
ENDBRANCH   5  18
TORSDOF 5
ENDMDL
MODEL 10
REMARK VINA RESULT:      -4.1      7.964      9.746
REMARK  5 active torsions:
REMARK  status: ('A' for Active; 'I' for Inactive)
REMARK    1  A    between atoms: C_1  and  C_2 
REMARK    2  A    between atoms: C_2  and  C_4 
REMARK    3  A    between atoms: C_5  and  O_15 
REMARK    4  A    between atoms: C_8  and  C_11 
REMARK    5  A    between atoms: C_11  and  C_13 
ROOT
ATOM      1  C   LIG d   1      10.708   5.268  -3.260  0.00  0.00     0.051 A 
ATOM      2  C   LIG d   1      11.347   4.494  -2.269  0.00  0.00     0.126 A 
ATOM      3  C   LIG d   1      11.305   4.888  -0.942  0.00  0.00    -0.027 A 
ATOM      4  C   LIG d   1      10.638   6.045  -0.575  0.00  0.00    -0.095 A 
ATOM      5  C   LIG d   1       9.993   6.832  -1.549  0.00  0.00     0.003 A 
ATOM      6  C   LIG d   1      10.034   6.444  -2.897  0.00  0.00    -0.084 A 
ATOM      7  O   LIG d   1       9.423   7.196  -3.841  0.00  0.00    -0.873 OA
ATOM      8  O   LIG d   1      10.605   6.420   0.726  0.00  0.00    -0.873 OA
ATOM      9  H   LIG d   1      11.796   4.290  -0.190  0.00  0.00     0.065 H 
ENDROOT
BRANCH   1  10
ATOM     10  C   LIG d   1      10.753   4.849  -4.660  0.00  0.00     0.163 C 
ATOM     11  O   LIG d   1      11.741   5.074  -5.328  0.00  0.00    -0.292 OA
BRANCH  10  12
ATOM     12  C   LIG d   1       9.574   4.139  -5.272  0.00  0.00    -0.001 C 
ATOM     13  H   LIG d   1       8.667   4.714  -5.087  0.00  0.00     0.031 H 
ATOM     14  H   LIG d   1       9.728   4.039  -6.347  0.00  0.00     0.031 H 
ATOM     15  H   LIG d   1       9.475   3.149  -4.826  0.00  0.00     0.031 H 
ENDBRANCH  10  12
ENDBRANCH   1  10
BRANCH   2  16
ATOM     16  O   LIG d   1      12.002   3.361  -2.616  0.00  0.00    -0.506 OA
ATOM     17  H   LIG d   1      12.039   2.697  -1.913  0.00  0.00     0.292 HD
ENDBRANCH   2  16
BRANCH   5  18
ATOM     18  C   LIG d   1       9.289   8.052  -1.158  0.00  0.00     0.159 C 
ATOM     19  O   LIG d   1       8.120   8.003  -0.838  0.00  0.00    -0.292 OA
BRANCH  18  20
ATOM     20  C   LIG d   1      10.017   9.372  -1.151  0.00  0.00    -0.001 C 
ATOM     21  H   LIG d   1      11.026   9.232  -1.539  0.00  0.00     0.031 H 
ATOM     22  H   LIG d   1       9.482  10.085  -1.777  0.00  0.00     0.031 H 
ATOM     23  H   LIG d   1      10.070   9.753  -0.131  0.00  0.00     0.031 H 
ENDBRANCH  18  20
ENDBRANCH   5  18
TORSDOF 5
ENDMDL
