MODEL 1
REMARK VINA RESULT:      -6.8      0.000      0.000
REMARK  6 active torsions:
REMARK  status: ('A' for Active; 'I' for Inactive)
REMARK    1  A    between atoms: C_1  and  C_2 
REMARK    2  A    between atoms: C_6  and  O_24 
REMARK    3  A    between atoms: C_12  and  C_13 
REMARK    4  A    between atoms: C_13  and  C_14 
REMARK       I    between atoms: C_14  and  N_16 
REMARK    5  A    between atoms: N_16  and  C_17 
REMARK    6  A    between atoms: C_17  and  C_18 
ROOT
ATOM      1  C   LIG d   1       2.513  -1.590  -9.563  0.00  0.00    -0.029 A 
ATOM      2  C   LIG d   1       2.190  -2.999  -9.796  0.00  0.00     0.021 A 
ATOM      3  C   LIG d   1       1.095  -3.367 -10.585  0.00  0.00    -0.047 A 
ATOM      4  C   LIG d   1       0.820  -4.688 -10.791  0.00  0.00    -0.019 A 
ATOM      5  C   LIG d   1       1.626  -5.672 -10.224  0.00  0.00     0.120 A 
ATOM      6  C   LIG d   1       2.717  -5.327  -9.444  0.00  0.00     0.023 A 
ATOM      7  C   LIG d   1       3.011  -3.990  -9.225  0.00  0.00     0.143 A 
ATOM      8  O   LIG d   1       4.070  -3.630  -8.468  0.00  0.00    -0.422 OA
ATOM      9  C   LIG d   1       4.369  -2.341  -8.247  0.00  0.00     0.341 A 
ATOM     10  O   LIG d   1       5.333  -2.064  -7.557  0.00  0.00    -0.245 OA
ATOM     11  C   LIG d   1       3.593  -1.297  -8.792  0.00  0.00     0.049 A 
ATOM     12  H   LIG d   1       0.466  -2.607 -11.027  0.00  0.00     0.063 H 
ATOM     13  H   LIG d   1      -0.028  -4.971 -11.397  0.00  0.00     0.065 H 
ATOM     14  H   LIG d   1       3.338  -6.096  -9.008  0.00  0.00     0.069 H 
ENDROOT
BRANCH  11  15
ATOM     15  C   LIG d   1       3.960   0.138  -8.521  0.00  0.00     0.056 C 
ATOM     16  H   LIG d   1       5.027   0.207  -8.309  0.00  0.00     0.041 H 
ATOM     17  H   LIG d   1       3.723   0.746  -9.394  0.00  0.00     0.041 H 
BRANCH  15  18
ATOM     18  C   LIG d   1       3.179   0.641  -7.333  0.00  0.00     0.218 C 
ATOM     19  O   LIG d   1       2.799   1.791  -7.299  0.00  0.00    -0.275 OA
ATOM     20  N   LIG d   1       2.904  -0.190  -6.308  0.00  0.00    -0.309 N 
ATOM     21  H   LIG d   1       3.208  -1.111  -6.334  0.00  0.00     0.149 HD
BRANCH  20  22
ATOM     22  C   LIG d   1       2.146   0.297  -5.153  0.00  0.00     0.054 C 
ATOM     23  H   LIG d   1       1.810   1.317  -5.343  0.00  0.00     0.053 H 
ATOM     24  H   LIG d   1       1.281  -0.346  -4.989  0.00  0.00     0.053 H 
BRANCH  22  25
ATOM     25  C   LIG d   1       3.025   0.277  -3.929  0.00  0.00     0.058 A 
ATOM     26  N   LIG d   1       3.618   1.385  -3.533  0.00  0.00    -0.258 NA
ATOM     27  C   LIG d   1       4.392   1.415  -2.466  0.00  0.00     0.028 A 
ATOM     28  C   LIG d   1       4.620   0.270  -1.726  0.00  0.00    -0.044 A 
ATOM     29  H   LIG d   1       4.857   2.344  -2.169  0.00  0.00     0.083 H 
ATOM     30  C   LIG d   1       4.018  -0.917  -2.115  0.00  0.00    -0.059 A 
ATOM     31  H   LIG d   1       5.258   0.301  -0.855  0.00  0.00     0.063 H 
ATOM     32  C   LIG d   1       3.207  -0.907  -3.239  0.00  0.00    -0.039 A 
ATOM     33  H   LIG d   1       4.178  -1.827  -1.555  0.00  0.00     0.062 H 
ATOM     34  H   LIG d   1       2.723  -1.813  -3.571  0.00  0.00     0.064 H 
ENDBRANCH  22  25
ENDBRANCH  20  22
ENDBRANCH  15  18
ENDBRANCH  11  15
BRANCH   1  35
ATOM     35  C   LIG d   1       1.667  -0.494 -10.158  0.00  0.00    -0.038 C 
ATOM     36  H   LIG d   1       1.758  -0.514 -11.245  0.00  0.00     0.028 H 
ATOM     37  H   LIG d   1       0.624  -0.646  -9.878  0.00  0.00     0.028 H 
ATOM     38  H   LIG d   1       2.007   0.471  -9.783  0.00  0.00     0.028 H 
ENDBRANCH   1  35
BRANCH   5  39
ATOM     39  O   LIG d   1       1.339  -6.983 -10.437  0.00  0.00    -0.507 OA
ATOM     40  H   LIG d   1       1.377  -7.247 -11.367  0.00  0.00     0.292 HD
ENDBRANCH   5  39
TORSDOF 6
ENDMDL
MODEL 2
REMARK VINA RESULT:      -6.7      2.905      3.554
REMARK  6 active torsions:
REMARK  status: ('A' for Active; 'I' for Inactive)
REMARK    1  A    between atoms: C_1  and  C_2 
REMARK    2  A    between atoms: C_6  and  O_24 
REMARK    3  A    between atoms: C_12  and  C_13 
REMARK    4  A    between atoms: C_13  and  C_14 
REMARK       I    between atoms: C_14  and  N_16 
REMARK    5  A    between atoms: N_16  and  C_17 
REMARK    6  A    between atoms: C_17  and  C_18 
ROOT
ATOM      1  C   LIG d   1       2.521  -0.251 -10.200  0.00  0.00    -0.029 A 
ATOM      2  C   LIG d   1       2.847  -0.676 -11.564  0.00  0.00     0.021 A 
ATOM      3  C   LIG d   1       2.083  -1.650 -12.217  0.00  0.00    -0.047 A 
ATOM      4  C   LIG d   1       2.405  -2.023 -13.490  0.00  0.00    -0.019 A 
ATOM      5  C   LIG d   1       3.487  -1.438 -14.144  0.00  0.00     0.120 A 
ATOM      6  C   LIG d   1       4.251  -0.469 -13.515  0.00  0.00     0.023 A 
ATOM      7  C   LIG d   1       3.937  -0.078 -12.222  0.00  0.00     0.143 A 
ATOM      8  O   LIG d   1       4.669   0.865 -11.589  0.00  0.00    -0.422 OA
ATOM      9  C   LIG d   1       4.378   1.255 -10.339  0.00  0.00     0.341 A 
ATOM     10  O   LIG d   1       5.066   2.109  -9.808  0.00  0.00    -0.245 OA
ATOM     11  C   LIG d   1       3.297   0.702  -9.622  0.00  0.00     0.049 A 
ATOM     12  H   LIG d   1       1.244  -2.107 -11.714  0.00  0.00     0.063 H 
ATOM     13  H   LIG d   1       1.817  -2.778 -13.993  0.00  0.00     0.065 H 
ATOM     14  H   LIG d   1       5.088  -0.020 -14.029  0.00  0.00     0.069 H 
ENDROOT
BRANCH  11  15
ATOM     15  C   LIG d   1       3.003   1.167  -8.220  0.00  0.00     0.056 C 
ATOM     16  H   LIG d   1       3.267   2.219  -8.123  0.00  0.00     0.041 H 
ATOM     17  H   LIG d   1       1.942   1.037  -8.009  0.00  0.00     0.041 H 
BRANCH  15  18
ATOM     18  C   LIG d   1       3.813   0.353  -7.242  0.00  0.00     0.218 C 
ATOM     19  O   LIG d   1       5.022   0.442  -7.234  0.00  0.00    -0.275 OA
ATOM     20  N   LIG d   1       3.191  -0.473  -6.377  0.00  0.00    -0.309 N 
ATOM     21  H   LIG d   1       2.224  -0.544  -6.383  0.00  0.00     0.149 HD
BRANCH  20  22
ATOM     22  C   LIG d   1       3.978  -1.264  -5.426  0.00  0.00     0.054 C 
ATOM     23  H   LIG d   1       3.431  -2.170  -5.167  0.00  0.00     0.053 H 
ATOM     24  H   LIG d   1       4.932  -1.533  -5.881  0.00  0.00     0.053 H 
BRANCH  22  25
ATOM     25  C   LIG d   1       4.226  -0.451  -4.182  0.00  0.00     0.058 A 
ATOM     26  N   LIG d   1       5.462  -0.226  -3.785  0.00  0.00    -0.258 NA
ATOM     27  C   LIG d   1       5.727   0.483  -2.705  0.00  0.00     0.028 A 
ATOM     28  C   LIG d   1       4.705   1.010  -1.938  0.00  0.00    -0.044 A 
ATOM     29  H   LIG d   1       6.753   0.651  -2.414  0.00  0.00     0.083 H 
ATOM     30  C   LIG d   1       3.390   0.790  -2.321  0.00  0.00    -0.059 A 
ATOM     31  H   LIG d   1       4.928   1.587  -1.053  0.00  0.00     0.063 H 
ATOM     32  C   LIG d   1       3.152   0.044  -3.464  0.00  0.00    -0.039 A 
ATOM     33  H   LIG d   1       2.572   1.190  -1.741  0.00  0.00     0.062 H 
ATOM     34  H   LIG d   1       2.142  -0.148  -3.792  0.00  0.00     0.064 H 
ENDBRANCH  22  25
ENDBRANCH  20  22
ENDBRANCH  15  18
ENDBRANCH  11  15
BRANCH   1  35
ATOM     35  C   LIG d   1       1.359  -0.859  -9.458  0.00  0.00    -0.038 C 
ATOM     36  H   LIG d   1       1.403  -0.563  -8.409  0.00  0.00     0.028 H 
ATOM     37  H   LIG d   1       0.424  -0.509  -9.895  0.00  0.00     0.028 H 
ATOM     38  H   LIG d   1       1.410  -1.945  -9.531  0.00  0.00     0.028 H 
ENDBRANCH   1  35
BRANCH   5  39
ATOM     39  O   LIG d   1       3.795  -1.820 -15.411  0.00  0.00    -0.507 OA
ATOM     40  H   LIG d   1       4.571  -1.375 -15.778  0.00  0.00     0.292 HD
ENDBRANCH   5  39
TORSDOF 6
ENDMDL
MODEL 3
REMARK VINA RESULT:      -6.6      2.735      3.548
REMARK  6 active torsions:
REMARK  status: ('A' for Active; 'I' for Inactive)
REMARK    1  A    between atoms: C_1  and  C_2 
REMARK    2  A    between atoms: C_6  and  O_24 
REMARK    3  A    between atoms: C_12  and  C_13 
REMARK    4  A    between atoms: C_13  and  C_14 
REMARK       I    between atoms: C_14  and  N_16 
REMARK    5  A    between atoms: N_16  and  C_17 
REMARK    6  A    between atoms: C_17  and  C_18 
ROOT
ATOM      1  C   LIG d   1       4.732  -0.116 -10.203  0.00  0.00    -0.029 A 
ATOM      2  C   LIG d   1       3.450  -0.528 -10.781  0.00  0.00     0.021 A 
ATOM      3  C   LIG d   1       3.392  -1.154 -12.031  0.00  0.00    -0.047 A 
ATOM      4  C   LIG d   1       2.186  -1.534 -12.544  0.00  0.00    -0.019 A 
ATOM      5  C   LIG d   1       1.012  -1.305 -11.830  0.00  0.00     0.120 A 
ATOM      6  C   LIG d   1       1.051  -0.691 -10.589  0.00  0.00     0.023 A 
ATOM      7  C   LIG d   1       2.268  -0.300 -10.053  0.00  0.00     0.143 A 
ATOM      8  O   LIG d   1       2.330   0.301  -8.844  0.00  0.00    -0.422 OA
ATOM      9  C   LIG d   1       3.500   0.685  -8.311  0.00  0.00     0.341 A 
ATOM     10  O   LIG d   1       3.506   1.223  -7.219  0.00  0.00    -0.245 OA
ATOM     11  C   LIG d   1       4.723   0.482  -8.984  0.00  0.00     0.049 A 
ATOM     12  H   LIG d   1       4.299  -1.334 -12.590  0.00  0.00     0.063 H 
ATOM     13  H   LIG d   1       2.141  -2.014 -13.511  0.00  0.00     0.065 H 
ATOM     14  H   LIG d   1       0.137  -0.517 -10.041  0.00  0.00     0.069 H 
ENDROOT
BRANCH  11  15
ATOM     15  C   LIG d   1       6.015   0.928  -8.351  0.00  0.00     0.056 C 
ATOM     16  H   LIG d   1       6.822   0.854  -9.081  0.00  0.00     0.041 H 
ATOM     17  H   LIG d   1       5.920   1.961  -8.018  0.00  0.00     0.041 H 
BRANCH  15  18
ATOM     18  C   LIG d   1       6.325   0.046  -7.168  0.00  0.00     0.218 C 
ATOM     19  O   LIG d   1       6.589  -1.125  -7.338  0.00  0.00    -0.275 OA
ATOM     20  N   LIG d   1       6.308   0.560  -5.923  0.00  0.00    -0.309 N 
ATOM     21  H   LIG d   1       6.097   1.497  -5.787  0.00  0.00     0.149 HD
BRANCH  20  22
ATOM     22  C   LIG d   1       6.609  -0.297  -4.773  0.00  0.00     0.054 C 
ATOM     23  H   LIG d   1       7.066  -1.223  -5.119  0.00  0.00     0.053 H 
ATOM     24  H   LIG d   1       7.298   0.221  -4.105  0.00  0.00     0.053 H 
BRANCH  22  25
ATOM     25  C   LIG d   1       5.334  -0.610  -4.033  0.00  0.00     0.058 A 
ATOM     26  N   LIG d   1       4.319   0.227  -4.100  0.00  0.00    -0.258 NA
ATOM     27  C   LIG d   1       3.182  -0.009  -3.473  0.00  0.00     0.028 A 
ATOM     28  C   LIG d   1       3.021  -1.148  -2.707  0.00  0.00    -0.044 A 
ATOM     29  H   LIG d   1       2.370   0.698  -3.555  0.00  0.00     0.083 H 
ATOM     30  C   LIG d   1       4.069  -2.050  -2.609  0.00  0.00    -0.059 A 
ATOM     31  H   LIG d   1       2.089  -1.333  -2.193  0.00  0.00     0.063 H 
ATOM     32  C   LIG d   1       5.246  -1.770  -3.286  0.00  0.00    -0.039 A 
ATOM     33  H   LIG d   1       3.971  -2.949  -2.017  0.00  0.00     0.062 H 
ATOM     34  H   LIG d   1       6.083  -2.450  -3.231  0.00  0.00     0.064 H 
ENDBRANCH  22  25
ENDBRANCH  20  22
ENDBRANCH  15  18
ENDBRANCH  11  15
BRANCH   1  35
ATOM     35  C   LIG d   1       6.024  -0.346 -10.944  0.00  0.00    -0.038 C 
ATOM     36  H   LIG d   1       5.972  -1.292 -11.482  0.00  0.00     0.028 H 
ATOM     37  H   LIG d   1       6.187   0.467 -11.652  0.00  0.00     0.028 H 
ATOM     38  H   LIG d   1       6.849  -0.378 -10.232  0.00  0.00     0.028 H 
ENDBRANCH   1  35
BRANCH   5  39
ATOM     39  O   LIG d   1      -0.181  -1.688 -12.354  0.00  0.00    -0.507 OA
ATOM     40  H   LIG d   1      -0.639  -2.364 -11.836  0.00  0.00     0.292 HD
ENDBRANCH   5  39
TORSDOF 6
ENDMDL
MODEL 4
REMARK VINA RESULT:      -6.5      2.915      7.057
REMARK  6 active torsions:
REMARK  status: ('A' for Active; 'I' for Inactive)
REMARK    1  A    between atoms: C_1  and  C_2 
REMARK    2  A    between atoms: C_6  and  O_24 
REMARK    3  A    between atoms: C_12  and  C_13 
REMARK    4  A    between atoms: C_13  and  C_14 
REMARK       I    between atoms: C_14  and  N_16 
REMARK    5  A    between atoms: N_16  and  C_17 
REMARK    6  A    between atoms: C_17  and  C_18 
ROOT
ATOM      1  C   LIG d   1       5.311  -2.473  -5.067  0.00  0.00    -0.029 A 
ATOM      2  C   LIG d   1       5.162  -1.482  -3.998  0.00  0.00     0.021 A 
ATOM      3  C   LIG d   1       4.512  -1.805  -2.802  0.00  0.00    -0.047 A 
ATOM      4  C   LIG d   1       4.393  -0.865  -1.819  0.00  0.00    -0.019 A 
ATOM      5  C   LIG d   1       4.916   0.413  -1.999  0.00  0.00     0.120 A 
ATOM      6  C   LIG d   1       5.567   0.749  -3.175  0.00  0.00     0.023 A 
ATOM      7  C   LIG d   1       5.698  -0.194  -4.183  0.00  0.00     0.143 A 
ATOM      8  O   LIG d   1       6.328   0.112  -5.337  0.00  0.00    -0.422 OA
ATOM      9  C   LIG d   1       6.464  -0.789  -6.322  0.00  0.00     0.341 A 
ATOM     10  O   LIG d   1       7.040  -0.468  -7.346  0.00  0.00    -0.245 OA
ATOM     11  C   LIG d   1       5.956  -2.100  -6.202  0.00  0.00     0.049 A 
ATOM     12  H   LIG d   1       4.104  -2.795  -2.657  0.00  0.00     0.063 H 
ATOM     13  H   LIG d   1       3.888  -1.114  -0.897  0.00  0.00     0.065 H 
ATOM     14  H   LIG d   1       5.971   1.742  -3.307  0.00  0.00     0.069 H 
ENDROOT
BRANCH  11  15
ATOM     15  C   LIG d   1       6.129  -3.083  -7.330  0.00  0.00     0.056 C 
ATOM     16  H   LIG d   1       7.170  -3.088  -7.652  0.00  0.00     0.041 H 
ATOM     17  H   LIG d   1       5.849  -4.080  -6.990  0.00  0.00     0.041 H 
BRANCH  15  18
ATOM     18  C   LIG d   1       5.248  -2.681  -8.486  0.00  0.00     0.218 C 
ATOM     19  O   LIG d   1       5.679  -2.714  -9.618  0.00  0.00    -0.275 OA
ATOM     20  N   LIG d   1       3.980  -2.283  -8.259  0.00  0.00    -0.309 N 
ATOM     21  H   LIG d   1       3.634  -2.256  -7.353  0.00  0.00     0.149 HD
BRANCH  20  22
ATOM     22  C   LIG d   1       3.123  -1.892  -9.381  0.00  0.00     0.054 C 
ATOM     23  H   LIG d   1       3.450  -2.406 -10.285  0.00  0.00     0.053 H 
ATOM     24  H   LIG d   1       2.091  -2.164  -9.162  0.00  0.00     0.053 H 
BRANCH  22  25
ATOM     25  C   LIG d   1       3.216  -0.402  -9.589  0.00  0.00     0.058 A 
ATOM     26  N   LIG d   1       3.843   0.071 -10.647  0.00  0.00    -0.258 NA
ATOM     27  C   LIG d   1       3.945   1.367 -10.871  0.00  0.00     0.028 A 
ATOM     28  C   LIG d   1       3.403   2.282  -9.988  0.00  0.00    -0.044 A 
ATOM     29  H   LIG d   1       4.462   1.718 -11.752  0.00  0.00     0.083 H 
ATOM     30  C   LIG d   1       2.740   1.822  -8.860  0.00  0.00    -0.059 A 
ATOM     31  H   LIG d   1       3.494   3.342 -10.176  0.00  0.00     0.063 H 
ATOM     32  C   LIG d   1       2.649   0.453  -8.661  0.00  0.00    -0.039 A 
ATOM     33  H   LIG d   1       2.307   2.514  -8.153  0.00  0.00     0.062 H 
ATOM     34  H   LIG d   1       2.142   0.059  -7.794  0.00  0.00     0.064 H 
ENDBRANCH  22  25
ENDBRANCH  20  22
ENDBRANCH  15  18
ENDBRANCH  11  15
BRANCH   1  35
ATOM     35  C   LIG d   1       4.759  -3.867  -4.912  0.00  0.00    -0.038 C 
ATOM     36  H   LIG d   1       4.309  -4.186  -5.853  0.00  0.00     0.028 H 
ATOM     37  H   LIG d   1       5.565  -4.550  -4.645  0.00  0.00     0.028 H 
ATOM     38  H   LIG d   1       4.002  -3.872  -4.128  0.00  0.00     0.028 H 
ENDBRANCH   1  35
BRANCH   5  39
ATOM     39  O   LIG d   1       4.789   1.338  -1.013  0.00  0.00    -0.507 OA
ATOM     40  H   LIG d   1       5.594   1.846  -0.843  0.00  0.00     0.292 HD
ENDBRANCH   5  39
TORSDOF 6
ENDMDL
MODEL 5
REMARK VINA RESULT:      -6.4      2.888      6.926
REMARK  6 active torsions:
REMARK  status: ('A' for Active; 'I' for Inactive)
REMARK    1  A    between atoms: C_1  and  C_2 
REMARK    2  A    between atoms: C_6  and  O_24 
REMARK    3  A    between atoms: C_12  and  C_13 
REMARK    4  A    between atoms: C_13  and  C_14 
REMARK       I    between atoms: C_14  and  N_16 
REMARK    5  A    between atoms: N_16  and  C_17 
REMARK    6  A    between atoms: C_17  and  C_18 
ROOT
ATOM      1  C   LIG d   1       5.994  -1.588  -5.794  0.00  0.00    -0.029 A 
ATOM      2  C   LIG d   1       5.692  -0.878  -4.549  0.00  0.00     0.021 A 
ATOM      3  C   LIG d   1       6.237   0.384  -4.288  0.00  0.00    -0.047 A 
ATOM      4  C   LIG d   1       5.934   1.027  -3.123  0.00  0.00    -0.019 A 
ATOM      5  C   LIG d   1       5.083   0.435  -2.193  0.00  0.00     0.120 A 
ATOM      6  C   LIG d   1       4.530  -0.811  -2.435  0.00  0.00     0.023 A 
ATOM      7  C   LIG d   1       4.827  -1.478  -3.614  0.00  0.00     0.143 A 
ATOM      8  O   LIG d   1       4.299  -2.694  -3.872  0.00  0.00    -0.422 OA
ATOM      9  C   LIG d   1       4.575  -3.352  -5.008  0.00  0.00     0.341 A 
ATOM     10  O   LIG d   1       4.077  -4.447  -5.197  0.00  0.00    -0.245 OA
ATOM     11  C   LIG d   1       5.430  -2.808  -5.990  0.00  0.00     0.049 A 
ATOM     12  H   LIG d   1       6.898   0.847  -5.006  0.00  0.00     0.063 H 
ATOM     13  H   LIG d   1       6.358   2.000  -2.921  0.00  0.00     0.065 H 
ATOM     14  H   LIG d   1       3.871  -1.263  -1.709  0.00  0.00     0.069 H 
ENDROOT
BRANCH  11  15
ATOM     15  C   LIG d   1       5.715  -3.578  -7.253  0.00  0.00     0.056 C 
ATOM     16  H   LIG d   1       6.766  -3.464  -7.519  0.00  0.00     0.041 H 
ATOM     17  H   LIG d   1       5.493  -4.633  -7.093  0.00  0.00     0.041 H 
BRANCH  15  18
ATOM     18  C   LIG d   1       4.853  -3.047  -8.370  0.00  0.00     0.218 C 
ATOM     19  O   LIG d   1       5.211  -3.168  -9.522  0.00  0.00    -0.275 OA
ATOM     20  N   LIG d   1       3.685  -2.436  -8.087  0.00  0.00    -0.309 N 
ATOM     21  H   LIG d   1       3.399  -2.339  -7.166  0.00  0.00     0.149 HD
BRANCH  20  22
ATOM     22  C   LIG d   1       2.848  -1.920  -9.173  0.00  0.00     0.054 C 
ATOM     23  H   LIG d   1       3.104  -2.427 -10.103  0.00  0.00     0.053 H 
ATOM     24  H   LIG d   1       1.798  -2.099  -8.938  0.00  0.00     0.053 H 
BRANCH  22  25
ATOM     25  C   LIG d   1       3.081  -0.439  -9.327  0.00  0.00     0.058 A 
ATOM     26  N   LIG d   1       3.604   0.027 -10.443  0.00  0.00    -0.258 NA
ATOM     27  C   LIG d   1       3.822   1.315 -10.623  0.00  0.00     0.028 A 
ATOM     28  C   LIG d   1       3.516   2.229  -9.632  0.00  0.00    -0.044 A 
ATOM     29  H   LIG d   1       4.248   1.660 -11.554  0.00  0.00     0.083 H 
ATOM     30  C   LIG d   1       2.969   1.776  -8.441  0.00  0.00    -0.059 A 
ATOM     31  H   LIG d   1       3.701   3.282  -9.784  0.00  0.00     0.063 H 
ATOM     32  C   LIG d   1       2.751   0.416  -8.291  0.00  0.00    -0.039 A 
ATOM     33  H   LIG d   1       2.721   2.467  -7.649  0.00  0.00     0.062 H 
ATOM     34  H   LIG d   1       2.327   0.027  -7.377  0.00  0.00     0.064 H 
ENDBRANCH  22  25
ENDBRANCH  20  22
ENDBRANCH  15  18
ENDBRANCH  11  15
BRANCH   1  35
ATOM     35  C   LIG d   1       6.910  -0.983  -6.826  0.00  0.00    -0.038 C 
ATOM     36  H   LIG d   1       7.682  -1.705  -7.095  0.00  0.00     0.028 H 
ATOM     37  H   LIG d   1       6.334  -0.720  -7.714  0.00  0.00     0.028 H 
ATOM     38  H   LIG d   1       7.376  -0.087  -6.417  0.00  0.00     0.028 H 
ENDBRANCH   1  35
BRANCH   5  39
ATOM     39  O   LIG d   1       4.791   1.087  -1.037  0.00  0.00    -0.507 OA
ATOM     40  H   LIG d   1       4.001   0.758  -0.588  0.00  0.00     0.292 HD
ENDBRANCH   5  39
TORSDOF 6
ENDMDL
MODEL 6
REMARK VINA RESULT:      -6.4      2.147      3.566
REMARK  6 active torsions:
REMARK  status: ('A' for Active; 'I' for Inactive)
REMARK    1  A    between atoms: C_1  and  C_2 
REMARK    2  A    between atoms: C_6  and  O_24 
REMARK    3  A    between atoms: C_12  and  C_13 
REMARK    4  A    between atoms: C_13  and  C_14 
REMARK       I    between atoms: C_14  and  N_16 
REMARK    5  A    between atoms: N_16  and  C_17 
REMARK    6  A    between atoms: C_17  and  C_18 
ROOT
ATOM      1  C   LIG d   1       4.158  -2.342  -8.293  0.00  0.00    -0.029 A 
ATOM      2  C   LIG d   1       3.110  -2.031  -9.267  0.00  0.00     0.021 A 
ATOM      3  C   LIG d   1       2.917  -0.723  -9.727  0.00  0.00    -0.047 A 
ATOM      4  C   LIG d   1       1.938  -0.462 -10.640  0.00  0.00    -0.019 A 
ATOM      5  C   LIG d   1       1.129  -1.490 -11.120  0.00  0.00     0.120 A 
ATOM      6  C   LIG d   1       1.308  -2.791 -10.681  0.00  0.00     0.023 A 
ATOM      7  C   LIG d   1       2.300  -3.074  -9.754  0.00  0.00     0.143 A 
ATOM      8  O   LIG d   1       2.492  -4.336  -9.311  0.00  0.00    -0.422 OA
ATOM      9  C   LIG d   1       3.448  -4.626  -8.415  0.00  0.00     0.341 A 
ATOM     10  O   LIG d   1       3.584  -5.778  -8.044  0.00  0.00    -0.245 OA
ATOM     11  C   LIG d   1       4.298  -3.631  -7.890  0.00  0.00     0.049 A 
ATOM     12  H   LIG d   1       3.541   0.078  -9.357  0.00  0.00     0.063 H 
ATOM     13  H   LIG d   1       1.787   0.548 -10.992  0.00  0.00     0.065 H 
ATOM     14  H   LIG d   1       0.678  -3.583 -11.058  0.00  0.00     0.069 H 
ENDROOT
BRANCH  11  15
ATOM     15  C   LIG d   1       5.359  -3.997  -6.885  0.00  0.00     0.056 C 
ATOM     16  H   LIG d   1       5.697  -5.017  -7.068  0.00  0.00     0.041 H 
ATOM     17  H   LIG d   1       6.201  -3.313  -6.980  0.00  0.00     0.041 H 
BRANCH  15  18
ATOM     18  C   LIG d   1       4.787  -3.900  -5.493  0.00  0.00     0.218 C 
ATOM     19  O   LIG d   1       4.243  -4.861  -4.992  0.00  0.00    -0.275 OA
ATOM     20  N   LIG d   1       4.880  -2.744  -4.807  0.00  0.00    -0.309 N 
ATOM     21  H   LIG d   1       5.315  -1.974  -5.207  0.00  0.00     0.149 HD
BRANCH  20  22
ATOM     22  C   LIG d   1       4.324  -2.649  -3.454  0.00  0.00     0.054 C 
ATOM     23  H   LIG d   1       3.374  -3.181  -3.414  0.00  0.00     0.053 H 
ATOM     24  H   LIG d   1       5.020  -3.094  -2.744  0.00  0.00     0.053 H 
BRANCH  22  25
ATOM     25  C   LIG d   1       4.105  -1.200  -3.102  0.00  0.00     0.058 A 
ATOM     26  N   LIG d   1       3.385  -0.436  -3.899  0.00  0.00    -0.258 NA
ATOM     27  C   LIG d   1       3.163   0.835  -3.628  0.00  0.00     0.028 A 
ATOM     28  C   LIG d   1       3.695   1.420  -2.494  0.00  0.00    -0.044 A 
ATOM     29  H   LIG d   1       2.564   1.429  -4.302  0.00  0.00     0.083 H 
ATOM     30  C   LIG d   1       4.464   0.649  -1.634  0.00  0.00    -0.059 A 
ATOM     31  H   LIG d   1       3.514   2.463  -2.281  0.00  0.00     0.063 H 
ATOM     32  C   LIG d   1       4.670  -0.684  -1.950  0.00  0.00    -0.039 A 
ATOM     33  H   LIG d   1       4.892   1.079  -0.741  0.00  0.00     0.062 H 
ATOM     34  H   LIG d   1       5.263  -1.314  -1.304  0.00  0.00     0.064 H 
ENDBRANCH  22  25
ENDBRANCH  20  22
ENDBRANCH  15  18
ENDBRANCH  11  15
BRANCH   1  35
ATOM     35  C   LIG d   1       5.053  -1.258  -7.748  0.00  0.00    -0.038 C 
ATOM     36  H   LIG d   1       5.375  -0.609  -8.563  0.00  0.00     0.028 H 
ATOM     37  H   LIG d   1       4.507  -0.672  -7.010  0.00  0.00     0.028 H 
ATOM     38  H   LIG d   1       5.926  -1.712  -7.279  0.00  0.00     0.028 H 
ENDBRANCH   1  35
BRANCH   5  39
ATOM     39  O   LIG d   1       0.158  -1.215 -12.029  0.00  0.00    -0.507 OA
ATOM     40  H   LIG d   1       0.372  -1.491 -12.930  0.00  0.00     0.292 HD
ENDBRANCH   5  39
TORSDOF 6
ENDMDL
MODEL 7
REMARK VINA RESULT:      -6.3      4.102      7.945
REMARK  6 active torsions:
REMARK  status: ('A' for Active; 'I' for Inactive)
REMARK    1  A    between atoms: C_1  and  C_2 
REMARK    2  A    between atoms: C_6  and  O_24 
REMARK    3  A    between atoms: C_12  and  C_13 
REMARK    4  A    between atoms: C_13  and  C_14 
REMARK       I    between atoms: C_14  and  N_16 
REMARK    5  A    between atoms: N_16  and  C_17 
REMARK    6  A    between atoms: C_17  and  C_18 
ROOT
ATOM      1  C   LIG d   1       6.869  -0.730  -4.383  0.00  0.00    -0.029 A 
ATOM      2  C   LIG d   1       8.085   0.072  -4.540  0.00  0.00     0.021 A 
ATOM      3  C   LIG d   1       9.175  -0.407  -5.275  0.00  0.00    -0.047 A 
ATOM      4  C   LIG d   1      10.293   0.363  -5.412  0.00  0.00    -0.019 A 
ATOM      5  C   LIG d   1      10.355   1.625  -4.825  0.00  0.00     0.120 A 
ATOM      6  C   LIG d   1       9.285   2.118  -4.098  0.00  0.00     0.023 A 
ATOM      7  C   LIG d   1       8.141   1.349  -3.951  0.00  0.00     0.143 A 
ATOM      8  O   LIG d   1       7.085   1.809  -3.245  0.00  0.00    -0.422 OA
ATOM      9  C   LIG d   1       5.970   1.078  -3.094  0.00  0.00     0.341 A 
ATOM     10  O   LIG d   1       5.043   1.535  -2.449  0.00  0.00    -0.245 OA
ATOM     11  C   LIG d   1       5.844  -0.207  -3.662  0.00  0.00     0.049 A 
ATOM     12  H   LIG d   1       9.132  -1.386  -5.732  0.00  0.00     0.063 H 
ATOM     13  H   LIG d   1      11.136  -0.009  -5.976  0.00  0.00     0.065 H 
ATOM     14  H   LIG d   1       9.341   3.098  -3.647  0.00  0.00     0.069 H 
ENDROOT
BRANCH  11  15
ATOM     15  C   LIG d   1       4.576  -0.996  -3.469  0.00  0.00     0.056 C 
ATOM     16  H   LIG d   1       4.754  -2.040  -3.730  0.00  0.00     0.041 H 
ATOM     17  H   LIG d   1       4.262  -0.931  -2.428  0.00  0.00     0.041 H 
BRANCH  15  18
ATOM     18  C   LIG d   1       3.495  -0.434  -4.356  0.00  0.00     0.218 C 
ATOM     19  O   LIG d   1       2.377  -0.264  -3.917  0.00  0.00    -0.275 OA
ATOM     20  N   LIG d   1       3.770  -0.120  -5.638  0.00  0.00    -0.309 N 
ATOM     21  H   LIG d   1       4.664  -0.256  -5.990  0.00  0.00     0.149 HD
BRANCH  20  22
ATOM     22  C   LIG d   1       2.719   0.427  -6.500  0.00  0.00     0.054 C 
ATOM     23  H   LIG d   1       1.936  -0.319  -6.636  0.00  0.00     0.053 H 
ATOM     24  H   LIG d   1       2.296   1.317  -6.036  0.00  0.00     0.053 H 
BRANCH  22  25
ATOM     25  C   LIG d   1       3.307   0.790  -7.839  0.00  0.00     0.058 A 
ATOM     26  N   LIG d   1       4.153  -0.034  -8.425  0.00  0.00    -0.258 NA
ATOM     27  C   LIG d   1       4.688   0.241  -9.599  0.00  0.00     0.028 A 
ATOM     28  C   LIG d   1       4.386   1.419 -10.256  0.00  0.00    -0.044 A 
ATOM     29  H   LIG d   1       5.373  -0.461 -10.051  0.00  0.00     0.083 H 
ATOM     30  C   LIG d   1       3.504   2.313  -9.668  0.00  0.00    -0.059 A 
ATOM     31  H   LIG d   1       4.831   1.639 -11.215  0.00  0.00     0.063 H 
ATOM     32  C   LIG d   1       2.958   1.987  -8.436  0.00  0.00    -0.039 A 
ATOM     33  H   LIG d   1       3.249   3.241 -10.158  0.00  0.00     0.062 H 
ATOM     34  H   LIG d   1       2.268   2.660  -7.949  0.00  0.00     0.064 H 
ENDBRANCH  22  25
ENDBRANCH  20  22
ENDBRANCH  15  18
ENDBRANCH  11  15
BRANCH   1  35
ATOM     35  C   LIG d   1       6.761  -2.100  -5.001  0.00  0.00    -0.038 C 
ATOM     36  H   LIG d   1       7.191  -2.082  -6.003  0.00  0.00     0.028 H 
ATOM     37  H   LIG d   1       7.303  -2.820  -4.387  0.00  0.00     0.028 H 
ATOM     38  H   LIG d   1       5.712  -2.389  -5.061  0.00  0.00     0.028 H 
ENDBRANCH   1  35
BRANCH   5  39
ATOM     39  O   LIG d   1      11.476   2.380  -4.969  0.00  0.00    -0.507 OA
ATOM     40  H   LIG d   1      12.201   2.123  -4.383  0.00  0.00     0.292 HD
ENDBRANCH   5  39
TORSDOF 6
ENDMDL
MODEL 8
REMARK VINA RESULT:      -6.3      5.769      8.688
REMARK  6 active torsions:
REMARK  status: ('A' for Active; 'I' for Inactive)
REMARK    1  A    between atoms: C_1  and  C_2 
REMARK    2  A    between atoms: C_6  and  O_24 
REMARK    3  A    between atoms: C_12  and  C_13 
REMARK    4  A    between atoms: C_13  and  C_14 
REMARK       I    between atoms: C_14  and  N_16 
REMARK    5  A    between atoms: N_16  and  C_17 
REMARK    6  A    between atoms: C_17  and  C_18 
ROOT
ATOM      1  C   LIG d   1       6.838  -2.719  -4.841  0.00  0.00    -0.029 A 
ATOM      2  C   LIG d   1       6.059  -1.813  -3.994  0.00  0.00     0.021 A 
ATOM      3  C   LIG d   1       6.589  -0.589  -3.570  0.00  0.00    -0.047 A 
ATOM      4  C   LIG d   1       5.839   0.240  -2.787  0.00  0.00    -0.019 A 
ATOM      5  C   LIG d   1       4.548  -0.123  -2.411  0.00  0.00     0.120 A 
ATOM      6  C   LIG d   1       4.005  -1.328  -2.825  0.00  0.00     0.023 A 
ATOM      7  C   LIG d   1       4.753  -2.181  -3.622  0.00  0.00     0.143 A 
ATOM      8  O   LIG d   1       4.244  -3.361  -4.038  0.00  0.00    -0.422 OA
ATOM      9  C   LIG d   1       4.954  -4.198  -4.810  0.00  0.00     0.341 A 
ATOM     10  O   LIG d   1       4.453  -5.251  -5.161  0.00  0.00    -0.245 OA
ATOM     11  C   LIG d   1       6.266  -3.890  -5.225  0.00  0.00     0.049 A 
ATOM     12  H   LIG d   1       7.590  -0.303  -3.858  0.00  0.00     0.063 H 
ATOM     13  H   LIG d   1       6.250   1.183  -2.455  0.00  0.00     0.065 H 
ATOM     14  H   LIG d   1       3.003  -1.602  -2.530  0.00  0.00     0.069 H 
ENDROOT
BRANCH  11  15
ATOM     15  C   LIG d   1       7.031  -4.856  -6.091  0.00  0.00     0.056 C 
ATOM     16  H   LIG d   1       6.369  -5.261  -6.856  0.00  0.00     0.041 H 
ATOM     17  H   LIG d   1       7.863  -4.337  -6.568  0.00  0.00     0.041 H 
BRANCH  15  18
ATOM     18  C   LIG d   1       7.563  -5.981  -5.240  0.00  0.00     0.218 C 
ATOM     19  O   LIG d   1       8.479  -5.779  -4.472  0.00  0.00    -0.275 OA
ATOM     20  N   LIG d   1       7.020  -7.211  -5.334  0.00  0.00    -0.309 N 
ATOM     21  H   LIG d   1       6.286  -7.373  -5.948  0.00  0.00     0.149 HD
BRANCH  20  22
ATOM     22  C   LIG d   1       7.536  -8.304  -4.506  0.00  0.00     0.054 C 
ATOM     23  H   LIG d   1       8.191  -8.936  -5.106  0.00  0.00     0.053 H 
ATOM     24  H   LIG d   1       8.098  -7.891  -3.669  0.00  0.00     0.053 H 
BRANCH  22  25
ATOM     25  C   LIG d   1       6.386  -9.125  -3.984  0.00  0.00     0.058 A 
ATOM     26  N   LIG d   1       5.228  -9.100  -4.612  0.00  0.00    -0.258 NA
ATOM     27  C   LIG d   1       4.195  -9.806  -4.193  0.00  0.00     0.028 A 
ATOM     28  C   LIG d   1       4.290 -10.595  -3.063  0.00  0.00    -0.044 A 
ATOM     29  H   LIG d   1       3.263  -9.763  -4.737  0.00  0.00     0.083 H 
ATOM     30  C   LIG d   1       5.491 -10.643  -2.371  0.00  0.00    -0.059 A 
ATOM     31  H   LIG d   1       3.439 -11.167  -2.723  0.00  0.00     0.063 H 
ATOM     32  C   LIG d   1       6.555  -9.891  -2.845  0.00  0.00    -0.039 A 
ATOM     33  H   LIG d   1       5.595 -11.251  -1.485  0.00  0.00     0.062 H 
ATOM     34  H   LIG d   1       7.505  -9.904  -2.331  0.00  0.00     0.064 H 
ENDBRANCH  22  25
ENDBRANCH  20  22
ENDBRANCH  15  18
ENDBRANCH  11  15
BRANCH   1  35
ATOM     35  C   LIG d   1       8.239  -2.364  -5.270  0.00  0.00    -0.038 C 
ATOM     36  H   LIG d   1       8.418  -2.743  -6.277  0.00  0.00     0.028 H 
ATOM     37  H   LIG d   1       8.358  -1.281  -5.263  0.00  0.00     0.028 H 
ATOM     38  H   LIG d   1       8.954  -2.813  -4.581  0.00  0.00     0.028 H 
ENDBRANCH   1  35
BRANCH   5  39
ATOM     39  O   LIG d   1       3.814   0.713  -1.630  0.00  0.00    -0.507 OA
ATOM     40  H   LIG d   1       4.139   0.790  -0.723  0.00  0.00     0.292 HD
ENDBRANCH   5  39
TORSDOF 6
ENDMDL
MODEL 9
REMARK VINA RESULT:      -6.3      2.927      4.278
REMARK  6 active torsions:
REMARK  status: ('A' for Active; 'I' for Inactive)
REMARK    1  A    between atoms: C_1  and  C_2 
REMARK    2  A    between atoms: C_6  and  O_24 
REMARK    3  A    between atoms: C_12  and  C_13 
REMARK    4  A    between atoms: C_13  and  C_14 
REMARK       I    between atoms: C_14  and  N_16 
REMARK    5  A    between atoms: N_16  and  C_17 
REMARK    6  A    between atoms: C_17  and  C_18 
ROOT
ATOM      1  C   LIG d   1       5.760  -0.744  -8.319  0.00  0.00    -0.029 A 
ATOM      2  C   LIG d   1       4.418  -0.777  -8.904  0.00  0.00     0.021 A 
ATOM      3  C   LIG d   1       3.626  -1.928  -8.827  0.00  0.00    -0.047 A 
ATOM      4  C   LIG d   1       2.376  -1.930  -9.375  0.00  0.00    -0.019 A 
ATOM      5  C   LIG d   1       1.882  -0.791 -10.006  0.00  0.00     0.120 A 
ATOM      6  C   LIG d   1       2.649   0.359 -10.087  0.00  0.00     0.023 A 
ATOM      7  C   LIG d   1       3.921   0.378  -9.535  0.00  0.00     0.143 A 
ATOM      8  O   LIG d   1       4.687   1.489  -9.603  0.00  0.00    -0.422 OA
ATOM      9  C   LIG d   1       5.919   1.524  -9.073  0.00  0.00     0.341 A 
ATOM     10  O   LIG d   1       6.573   2.547  -9.158  0.00  0.00    -0.245 OA
ATOM     11  C   LIG d   1       6.478   0.404  -8.421  0.00  0.00     0.049 A 
ATOM     12  H   LIG d   1       4.005  -2.815  -8.339  0.00  0.00     0.063 H 
ATOM     13  H   LIG d   1       1.767  -2.820  -9.319  0.00  0.00     0.065 H 
ATOM     14  H   LIG d   1       2.259   1.238 -10.578  0.00  0.00     0.069 H 
ENDROOT
BRANCH  11  15
ATOM     15  C   LIG d   1       7.865   0.484  -7.840  0.00  0.00     0.056 C 
ATOM     16  H   LIG d   1       8.288  -0.518  -7.772  0.00  0.00     0.041 H 
ATOM     17  H   LIG d   1       8.493   1.101  -8.482  0.00  0.00     0.041 H 
BRANCH  15  18
ATOM     18  C   LIG d   1       7.798   1.096  -6.464  0.00  0.00     0.218 C 
ATOM     19  O   LIG d   1       8.029   2.277  -6.314  0.00  0.00    -0.275 OA
ATOM     20  N   LIG d   1       7.483   0.330  -5.401  0.00  0.00    -0.309 N 
ATOM     21  H   LIG d   1       7.298  -0.614  -5.520  0.00  0.00     0.149 HD
BRANCH  20  22
ATOM     22  C   LIG d   1       7.418   0.926  -4.063  0.00  0.00     0.054 C 
ATOM     23  H   LIG d   1       8.357   0.745  -3.539  0.00  0.00     0.053 H 
ATOM     24  H   LIG d   1       7.253   1.999  -4.152  0.00  0.00     0.053 H 
BRANCH  22  25
ATOM     25  C   LIG d   1       6.283   0.305  -3.292  0.00  0.00     0.058 A 
ATOM     26  N   LIG d   1       6.110  -1.001  -3.322  0.00  0.00    -0.258 NA
ATOM     27  C   LIG d   1       5.133  -1.588  -2.659  0.00  0.00     0.028 A 
ATOM     28  C   LIG d   1       4.240  -0.844  -1.911  0.00  0.00    -0.044 A 
ATOM     29  H   LIG d   1       5.026  -2.662  -2.704  0.00  0.00     0.083 H 
ATOM     30  C   LIG d   1       4.386   0.534  -1.859  0.00  0.00    -0.059 A 
ATOM     31  H   LIG d   1       3.439  -1.331  -1.373  0.00  0.00     0.063 H 
ATOM     32  C   LIG d   1       5.428   1.114  -2.565  0.00  0.00    -0.039 A 
ATOM     33  H   LIG d   1       3.703   1.140  -1.282  0.00  0.00     0.062 H 
ATOM     34  H   LIG d   1       5.571   2.184  -2.548  0.00  0.00     0.064 H 
ENDBRANCH  22  25
ENDBRANCH  20  22
ENDBRANCH  15  18
ENDBRANCH  11  15
BRANCH   1  35
ATOM     35  C   LIG d   1       6.332  -1.955  -7.627  0.00  0.00    -0.038 C 
ATOM     36  H   LIG d   1       7.160  -2.353  -8.216  0.00  0.00     0.028 H 
ATOM     37  H   LIG d   1       6.694  -1.672  -6.638  0.00  0.00     0.028 H 
ATOM     38  H   LIG d   1       5.558  -2.716  -7.528  0.00  0.00     0.028 H 
ENDBRANCH   1  35
BRANCH   5  39
ATOM     39  O   LIG d   1       0.636  -0.808 -10.547  0.00  0.00    -0.507 OA
ATOM     40  H   LIG d   1       0.621  -0.682 -11.506  0.00  0.00     0.292 HD
ENDBRANCH   5  39
TORSDOF 6
ENDMDL
MODEL 10
REMARK VINA RESULT:      -6.2      6.263      9.731
REMARK  6 active torsions:
REMARK  status: ('A' for Active; 'I' for Inactive)
REMARK    1  A    between atoms: C_1  and  C_2 
REMARK    2  A    between atoms: C_6  and  O_24 
REMARK    3  A    between atoms: C_12  and  C_13 
REMARK    4  A    between atoms: C_13  and  C_14 
REMARK       I    between atoms: C_14  and  N_16 
REMARK    5  A    between atoms: N_16  and  C_17 
REMARK    6  A    between atoms: C_17  and  C_18 
ROOT
ATOM      1  C   LIG d   1      10.362   3.435  -5.992  0.00  0.00    -0.029 A 
ATOM      2  C   LIG d   1      10.012   4.851  -5.857  0.00  0.00     0.021 A 
ATOM      3  C   LIG d   1      10.081   5.718  -6.954  0.00  0.00    -0.047 A 
ATOM      4  C   LIG d   1       9.744   7.032  -6.803  0.00  0.00    -0.019 A 
ATOM      5  C   LIG d   1       9.327   7.514  -5.564  0.00  0.00     0.120 A 
ATOM      6  C   LIG d   1       9.248   6.670  -4.469  0.00  0.00     0.023 A 
ATOM      7  C   LIG d   1       9.586   5.332  -4.605  0.00  0.00     0.143 A 
ATOM      8  O   LIG d   1       9.517   4.491  -3.551  0.00  0.00    -0.422 OA
ATOM      9  C   LIG d   1       9.840   3.194  -3.666  0.00  0.00     0.341 A 
ATOM     10  O   LIG d   1       9.762   2.473  -2.688  0.00  0.00    -0.245 OA
ATOM     11  C   LIG d   1      10.269   2.644  -4.892  0.00  0.00     0.049 A 
ATOM     12  H   LIG d   1      10.404   5.349  -7.916  0.00  0.00     0.063 H 
ATOM     13  H   LIG d   1       9.801   7.702  -7.648  0.00  0.00     0.065 H 
ATOM     14  H   LIG d   1       8.924   7.052  -3.512  0.00  0.00     0.069 H 
ENDROOT
BRANCH  11  15
ATOM     15  C   LIG d   1      10.624   1.183  -4.981  0.00  0.00     0.056 C 
ATOM     16  H   LIG d   1      11.352   1.032  -5.777  0.00  0.00     0.041 H 
ATOM     17  H   LIG d   1      11.049   0.853  -4.033  0.00  0.00     0.041 H 
BRANCH  15  18
ATOM     18  C   LIG d   1       9.381   0.382  -5.279  0.00  0.00     0.218 C 
ATOM     19  O   LIG d   1       9.210  -0.083  -6.385  0.00  0.00    -0.275 OA
ATOM     20  N   LIG d   1       8.460   0.185  -4.314  0.00  0.00    -0.309 N 
ATOM     21  H   LIG d   1       8.597   0.557  -3.429  0.00  0.00     0.149 HD
BRANCH  20  22
ATOM     22  C   LIG d   1       7.252  -0.593  -4.603  0.00  0.00     0.054 C 
ATOM     23  H   LIG d   1       6.914  -0.375  -5.616  0.00  0.00     0.053 H 
ATOM     24  H   LIG d   1       7.476  -1.656  -4.516  0.00  0.00     0.053 H 
BRANCH  22  25
ATOM     25  C   LIG d   1       6.171  -0.225  -3.620  0.00  0.00     0.058 A 
ATOM     26  N   LIG d   1       5.871   1.043  -3.425  0.00  0.00    -0.258 NA
ATOM     27  C   LIG d   1       4.929   1.412  -2.579  0.00  0.00     0.028 A 
ATOM     28  C   LIG d   1       4.226   0.470  -1.851  0.00  0.00    -0.044 A 
ATOM     29  H   LIG d   1       4.708   2.461  -2.449  0.00  0.00     0.083 H 
ATOM     30  C   LIG d   1       4.517  -0.874  -2.026  0.00  0.00    -0.059 A 
ATOM     31  H   LIG d   1       3.458   0.779  -1.156  0.00  0.00     0.063 H 
ATOM     32  C   LIG d   1       5.509  -1.222  -2.928  0.00  0.00    -0.039 A 
ATOM     33  H   LIG d   1       3.983  -1.632  -1.471  0.00  0.00     0.062 H 
ATOM     34  H   LIG d   1       5.763  -2.259  -3.088  0.00  0.00     0.064 H 
ENDBRANCH  22  25
ENDBRANCH  20  22
ENDBRANCH  15  18
ENDBRANCH  11  15
BRANCH   1  35
ATOM     35  C   LIG d   1      10.817   2.873  -7.314  0.00  0.00    -0.038 C 
ATOM     36  H   LIG d   1      10.530   3.553  -8.117  0.00  0.00     0.028 H 
ATOM     37  H   LIG d   1      11.901   2.758  -7.307  0.00  0.00     0.028 H 
ATOM     38  H   LIG d   1      10.349   1.902  -7.476  0.00  0.00     0.028 H 
ENDBRANCH   1  35
BRANCH   5  39
ATOM     39  O   LIG d   1       8.995   8.825  -5.429  0.00  0.00    -0.507 OA
ATOM     40  H   LIG d   1       8.576   9.039  -4.584  0.00  0.00     0.292 HD
ENDBRANCH   5  39
TORSDOF 6
ENDMDL
