MODEL 1
REMARK VINA RESULT:      -6.9      0.000      0.000
REMARK  11 active torsions:
REMARK  status: ('A' for Active; 'I' for Inactive)
REMARK    1  A    between atoms: C_1  and  C_2 
REMARK    2  A    between atoms: C_4  and  O_12 
REMARK    3  A    between atoms: C_5  and  C_9 
REMARK    4  A    between atoms: C_9  and  C_10 
REMARK    5  A    between atoms: C_9  and  C_11 
REMARK    6  A    between atoms: O_12  and  C_13 
REMARK    7  A    between atoms: C_13  and  C_14 
REMARK    8  A    between atoms: C_16  and  C_22 
REMARK    9  A    between atoms: C_19  and  O_20 
REMARK   10  A    between atoms: O_20  and  C_21 
REMARK   11  A    between atoms: CA_35  and  C_37 
ROOT
ATOM      1  C   LIG d   1       7.296   0.901  -8.466  0.00  0.00     0.032 A 
ATOM      2  C   LIG d   1       7.632   0.826  -7.128  0.00  0.00    -0.043 A 
ATOM      3  C   LIG d   1       8.634  -0.031  -6.711  0.00  0.00     0.007 A 
ATOM      4  C   LIG d   1       9.300  -0.818  -7.632  0.00  0.00    -0.049 A 
ATOM      5  C   LIG d   1       8.966  -0.752  -8.970  0.00  0.00    -0.019 A 
ATOM      6  C   LIG d   1       7.960   0.107  -9.391  0.00  0.00     0.127 A 
ATOM      7  H   LIG d   1       7.113   1.441  -6.407  0.00  0.00     0.063 H 
ATOM      8  H   LIG d   1      10.083  -1.487  -7.304  0.00  0.00     0.062 H 
ATOM      9  H   LIG d   1       9.485  -1.368  -9.689  0.00  0.00     0.065 H 
ENDROOT
BRANCH   1  10
ATOM     10  C   LIG d   1       6.209   1.839  -8.921  0.00  0.00     0.118 C 
ATOM     11  H   LIG d   1       6.486   2.864  -8.676  0.00  0.00     0.075 H 
ATOM     12  H   LIG d   1       6.076   1.746  -9.999  0.00  0.00     0.075 H 
BRANCH  10  13
ATOM     13  O   LIG d   1       4.986   1.506  -8.259  0.00  0.00    -0.487 OA
BRANCH  13  14
ATOM     14  C   LIG d   1       4.281   0.458  -8.761  0.00  0.00     0.125 A 
ATOM     15  C   LIG d   1       3.924   0.437 -10.101  0.00  0.00    -0.015 A 
ATOM     16  C   LIG d   1       3.211  -0.632 -10.609  0.00  0.00    -0.029 A 
ATOM     17  H   LIG d   1       4.208   1.254 -10.748  0.00  0.00     0.066 H 
ATOM     18  C   LIG d   1       2.845  -1.676  -9.780  0.00  0.00     0.044 A 
ATOM     19  C   LIG d   1       3.195  -1.655  -8.441  0.00  0.00    -0.036 A 
ATOM     20 CL   LIG d   1       1.944  -3.015 -10.419  0.00  0.00    -0.083 Cl
ATOM     21  C   LIG d   1       3.912  -0.591  -7.930  0.00  0.00    -0.002 A 
ATOM     22  H   LIG d   1       2.906  -2.472  -7.795  0.00  0.00     0.064 H 
BRANCH  16  23
ATOM     23  C   LIG d   1       2.828  -0.657 -12.067  0.00  0.00    -0.038 C 
ATOM     24  H   LIG d   1       3.572  -1.222 -12.628  0.00  0.00     0.028 H 
ATOM     25  H   LIG d   1       1.853  -1.132 -12.177  0.00  0.00     0.028 H 
ATOM     26  H   LIG d   1       2.782   0.362 -12.447  0.00  0.00     0.028 H 
ENDBRANCH  16  23
BRANCH  21  27
ATOM     27  C   LIG d   1       4.293  -0.569  -6.472  0.00  0.00    -0.018 C 
ATOM     28  H   LIG d   1       5.178   0.054  -6.338  0.00  0.00     0.035 H 
BRANCH  27  29
ATOM     29  C   LIG d   1       3.136   0.004  -5.652  0.00  0.00    -0.059 C 
ATOM     30  H   LIG d   1       2.525   0.648  -6.285  0.00  0.00     0.024 H 
ATOM     31  H   LIG d   1       2.525  -0.812  -5.266  0.00  0.00     0.024 H 
ATOM     32  H   LIG d   1       3.534   0.585  -4.819  0.00  0.00     0.024 H 
ENDBRANCH  27  29
BRANCH  27  33
ATOM     33  C   LIG d   1       4.596  -1.993  -6.004  0.00  0.00    -0.059 C 
ATOM     34  H   LIG d   1       5.674  -2.139  -5.957  0.00  0.00     0.024 H 
ATOM     35  H   LIG d   1       4.164  -2.149  -5.015  0.00  0.00     0.024 H 
ATOM     36  H   LIG d   1       4.162  -2.707  -6.706  0.00  0.00     0.024 H 
ENDBRANCH  27  33
ENDBRANCH  21  27
ENDBRANCH  13  14
ENDBRANCH  10  13
ENDBRANCH   1  10
BRANCH   6  37
ATOM     37  O   LIG d   1       7.628   0.175 -10.707  0.00  0.00    -0.495 OA
BRANCH  37  38
ATOM     38  C   LIG d   1       7.089  -1.009 -11.302  0.00  0.00     0.079 C 
ATOM     39  H   LIG d   1       6.518  -0.740 -12.190  0.00  0.00     0.066 H 
ATOM     40  H   LIG d   1       6.436  -1.509 -10.587  0.00  0.00     0.066 H 
ATOM     41  H   LIG d   1       7.903  -1.677 -11.581  0.00  0.00     0.066 H 
ENDBRANCH  37  38
ENDBRANCH   6  37
BRANCH   3  42
ATOM     42  C   LIG d   1       9.001  -0.106  -5.251  0.00  0.00     0.045 C 
ATOM     43  H   LIG d   1       9.667   0.720  -5.000  0.00  0.00     0.097 H 
ATOM     44  C   LIG d   1       7.751  -0.031  -4.409  0.00  0.00     0.074 A 
ATOM     45  N   LIG d   1       7.015   1.084  -4.116  0.00  0.00    -0.353 N 
ATOM     46  C   LIG d   1       7.192  -1.114  -3.821  0.00  0.00    -0.008 A 
ATOM     47  C   LIG d   1       5.956   0.744  -3.322  0.00  0.00     0.047 A 
ATOM     48  H   LIG d   1       7.216   1.982  -4.425  0.00  0.00     0.166 HD
ATOM     49  C   LIG d   1       6.024  -0.657  -3.103  0.00  0.00     0.004 A 
ATOM     50  C   LIG d   1       4.931   1.501  -2.759  0.00  0.00    -0.038 A 
ATOM     51  C   LIG d   1       5.070  -1.314  -2.321  0.00  0.00    -0.052 A 
ATOM     52  C   LIG d   1       4.072  -0.543  -1.778  0.00  0.00    -0.061 A 
ATOM     53  H   LIG d   1       5.116  -2.380  -2.150  0.00  0.00     0.062 H 
ATOM     54  C   LIG d   1       4.001   0.824  -1.990  0.00  0.00    -0.060 A 
ATOM     55  H   LIG d   1       3.317  -1.017  -1.168  0.00  0.00     0.062 H 
ATOM     56  H   LIG d   1       3.193   1.381  -1.539  0.00  0.00     0.062 H 
ATOM     57  H   LIG d   1       4.865   2.568  -2.918  0.00  0.00     0.064 H 
ATOM     58  C   LIG d   1       7.753  -2.509  -3.945  0.00  0.00     0.023 C 
ATOM     59  CA  LIG d   1       8.749  -2.519  -5.113  0.00  0.00     0.023 C 
ATOM     60  H   LIG d   1       6.946  -3.215  -4.143  0.00  0.00     0.037 H 
ATOM     61  H   LIG d   1       8.265  -2.784  -3.023  0.00  0.00     0.037 H 
ATOM     62  HA  LIG d   1       8.205  -2.432  -6.054  0.00  0.00     0.092 H 
ATOM     63  N   LIG d   1       9.688  -1.386  -4.973  0.00  0.00     0.243 N 
ATOM     64  H1  LIG d   1      10.057  -1.371  -4.015  0.00  0.00     0.203 HD
ATOM     65  H2  LIG d   1      10.463  -1.506  -5.636  0.00  0.00     0.203 HD
BRANCH  59  66
ATOM     66  C   LIG d   1       9.528  -3.809  -5.100  0.00  0.00     0.090 C 
ATOM     67  O   LIG d   1       9.172  -4.721  -4.392  0.00  0.00    -0.544 OA
ATOM     68  OXT LIG d   1      10.616  -3.944  -5.874  0.00  0.00    -0.544 OA
ENDBRANCH  59  66
ENDBRANCH   3  42
TORSDOF 11
ENDMDL
MODEL 2
REMARK VINA RESULT:      -6.7      1.609      2.004
REMARK  11 active torsions:
REMARK  status: ('A' for Active; 'I' for Inactive)
REMARK    1  A    between atoms: C_1  and  C_2 
REMARK    2  A    between atoms: C_4  and  O_12 
REMARK    3  A    between atoms: C_5  and  C_9 
REMARK    4  A    between atoms: C_9  and  C_10 
REMARK    5  A    between atoms: C_9  and  C_11 
REMARK    6  A    between atoms: O_12  and  C_13 
REMARK    7  A    between atoms: C_13  and  C_14 
REMARK    8  A    between atoms: C_16  and  C_22 
REMARK    9  A    between atoms: C_19  and  O_20 
REMARK   10  A    between atoms: O_20  and  C_21 
REMARK   11  A    between atoms: CA_35  and  C_37 
ROOT
ATOM      1  C   LIG d   1       7.833   2.040  -7.998  0.00  0.00     0.032 A 
ATOM      2  C   LIG d   1       7.982   1.482  -6.743  0.00  0.00    -0.043 A 
ATOM      3  C   LIG d   1       8.904   2.007  -5.856  0.00  0.00     0.007 A 
ATOM      4  C   LIG d   1       9.683   3.087  -6.225  0.00  0.00    -0.049 A 
ATOM      5  C   LIG d   1       9.544   3.646  -7.480  0.00  0.00    -0.019 A 
ATOM      6  C   LIG d   1       8.619   3.121  -8.372  0.00  0.00     0.127 A 
ATOM      7  H   LIG d   1       7.373   0.638  -6.452  0.00  0.00     0.063 H 
ATOM      8  H   LIG d   1      10.404   3.495  -5.531  0.00  0.00     0.062 H 
ATOM      9  H   LIG d   1      10.153   4.489  -7.768  0.00  0.00     0.065 H 
ENDROOT
BRANCH   1  10
ATOM     10  C   LIG d   1       6.823   1.473  -8.962  0.00  0.00     0.118 C 
ATOM     11  H   LIG d   1       6.764   2.110  -9.843  0.00  0.00     0.075 H 
ATOM     12  H   LIG d   1       7.129   0.469  -9.258  0.00  0.00     0.075 H 
BRANCH  10  13
ATOM     13  O   LIG d   1       5.543   1.414  -8.329  0.00  0.00    -0.487 OA
BRANCH  13  14
ATOM     14  C   LIG d   1       4.610   0.607  -8.900  0.00  0.00     0.125 A 
ATOM     15  C   LIG d   1       4.420   0.629 -10.274  0.00  0.00    -0.015 A 
ATOM     16  C   LIG d   1       3.474  -0.196 -10.852  0.00  0.00    -0.029 A 
ATOM     17  H   LIG d   1       5.014   1.286 -10.891  0.00  0.00     0.066 H 
ATOM     18  C   LIG d   1       2.711  -1.036 -10.061  0.00  0.00     0.044 A 
ATOM     19  C   LIG d   1       2.895  -1.054  -8.690  0.00  0.00    -0.036 A 
ATOM     20 CL   LIG d   1       1.520  -2.066 -10.790  0.00  0.00    -0.083 Cl
ATOM     21  C   LIG d   1       3.843  -0.236  -8.108  0.00  0.00    -0.002 A 
ATOM     22  H   LIG d   1       2.297  -1.710  -8.074  0.00  0.00     0.064 H 
BRANCH  16  23
ATOM     23  C   LIG d   1       3.271  -0.177 -12.346  0.00  0.00    -0.038 C 
ATOM     24  H   LIG d   1       3.636  -1.110 -12.774  0.00  0.00     0.028 H 
ATOM     25  H   LIG d   1       2.208  -0.067 -12.566  0.00  0.00     0.028 H 
ATOM     26  H   LIG d   1       3.820   0.660 -12.776  0.00  0.00     0.028 H 
ENDBRANCH  16  23
BRANCH  21  27
ATOM     27  C   LIG d   1       4.044  -0.257  -6.615  0.00  0.00    -0.018 C 
ATOM     28  H   LIG d   1       4.903   0.362  -6.354  0.00  0.00     0.035 H 
BRANCH  27  29
ATOM     29  C   LIG d   1       2.793   0.290  -5.924  0.00  0.00    -0.059 C 
ATOM     30  H   LIG d   1       2.998   1.289  -5.540  0.00  0.00     0.024 H 
ATOM     31  H   LIG d   1       1.973   0.337  -6.641  0.00  0.00     0.024 H 
ATOM     32  H   LIG d   1       2.517  -0.367  -5.099  0.00  0.00     0.024 H 
ENDBRANCH  27  29
BRANCH  27  33
ATOM     33  C   LIG d   1       4.293  -1.695  -6.155  0.00  0.00    -0.059 C 
ATOM     34  H   LIG d   1       3.349  -2.152  -5.861  0.00  0.00     0.024 H 
ATOM     35  H   LIG d   1       4.735  -2.266  -6.972  0.00  0.00     0.024 H 
ATOM     36  H   LIG d   1       4.976  -1.691  -5.304  0.00  0.00     0.024 H 
ENDBRANCH  27  33
ENDBRANCH  21  27
ENDBRANCH  13  14
ENDBRANCH  10  13
ENDBRANCH   1  10
BRANCH   6  37
ATOM     37  O   LIG d   1       8.479   3.668  -9.608  0.00  0.00    -0.495 OA
BRANCH  37  38
ATOM     38  C   LIG d   1       8.758   5.065  -9.734  0.00  0.00     0.079 C 
ATOM     39  H   LIG d   1       9.702   5.200 -10.262  0.00  0.00     0.066 H 
ATOM     40  H   LIG d   1       8.829   5.512  -8.743  0.00  0.00     0.066 H 
ATOM     41  H   LIG d   1       7.957   5.546 -10.294  0.00  0.00     0.066 H 
ENDBRANCH  37  38
ENDBRANCH   6  37
BRANCH   3  42
ATOM     42  C   LIG d   1       9.060   1.399  -4.485  0.00  0.00     0.045 C 
ATOM     43  H   LIG d   1       9.509   2.129  -3.812  0.00  0.00     0.097 H 
ATOM     44  C   LIG d   1       7.708   0.982  -3.959  0.00  0.00     0.074 A 
ATOM     45  N   LIG d   1       6.737   1.790  -3.437  0.00  0.00    -0.353 N 
ATOM     46  C   LIG d   1       7.288  -0.304  -3.946  0.00  0.00    -0.008 A 
ATOM     47  C   LIG d   1       5.658   1.038  -3.068  0.00  0.00     0.047 A 
ATOM     48  H   LIG d   1       6.804   2.754  -3.342  0.00  0.00     0.166 HD
ATOM     49  C   LIG d   1       5.960  -0.314  -3.373  0.00  0.00     0.004 A 
ATOM     50  C   LIG d   1       4.434   1.380  -2.495  0.00  0.00    -0.038 A 
ATOM     51  C   LIG d   1       5.045  -1.338  -3.109  0.00  0.00    -0.052 A 
ATOM     52  C   LIG d   1       3.849  -0.973  -2.544  0.00  0.00    -0.061 A 
ATOM     53  H   LIG d   1       5.270  -2.370  -3.339  0.00  0.00     0.062 H 
ATOM     54  C   LIG d   1       3.548   0.346  -2.245  0.00  0.00    -0.060 A 
ATOM     55  H   LIG d   1       3.118  -1.737  -2.326  0.00  0.00     0.062 H 
ATOM     56  H   LIG d   1       2.591   0.576  -1.801  0.00  0.00     0.062 H 
ATOM     57  H   LIG d   1       4.188   2.405  -2.258  0.00  0.00     0.064 H 
ATOM     58  C   LIG d   1       8.118  -1.456  -4.455  0.00  0.00     0.023 C 
ATOM     59  CA  LIG d   1       9.258  -0.879  -5.305  0.00  0.00     0.023 C 
ATOM     60  H   LIG d   1       7.499  -2.114  -5.065  0.00  0.00     0.037 H 
ATOM     61  H   LIG d   1       8.531  -2.013  -3.614  0.00  0.00     0.037 H 
ATOM     62  HA  LIG d   1       8.853  -0.490  -6.239  0.00  0.00     0.092 H 
ATOM     63  N   LIG d   1       9.931   0.206  -4.562  0.00  0.00     0.243 N 
ATOM     64  H1  LIG d   1      10.145  -0.118  -3.611  0.00  0.00     0.203 HD
ATOM     65  H2  LIG d   1      10.804   0.454  -5.043  0.00  0.00     0.203 HD
BRANCH  59  66
ATOM     66  C   LIG d   1      10.260  -1.965  -5.606  0.00  0.00     0.090 C 
ATOM     67  O   LIG d   1      10.309  -2.950  -4.909  0.00  0.00    -0.544 OA
ATOM     68  OXT LIG d   1      11.096  -1.837  -6.648  0.00  0.00    -0.544 OA
ENDBRANCH  59  66
ENDBRANCH   3  42
TORSDOF 11
ENDMDL
MODEL 3
REMARK VINA RESULT:      -6.6      2.976      5.983
REMARK  11 active torsions:
REMARK  status: ('A' for Active; 'I' for Inactive)
REMARK    1  A    between atoms: C_1  and  C_2 
REMARK    2  A    between atoms: C_4  and  O_12 
REMARK    3  A    between atoms: C_5  and  C_9 
REMARK    4  A    between atoms: C_9  and  C_10 
REMARK    5  A    between atoms: C_9  and  C_11 
REMARK    6  A    between atoms: O_12  and  C_13 
REMARK    7  A    between atoms: C_13  and  C_14 
REMARK    8  A    between atoms: C_16  and  C_22 
REMARK    9  A    between atoms: C_19  and  O_20 
REMARK   10  A    between atoms: O_20  and  C_21 
REMARK   11  A    between atoms: CA_35  and  C_37 
ROOT
ATOM      1  C   LIG d   1       5.604   0.185  -8.183  0.00  0.00     0.032 A 
ATOM      2  C   LIG d   1       5.440  -0.575  -7.041  0.00  0.00    -0.043 A 
ATOM      3  C   LIG d   1       4.190  -0.694  -6.461  0.00  0.00     0.007 A 
ATOM      4  C   LIG d   1       3.103  -0.049  -7.020  0.00  0.00    -0.049 A 
ATOM      5  C   LIG d   1       3.262   0.717  -8.158  0.00  0.00    -0.019 A 
ATOM      6  C   LIG d   1       4.515   0.838  -8.741  0.00  0.00     0.127 A 
ATOM      7  H   LIG d   1       6.288  -1.082  -6.603  0.00  0.00     0.063 H 
ATOM      8  H   LIG d   1       2.127  -0.143  -6.565  0.00  0.00     0.062 H 
ATOM      9  H   LIG d   1       2.413   1.222  -8.593  0.00  0.00     0.065 H 
ENDROOT
BRANCH   1  10
ATOM     10  C   LIG d   1       6.965   0.308  -8.818  0.00  0.00     0.118 C 
ATOM     11  H   LIG d   1       7.390  -0.684  -8.963  0.00  0.00     0.075 H 
ATOM     12  H   LIG d   1       6.871   0.809  -9.782  0.00  0.00     0.075 H 
BRANCH  10  13
ATOM     13  O   LIG d   1       7.820   1.074  -7.965  0.00  0.00    -0.487 OA
BRANCH  13  14
ATOM     14  C   LIG d   1       8.689   0.381  -7.183  0.00  0.00     0.125 A 
ATOM     15  C   LIG d   1       9.215  -0.824  -7.625  0.00  0.00    -0.015 A 
ATOM     16  C   LIG d   1      10.102  -1.523  -6.830  0.00  0.00    -0.029 A 
ATOM     17  H   LIG d   1       8.933  -1.213  -8.593  0.00  0.00     0.066 H 
ATOM     18  C   LIG d   1      10.459  -1.027  -5.589  0.00  0.00     0.044 A 
ATOM     19  C   LIG d   1       9.932   0.172  -5.144  0.00  0.00    -0.036 A 
ATOM     20 CL   LIG d   1      11.569  -1.911  -4.590  0.00  0.00    -0.083 Cl
ATOM     21  C   LIG d   1       9.049   0.877  -5.938  0.00  0.00    -0.002 A 
ATOM     22  H   LIG d   1      10.211   0.557  -4.174  0.00  0.00     0.064 H 
BRANCH  16  23
ATOM     23  C   LIG d   1      10.678  -2.830  -7.313  0.00  0.00    -0.038 C 
ATOM     24  H   LIG d   1      11.617  -2.644  -7.832  0.00  0.00     0.028 H 
ATOM     25  H   LIG d   1      10.858  -3.485  -6.459  0.00  0.00     0.028 H 
ATOM     26  H   LIG d   1       9.974  -3.307  -7.994  0.00  0.00     0.028 H 
ENDBRANCH  16  23
BRANCH  21  27
ATOM     27  C   LIG d   1       8.475   2.183  -5.452  0.00  0.00    -0.018 C 
ATOM     28  H   LIG d   1       7.542   2.388  -5.977  0.00  0.00     0.035 H 
BRANCH  27  29
ATOM     29  C   LIG d   1       8.206   2.095  -3.949  0.00  0.00    -0.059 C 
ATOM     30  H   LIG d   1       7.247   2.560  -3.723  0.00  0.00     0.024 H 
ATOM     31  H   LIG d   1       8.183   1.048  -3.645  0.00  0.00     0.024 H 
ATOM     32  H   LIG d   1       8.998   2.613  -3.406  0.00  0.00     0.024 H 
ENDBRANCH  27  29
BRANCH  27  33
ATOM     33  C   LIG d   1       9.473   3.311  -5.726  0.00  0.00    -0.059 C 
ATOM     34  H   LIG d   1       9.737   3.798  -4.789  0.00  0.00     0.024 H 
ATOM     35  H   LIG d   1      10.370   2.897  -6.187  0.00  0.00     0.024 H 
ATOM     36  H   LIG d   1       9.020   4.039  -6.401  0.00  0.00     0.024 H 
ENDBRANCH  27  33
ENDBRANCH  21  27
ENDBRANCH  13  14
ENDBRANCH  10  13
ENDBRANCH   1  10
BRANCH   6  37
ATOM     37  O   LIG d   1       4.675   1.591  -9.861  0.00  0.00    -0.495 OA
BRANCH  37  38
ATOM     38  C   LIG d   1       3.896   1.227 -11.004  0.00  0.00     0.079 C 
ATOM     39  H   LIG d   1       3.480   0.230 -10.857  0.00  0.00     0.066 H 
ATOM     40  H   LIG d   1       4.529   1.230 -11.891  0.00  0.00     0.066 H 
ATOM     41  H   LIG d   1       3.086   1.943 -11.133  0.00  0.00     0.066 H 
ENDBRANCH  37  38
ENDBRANCH   6  37
BRANCH   3  42
ATOM     42  C   LIG d   1       4.013  -1.529  -5.219  0.00  0.00     0.045 C 
ATOM     43  H   LIG d   1       3.168  -2.204  -5.350  0.00  0.00     0.097 H 
ATOM     44  C   LIG d   1       5.269  -2.324  -4.958  0.00  0.00     0.074 A 
ATOM     45  N   LIG d   1       5.679  -3.459  -5.603  0.00  0.00    -0.353 N 
ATOM     46  C   LIG d   1       6.173  -1.985  -4.011  0.00  0.00    -0.008 A 
ATOM     47  C   LIG d   1       6.867  -3.884  -5.080  0.00  0.00     0.047 A 
ATOM     48  H   LIG d   1       5.198  -3.896  -6.323  0.00  0.00     0.166 HD
ATOM     49  C   LIG d   1       7.229  -2.973  -4.053  0.00  0.00     0.004 A 
ATOM     50  C   LIG d   1       7.683  -4.973  -5.382  0.00  0.00    -0.038 A 
ATOM     51  C   LIG d   1       8.407  -3.139  -3.320  0.00  0.00    -0.052 A 
ATOM     52  C   LIG d   1       9.191  -4.219  -3.638  0.00  0.00    -0.061 A 
ATOM     53  H   LIG d   1       8.687  -2.449  -2.537  0.00  0.00     0.062 H 
ATOM     54  C   LIG d   1       8.844  -5.111  -4.640  0.00  0.00    -0.060 A 
ATOM     55  H   LIG d   1      10.110  -4.379  -3.092  0.00  0.00     0.062 H 
ATOM     56  H   LIG d   1       9.499  -5.944  -4.848  0.00  0.00     0.062 H 
ATOM     57  H   LIG d   1       7.423  -5.674  -6.161  0.00  0.00     0.064 H 
ATOM     58  C   LIG d   1       6.028  -0.780  -3.117  0.00  0.00     0.023 C 
ATOM     59  CA  LIG d   1       4.962   0.140  -3.728  0.00  0.00     0.023 C 
ATOM     60  H   LIG d   1       6.979  -0.250  -3.054  0.00  0.00     0.037 H 
ATOM     61  H   LIG d   1       5.715  -1.094  -2.121  0.00  0.00     0.037 H 
ATOM     62  HA  LIG d   1       5.357   0.602  -4.633  0.00  0.00     0.092 H 
ATOM     63  N   LIG d   1       3.757  -0.650  -4.057  0.00  0.00     0.243 N 
ATOM     64  H1  LIG d   1       3.500  -1.226  -3.246  0.00  0.00     0.203 HD
ATOM     65  H2  LIG d   1       2.985  -0.010  -4.280  0.00  0.00     0.203 HD
BRANCH  59  66
ATOM     66  C   LIG d   1       4.593   1.212  -2.736  0.00  0.00     0.090 C 
ATOM     67  O   LIG d   1       5.028   1.168  -1.610  0.00  0.00    -0.544 OA
ATOM     68  OXT LIG d   1       3.782   2.216  -3.103  0.00  0.00    -0.544 OA
ENDBRANCH  59  66
ENDBRANCH   3  42
TORSDOF 11
ENDMDL
MODEL 4
REMARK VINA RESULT:      -6.5      3.184      6.020
REMARK  11 active torsions:
REMARK  status: ('A' for Active; 'I' for Inactive)
REMARK    1  A    between atoms: C_1  and  C_2 
REMARK    2  A    between atoms: C_4  and  O_12 
REMARK    3  A    between atoms: C_5  and  C_9 
REMARK    4  A    between atoms: C_9  and  C_10 
REMARK    5  A    between atoms: C_9  and  C_11 
REMARK    6  A    between atoms: O_12  and  C_13 
REMARK    7  A    between atoms: C_13  and  C_14 
REMARK    8  A    between atoms: C_16  and  C_22 
REMARK    9  A    between atoms: C_19  and  O_20 
REMARK   10  A    between atoms: O_20  and  C_21 
REMARK   11  A    between atoms: CA_35  and  C_37 
ROOT
ATOM      1  C   LIG d   1       5.463   0.225  -8.200  0.00  0.00     0.032 A 
ATOM      2  C   LIG d   1       5.310  -0.543  -7.062  0.00  0.00    -0.043 A 
ATOM      3  C   LIG d   1       4.080  -0.615  -6.434  0.00  0.00     0.007 A 
ATOM      4  C   LIG d   1       3.002   0.085  -6.941  0.00  0.00    -0.049 A 
ATOM      5  C   LIG d   1       3.149   0.859  -8.075  0.00  0.00    -0.019 A 
ATOM      6  C   LIG d   1       4.382   0.933  -8.707  0.00  0.00     0.127 A 
ATOM      7  H   LIG d   1       6.152  -1.091  -6.664  0.00  0.00     0.063 H 
ATOM      8  H   LIG d   1       2.041   0.028  -6.449  0.00  0.00     0.062 H 
ATOM      9  H   LIG d   1       2.306   1.406  -8.470  0.00  0.00     0.065 H 
ENDROOT
BRANCH   1  10
ATOM     10  C   LIG d   1       6.801   0.298  -8.888  0.00  0.00     0.118 C 
ATOM     11  H   LIG d   1       6.936  -0.582  -9.516  0.00  0.00     0.075 H 
ATOM     12  H   LIG d   1       6.844   1.196  -9.505  0.00  0.00     0.075 H 
BRANCH  10  13
ATOM     13  O   LIG d   1       7.839   0.345  -7.906  0.00  0.00    -0.487 OA
BRANCH  13  14
ATOM     14  C   LIG d   1       8.398   1.559  -7.659  0.00  0.00     0.125 A 
ATOM     15  C   LIG d   1       8.620   2.447  -8.701  0.00  0.00    -0.015 A 
ATOM     16  C   LIG d   1       9.184   3.683  -8.447  0.00  0.00    -0.029 A 
ATOM     17  H   LIG d   1       8.347   2.175  -9.710  0.00  0.00     0.066 H 
ATOM     18  C   LIG d   1       9.537   4.030  -7.155  0.00  0.00     0.044 A 
ATOM     19  C   LIG d   1       9.322   3.143  -6.115  0.00  0.00    -0.036 A 
ATOM     20 CL   LIG d   1      10.251   5.580  -6.839  0.00  0.00    -0.083 Cl
ATOM     21  C   LIG d   1       8.753   1.909  -6.364  0.00  0.00    -0.002 A 
ATOM     22  H   LIG d   1       9.599   3.416  -5.107  0.00  0.00     0.064 H 
BRANCH  16  23
ATOM     23  C   LIG d   1       9.420   4.650  -9.578  0.00  0.00    -0.038 C 
ATOM     24  H   LIG d   1       9.897   5.551  -9.192  0.00  0.00     0.028 H 
ATOM     25  H   LIG d   1      10.068   4.186 -10.323  0.00  0.00     0.028 H 
ATOM     26  H   LIG d   1       8.467   4.911 -10.037  0.00  0.00     0.028 H 
ENDBRANCH  16  23
BRANCH  21  27
ATOM     27  C   LIG d   1       8.518   0.944  -5.230  0.00  0.00    -0.018 C 
ATOM     28  H   LIG d   1       7.587   0.404  -5.400  0.00  0.00     0.035 H 
BRANCH  27  29
ATOM     29  C   LIG d   1       9.679  -0.049  -5.158  0.00  0.00    -0.059 C 
ATOM     30  H   LIG d   1      10.600   0.484  -4.920  0.00  0.00     0.024 H 
ATOM     31  H   LIG d   1       9.476  -0.789  -4.383  0.00  0.00     0.024 H 
ATOM     32  H   LIG d   1       9.788  -0.552  -6.119  0.00  0.00     0.024 H 
ENDBRANCH  27  29
BRANCH  27  33
ATOM     33  C   LIG d   1       8.426   1.718  -3.914  0.00  0.00    -0.059 C 
ATOM     34  H   LIG d   1       8.582   1.036  -3.079  0.00  0.00     0.024 H 
ATOM     35  H   LIG d   1       9.189   2.496  -3.896  0.00  0.00     0.024 H 
ATOM     36  H   LIG d   1       7.439   2.175  -3.830  0.00  0.00     0.024 H 
ENDBRANCH  27  33
ENDBRANCH  21  27
ENDBRANCH  13  14
ENDBRANCH  10  13
ENDBRANCH   1  10
BRANCH   6  37
ATOM     37  O   LIG d   1       4.531   1.693  -9.823  0.00  0.00    -0.495 OA
BRANCH  37  38
ATOM     38  C   LIG d   1       3.907   1.218 -11.019  0.00  0.00     0.079 C 
ATOM     39  H   LIG d   1       3.241   0.390 -10.776  0.00  0.00     0.066 H 
ATOM     40  H   LIG d   1       4.671   0.878 -11.717  0.00  0.00     0.066 H 
ATOM     41  H   LIG d   1       3.332   2.025 -11.473  0.00  0.00     0.066 H 
ENDBRANCH  37  38
ENDBRANCH   6  37
BRANCH   3  42
ATOM     42  C   LIG d   1       3.915  -1.458  -5.195  0.00  0.00     0.045 C 
ATOM     43  H   LIG d   1       3.080  -2.144  -5.330  0.00  0.00     0.097 H 
ATOM     44  C   LIG d   1       5.183  -2.238  -4.941  0.00  0.00     0.074 A 
ATOM     45  N   LIG d   1       5.607  -3.364  -5.591  0.00  0.00    -0.353 N 
ATOM     46  C   LIG d   1       6.083  -1.892  -3.993  0.00  0.00    -0.008 A 
ATOM     47  C   LIG d   1       6.801  -3.776  -5.072  0.00  0.00     0.047 A 
ATOM     48  H   LIG d   1       5.130  -3.804  -6.313  0.00  0.00     0.166 HD
ATOM     49  C   LIG d   1       7.151  -2.865  -4.041  0.00  0.00     0.004 A 
ATOM     50  C   LIG d   1       7.631  -4.852  -5.380  0.00  0.00    -0.038 A 
ATOM     51  C   LIG d   1       8.333  -3.019  -3.310  0.00  0.00    -0.052 A 
ATOM     52  C   LIG d   1       9.131  -4.087  -3.635  0.00  0.00    -0.061 A 
ATOM     53  H   LIG d   1       8.605  -2.329  -2.524  0.00  0.00     0.062 H 
ATOM     54  C   LIG d   1       8.794  -4.979  -4.640  0.00  0.00    -0.060 A 
ATOM     55  H   LIG d   1      10.052  -4.237  -3.091  0.00  0.00     0.062 H 
ATOM     56  H   LIG d   1       9.460  -5.802  -4.853  0.00  0.00     0.062 H 
ATOM     57  H   LIG d   1       7.379  -5.553  -6.162  0.00  0.00     0.064 H 
ATOM     58  C   LIG d   1       5.924  -0.693  -3.092  0.00  0.00     0.023 C 
ATOM     59  CA  LIG d   1       4.844   0.215  -3.698  0.00  0.00     0.023 C 
ATOM     60  H   LIG d   1       6.867  -0.151  -3.028  0.00  0.00     0.037 H 
ATOM     61  H   LIG d   1       5.616  -1.016  -2.098  0.00  0.00     0.037 H 
ATOM     62  HA  LIG d   1       5.232   0.687  -4.601  0.00  0.00     0.092 H 
ATOM     63  N   LIG d   1       3.649  -0.588  -4.029  0.00  0.00     0.243 N 
ATOM     64  H1  LIG d   1       3.401  -1.172  -3.221  0.00  0.00     0.203 HD
ATOM     65  H2  LIG d   1       2.869   0.043  -4.248  0.00  0.00     0.203 HD
BRANCH  59  66
ATOM     66  C   LIG d   1       4.462   1.278  -2.700  0.00  0.00     0.090 C 
ATOM     67  O   LIG d   1       3.797   2.224  -3.050  0.00  0.00    -0.544 OA
ATOM     68  OXT LIG d   1       4.861   1.174  -1.423  0.00  0.00    -0.544 OA
ENDBRANCH  59  66
ENDBRANCH   3  42
TORSDOF 11
ENDMDL
MODEL 5
REMARK VINA RESULT:      -6.5      1.757      2.448
REMARK  11 active torsions:
REMARK  status: ('A' for Active; 'I' for Inactive)
REMARK    1  A    between atoms: C_1  and  C_2 
REMARK    2  A    between atoms: C_4  and  O_12 
REMARK    3  A    between atoms: C_5  and  C_9 
REMARK    4  A    between atoms: C_9  and  C_10 
REMARK    5  A    between atoms: C_9  and  C_11 
REMARK    6  A    between atoms: O_12  and  C_13 
REMARK    7  A    between atoms: C_13  and  C_14 
REMARK    8  A    between atoms: C_16  and  C_22 
REMARK    9  A    between atoms: C_19  and  O_20 
REMARK   10  A    between atoms: O_20  and  C_21 
REMARK   11  A    between atoms: CA_35  and  C_37 
ROOT
ATOM      1  C   LIG d   1       7.443   1.225  -8.152  0.00  0.00     0.032 A 
ATOM      2  C   LIG d   1       7.601   0.956  -6.806  0.00  0.00    -0.043 A 
ATOM      3  C   LIG d   1       8.869   0.874  -6.260  0.00  0.00     0.007 A 
ATOM      4  C   LIG d   1       9.981   1.055  -7.061  0.00  0.00    -0.049 A 
ATOM      5  C   LIG d   1       9.830   1.318  -8.408  0.00  0.00    -0.019 A 
ATOM      6  C   LIG d   1       8.558   1.401  -8.958  0.00  0.00     0.127 A 
ATOM      7  H   LIG d   1       6.733   0.815  -6.178  0.00  0.00     0.063 H 
ATOM      8  H   LIG d   1      10.971   0.990  -6.633  0.00  0.00     0.062 H 
ATOM      9  H   LIG d   1      10.698   1.459  -9.033  0.00  0.00     0.065 H 
ENDROOT
BRANCH   1  10
ATOM     10  C   LIG d   1       6.061   1.321  -8.745  0.00  0.00     0.118 C 
ATOM     11  H   LIG d   1       5.359   1.648  -7.979  0.00  0.00     0.075 H 
ATOM     12  H   LIG d   1       6.067   2.040  -9.565  0.00  0.00     0.075 H 
BRANCH  10  13
ATOM     13  O   LIG d   1       5.665   0.039  -9.238  0.00  0.00    -0.487 OA
BRANCH  13  14
ATOM     14  C   LIG d   1       5.562  -0.966  -8.329  0.00  0.00     0.125 A 
ATOM     15  C   LIG d   1       6.486  -2.000  -8.329  0.00  0.00    -0.015 A 
ATOM     16  C   LIG d   1       6.383  -3.018  -7.400  0.00  0.00    -0.029 A 
ATOM     17  H   LIG d   1       7.289  -2.007  -9.051  0.00  0.00     0.066 H 
ATOM     18  C   LIG d   1       5.352  -3.011  -6.478  0.00  0.00     0.044 A 
ATOM     19  C   LIG d   1       4.425  -1.983  -6.480  0.00  0.00    -0.036 A 
ATOM     20 CL   LIG d   1       5.221  -4.294  -5.316  0.00  0.00    -0.083 Cl
ATOM     21  C   LIG d   1       4.529  -0.961  -7.403  0.00  0.00    -0.002 A 
ATOM     22  H   LIG d   1       3.621  -1.981  -5.759  0.00  0.00     0.064 H 
BRANCH  16  23
ATOM     23  C   LIG d   1       7.390  -4.139  -7.396  0.00  0.00    -0.038 C 
ATOM     24  H   LIG d   1       7.668  -4.382  -8.421  0.00  0.00     0.028 H 
ATOM     25  H   LIG d   1       8.277  -3.828  -6.843  0.00  0.00     0.028 H 
ATOM     26  H   LIG d   1       6.955  -5.017  -6.920  0.00  0.00     0.028 H 
ENDBRANCH  16  23
BRANCH  21  27
ATOM     27  C   LIG d   1       3.520   0.158  -7.404  0.00  0.00    -0.018 C 
ATOM     28  H   LIG d   1       4.007   1.086  -7.706  0.00  0.00     0.035 H 
BRANCH  27  29
ATOM     29  C   LIG d   1       2.395  -0.170  -8.387  0.00  0.00    -0.059 C 
ATOM     30  H   LIG d   1       1.792  -0.987  -7.989  0.00  0.00     0.024 H 
ATOM     31  H   LIG d   1       1.767   0.710  -8.527  0.00  0.00     0.024 H 
ATOM     32  H   LIG d   1       2.824  -0.467  -9.344  0.00  0.00     0.024 H 
ENDBRANCH  27  29
BRANCH  27  33
ATOM     33  C   LIG d   1       2.938   0.322  -5.998  0.00  0.00    -0.059 C 
ATOM     34  H   LIG d   1       2.101   1.018  -6.030  0.00  0.00     0.024 H 
ATOM     35  H   LIG d   1       2.593  -0.646  -5.634  0.00  0.00     0.024 H 
ATOM     36  H   LIG d   1       3.708   0.708  -5.329  0.00  0.00     0.024 H 
ENDBRANCH  27  33
ENDBRANCH  21  27
ENDBRANCH  13  14
ENDBRANCH  10  13
ENDBRANCH   1  10
BRANCH   6  37
ATOM     37  O   LIG d   1       8.405   1.660 -10.283  0.00  0.00    -0.495 OA
BRANCH  37  38
ATOM     38  C   LIG d   1       9.483   1.288 -11.146  0.00  0.00     0.079 C 
ATOM     39  H   LIG d   1      10.419   1.312 -10.587  0.00  0.00     0.066 H 
ATOM     40  H   LIG d   1       9.539   1.988 -11.979  0.00  0.00     0.066 H 
ATOM     41  H   LIG d   1       9.312   0.282 -11.526  0.00  0.00     0.066 H 
ENDBRANCH  37  38
ENDBRANCH   6  37
BRANCH   3  42
ATOM     42  C   LIG d   1       9.039   0.586  -4.790  0.00  0.00     0.045 C 
ATOM     43  H   LIG d   1       9.537   1.427  -4.309  0.00  0.00     0.097 H 
ATOM     44  C   LIG d   1       7.687   0.362  -4.158  0.00  0.00     0.074 A 
ATOM     45  N   LIG d   1       6.765   1.312  -3.816  0.00  0.00    -0.353 N 
ATOM     46  C   LIG d   1       7.214  -0.866  -3.844  0.00  0.00    -0.008 A 
ATOM     47  C   LIG d   1       5.667   0.715  -3.265  0.00  0.00     0.047 A 
ATOM     48  H   LIG d   1       6.875   2.268  -3.944  0.00  0.00     0.166 HD
ATOM     49  C   LIG d   1       5.905  -0.685  -3.260  0.00  0.00     0.004 A 
ATOM     50  C   LIG d   1       4.476   1.234  -2.762  0.00  0.00    -0.038 A 
ATOM     51  C   LIG d   1       4.956  -1.578  -2.753  0.00  0.00    -0.052 A 
ATOM     52  C   LIG d   1       3.793  -1.039  -2.263  0.00  0.00    -0.061 A 
ATOM     53  H   LIG d   1       5.132  -2.644  -2.746  0.00  0.00     0.062 H 
ATOM     54  C   LIG d   1       3.556   0.326  -2.267  0.00  0.00    -0.060 A 
ATOM     55  H   LIG d   1       3.037  -1.700  -1.864  0.00  0.00     0.062 H 
ATOM     56  H   LIG d   1       2.622   0.694  -1.869  0.00  0.00     0.062 H 
ATOM     57  H   LIG d   1       4.279   2.296  -2.760  0.00  0.00     0.064 H 
ATOM     58  C   LIG d   1       7.981  -2.141  -4.093  0.00  0.00     0.023 C 
ATOM     59  CA  LIG d   1       9.120  -1.826  -5.074  0.00  0.00     0.023 C 
ATOM     60  H   LIG d   1       7.319  -2.891  -4.526  0.00  0.00     0.037 H 
ATOM     61  H   LIG d   1       8.396  -2.511  -3.155  0.00  0.00     0.037 H 
ATOM     62  HA  LIG d   1       8.704  -1.640  -6.064  0.00  0.00     0.092 H 
ATOM     63  N   LIG d   1       9.858  -0.633  -4.610  0.00  0.00     0.243 N 
ATOM     64  H1  LIG d   1      10.085  -0.743  -3.614  0.00  0.00     0.203 HD
ATOM     65  H2  LIG d   1      10.726  -0.541  -5.151  0.00  0.00     0.203 HD
BRANCH  59  66
ATOM     66  C   LIG d   1      10.067  -2.997  -5.138  0.00  0.00     0.090 C 
ATOM     67  O   LIG d   1      10.269  -3.664  -4.152  0.00  0.00    -0.544 OA
ATOM     68  OXT LIG d   1      10.685  -3.298  -6.291  0.00  0.00    -0.544 OA
ENDBRANCH  59  66
ENDBRANCH   3  42
TORSDOF 11
ENDMDL
MODEL 6
REMARK VINA RESULT:      -6.4      3.613      6.107
REMARK  11 active torsions:
REMARK  status: ('A' for Active; 'I' for Inactive)
REMARK    1  A    between atoms: C_1  and  C_2 
REMARK    2  A    between atoms: C_4  and  O_12 
REMARK    3  A    between atoms: C_5  and  C_9 
REMARK    4  A    between atoms: C_9  and  C_10 
REMARK    5  A    between atoms: C_9  and  C_11 
REMARK    6  A    between atoms: O_12  and  C_13 
REMARK    7  A    between atoms: C_13  and  C_14 
REMARK    8  A    between atoms: C_16  and  C_22 
REMARK    9  A    between atoms: C_19  and  O_20 
REMARK   10  A    between atoms: O_20  and  C_21 
REMARK   11  A    between atoms: CA_35  and  C_37 
ROOT
ATOM      1  C   LIG d   1       3.088  -3.128  -9.044  0.00  0.00     0.032 A 
ATOM      2  C   LIG d   1       3.448  -2.043  -8.267  0.00  0.00    -0.043 A 
ATOM      3  C   LIG d   1       2.908  -0.797  -8.524  0.00  0.00     0.007 A 
ATOM      4  C   LIG d   1       2.009  -0.632  -9.562  0.00  0.00    -0.049 A 
ATOM      5  C   LIG d   1       1.650  -1.710 -10.345  0.00  0.00    -0.019 A 
ATOM      6  C   LIG d   1       2.191  -2.962 -10.090  0.00  0.00     0.127 A 
ATOM      7  H   LIG d   1       4.149  -2.171  -7.455  0.00  0.00     0.063 H 
ATOM      8  H   LIG d   1       1.588   0.343  -9.761  0.00  0.00     0.062 H 
ATOM      9  H   LIG d   1       0.949  -1.580 -11.156  0.00  0.00     0.065 H 
ENDROOT
BRANCH   1  10
ATOM     10  C   LIG d   1       3.672  -4.487  -8.759  0.00  0.00     0.118 C 
ATOM     11  H   LIG d   1       3.012  -5.257  -9.157  0.00  0.00     0.075 H 
ATOM     12  H   LIG d   1       4.651  -4.568  -9.232  0.00  0.00     0.075 H 
BRANCH  10  13
ATOM     13  O   LIG d   1       3.809  -4.660  -7.347  0.00  0.00    -0.487 OA
BRANCH  13  14
ATOM     14  C   LIG d   1       4.619  -5.667  -6.925  0.00  0.00     0.125 A 
ATOM     15  C   LIG d   1       4.266  -6.987  -7.158  0.00  0.00    -0.015 A 
ATOM     16  C   LIG d   1       5.094  -8.009  -6.733  0.00  0.00    -0.029 A 
ATOM     17  H   LIG d   1       3.347  -7.217  -7.676  0.00  0.00     0.066 H 
ATOM     18  C   LIG d   1       6.270  -7.714  -6.066  0.00  0.00     0.044 A 
ATOM     19  C   LIG d   1       6.621  -6.397  -5.827  0.00  0.00    -0.036 A 
ATOM     20 CL   LIG d   1       7.304  -8.999  -5.528  0.00  0.00    -0.083 Cl
ATOM     21  C   LIG d   1       5.799  -5.374  -6.256  0.00  0.00    -0.002 A 
ATOM     22  H   LIG d   1       7.539  -6.170  -5.306  0.00  0.00     0.064 H 
BRANCH  16  23
ATOM     23  C   LIG d   1       4.713  -9.444  -6.991  0.00  0.00    -0.038 C 
ATOM     24  H   LIG d   1       5.611 -10.028  -7.189  0.00  0.00     0.028 H 
ATOM     25  H   LIG d   1       4.203  -9.847  -6.115  0.00  0.00     0.028 H 
ATOM     26  H   LIG d   1       4.049  -9.494  -7.853  0.00  0.00     0.028 H 
ENDBRANCH  16  23
BRANCH  21  27
ATOM     27  C   LIG d   1       6.183  -3.940  -5.996  0.00  0.00    -0.018 C 
ATOM     28  H   LIG d   1       5.288  -3.359  -5.771  0.00  0.00     0.035 H 
BRANCH  27  29
ATOM     29  C   LIG d   1       7.144  -3.876  -4.808  0.00  0.00    -0.059 C 
ATOM     30  H   LIG d   1       8.146  -4.154  -5.136  0.00  0.00     0.024 H 
ATOM     31  H   LIG d   1       7.160  -2.863  -4.407  0.00  0.00     0.024 H 
ATOM     32  H   LIG d   1       6.811  -4.568  -4.033  0.00  0.00     0.024 H 
ENDBRANCH  27  29
BRANCH  27  33
ATOM     33  C   LIG d   1       6.867  -3.363  -7.237  0.00  0.00    -0.059 C 
ATOM     34  H   LIG d   1       7.140  -4.173  -7.912  0.00  0.00     0.024 H 
ATOM     35  H   LIG d   1       6.184  -2.681  -7.744  0.00  0.00     0.024 H 
ATOM     36  H   LIG d   1       7.765  -2.821  -6.938  0.00  0.00     0.024 H 
ENDBRANCH  27  33
ENDBRANCH  21  27
ENDBRANCH  13  14
ENDBRANCH  10  13
ENDBRANCH   1  10
BRANCH   6  37
ATOM     37  O   LIG d   1       1.839  -4.026 -10.858  0.00  0.00    -0.495 OA
BRANCH  37  38
ATOM     38  C   LIG d   1       0.469  -4.432 -10.816  0.00  0.00     0.079 C 
ATOM     39  H   LIG d   1      -0.172  -3.557 -10.931  0.00  0.00     0.066 H 
ATOM     40  H   LIG d   1       0.261  -4.910  -9.858  0.00  0.00     0.066 H 
ATOM     41  H   LIG d   1       0.273  -5.135 -11.624  0.00  0.00     0.066 H 
ENDBRANCH  37  38
ENDBRANCH   6  37
BRANCH   3  42
ATOM     42  C   LIG d   1       3.298   0.383  -7.671  0.00  0.00     0.045 C 
ATOM     43  H   LIG d   1       2.461   1.078  -7.604  0.00  0.00     0.097 H 
ATOM     44  C   LIG d   1       3.680  -0.093  -6.291  0.00  0.00     0.074 A 
ATOM     45  N   LIG d   1       2.837  -0.479  -5.285  0.00  0.00    -0.353 N 
ATOM     46  C   LIG d   1       4.964  -0.196  -5.876  0.00  0.00    -0.008 A 
ATOM     47  C   LIG d   1       3.564  -0.840  -4.186  0.00  0.00     0.047 A 
ATOM     48  H   LIG d   1       1.869  -0.493  -5.343  0.00  0.00     0.166 HD
ATOM     49  C   LIG d   1       4.935  -0.676  -4.513  0.00  0.00     0.004 A 
ATOM     50  C   LIG d   1       3.184  -1.296  -2.925  0.00  0.00    -0.038 A 
ATOM     51  C   LIG d   1       5.940  -0.967  -3.584  0.00  0.00    -0.052 A 
ATOM     52  C   LIG d   1       5.537  -1.413  -2.351  0.00  0.00    -0.061 A 
ATOM     53  H   LIG d   1       6.986  -0.843  -3.827  0.00  0.00     0.062 H 
ATOM     54  C   LIG d   1       4.200  -1.576  -2.028  0.00  0.00    -0.060 A 
ATOM     55  H   LIG d   1       6.286  -1.648  -1.609  0.00  0.00     0.062 H 
ATOM     56  H   LIG d   1       3.941  -1.931  -1.041  0.00  0.00     0.062 H 
ATOM     57  H   LIG d   1       2.144  -1.427  -2.662  0.00  0.00     0.064 H 
ATOM     58  C   LIG d   1       6.148   0.150  -6.743  0.00  0.00     0.023 C 
ATOM     59  CA  LIG d   1       5.665   0.227  -8.198  0.00  0.00     0.023 C 
ATOM     60  H   LIG d   1       6.912  -0.623  -6.649  0.00  0.00     0.037 H 
ATOM     61  H   LIG d   1       6.559   1.113  -6.440  0.00  0.00     0.037 H 
ATOM     62  HA  LIG d   1       5.434  -0.776  -8.557  0.00  0.00     0.092 H 
ATOM     63  N   LIG d   1       4.458   1.075  -8.275  0.00  0.00     0.243 N 
ATOM     64  H1  LIG d   1       4.629   1.952  -7.769  0.00  0.00     0.203 HD
ATOM     65  H2  LIG d   1       4.254   1.283  -9.260  0.00  0.00     0.203 HD
BRANCH  59  66
ATOM     66  C   LIG d   1       6.747   0.830  -9.056  0.00  0.00     0.090 C 
ATOM     67  O   LIG d   1       6.668   1.984  -9.404  0.00  0.00    -0.544 OA
ATOM     68  OXT LIG d   1       7.798   0.086  -9.433  0.00  0.00    -0.544 OA
ENDBRANCH  59  66
ENDBRANCH   3  42
TORSDOF 11
ENDMDL
MODEL 7
REMARK VINA RESULT:      -6.3      3.490      6.147
REMARK  11 active torsions:
REMARK  status: ('A' for Active; 'I' for Inactive)
REMARK    1  A    between atoms: C_1  and  C_2 
REMARK    2  A    between atoms: C_4  and  O_12 
REMARK    3  A    between atoms: C_5  and  C_9 
REMARK    4  A    between atoms: C_9  and  C_10 
REMARK    5  A    between atoms: C_9  and  C_11 
REMARK    6  A    between atoms: O_12  and  C_13 
REMARK    7  A    between atoms: C_13  and  C_14 
REMARK    8  A    between atoms: C_16  and  C_22 
REMARK    9  A    between atoms: C_19  and  O_20 
REMARK   10  A    between atoms: O_20  and  C_21 
REMARK   11  A    between atoms: CA_35  and  C_37 
ROOT
ATOM      1  C   LIG d   1       3.175  -3.217  -9.002  0.00  0.00     0.032 A 
ATOM      2  C   LIG d   1       3.513  -2.109  -8.248  0.00  0.00    -0.043 A 
ATOM      3  C   LIG d   1       2.878  -0.901  -8.469  0.00  0.00     0.007 A 
ATOM      4  C   LIG d   1       1.907  -0.797  -9.447  0.00  0.00    -0.049 A 
ATOM      5  C   LIG d   1       1.569  -1.898 -10.208  0.00  0.00    -0.019 A 
ATOM      6  C   LIG d   1       2.205  -3.112  -9.989  0.00  0.00     0.127 A 
ATOM      7  H   LIG d   1       4.271  -2.189  -7.483  0.00  0.00     0.063 H 
ATOM      8  H   LIG d   1       1.412   0.148  -9.618  0.00  0.00     0.062 H 
ATOM      9  H   LIG d   1       0.811  -1.816 -10.972  0.00  0.00     0.065 H 
ENDROOT
BRANCH   1  10
ATOM     10  C   LIG d   1       3.863  -4.535  -8.757  0.00  0.00     0.118 C 
ATOM     11  H   LIG d   1       3.331  -5.326  -9.284  0.00  0.00     0.075 H 
ATOM     12  H   LIG d   1       4.889  -4.482  -9.120  0.00  0.00     0.075 H 
BRANCH  10  13
ATOM     13  O   LIG d   1       3.867  -4.816  -7.356  0.00  0.00    -0.487 OA
BRANCH  13  14
ATOM     14  C   LIG d   1       5.081  -4.963  -6.761  0.00  0.00     0.125 A 
ATOM     15  C   LIG d   1       5.912  -3.864  -6.596  0.00  0.00    -0.015 A 
ATOM     16  C   LIG d   1       7.143  -4.015  -5.986  0.00  0.00    -0.029 A 
ATOM     17  H   LIG d   1       5.594  -2.891  -6.939  0.00  0.00     0.066 H 
ATOM     18  C   LIG d   1       7.550  -5.263  -5.550  0.00  0.00     0.044 A 
ATOM     19  C   LIG d   1       6.725  -6.361  -5.719  0.00  0.00    -0.036 A 
ATOM     20 CL   LIG d   1       9.099  -5.451  -4.791  0.00  0.00    -0.083 Cl
ATOM     21  C   LIG d   1       5.492  -6.213  -6.323  0.00  0.00    -0.002 A 
ATOM     22  H   LIG d   1       7.046  -7.335  -5.379  0.00  0.00     0.064 H 
BRANCH  16  23
ATOM     23  C   LIG d   1       8.043  -2.821  -5.801  0.00  0.00    -0.038 C 
ATOM     24  H   LIG d   1       7.784  -2.055  -6.531  0.00  0.00     0.028 H 
ATOM     25  H   LIG d   1       7.915  -2.422  -4.794  0.00  0.00     0.028 H 
ATOM     26  H   LIG d   1       9.080  -3.123  -5.943  0.00  0.00     0.028 H 
ENDBRANCH  16  23
BRANCH  21  27
ATOM     27  C   LIG d   1       4.594  -7.410  -6.506  0.00  0.00    -0.018 C 
ATOM     28  H   LIG d   1       3.552  -7.088  -6.489  0.00  0.00     0.035 H 
BRANCH  27  29
ATOM     29  C   LIG d   1       4.900  -8.077  -7.848  0.00  0.00    -0.059 C 
ATOM     30  H   LIG d   1       4.722  -7.366  -8.656  0.00  0.00     0.024 H 
ATOM     31  H   LIG d   1       5.943  -8.395  -7.866  0.00  0.00     0.024 H 
ATOM     32  H   LIG d   1       4.254  -8.945  -7.979  0.00  0.00     0.024 H 
ENDBRANCH  27  29
BRANCH  27  33
ATOM     33  C   LIG d   1       4.837  -8.408  -5.372  0.00  0.00    -0.059 C 
ATOM     34  H   LIG d   1       5.322  -7.900  -4.539  0.00  0.00     0.024 H 
ATOM     35  H   LIG d   1       3.884  -8.821  -5.042  0.00  0.00     0.024 H 
ATOM     36  H   LIG d   1       5.479  -9.214  -5.730  0.00  0.00     0.024 H 
ENDBRANCH  27  33
ENDBRANCH  21  27
ENDBRANCH  13  14
ENDBRANCH  10  13
ENDBRANCH   1  10
BRANCH   6  37
ATOM     37  O   LIG d   1       1.874  -4.198 -10.735  0.00  0.00    -0.495 OA
BRANCH  37  38
ATOM     38  C   LIG d   1       0.481  -4.474 -10.897  0.00  0.00     0.079 C 
ATOM     39  H   LIG d   1       0.001  -4.504  -9.919  0.00  0.00     0.066 H 
ATOM     40  H   LIG d   1       0.357  -5.437 -11.393  0.00  0.00     0.066 H 
ATOM     41  H   LIG d   1       0.024  -3.692 -11.502  0.00  0.00     0.066 H 
ENDBRANCH  37  38
ENDBRANCH   6  37
BRANCH   3  42
ATOM     42  C   LIG d   1       3.245   0.304  -7.641  0.00  0.00     0.045 C 
ATOM     43  H   LIG d   1       2.389   0.976  -7.575  0.00  0.00     0.097 H 
ATOM     44  C   LIG d   1       3.657  -0.137  -6.258  0.00  0.00     0.074 A 
ATOM     45  N   LIG d   1       2.838  -0.529  -5.235  0.00  0.00    -0.353 N 
ATOM     46  C   LIG d   1       4.948  -0.196  -5.857  0.00  0.00    -0.008 A 
ATOM     47  C   LIG d   1       3.588  -0.851  -4.139  0.00  0.00     0.047 A 
ATOM     48  H   LIG d   1       1.870  -0.572  -5.281  0.00  0.00     0.166 HD
ATOM     49  C   LIG d   1       4.950  -0.654  -4.486  0.00  0.00     0.004 A 
ATOM     50  C   LIG d   1       3.236  -1.296  -2.866  0.00  0.00    -0.038 A 
ATOM     51  C   LIG d   1       5.974  -0.900  -3.565  0.00  0.00    -0.052 A 
ATOM     52  C   LIG d   1       5.599  -1.337  -2.320  0.00  0.00    -0.061 A 
ATOM     53  H   LIG d   1       7.012  -0.751  -3.823  0.00  0.00     0.062 H 
ATOM     54  C   LIG d   1       4.270  -1.532  -1.977  0.00  0.00    -0.060 A 
ATOM     55  H   LIG d   1       6.363  -1.537  -1.583  0.00  0.00     0.062 H 
ATOM     56  H   LIG d   1       4.034  -1.877  -0.982  0.00  0.00     0.062 H 
ATOM     57  H   LIG d   1       2.204  -1.452  -2.588  0.00  0.00     0.064 H 
ATOM     58  C   LIG d   1       6.112   0.168  -6.744  0.00  0.00     0.023 C 
ATOM     59  CA  LIG d   1       5.609   0.206  -8.195  0.00  0.00     0.023 C 
ATOM     60  H   LIG d   1       6.898  -0.581  -6.647  0.00  0.00     0.037 H 
ATOM     61  H   LIG d   1       6.498   1.147  -6.463  0.00  0.00     0.037 H 
ATOM     62  HA  LIG d   1       5.402  -0.809  -8.534  0.00  0.00     0.092 H 
ATOM     63  N   LIG d   1       4.377   1.019  -8.270  0.00  0.00     0.243 N 
ATOM     64  H1  LIG d   1       4.529   1.909  -7.781  0.00  0.00     0.203 HD
ATOM     65  H2  LIG d   1       4.155   1.203  -9.256  0.00  0.00     0.203 HD
BRANCH  59  66
ATOM     66  C   LIG d   1       6.663   0.825  -9.076  0.00  0.00     0.090 C 
ATOM     67  O   LIG d   1       6.572   1.985  -9.402  0.00  0.00    -0.544 OA
ATOM     68  OXT LIG d   1       7.702   0.089  -9.498  0.00  0.00    -0.544 OA
ENDBRANCH  59  66
ENDBRANCH   3  42
TORSDOF 11
ENDMDL
MODEL 8
REMARK VINA RESULT:      -6.2      1.907      2.585
REMARK  11 active torsions:
REMARK  status: ('A' for Active; 'I' for Inactive)
REMARK    1  A    between atoms: C_1  and  C_2 
REMARK    2  A    between atoms: C_4  and  O_12 
REMARK    3  A    between atoms: C_5  and  C_9 
REMARK    4  A    between atoms: C_9  and  C_10 
REMARK    5  A    between atoms: C_9  and  C_11 
REMARK    6  A    between atoms: O_12  and  C_13 
REMARK    7  A    between atoms: C_13  and  C_14 
REMARK    8  A    between atoms: C_16  and  C_22 
REMARK    9  A    between atoms: C_19  and  O_20 
REMARK   10  A    between atoms: O_20  and  C_21 
REMARK   11  A    between atoms: CA_35  and  C_37 
ROOT
ATOM      1  C   LIG d   1       4.824   0.283  -8.815  0.00  0.00     0.032 A 
ATOM      2  C   LIG d   1       5.592  -0.006  -7.703  0.00  0.00    -0.043 A 
ATOM      3  C   LIG d   1       6.954  -0.202  -7.834  0.00  0.00     0.007 A 
ATOM      4  C   LIG d   1       7.551  -0.113  -9.078  0.00  0.00    -0.049 A 
ATOM      5  C   LIG d   1       6.788   0.170 -10.194  0.00  0.00    -0.019 A 
ATOM      6  C   LIG d   1       5.420   0.366 -10.065  0.00  0.00     0.127 A 
ATOM      7  H   LIG d   1       5.128  -0.075  -6.730  0.00  0.00     0.063 H 
ATOM      8  H   LIG d   1       8.616  -0.266  -9.178  0.00  0.00     0.062 H 
ATOM      9  H   LIG d   1       7.254   0.238 -11.165  0.00  0.00     0.065 H 
ENDROOT
BRANCH   1  10
ATOM     10  C   LIG d   1       3.340   0.503  -8.671  0.00  0.00     0.118 C 
ATOM     11  H   LIG d   1       3.151   1.172  -7.833  0.00  0.00     0.075 H 
ATOM     12  H   LIG d   1       2.948   0.946  -9.587  0.00  0.00     0.075 H 
BRANCH  10  13
ATOM     13  O   LIG d   1       2.695  -0.750  -8.435  0.00  0.00    -0.487 OA
BRANCH  13  14
ATOM     14  C   LIG d   1       2.360  -1.487  -9.527  0.00  0.00     0.125 A 
ATOM     15  C   LIG d   1       1.380  -1.034 -10.398  0.00  0.00    -0.015 A 
ATOM     16  C   LIG d   1       1.047  -1.782 -11.511  0.00  0.00    -0.029 A 
ATOM     17  H   LIG d   1       0.883  -0.094 -10.209  0.00  0.00     0.066 H 
ATOM     18  C   LIG d   1       1.682  -2.987 -11.751  0.00  0.00     0.044 A 
ATOM     19  C   LIG d   1       2.655  -3.444 -10.880  0.00  0.00    -0.036 A 
ATOM     20 CL   LIG d   1       1.256  -3.928 -13.145  0.00  0.00    -0.083 Cl
ATOM     21  C   LIG d   1       2.996  -2.696  -9.770  0.00  0.00    -0.002 A 
ATOM     22  H   LIG d   1       3.149  -4.386 -11.069  0.00  0.00     0.064 H 
BRANCH  16  23
ATOM     23  C   LIG d   1      -0.014  -1.287 -12.460  0.00  0.00    -0.038 C 
ATOM     24  H   LIG d   1       0.434  -1.085 -13.433  0.00  0.00     0.028 H 
ATOM     25  H   LIG d   1      -0.788  -2.048 -12.568  0.00  0.00     0.028 H 
ATOM     26  H   LIG d   1      -0.456  -0.373 -12.066  0.00  0.00     0.028 H 
ENDBRANCH  16  23
BRANCH  21  27
ATOM     27  C   LIG d   1       4.057  -3.194  -8.822  0.00  0.00    -0.018 C 
ATOM     28  H   LIG d   1       4.201  -2.467  -8.023  0.00  0.00     0.035 H 
BRANCH  27  29
ATOM     29  C   LIG d   1       3.619  -4.531  -8.222  0.00  0.00    -0.059 C 
ATOM     30  H   LIG d   1       2.785  -4.367  -7.539  0.00  0.00     0.024 H 
ATOM     31  H   LIG d   1       3.306  -5.203  -9.022  0.00  0.00     0.024 H 
ATOM     32  H   LIG d   1       4.452  -4.977  -7.679  0.00  0.00     0.024 H 
ENDBRANCH  27  29
BRANCH  27  33
ATOM     33  C   LIG d   1       5.371  -3.382  -9.583  0.00  0.00    -0.059 C 
ATOM     34  H   LIG d   1       5.953  -4.175  -9.113  0.00  0.00     0.024 H 
ATOM     35  H   LIG d   1       5.157  -3.652 -10.617  0.00  0.00     0.024 H 
ATOM     36  H   LIG d   1       5.940  -2.452  -9.560  0.00  0.00     0.024 H 
ENDBRANCH  27  33
ENDBRANCH  21  27
ENDBRANCH  13  14
ENDBRANCH  10  13
ENDBRANCH   1  10
BRANCH   6  37
ATOM     37  O   LIG d   1       4.666   0.646 -11.160  0.00  0.00    -0.495 OA
BRANCH  37  38
ATOM     38  C   LIG d   1       4.651  -0.332 -12.204  0.00  0.00     0.079 C 
ATOM     39  H   LIG d   1       4.813   0.159 -13.163  0.00  0.00     0.066 H 
ATOM     40  H   LIG d   1       3.685  -0.838 -12.213  0.00  0.00     0.066 H 
ATOM     41  H   LIG d   1       5.442  -1.060 -12.030  0.00  0.00     0.066 H 
ENDBRANCH  37  38
ENDBRANCH   6  37
BRANCH   3  42
ATOM     42  C   LIG d   1       7.791  -0.512  -6.619  0.00  0.00     0.045 C 
ATOM     43  H   LIG d   1       8.630   0.181  -6.568  0.00  0.00     0.097 H 
ATOM     44  C   LIG d   1       6.944  -0.384  -5.375  0.00  0.00     0.074 A 
ATOM     45  N   LIG d   1       6.556   0.770  -4.753  0.00  0.00    -0.353 N 
ATOM     46  C   LIG d   1       6.453  -1.452  -4.706  0.00  0.00    -0.008 A 
ATOM     47  C   LIG d   1       5.800   0.471  -3.655  0.00  0.00     0.047 A 
ATOM     48  H   LIG d   1       6.784   1.666  -5.047  0.00  0.00     0.166 HD
ATOM     49  C   LIG d   1       5.703  -0.943  -3.579  0.00  0.00     0.004 A 
ATOM     50  C   LIG d   1       5.179   1.277  -2.703  0.00  0.00    -0.038 A 
ATOM     51  C   LIG d   1       4.987  -1.565  -2.552  0.00  0.00    -0.052 A 
ATOM     52  C   LIG d   1       4.386  -0.748  -1.629  0.00  0.00    -0.061 A 
ATOM     53  H   LIG d   1       4.911  -2.641  -2.489  0.00  0.00     0.062 H 
ATOM     54  C   LIG d   1       4.476   0.633  -1.699  0.00  0.00    -0.060 A 
ATOM     55  H   LIG d   1       3.824  -1.194  -0.822  0.00  0.00     0.062 H 
ATOM     56  H   LIG d   1       3.983   1.227  -0.944  0.00  0.00     0.062 H 
ATOM     57  H   LIG d   1       5.241   2.355  -2.748  0.00  0.00     0.064 H 
ATOM     58  C   LIG d   1       6.692  -2.880  -5.127  0.00  0.00     0.023 C 
ATOM     59  CA  LIG d   1       7.201  -2.869  -6.575  0.00  0.00     0.023 C 
ATOM     60  H   LIG d   1       5.761  -3.443  -5.068  0.00  0.00     0.037 H 
ATOM     61  H   LIG d   1       7.441  -3.336  -4.478  0.00  0.00     0.037 H 
ATOM     62  HA  LIG d   1       6.386  -2.592  -7.244  0.00  0.00     0.092 H 
ATOM     63  N   LIG d   1       8.305  -1.896  -6.705  0.00  0.00     0.243 N 
ATOM     64  H1  LIG d   1       8.983  -2.052  -5.950  0.00  0.00     0.203 HD
ATOM     65  H2  LIG d   1       8.768  -2.029  -7.612  0.00  0.00     0.203 HD
BRANCH  59  66
ATOM     66  C   LIG d   1       7.707  -4.241  -6.942  0.00  0.00     0.090 C 
ATOM     67  O   LIG d   1       8.844  -4.382  -7.324  0.00  0.00    -0.544 OA
ATOM     68  OXT LIG d   1       6.895  -5.304  -6.843  0.00  0.00    -0.544 OA
ENDBRANCH  59  66
ENDBRANCH   3  42
TORSDOF 11
ENDMDL
MODEL 9
REMARK VINA RESULT:      -6.0      3.615      7.049
REMARK  11 active torsions:
REMARK  status: ('A' for Active; 'I' for Inactive)
REMARK    1  A    between atoms: C_1  and  C_2 
REMARK    2  A    between atoms: C_4  and  O_12 
REMARK    3  A    between atoms: C_5  and  C_9 
REMARK    4  A    between atoms: C_9  and  C_10 
REMARK    5  A    between atoms: C_9  and  C_11 
REMARK    6  A    between atoms: O_12  and  C_13 
REMARK    7  A    between atoms: C_13  and  C_14 
REMARK    8  A    between atoms: C_16  and  C_22 
REMARK    9  A    between atoms: C_19  and  O_20 
REMARK   10  A    between atoms: O_20  and  C_21 
REMARK   11  A    between atoms: CA_35  and  C_37 
ROOT
ATOM      1  C   LIG d   1       4.475  -4.121  -6.421  0.00  0.00     0.032 A 
ATOM      2  C   LIG d   1       4.064  -3.450  -7.557  0.00  0.00    -0.043 A 
ATOM      3  C   LIG d   1       3.644  -4.160  -8.667  0.00  0.00     0.007 A 
ATOM      4  C   LIG d   1       3.639  -5.542  -8.645  0.00  0.00    -0.049 A 
ATOM      5  C   LIG d   1       4.055  -6.218  -7.515  0.00  0.00    -0.019 A 
ATOM      6  C   LIG d   1       4.477  -5.508  -6.400  0.00  0.00     0.127 A 
ATOM      7  H   LIG d   1       4.066  -2.370  -7.577  0.00  0.00     0.063 H 
ATOM      8  H   LIG d   1       3.311  -6.095  -9.513  0.00  0.00     0.062 H 
ATOM      9  H   LIG d   1       4.052  -7.297  -7.498  0.00  0.00     0.065 H 
ENDROOT
BRANCH   1  10
ATOM     10  C   LIG d   1       4.927  -3.347  -5.210  0.00  0.00     0.118 C 
ATOM     11  H   LIG d   1       4.453  -3.757  -4.319  0.00  0.00     0.075 H 
ATOM     12  H   LIG d   1       6.010  -3.422  -5.114  0.00  0.00     0.075 H 
BRANCH  10  13
ATOM     13  O   LIG d   1       4.556  -1.974  -5.357  0.00  0.00    -0.487 OA
BRANCH  13  14
ATOM     14  C   LIG d   1       5.468  -1.045  -4.966  0.00  0.00     0.125 A 
ATOM     15  C   LIG d   1       6.615  -0.837  -5.718  0.00  0.00    -0.015 A 
ATOM     16  C   LIG d   1       7.538   0.112  -5.321  0.00  0.00    -0.029 A 
ATOM     17  H   LIG d   1       6.784  -1.414  -6.615  0.00  0.00     0.066 H 
ATOM     18  C   LIG d   1       7.322   0.847  -4.170  0.00  0.00     0.044 A 
ATOM     19  C   LIG d   1       6.181   0.638  -3.415  0.00  0.00    -0.036 A 
ATOM     20 CL   LIG d   1       8.486   2.034  -3.670  0.00  0.00    -0.083 Cl
ATOM     21  C   LIG d   1       5.254  -0.306  -3.811  0.00  0.00    -0.002 A 
ATOM     22  H   LIG d   1       6.016   1.213  -2.516  0.00  0.00     0.064 H 
BRANCH  16  23
ATOM     23  C   LIG d   1       8.781   0.342  -6.141  0.00  0.00    -0.038 C 
ATOM     24  H   LIG d   1       9.661   0.171  -5.521  0.00  0.00     0.028 H 
ATOM     25  H   LIG d   1       8.792  -0.348  -6.985  0.00  0.00     0.028 H 
ATOM     26  H   LIG d   1       8.789   1.367  -6.509  0.00  0.00     0.028 H 
ENDBRANCH  16  23
BRANCH  21  27
ATOM     27  C   LIG d   1       4.011  -0.533  -2.990  0.00  0.00    -0.018 C 
ATOM     28  H   LIG d   1       3.207  -0.883  -3.637  0.00  0.00     0.035 H 
BRANCH  27  29
ATOM     29  C   LIG d   1       4.295  -1.585  -1.916  0.00  0.00    -0.059 C 
ATOM     30  H   LIG d   1       5.369  -1.761  -1.855  0.00  0.00     0.024 H 
ATOM     31  H   LIG d   1       3.930  -1.229  -0.952  0.00  0.00     0.024 H 
ATOM     32  H   LIG d   1       3.788  -2.515  -2.175  0.00  0.00     0.024 H 
ENDBRANCH  27  29
BRANCH  27  33
ATOM     33  C   LIG d   1       3.595   0.779  -2.322  0.00  0.00    -0.059 C 
ATOM     34  H   LIG d   1       3.030   1.384  -3.030  0.00  0.00     0.024 H 
ATOM     35  H   LIG d   1       2.975   0.562  -1.452  0.00  0.00     0.024 H 
ATOM     36  H   LIG d   1       4.486   1.324  -2.007  0.00  0.00     0.024 H 
ENDBRANCH  27  33
ENDBRANCH  21  27
ENDBRANCH  13  14
ENDBRANCH  10  13
ENDBRANCH   1  10
BRANCH   6  37
ATOM     37  O   LIG d   1       4.886  -6.170  -5.286  0.00  0.00    -0.495 OA
BRANCH  37  38
ATOM     38  C   LIG d   1       5.071  -7.583  -5.402  0.00  0.00     0.079 C 
ATOM     39  H   LIG d   1       4.104  -8.081  -5.344  0.00  0.00     0.066 H 
ATOM     40  H   LIG d   1       5.710  -7.933  -4.591  0.00  0.00     0.066 H 
ATOM     41  H   LIG d   1       5.540  -7.810  -6.358  0.00  0.00     0.066 H 
ENDBRANCH  37  38
ENDBRANCH   6  37
BRANCH   3  42
ATOM     42  C   LIG d   1       3.190  -3.426  -9.903  0.00  0.00     0.045 C 
ATOM     43  H   LIG d   1       2.149  -3.670 -10.111  0.00  0.00     0.097 H 
ATOM     44  C   LIG d   1       3.335  -1.938  -9.691  0.00  0.00     0.074 A 
ATOM     45  N   LIG d   1       2.514  -1.121  -8.963  0.00  0.00    -0.353 N 
ATOM     46  C   LIG d   1       4.345  -1.212 -10.224  0.00  0.00    -0.008 A 
ATOM     47  C   LIG d   1       2.976   0.163  -9.013  0.00  0.00     0.047 A 
ATOM     48  H   LIG d   1       1.721  -1.411  -8.485  0.00  0.00     0.166 HD
ATOM     49  C   LIG d   1       4.151   0.159  -9.811  0.00  0.00     0.004 A 
ATOM     50  C   LIG d   1       2.504   1.347  -8.450  0.00  0.00    -0.038 A 
ATOM     51  C   LIG d   1       4.864   1.337 -10.054  0.00  0.00    -0.052 A 
ATOM     52  C   LIG d   1       4.376   2.488  -9.488  0.00  0.00    -0.061 A 
ATOM     53  H   LIG d   1       5.758   1.341 -10.661  0.00  0.00     0.062 H 
ATOM     54  C   LIG d   1       3.231   2.497  -8.707  0.00  0.00    -0.060 A 
ATOM     55  H   LIG d   1       4.902   3.417  -9.654  0.00  0.00     0.062 H 
ATOM     56  H   LIG d   1       2.893   3.432  -8.287  0.00  0.00     0.062 H 
ATOM     57  H   LIG d   1       1.613   1.366  -7.840  0.00  0.00     0.064 H 
ATOM     58  C   LIG d   1       5.433  -1.807 -11.083  0.00  0.00     0.023 C 
ATOM     59  CA  LIG d   1       5.406  -3.330 -10.895  0.00  0.00     0.023 C 
ATOM     60  H   LIG d   1       6.402  -1.414 -10.774  0.00  0.00     0.037 H 
ATOM     61  H   LIG d   1       5.252  -1.562 -12.130  0.00  0.00     0.037 H 
ATOM     62  HA  LIG d   1       5.772  -3.579  -9.899  0.00  0.00     0.092 H 
ATOM     63  N   LIG d   1       4.024  -3.826 -11.058  0.00  0.00     0.243 N 
ATOM     64  H1  LIG d   1       3.623  -3.431 -11.917  0.00  0.00     0.203 HD
ATOM     65  H2  LIG d   1       4.039  -4.850 -11.126  0.00  0.00     0.203 HD
BRANCH  59  66
ATOM     66  C   LIG d   1       6.288  -3.980 -11.931  0.00  0.00     0.090 C 
ATOM     67  O   LIG d   1       5.793  -4.510 -12.897  0.00  0.00    -0.544 OA
ATOM     68  OXT LIG d   1       7.621  -3.969 -11.780  0.00  0.00    -0.544 OA
ENDBRANCH  59  66
ENDBRANCH   3  42
TORSDOF 11
ENDMDL
