MODEL 1
REMARK VINA RESULT:      -6.4      0.000      0.000
REMARK  5 active torsions:
REMARK  status: ('A' for Active; 'I' for Inactive)
REMARK    1  A    between atoms: C_1  and  C_2 
REMARK       I    between atoms: C_2  and  N_4 
REMARK    2  A    between atoms: N_4  and  C_5 
REMARK    3  A    between atoms: C_8  and  C_14 
REMARK    4  A    between atoms: C_9  and  N_11 
REMARK    5  A    between atoms: C_15  and  C_16 
ROOT
ATOM      1  C   LIG d   1       2.589  -1.044 -10.686  0.00  0.00     0.040 A 
ATOM      2  C   LIG d   1       2.736  -2.117  -9.813  0.00  0.00    -0.040 A 
ATOM      3  C   LIG d   1       3.169  -1.902  -8.522  0.00  0.00    -0.046 A 
ATOM      4  C   LIG d   1       3.460  -0.604  -8.092  0.00  0.00     0.052 A 
ATOM      5  C   LIG d   1       3.310   0.471  -8.973  0.00  0.00     0.282 A 
ATOM      6  C   LIG d   1       2.881   0.247 -10.263  0.00  0.00     0.037 A 
ATOM      7  H   LIG d   1       2.511  -3.119 -10.146  0.00  0.00     0.064 H 
ATOM      8  H   LIG d   1       3.283  -2.735  -7.846  0.00  0.00     0.063 H 
ATOM      9  H   LIG d   1       2.769   1.076 -10.945  0.00  0.00     0.070 H 
ENDROOT
BRANCH   4  10
ATOM     10  C   LIG d   1       3.923  -0.370  -6.713  0.00  0.00    -0.048 C 
ATOM     11  C   LIG d   1       3.040  -0.357  -5.701  0.00  0.00    -0.054 C 
ATOM     12  H   LIG d   1       1.990  -0.519  -5.899  0.00  0.00     0.062 H 
ATOM     13  H   LIG d   1       4.972  -0.209  -6.516  0.00  0.00     0.063 H 
BRANCH  11  14
ATOM     14  C   LIG d   1       3.503  -0.123  -4.322  0.00  0.00    -0.025 A 
ATOM     15  C   LIG d   1       3.329   1.130  -3.726  0.00  0.00    -0.055 A 
ATOM     16  C   LIG d   1       3.765   1.341  -2.435  0.00  0.00    -0.061 A 
ATOM     17  H   LIG d   1       2.856   1.929  -4.276  0.00  0.00     0.062 H 
ATOM     18  C   LIG d   1       4.372   0.318  -1.730  0.00  0.00    -0.062 A 
ATOM     19  H   LIG d   1       3.632   2.309  -1.974  0.00  0.00     0.062 H 
ATOM     20  C   LIG d   1       4.547  -0.925  -2.312  0.00  0.00    -0.061 A 
ATOM     21  H   LIG d   1       4.711   0.490  -0.718  0.00  0.00     0.062 H 
ATOM     22  C   LIG d   1       4.112  -1.153  -3.601  0.00  0.00    -0.055 A 
ATOM     23  H   LIG d   1       5.021  -1.719  -1.756  0.00  0.00     0.062 H 
ATOM     24  H   LIG d   1       4.245  -2.126  -4.053  0.00  0.00     0.062 H 
ENDBRANCH  11  14
ENDBRANCH   4  10
BRANCH   5  25
ATOM     25  N   LIG d   1       3.618   1.846  -8.522  0.00  0.00     0.080 N 
ATOM     26  O   LIG d   1       2.784   2.486  -7.907  0.00  0.00     0.042 OA
ATOM     27  O   LIG d   1       4.705   2.339  -8.765  0.00  0.00    -0.576 OA
ENDBRANCH   5  25
BRANCH   1  28
ATOM     28  N   LIG d   1       2.148  -1.266 -11.994  0.00  0.00    -0.285 N 
ATOM     29  C   LIG d   1       3.028  -1.623 -12.950  0.00  0.00     0.214 C 
ATOM     30  O   LIG d   1       4.214  -1.663 -12.698  0.00  0.00    -0.276 OA
ATOM     31  H   LIG d   1       1.209  -1.164 -12.213  0.00  0.00     0.155 HD
BRANCH  29  32
ATOM     32  C   LIG d   1       2.538  -1.980 -14.330  0.00  0.00     0.013 C 
ATOM     33  H   LIG d   1       1.489  -1.699 -14.427  0.00  0.00     0.032 H 
ATOM     34  H   LIG d   1       3.128  -1.447 -15.075  0.00  0.00     0.032 H 
ATOM     35  H   LIG d   1       2.642  -3.054 -14.485  0.00  0.00     0.032 H 
ENDBRANCH  29  32
ENDBRANCH   1  28
TORSDOF 5
ENDMDL
MODEL 2
REMARK VINA RESULT:      -6.0      6.040      7.141
REMARK  5 active torsions:
REMARK  status: ('A' for Active; 'I' for Inactive)
REMARK    1  A    between atoms: C_1  and  C_2 
REMARK       I    between atoms: C_2  and  N_4 
REMARK    2  A    between atoms: N_4  and  C_5 
REMARK    3  A    between atoms: C_8  and  C_14 
REMARK    4  A    between atoms: C_9  and  N_11 
REMARK    5  A    between atoms: C_15  and  C_16 
ROOT
ATOM      1  C   LIG d   1       6.262  -6.858  -5.840  0.00  0.00     0.040 A 
ATOM      2  C   LIG d   1       4.926  -6.480  -5.761  0.00  0.00    -0.040 A 
ATOM      3  C   LIG d   1       4.593  -5.192  -5.405  0.00  0.00    -0.046 A 
ATOM      4  C   LIG d   1       5.600  -4.264  -5.125  0.00  0.00     0.052 A 
ATOM      5  C   LIG d   1       6.942  -4.648  -5.206  0.00  0.00     0.282 A 
ATOM      6  C   LIG d   1       7.267  -5.940  -5.558  0.00  0.00     0.037 A 
ATOM      7  H   LIG d   1       4.148  -7.198  -5.978  0.00  0.00     0.064 H 
ATOM      8  H   LIG d   1       3.556  -4.899  -5.344  0.00  0.00     0.063 H 
ATOM      9  H   LIG d   1       8.303  -6.238  -5.617  0.00  0.00     0.070 H 
ENDROOT
BRANCH   4  10
ATOM     10  C   LIG d   1       5.249  -2.884  -4.744  0.00  0.00    -0.048 C 
ATOM     11  C   LIG d   1       4.615  -2.649  -3.583  0.00  0.00    -0.054 C 
ATOM     12  H   LIG d   1       4.364  -3.471  -2.930  0.00  0.00     0.062 H 
ATOM     13  H   LIG d   1       5.501  -2.063  -5.398  0.00  0.00     0.063 H 
BRANCH  11  14
ATOM     14  C   LIG d   1       4.264  -1.269  -3.203  0.00  0.00    -0.025 A 
ATOM     15  C   LIG d   1       4.780  -0.712  -2.029  0.00  0.00    -0.055 A 
ATOM     16  C   LIG d   1       4.446   0.580  -1.680  0.00  0.00    -0.061 A 
ATOM     17  H   LIG d   1       5.436  -1.292  -1.398  0.00  0.00     0.062 H 
ATOM     18  C   LIG d   1       3.605   1.324  -2.487  0.00  0.00    -0.062 A 
ATOM     19  H   LIG d   1       4.844   1.011  -0.772  0.00  0.00     0.062 H 
ATOM     20  C   LIG d   1       3.091   0.779  -3.651  0.00  0.00    -0.061 A 
ATOM     21  H   LIG d   1       3.348   2.335  -2.208  0.00  0.00     0.062 H 
ATOM     22  C   LIG d   1       3.419  -0.510  -4.016  0.00  0.00    -0.055 A 
ATOM     23  H   LIG d   1       2.435   1.365  -4.276  0.00  0.00     0.062 H 
ATOM     24  H   LIG d   1       3.020  -0.932  -4.927  0.00  0.00     0.062 H 
ENDBRANCH  11  14
ENDBRANCH   4  10
BRANCH   5  25
ATOM     25  N   LIG d   1       8.012  -3.669  -4.909  0.00  0.00     0.080 N 
ATOM     26  O   LIG d   1       8.439  -3.559  -3.774  0.00  0.00     0.042 OA
ATOM     27  O   LIG d   1       8.467  -2.975  -5.801  0.00  0.00    -0.576 OA
ENDBRANCH   5  25
BRANCH   1  28
ATOM     28  N   LIG d   1       6.596  -8.167  -6.202  0.00  0.00    -0.285 N 
ATOM     29  C   LIG d   1       6.759  -9.108  -5.252  0.00  0.00     0.214 C 
ATOM     30  O   LIG d   1       6.708  -8.801  -4.080  0.00  0.00    -0.276 OA
ATOM     31  H   LIG d   1       6.709  -8.397  -7.138  0.00  0.00     0.155 HD
BRANCH  29  32
ATOM     32  C   LIG d   1       6.999 -10.543  -5.647  0.00  0.00     0.013 C 
ATOM     33  H   LIG d   1       8.066 -10.704  -5.800  0.00  0.00     0.032 H 
ATOM     34  H   LIG d   1       6.640 -11.202  -4.857  0.00  0.00     0.032 H 
ATOM     35  H   LIG d   1       6.463 -10.759  -6.570  0.00  0.00     0.032 H 
ENDBRANCH  29  32
ENDBRANCH   1  28
TORSDOF 5
ENDMDL
MODEL 3
REMARK VINA RESULT:      -6.0      2.153      2.460
REMARK  5 active torsions:
REMARK  status: ('A' for Active; 'I' for Inactive)
REMARK    1  A    between atoms: C_1  and  C_2 
REMARK       I    between atoms: C_2  and  N_4 
REMARK    2  A    between atoms: N_4  and  C_5 
REMARK    3  A    between atoms: C_8  and  C_14 
REMARK    4  A    between atoms: C_9  and  N_11 
REMARK    5  A    between atoms: C_15  and  C_16 
ROOT
ATOM      1  C   LIG d   1       2.409  -1.435 -10.223  0.00  0.00     0.040 A 
ATOM      2  C   LIG d   1       2.021  -0.221  -9.667  0.00  0.00    -0.040 A 
ATOM      3  C   LIG d   1       2.475   0.143  -8.417  0.00  0.00    -0.046 A 
ATOM      4  C   LIG d   1       3.327  -0.710  -7.710  0.00  0.00     0.052 A 
ATOM      5  C   LIG d   1       3.714  -1.930  -8.273  0.00  0.00     0.282 A 
ATOM      6  C   LIG d   1       3.252  -2.288  -9.521  0.00  0.00     0.037 A 
ATOM      7  H   LIG d   1       1.363   0.438 -10.214  0.00  0.00     0.064 H 
ATOM      8  H   LIG d   1       2.173   1.085  -7.987  0.00  0.00     0.063 H 
ATOM      9  H   LIG d   1       3.548  -3.232  -9.955  0.00  0.00     0.070 H 
ENDROOT
BRANCH   4  10
ATOM     10  C   LIG d   1       3.815  -0.326  -6.374  0.00  0.00    -0.048 C 
ATOM     11  C   LIG d   1       3.068  -0.580  -5.287  0.00  0.00    -0.054 C 
ATOM     12  H   LIG d   1       2.109  -1.067  -5.394  0.00  0.00     0.062 H 
ATOM     13  H   LIG d   1       4.773   0.161  -6.269  0.00  0.00     0.063 H 
BRANCH  11  14
ATOM     14  C   LIG d   1       3.556  -0.196  -3.951  0.00  0.00    -0.025 A 
ATOM     15  C   LIG d   1       3.545   1.147  -3.559  0.00  0.00    -0.055 A 
ATOM     16  C   LIG d   1       4.003   1.498  -2.307  0.00  0.00    -0.061 A 
ATOM     17  H   LIG d   1       3.180   1.904  -4.236  0.00  0.00     0.062 H 
ATOM     18  C   LIG d   1       4.471   0.528  -1.440  0.00  0.00    -0.062 A 
ATOM     19  H   LIG d   1       3.996   2.536  -2.004  0.00  0.00     0.062 H 
ATOM     20  C   LIG d   1       4.485  -0.802  -1.820  0.00  0.00    -0.061 A 
ATOM     21  H   LIG d   1       4.829   0.811  -0.460  0.00  0.00     0.062 H 
ATOM     22  C   LIG d   1       4.025  -1.170  -3.067  0.00  0.00    -0.055 A 
ATOM     23  H   LIG d   1       4.851  -1.554  -1.138  0.00  0.00     0.062 H 
ATOM     24  H   LIG d   1       4.032  -2.210  -3.361  0.00  0.00     0.062 H 
ENDBRANCH  11  14
ENDBRANCH   4  10
BRANCH   5  25
ATOM     25  N   LIG d   1       4.616  -2.837  -7.527  0.00  0.00     0.080 N 
ATOM     26  O   LIG d   1       5.822  -2.683  -7.589  0.00  0.00     0.042 OA
ATOM     27  O   LIG d   1       4.151  -3.738  -6.852  0.00  0.00    -0.576 OA
ENDBRANCH   5  25
BRANCH   1  28
ATOM     28  N   LIG d   1       1.947  -1.800 -11.491  0.00  0.00    -0.285 N 
ATOM     29  C   LIG d   1       2.692  -1.535 -12.581  0.00  0.00     0.214 C 
ATOM     30  O   LIG d   1       3.720  -0.900 -12.474  0.00  0.00    -0.276 OA
ATOM     31  H   LIG d   1       1.090  -2.244 -11.585  0.00  0.00     0.155 HD
BRANCH  29  32
ATOM     32  C   LIG d   1       2.253  -2.036 -13.934  0.00  0.00     0.013 C 
ATOM     33  H   LIG d   1       2.923  -2.830 -14.263  0.00  0.00     0.032 H 
ATOM     34  H   LIG d   1       1.236  -2.422 -13.865  0.00  0.00     0.032 H 
ATOM     35  H   LIG d   1       2.281  -1.216 -14.650  0.00  0.00     0.032 H 
ENDBRANCH  29  32
ENDBRANCH   1  28
TORSDOF 5
ENDMDL
MODEL 4
REMARK VINA RESULT:      -5.9      6.093      7.307
REMARK  5 active torsions:
REMARK  status: ('A' for Active; 'I' for Inactive)
REMARK    1  A    between atoms: C_1  and  C_2 
REMARK       I    between atoms: C_2  and  N_4 
REMARK    2  A    between atoms: N_4  and  C_5 
REMARK    3  A    between atoms: C_8  and  C_14 
REMARK    4  A    between atoms: C_9  and  N_11 
REMARK    5  A    between atoms: C_15  and  C_16 
ROOT
ATOM      1  C   LIG d   1       7.861  -6.338  -5.689  0.00  0.00     0.040 A 
ATOM      2  C   LIG d   1       8.473  -5.362  -4.909  0.00  0.00    -0.040 A 
ATOM      3  C   LIG d   1       7.789  -4.212  -4.580  0.00  0.00    -0.046 A 
ATOM      4  C   LIG d   1       6.478  -4.027  -5.031  0.00  0.00     0.052 A 
ATOM      5  C   LIG d   1       5.868  -5.011  -5.815  0.00  0.00     0.282 A 
ATOM      6  C   LIG d   1       6.560  -6.156  -6.143  0.00  0.00     0.037 A 
ATOM      7  H   LIG d   1       9.485  -5.505  -4.561  0.00  0.00     0.064 H 
ATOM      8  H   LIG d   1       8.264  -3.455  -3.975  0.00  0.00     0.063 H 
ATOM      9  H   LIG d   1       6.090  -6.915  -6.751  0.00  0.00     0.070 H 
ENDROOT
BRANCH   4  10
ATOM     10  C   LIG d   1       5.743  -2.799  -4.682  0.00  0.00    -0.048 C 
ATOM     11  C   LIG d   1       5.783  -2.327  -3.425  0.00  0.00    -0.054 C 
ATOM     12  H   LIG d   1       6.354  -2.848  -2.671  0.00  0.00     0.062 H 
ATOM     13  H   LIG d   1       5.173  -2.279  -5.437  0.00  0.00     0.063 H 
BRANCH  11  14
ATOM     14  C   LIG d   1       5.048  -1.099  -3.076  0.00  0.00    -0.025 A 
ATOM     15  C   LIG d   1       5.741   0.092  -2.841  0.00  0.00    -0.055 A 
ATOM     16  C   LIG d   1       5.046   1.237  -2.515  0.00  0.00    -0.061 A 
ATOM     17  H   LIG d   1       6.818   0.114  -2.913  0.00  0.00     0.062 H 
ATOM     18  C   LIG d   1       3.666   1.210  -2.422  0.00  0.00    -0.062 A 
ATOM     19  H   LIG d   1       5.581   2.158  -2.332  0.00  0.00     0.062 H 
ATOM     20  C   LIG d   1       2.972   0.036  -2.653  0.00  0.00    -0.061 A 
ATOM     21  H   LIG d   1       3.127   2.111  -2.166  0.00  0.00     0.062 H 
ATOM     22  C   LIG d   1       3.654  -1.117  -2.985  0.00  0.00    -0.055 A 
ATOM     23  H   LIG d   1       1.896   0.022  -2.579  0.00  0.00     0.062 H 
ATOM     24  H   LIG d   1       3.110  -2.032  -3.170  0.00  0.00     0.062 H 
ENDBRANCH  11  14
ENDBRANCH   4  10
BRANCH   5  25
ATOM     25  N   LIG d   1       4.481  -4.820  -6.295  0.00  0.00     0.080 N 
ATOM     26  O   LIG d   1       4.261  -4.096  -7.250  0.00  0.00     0.042 OA
ATOM     27  O   LIG d   1       3.559  -5.388  -5.737  0.00  0.00    -0.576 OA
ENDBRANCH   5  25
BRANCH   1  28
ATOM     28  N   LIG d   1       8.559  -7.504  -6.019  0.00  0.00    -0.285 N 
ATOM     29  C   LIG d   1       8.444  -8.600  -5.245  0.00  0.00     0.214 C 
ATOM     30  O   LIG d   1       7.810  -8.549  -4.212  0.00  0.00    -0.276 OA
ATOM     31  H   LIG d   1       9.125  -7.523  -6.807  0.00  0.00     0.155 HD
BRANCH  29  32
ATOM     32  C   LIG d   1       9.097  -9.891  -5.666  0.00  0.00     0.013 C 
ATOM     33  H   LIG d   1       9.534  -9.771  -6.657  0.00  0.00     0.032 H 
ATOM     34  H   LIG d   1       9.878 -10.153  -4.953  0.00  0.00     0.032 H 
ATOM     35  H   LIG d   1       8.350 -10.684  -5.693  0.00  0.00     0.032 H 
ENDBRANCH  29  32
ENDBRANCH   1  28
TORSDOF 5
ENDMDL
MODEL 5
REMARK VINA RESULT:      -5.8      5.978      8.309
REMARK  5 active torsions:
REMARK  status: ('A' for Active; 'I' for Inactive)
REMARK    1  A    between atoms: C_1  and  C_2 
REMARK       I    between atoms: C_2  and  N_4 
REMARK    2  A    between atoms: N_4  and  C_5 
REMARK    3  A    between atoms: C_8  and  C_14 
REMARK    4  A    between atoms: C_9  and  N_11 
REMARK    5  A    between atoms: C_15  and  C_16 
ROOT
ATOM      1  C   LIG d   1      10.399   4.595  -5.276  0.00  0.00     0.040 A 
ATOM      2  C   LIG d   1      10.137   4.416  -3.922  0.00  0.00    -0.040 A 
ATOM      3  C   LIG d   1       9.367   3.353  -3.502  0.00  0.00    -0.046 A 
ATOM      4  C   LIG d   1       8.850   2.454  -4.440  0.00  0.00     0.052 A 
ATOM      5  C   LIG d   1       9.116   2.638  -5.800  0.00  0.00     0.282 A 
ATOM      6  C   LIG d   1       9.883   3.707  -6.212  0.00  0.00     0.037 A 
ATOM      7  H   LIG d   1      10.537   5.111  -3.198  0.00  0.00     0.064 H 
ATOM      8  H   LIG d   1       9.164   3.215  -2.452  0.00  0.00     0.063 H 
ATOM      9  H   LIG d   1      10.086   3.852  -7.262  0.00  0.00     0.070 H 
ENDROOT
BRANCH   4  10
ATOM     10  C   LIG d   1       8.026   1.316  -3.996  0.00  0.00    -0.048 C 
ATOM     11  C   LIG d   1       6.789   1.528  -3.517  0.00  0.00    -0.054 C 
ATOM     12  H   LIG d   1       6.400   2.534  -3.458  0.00  0.00     0.062 H 
ATOM     13  H   LIG d   1       8.417   0.311  -4.056  0.00  0.00     0.063 H 
BRANCH  11  14
ATOM     14  C   LIG d   1       5.966   0.390  -3.074  0.00  0.00    -0.025 A 
ATOM     15  C   LIG d   1       6.260  -0.903  -3.515  0.00  0.00    -0.055 A 
ATOM     16  C   LIG d   1       5.485  -1.963  -3.094  0.00  0.00    -0.061 A 
ATOM     17  H   LIG d   1       7.091  -1.071  -4.183  0.00  0.00     0.062 H 
ATOM     18  C   LIG d   1       4.419  -1.750  -2.238  0.00  0.00    -0.062 A 
ATOM     19  H   LIG d   1       5.711  -2.963  -3.435  0.00  0.00     0.062 H 
ATOM     20  C   LIG d   1       4.122  -0.473  -1.797  0.00  0.00    -0.061 A 
ATOM     21  H   LIG d   1       3.816  -2.585  -1.913  0.00  0.00     0.062 H 
ATOM     22  C   LIG d   1       4.891   0.597  -2.205  0.00  0.00    -0.055 A 
ATOM     23  H   LIG d   1       3.289  -0.313  -1.129  0.00  0.00     0.062 H 
ATOM     24  H   LIG d   1       4.661   1.594  -1.856  0.00  0.00     0.062 H 
ENDBRANCH  11  14
ENDBRANCH   4  10
BRANCH   5  25
ATOM     25  N   LIG d   1       8.570   1.690  -6.797  0.00  0.00     0.080 N 
ATOM     26  O   LIG d   1       9.256   0.767  -7.198  0.00  0.00     0.042 OA
ATOM     27  O   LIG d   1       7.435   1.832  -7.215  0.00  0.00    -0.576 OA
ENDBRANCH   5  25
BRANCH   1  28
ATOM     28  N   LIG d   1      11.181   5.675  -5.697  0.00  0.00    -0.285 N 
ATOM     29  C   LIG d   1      10.621   6.889  -5.860  0.00  0.00     0.214 C 
ATOM     30  O   LIG d   1       9.423   7.027  -5.731  0.00  0.00    -0.276 OA
ATOM     31  H   LIG d   1      12.127   5.549  -5.871  0.00  0.00     0.155 HD
BRANCH  29  32
ATOM     32  C   LIG d   1      11.485   8.078  -6.196  0.00  0.00     0.013 C 
ATOM     33  H   LIG d   1      10.893   8.990  -6.121  0.00  0.00     0.032 H 
ATOM     34  H   LIG d   1      12.322   8.128  -5.500  0.00  0.00     0.032 H 
ATOM     35  H   LIG d   1      11.865   7.975  -7.212  0.00  0.00     0.032 H 
ENDBRANCH  29  32
ENDBRANCH   1  28
TORSDOF 5
ENDMDL
MODEL 6
REMARK VINA RESULT:      -5.7      6.680      7.924
REMARK  5 active torsions:
REMARK  status: ('A' for Active; 'I' for Inactive)
REMARK    1  A    between atoms: C_1  and  C_2 
REMARK       I    between atoms: C_2  and  N_4 
REMARK    2  A    between atoms: N_4  and  C_5 
REMARK    3  A    between atoms: C_8  and  C_14 
REMARK    4  A    between atoms: C_9  and  N_11 
REMARK    5  A    between atoms: C_15  and  C_16 
ROOT
ATOM      1  C   LIG d   1      10.633   3.425  -6.925  0.00  0.00     0.040 A 
ATOM      2  C   LIG d   1       9.542   2.699  -7.391  0.00  0.00    -0.040 A 
ATOM      3  C   LIG d   1       8.623   2.188  -6.501  0.00  0.00    -0.046 A 
ATOM      4  C   LIG d   1       8.788   2.400  -5.129  0.00  0.00     0.052 A 
ATOM      5  C   LIG d   1       9.887   3.130  -4.665  0.00  0.00     0.282 A 
ATOM      6  C   LIG d   1      10.804   3.634  -5.562  0.00  0.00     0.037 A 
ATOM      7  H   LIG d   1       9.415   2.536  -8.451  0.00  0.00     0.064 H 
ATOM      8  H   LIG d   1       7.776   1.625  -6.863  0.00  0.00     0.063 H 
ATOM      9  H   LIG d   1      11.655   4.195  -5.204  0.00  0.00     0.070 H 
ENDROOT
BRANCH   4  10
ATOM     10  C   LIG d   1       7.808   1.855  -4.174  0.00  0.00    -0.048 C 
ATOM     11  C   LIG d   1       7.115   0.746  -4.481  0.00  0.00    -0.054 C 
ATOM     12  H   LIG d   1       7.277   0.255  -5.430  0.00  0.00     0.062 H 
ATOM     13  H   LIG d   1       7.647   2.347  -3.226  0.00  0.00     0.063 H 
BRANCH  11  14
ATOM     14  C   LIG d   1       6.134   0.201  -3.526  0.00  0.00    -0.025 A 
ATOM     15  C   LIG d   1       5.917  -1.178  -3.453  0.00  0.00    -0.055 A 
ATOM     16  C   LIG d   1       4.998  -1.680  -2.556  0.00  0.00    -0.061 A 
ATOM     17  H   LIG d   1       6.468  -1.847  -4.097  0.00  0.00     0.062 H 
ATOM     18  C   LIG d   1       4.293  -0.824  -1.730  0.00  0.00    -0.062 A 
ATOM     19  H   LIG d   1       4.830  -2.746  -2.499  0.00  0.00     0.062 H 
ATOM     20  C   LIG d   1       4.502   0.542  -1.797  0.00  0.00    -0.061 A 
ATOM     21  H   LIG d   1       3.574  -1.224  -1.029  0.00  0.00     0.062 H 
ATOM     22  C   LIG d   1       5.421   1.059  -2.685  0.00  0.00    -0.055 A 
ATOM     23  H   LIG d   1       3.948   1.204  -1.149  0.00  0.00     0.062 H 
ATOM     24  H   LIG d   1       5.587   2.126  -2.733  0.00  0.00     0.062 H 
ENDBRANCH  11  14
ENDBRANCH   4  10
BRANCH   5  25
ATOM     25  N   LIG d   1      10.067   3.357  -3.214  0.00  0.00     0.080 N 
ATOM     26  O   LIG d   1      10.729   2.576  -2.553  0.00  0.00     0.042 OA
ATOM     27  O   LIG d   1       9.554   4.324  -2.680  0.00  0.00    -0.576 OA
ENDBRANCH   5  25
BRANCH   1  28
ATOM     28  N   LIG d   1      11.563   3.943  -7.831  0.00  0.00    -0.285 N 
ATOM     29  C   LIG d   1      11.368   5.159  -8.376  0.00  0.00     0.214 C 
ATOM     30  O   LIG d   1      10.341   5.766  -8.153  0.00  0.00    -0.276 OA
ATOM     31  H   LIG d   1      12.350   3.426  -8.067  0.00  0.00     0.155 HD
BRANCH  29  32
ATOM     32  C   LIG d   1      12.428   5.769  -9.258  0.00  0.00     0.013 C 
ATOM     33  H   LIG d   1      12.592   5.129 -10.124  0.00  0.00     0.032 H 
ATOM     34  H   LIG d   1      12.102   6.754  -9.590  0.00  0.00     0.032 H 
ATOM     35  H   LIG d   1      13.356   5.865  -8.696  0.00  0.00     0.032 H 
ENDBRANCH  29  32
ENDBRANCH   1  28
TORSDOF 5
ENDMDL
MODEL 7
REMARK VINA RESULT:      -5.4      6.014      8.175
REMARK  5 active torsions:
REMARK  status: ('A' for Active; 'I' for Inactive)
REMARK    1  A    between atoms: C_1  and  C_2 
REMARK       I    between atoms: C_2  and  N_4 
REMARK    2  A    between atoms: N_4  and  C_5 
REMARK    3  A    between atoms: C_8  and  C_14 
REMARK    4  A    between atoms: C_9  and  N_11 
REMARK    5  A    between atoms: C_15  and  C_16 
ROOT
ATOM      1  C   LIG d   1      11.050   3.125  -5.035  0.00  0.00     0.040 A 
ATOM      2  C   LIG d   1      10.573   3.296  -3.740  0.00  0.00    -0.040 A 
ATOM      3  C   LIG d   1       9.336   2.801  -3.389  0.00  0.00    -0.046 A 
ATOM      4  C   LIG d   1       8.562   2.125  -4.337  0.00  0.00     0.052 A 
ATOM      5  C   LIG d   1       9.046   1.955  -5.637  0.00  0.00     0.282 A 
ATOM      6  C   LIG d   1      10.282   2.457  -5.981  0.00  0.00     0.037 A 
ATOM      7  H   LIG d   1      11.172   3.819  -3.008  0.00  0.00     0.064 H 
ATOM      8  H   LIG d   1       8.966   2.934  -2.384  0.00  0.00     0.063 H 
ATOM      9  H   LIG d   1      10.655   2.330  -6.986  0.00  0.00     0.070 H 
ENDROOT
BRANCH   4  10
ATOM     10  C   LIG d   1       7.239   1.593  -3.966  0.00  0.00    -0.048 C 
ATOM     11  C   LIG d   1       7.128   0.344  -3.484  0.00  0.00    -0.054 C 
ATOM     12  H   LIG d   1       8.009  -0.270  -3.369  0.00  0.00     0.062 H 
ATOM     13  H   LIG d   1       6.359   2.207  -4.081  0.00  0.00     0.063 H 
BRANCH  11  14
ATOM     14  C   LIG d   1       5.805  -0.188  -3.113  0.00  0.00    -0.025 A 
ATOM     15  C   LIG d   1       4.760   0.686  -2.799  0.00  0.00    -0.055 A 
ATOM     16  C   LIG d   1       3.524   0.180  -2.454  0.00  0.00    -0.061 A 
ATOM     17  H   LIG d   1       4.920   1.753  -2.827  0.00  0.00     0.062 H 
ATOM     18  C   LIG d   1       3.317  -1.187  -2.418  0.00  0.00    -0.062 A 
ATOM     19  H   LIG d   1       2.716   0.855  -2.211  0.00  0.00     0.062 H 
ATOM     20  C   LIG d   1       4.347  -2.058  -2.727  0.00  0.00    -0.061 A 
ATOM     21  H   LIG d   1       2.347  -1.576  -2.146  0.00  0.00     0.062 H 
ATOM     22  C   LIG d   1       5.587  -1.567  -3.079  0.00  0.00    -0.055 A 
ATOM     23  H   LIG d   1       4.178  -3.124  -2.697  0.00  0.00     0.062 H 
ATOM     24  H   LIG d   1       6.389  -2.249  -3.325  0.00  0.00     0.062 H 
ENDBRANCH  11  14
ENDBRANCH   4  10
BRANCH   5  25
ATOM     25  N   LIG d   1       8.230   1.240  -6.644  0.00  0.00     0.080 N 
ATOM     26  O   LIG d   1       7.394   1.845  -7.291  0.00  0.00     0.042 OA
ATOM     27  O   LIG d   1       8.396   0.048  -6.828  0.00  0.00    -0.576 OA
ENDBRANCH   5  25
BRANCH   1  28
ATOM     28  N   LIG d   1      12.307   3.629  -5.386  0.00  0.00    -0.285 N 
ATOM     29  C   LIG d   1      13.397   2.844  -5.294  0.00  0.00     0.214 C 
ATOM     30  O   LIG d   1      13.306   1.731  -4.820  0.00  0.00    -0.276 OA
ATOM     31  H   LIG d   1      12.392   4.544  -5.697  0.00  0.00     0.155 HD
BRANCH  29  32
ATOM     32  C   LIG d   1      14.731   3.346  -5.787  0.00  0.00     0.013 C 
ATOM     33  H   LIG d   1      15.462   3.286  -4.981  0.00  0.00     0.032 H 
ATOM     34  H   LIG d   1      15.062   2.734  -6.626  0.00  0.00     0.032 H 
ATOM     35  H   LIG d   1      14.631   4.381  -6.110  0.00  0.00     0.032 H 
ENDBRANCH  29  32
ENDBRANCH   1  28
TORSDOF 5
ENDMDL
MODEL 8
REMARK VINA RESULT:      -5.3      3.505      3.964
REMARK  5 active torsions:
REMARK  status: ('A' for Active; 'I' for Inactive)
REMARK    1  A    between atoms: C_1  and  C_2 
REMARK       I    between atoms: C_2  and  N_4 
REMARK    2  A    between atoms: N_4  and  C_5 
REMARK    3  A    between atoms: C_8  and  C_14 
REMARK    4  A    between atoms: C_9  and  N_11 
REMARK    5  A    between atoms: C_15  and  C_16 
ROOT
ATOM      1  C   LIG d   1       3.703  -3.703  -9.838  0.00  0.00     0.040 A 
ATOM      2  C   LIG d   1       3.716  -2.319  -9.698  0.00  0.00    -0.040 A 
ATOM      3  C   LIG d   1       3.966  -1.753  -8.467  0.00  0.00    -0.046 A 
ATOM      4  C   LIG d   1       4.208  -2.571  -7.359  0.00  0.00     0.052 A 
ATOM      5  C   LIG d   1       4.194  -3.961  -7.505  0.00  0.00     0.282 A 
ATOM      6  C   LIG d   1       3.938  -4.520  -8.739  0.00  0.00     0.037 A 
ATOM      7  H   LIG d   1       3.529  -1.688 -10.554  0.00  0.00     0.064 H 
ATOM      8  H   LIG d   1       3.976  -0.679  -8.359  0.00  0.00     0.063 H 
ATOM      9  H   LIG d   1       3.923  -5.594  -8.851  0.00  0.00     0.070 H 
ENDROOT
BRANCH   4  10
ATOM     10  C   LIG d   1       4.477  -1.969  -6.042  0.00  0.00    -0.048 C 
ATOM     11  C   LIG d   1       3.969  -0.764  -5.737  0.00  0.00    -0.054 C 
ATOM     12  H   LIG d   1       3.364  -0.236  -6.460  0.00  0.00     0.062 H 
ATOM     13  H   LIG d   1       5.082  -2.498  -5.320  0.00  0.00     0.063 H 
BRANCH  11  14
ATOM     14  C   LIG d   1       4.237  -0.162  -4.420  0.00  0.00    -0.025 A 
ATOM     15  C   LIG d   1       5.554   0.008  -3.980  0.00  0.00    -0.055 A 
ATOM     16  C   LIG d   1       5.797   0.572  -2.746  0.00  0.00    -0.061 A 
ATOM     17  H   LIG d   1       6.377  -0.303  -4.606  0.00  0.00     0.062 H 
ATOM     18  C   LIG d   1       4.743   0.970  -1.943  0.00  0.00    -0.062 A 
ATOM     19  H   LIG d   1       6.814   0.703  -2.405  0.00  0.00     0.062 H 
ATOM     20  C   LIG d   1       3.437   0.805  -2.371  0.00  0.00    -0.061 A 
ATOM     21  H   LIG d   1       4.940   1.411  -0.977  0.00  0.00     0.062 H 
ATOM     22  C   LIG d   1       3.178   0.247  -3.605  0.00  0.00    -0.055 A 
ATOM     23  H   LIG d   1       2.620   1.118  -1.739  0.00  0.00     0.062 H 
ATOM     24  H   LIG d   1       2.158   0.123  -3.940  0.00  0.00     0.062 H 
ENDBRANCH  11  14
ENDBRANCH   4  10
BRANCH   5  25
ATOM     25  N   LIG d   1       4.449  -4.832  -6.336  0.00  0.00     0.080 N 
ATOM     26  O   LIG d   1       5.590  -5.018  -5.952  0.00  0.00     0.042 OA
ATOM     27  O   LIG d   1       3.518  -5.361  -5.756  0.00  0.00    -0.576 OA
ENDBRANCH   5  25
BRANCH   1  28
ATOM     28  N   LIG d   1       3.449  -4.274 -11.089  0.00  0.00    -0.285 N 
ATOM     29  C   LIG d   1       2.180  -4.509 -11.477  0.00  0.00     0.214 C 
ATOM     30  O   LIG d   1       1.264  -4.311 -10.707  0.00  0.00    -0.276 OA
ATOM     31  H   LIG d   1       4.186  -4.500 -11.677  0.00  0.00     0.155 HD
BRANCH  29  32
ATOM     32  C   LIG d   1       1.900  -5.011 -12.871  0.00  0.00     0.013 C 
ATOM     33  H   LIG d   1       0.906  -4.687 -13.180  0.00  0.00     0.032 H 
ATOM     34  H   LIG d   1       2.644  -4.609 -13.558  0.00  0.00     0.032 H 
ATOM     35  H   LIG d   1       1.947  -6.099 -12.881  0.00  0.00     0.032 H 
ENDBRANCH  29  32
ENDBRANCH   1  28
TORSDOF 5
ENDMDL
MODEL 9
REMARK VINA RESULT:      -5.2      4.665      6.559
REMARK  5 active torsions:
REMARK  status: ('A' for Active; 'I' for Inactive)
REMARK    1  A    between atoms: C_1  and  C_2 
REMARK       I    between atoms: C_2  and  N_4 
REMARK    2  A    between atoms: N_4  and  C_5 
REMARK    3  A    between atoms: C_8  and  C_14 
REMARK    4  A    between atoms: C_9  and  N_11 
REMARK    5  A    between atoms: C_15  and  C_16 
ROOT
ATOM      1  C   LIG d   1       0.494  -6.082 -10.752  0.00  0.00     0.040 A 
ATOM      2  C   LIG d   1      -0.074  -4.880 -11.162  0.00  0.00    -0.040 A 
ATOM      3  C   LIG d   1       0.567  -3.689 -10.900  0.00  0.00    -0.046 A 
ATOM      4  C   LIG d   1       1.789  -3.691 -10.221  0.00  0.00     0.052 A 
ATOM      5  C   LIG d   1       2.356  -4.901  -9.810  0.00  0.00     0.282 A 
ATOM      6  C   LIG d   1       1.706  -6.088 -10.072  0.00  0.00     0.037 A 
ATOM      7  H   LIG d   1      -1.018  -4.881 -11.687  0.00  0.00     0.064 H 
ATOM      8  H   LIG d   1       0.126  -2.757 -11.218  0.00  0.00     0.063 H 
ATOM      9  H   LIG d   1       2.141  -7.023  -9.752  0.00  0.00     0.070 H 
ENDROOT
BRANCH   4  10
ATOM     10  C   LIG d   1       2.479  -2.419  -9.938  0.00  0.00    -0.048 C 
ATOM     11  C   LIG d   1       1.844  -1.252 -10.138  0.00  0.00    -0.054 C 
ATOM     12  H   LIG d   1       0.829  -1.247 -10.507  0.00  0.00     0.062 H 
ATOM     13  H   LIG d   1       3.493  -2.426  -9.569  0.00  0.00     0.063 H 
BRANCH  11  14
ATOM     14  C   LIG d   1       2.533   0.019  -9.856  0.00  0.00    -0.025 A 
ATOM     15  C   LIG d   1       3.372   0.592 -10.817  0.00  0.00    -0.055 A 
ATOM     16  C   LIG d   1       4.013   1.782 -10.545  0.00  0.00    -0.061 A 
ATOM     17  H   LIG d   1       3.517   0.103 -11.768  0.00  0.00     0.062 H 
ATOM     18  C   LIG d   1       3.828   2.409  -9.326  0.00  0.00    -0.062 A 
ATOM     19  H   LIG d   1       4.661   2.225 -11.287  0.00  0.00     0.062 H 
ATOM     20  C   LIG d   1       3.000   1.848  -8.369  0.00  0.00    -0.061 A 
ATOM     21  H   LIG d   1       4.333   3.341  -9.119  0.00  0.00     0.062 H 
ATOM     22  C   LIG d   1       2.348   0.661  -8.629  0.00  0.00    -0.055 A 
ATOM     23  H   LIG d   1       2.860   2.343  -7.420  0.00  0.00     0.062 H 
ATOM     24  H   LIG d   1       1.698   0.226  -7.883  0.00  0.00     0.062 H 
ENDBRANCH  11  14
ENDBRANCH   4  10
BRANCH   5  25
ATOM     25  N   LIG d   1       3.649  -4.908  -9.090  0.00  0.00     0.080 N 
ATOM     26  O   LIG d   1       4.693  -4.985  -9.713  0.00  0.00     0.042 OA
ATOM     27  O   LIG d   1       3.670  -4.835  -7.875  0.00  0.00    -0.576 OA
ENDBRANCH   5  25
BRANCH   1  28
ATOM     28  N   LIG d   1      -0.160  -7.289 -11.021  0.00  0.00    -0.285 N 
ATOM     29  C   LIG d   1      -1.058  -7.778 -10.144  0.00  0.00     0.214 C 
ATOM     30  O   LIG d   1      -1.234  -7.222  -9.081  0.00  0.00    -0.276 OA
ATOM     31  H   LIG d   1       0.034  -7.773 -11.839  0.00  0.00     0.155 HD
BRANCH  29  32
ATOM     32  C   LIG d   1      -1.851  -9.013 -10.489  0.00  0.00     0.013 C 
ATOM     33  H   LIG d   1      -1.199  -9.886 -10.449  0.00  0.00     0.032 H 
ATOM     34  H   LIG d   1      -2.665  -9.134  -9.775  0.00  0.00     0.032 H 
ATOM     35  H   LIG d   1      -2.261  -8.913 -11.493  0.00  0.00     0.032 H 
ENDBRANCH  29  32
ENDBRANCH   1  28
TORSDOF 5
ENDMDL
