MODEL 1
REMARK VINA RESULT:      -7.5      0.000      0.000
REMARK  7 active torsions:
REMARK  status: ('A' for Active; 'I' for Inactive)
REMARK    1  A    between atoms: C_6  and  O_7 
REMARK    2  A    between atoms: O_7  and  C_8 
REMARK    3  A    between atoms: C_8  and  C_9 
REMARK       I    between atoms: C_9  and  N_11 
REMARK    4  A    between atoms: N_11  and  C_12 
REMARK    5  A    between atoms: C_12  and  C_13 
REMARK       I    between atoms: C_13  and  N_15 
REMARK    6  A    between atoms: N_15  and  C_16 
REMARK    7  A    between atoms: C_16  and  C_17 
ROOT
ATOM      1  C   LIG d   1       2.560  -0.035  -7.720  0.00  0.00    -0.019 A 
ATOM      2  C   LIG d   1       2.742   0.303  -6.409  0.00  0.00    -0.047 A 
ATOM      3  C   LIG d   1       3.680  -0.391  -5.636  0.00  0.00     0.021 A 
ATOM      4  C   LIG d   1       4.433  -1.433  -6.210  0.00  0.00     0.143 A 
ATOM      5  C   LIG d   1       4.235  -1.763  -7.542  0.00  0.00     0.023 A 
ATOM      6  C   LIG d   1       3.303  -1.065  -8.292  0.00  0.00     0.125 A 
ATOM      7  O   LIG d   1       5.336  -2.099  -5.458  0.00  0.00    -0.422 OA
ATOM      8  C   LIG d   1       5.538  -1.790  -4.169  0.00  0.00     0.341 A 
ATOM      9  O   LIG d   1       6.364  -2.419  -3.533  0.00  0.00    -0.245 OA
ATOM     10  C   LIG d   1       4.815  -0.759  -3.526  0.00  0.00     0.041 A 
ATOM     11  C   LIG d   1       3.898  -0.049  -4.229  0.00  0.00    -0.027 A 
ATOM     12  C   LIG d   1       3.258   0.999  -3.348  0.00  0.00    -0.026 C 
ATOM     13  C   LIG d   1       4.205   1.138  -2.137  0.00  0.00    -0.045 C 
ATOM     14  C   LIG d   1       4.889  -0.247  -2.104  0.00  0.00    -0.020 C 
ATOM     15  H   LIG d   1       1.836   0.500  -8.315  0.00  0.00     0.065 H 
ATOM     16  H   LIG d   1       2.165   1.103  -5.970  0.00  0.00     0.063 H 
ATOM     17  H   LIG d   1       4.807  -2.561  -7.992  0.00  0.00     0.069 H 
ATOM     18  H   LIG d   1       3.183   1.946  -3.881  0.00  0.00     0.031 H 
ATOM     19  H   LIG d   1       2.271   0.669  -3.022  0.00  0.00     0.031 H 
ATOM     20  H   LIG d   1       4.937   1.928  -2.304  0.00  0.00     0.027 H 
ATOM     21  H   LIG d   1       3.642   1.315  -1.221  0.00  0.00     0.027 H 
ATOM     22  H   LIG d   1       5.927  -0.150  -1.787  0.00  0.00     0.032 H 
ATOM     23  H   LIG d   1       4.350  -0.919  -1.435  0.00  0.00     0.032 H 
ENDROOT
BRANCH   6  24
ATOM     24  O   LIG d   1       3.111  -1.389  -9.596  0.00  0.00    -0.483 OA
BRANCH  24  25
ATOM     25  C   LIG d   1       1.760  -1.556 -10.031  0.00  0.00     0.165 C 
ATOM     26  H   LIG d   1       1.082  -1.172  -9.268  0.00  0.00     0.080 H 
ATOM     27  H   LIG d   1       1.607  -1.009 -10.961  0.00  0.00     0.080 H 
BRANCH  25  28
ATOM     28  C   LIG d   1       1.483  -3.020 -10.259  0.00  0.00     0.251 C 
ATOM     29  O   LIG d   1       2.401  -3.786 -10.458  0.00  0.00    -0.272 OA
ATOM     30  N   LIG d   1       0.214  -3.477 -10.240  0.00  0.00    -0.304 N 
ATOM     31  H   LIG d   1      -0.520  -2.863 -10.081  0.00  0.00     0.149 HD
BRANCH  30  32
ATOM     32  C   LIG d   1      -0.054  -4.900 -10.461  0.00  0.00     0.088 C 
ATOM     33  H   LIG d   1      -0.072  -5.104 -11.532  0.00  0.00     0.056 H 
ATOM     34  H   LIG d   1       0.728  -5.494  -9.990  0.00  0.00     0.056 H 
BRANCH  32  35
ATOM     35  C   LIG d   1      -1.389  -5.257  -9.860  0.00  0.00     0.231 C 
ATOM     36  O   LIG d   1      -1.448  -6.030  -8.927  0.00  0.00    -0.274 OA
ATOM     37  N   LIG d   1      -2.519  -4.717 -10.360  0.00  0.00    -0.309 N 
ATOM     38  H   LIG d   1      -2.473  -4.099 -11.105  0.00  0.00     0.149 HD
BRANCH  37  39
ATOM     39  C   LIG d   1      -3.817  -5.064  -9.775  0.00  0.00     0.051 C 
ATOM     40  H   LIG d   1      -4.246  -5.907 -10.319  0.00  0.00     0.052 H 
ATOM     41  H   LIG d   1      -3.684  -5.337  -8.729  0.00  0.00     0.052 H 
BRANCH  39  42
ATOM     42  C   LIG d   1      -4.744  -3.880  -9.872  0.00  0.00     0.059 C 
ATOM     43  O   LIG d   1      -5.315  -3.478  -8.886  0.00  0.00    -0.548 OA
ATOM     44  O   LIG d   1      -4.934  -3.271 -11.053  0.00  0.00    -0.548 OA
ENDBRANCH  39  42
ENDBRANCH  37  39
ENDBRANCH  32  35
ENDBRANCH  30  32
ENDBRANCH  25  28
ENDBRANCH  24  25
ENDBRANCH   6  24
TORSDOF 7
ENDMDL
MODEL 2
REMARK VINA RESULT:      -7.3      8.239     12.732
REMARK  7 active torsions:
REMARK  status: ('A' for Active; 'I' for Inactive)
REMARK    1  A    between atoms: C_6  and  O_7 
REMARK    2  A    between atoms: O_7  and  C_8 
REMARK    3  A    between atoms: C_8  and  C_9 
REMARK       I    between atoms: C_9  and  N_11 
REMARK    4  A    between atoms: N_11  and  C_12 
REMARK    5  A    between atoms: C_12  and  C_13 
REMARK       I    between atoms: C_13  and  N_15 
REMARK    6  A    between atoms: N_15  and  C_16 
REMARK    7  A    between atoms: C_16  and  C_17 
ROOT
ATOM      1  C   LIG d   1       9.017   0.383  -5.050  0.00  0.00    -0.019 A 
ATOM      2  C   LIG d   1       8.065  -0.538  -4.717  0.00  0.00    -0.047 A 
ATOM      3  C   LIG d   1       6.988  -0.162  -3.906  0.00  0.00     0.021 A 
ATOM      4  C   LIG d   1       6.889   1.162  -3.436  0.00  0.00     0.143 A 
ATOM      5  C   LIG d   1       7.864   2.083  -3.783  0.00  0.00     0.023 A 
ATOM      6  C   LIG d   1       8.923   1.694  -4.587  0.00  0.00     0.125 A 
ATOM      7  O   LIG d   1       5.847   1.517  -2.653  0.00  0.00    -0.422 OA
ATOM      8  C   LIG d   1       4.896   0.637  -2.310  0.00  0.00     0.341 A 
ATOM      9  O   LIG d   1       3.976   1.005  -1.602  0.00  0.00    -0.245 OA
ATOM     10  C   LIG d   1       4.934  -0.709  -2.741  0.00  0.00     0.041 A 
ATOM     11  C   LIG d   1       5.951  -1.127  -3.535  0.00  0.00    -0.027 A 
ATOM     12  C   LIG d   1       5.784  -2.589  -3.877  0.00  0.00    -0.026 C 
ATOM     13  C   LIG d   1       4.308  -2.909  -3.558  0.00  0.00    -0.045 C 
ATOM     14  C   LIG d   1       3.975  -1.851  -2.482  0.00  0.00    -0.020 C 
ATOM     15  H   LIG d   1       9.848   0.093  -5.675  0.00  0.00     0.065 H 
ATOM     16  H   LIG d   1       8.142  -1.552  -5.079  0.00  0.00     0.063 H 
ATOM     17  H   LIG d   1       7.798   3.101  -3.428  0.00  0.00     0.069 H 
ATOM     18  H   LIG d   1       5.987  -2.756  -4.934  0.00  0.00     0.031 H 
ATOM     19  H   LIG d   1       6.446  -3.200  -3.263  0.00  0.00     0.031 H 
ATOM     20  H   LIG d   1       3.681  -2.777  -4.440  0.00  0.00     0.027 H 
ATOM     21  H   LIG d   1       4.206  -3.917  -3.156  0.00  0.00     0.027 H 
ATOM     22  H   LIG d   1       2.944  -1.515  -2.588  0.00  0.00     0.032 H 
ATOM     23  H   LIG d   1       4.140  -2.261  -1.486  0.00  0.00     0.032 H 
ENDROOT
BRANCH   6  24
ATOM     24  O   LIG d   1       9.877   2.598  -4.927  0.00  0.00    -0.483 OA
BRANCH  24  25
ATOM     25  C   LIG d   1       9.655   3.954  -4.536  0.00  0.00     0.165 C 
ATOM     26  H   LIG d   1       9.722   4.600  -5.412  0.00  0.00     0.080 H 
ATOM     27  H   LIG d   1       8.664   4.047  -4.092  0.00  0.00     0.080 H 
BRANCH  25  28
ATOM     28  C   LIG d   1      10.698   4.363  -3.527  0.00  0.00     0.251 C 
ATOM     29  O   LIG d   1      11.829   4.606  -3.890  0.00  0.00    -0.272 OA
ATOM     30  N   LIG d   1      10.373   4.458  -2.222  0.00  0.00    -0.304 N 
ATOM     31  H   LIG d   1       9.468   4.263  -1.933  0.00  0.00     0.149 HD
BRANCH  30  32
ATOM     32  C   LIG d   1      11.387   4.856  -1.242  0.00  0.00     0.088 C 
ATOM     33  H   LIG d   1      11.548   4.042  -0.536  0.00  0.00     0.056 H 
ATOM     34  H   LIG d   1      12.320   5.081  -1.757  0.00  0.00     0.056 H 
BRANCH  32  35
ATOM     35  C   LIG d   1      10.913   6.079  -0.500  0.00  0.00     0.231 C 
ATOM     36  O   LIG d   1      10.430   5.968   0.607  0.00  0.00    -0.274 OA
ATOM     37  N   LIG d   1      11.026   7.297  -1.067  0.00  0.00    -0.309 N 
ATOM     38  H   LIG d   1      11.412   7.386  -1.952  0.00  0.00     0.149 HD
BRANCH  37  39
ATOM     39  C   LIG d   1      10.565   8.486  -0.346  0.00  0.00     0.051 C 
ATOM     40  H   LIG d   1      10.438   8.244   0.710  0.00  0.00     0.052 H 
ATOM     41  H   LIG d   1      11.302   9.283  -0.449  0.00  0.00     0.052 H 
BRANCH  39  42
ATOM     42  C   LIG d   1       9.248   8.942  -0.919  0.00  0.00     0.059 C 
ATOM     43  O   LIG d   1       9.185   9.976  -1.540  0.00  0.00    -0.548 OA
ATOM     44  O   LIG d   1       8.145   8.198  -0.740  0.00  0.00    -0.548 OA
ENDBRANCH  39  42
ENDBRANCH  37  39
ENDBRANCH  32  35
ENDBRANCH  30  32
ENDBRANCH  25  28
ENDBRANCH  24  25
ENDBRANCH   6  24
TORSDOF 7
ENDMDL
MODEL 3
REMARK VINA RESULT:      -7.2      8.220     13.073
REMARK  7 active torsions:
REMARK  status: ('A' for Active; 'I' for Inactive)
REMARK    1  A    between atoms: C_6  and  O_7 
REMARK    2  A    between atoms: O_7  and  C_8 
REMARK    3  A    between atoms: C_8  and  C_9 
REMARK       I    between atoms: C_9  and  N_11 
REMARK    4  A    between atoms: N_11  and  C_12 
REMARK    5  A    between atoms: C_12  and  C_13 
REMARK       I    between atoms: C_13  and  N_15 
REMARK    6  A    between atoms: N_15  and  C_16 
REMARK    7  A    between atoms: C_16  and  C_17 
ROOT
ATOM      1  C   LIG d   1       9.014   0.302  -5.113  0.00  0.00    -0.019 A 
ATOM      2  C   LIG d   1       8.059  -0.597  -4.732  0.00  0.00    -0.047 A 
ATOM      3  C   LIG d   1       7.001  -0.182  -3.915  0.00  0.00     0.021 A 
ATOM      4  C   LIG d   1       6.923   1.157  -3.489  0.00  0.00     0.143 A 
ATOM      5  C   LIG d   1       7.901   2.056  -3.885  0.00  0.00     0.023 A 
ATOM      6  C   LIG d   1       8.941   1.628  -4.694  0.00  0.00     0.125 A 
ATOM      7  O   LIG d   1       5.900   1.551  -2.700  0.00  0.00    -0.422 OA
ATOM      8  C   LIG d   1       4.946   0.693  -2.311  0.00  0.00     0.341 A 
ATOM      9  O   LIG d   1       4.042   1.095  -1.600  0.00  0.00    -0.245 OA
ATOM     10  C   LIG d   1       4.962  -0.667  -2.696  0.00  0.00     0.041 A 
ATOM     11  C   LIG d   1       5.961  -1.123  -3.493  0.00  0.00    -0.027 A 
ATOM     12  C   LIG d   1       5.773  -2.594  -3.781  0.00  0.00    -0.026 C 
ATOM     13  C   LIG d   1       4.299  -2.887  -3.425  0.00  0.00    -0.045 C 
ATOM     14  C   LIG d   1       3.997  -1.790  -2.381  0.00  0.00    -0.020 C 
ATOM     15  H   LIG d   1       9.830  -0.019  -5.742  0.00  0.00     0.065 H 
ATOM     16  H   LIG d   1       8.119  -1.624  -5.060  0.00  0.00     0.063 H 
ATOM     17  H   LIG d   1       7.852   3.086  -3.564  0.00  0.00     0.069 H 
ATOM     18  H   LIG d   1       5.955  -2.799  -4.836  0.00  0.00     0.031 H 
ATOM     19  H   LIG d   1       6.439  -3.191  -3.159  0.00  0.00     0.031 H 
ATOM     20  H   LIG d   1       3.658  -2.778  -4.300  0.00  0.00     0.027 H 
ATOM     21  H   LIG d   1       4.195  -3.880  -2.987  0.00  0.00     0.027 H 
ATOM     22  H   LIG d   1       2.967  -1.446  -2.479  0.00  0.00     0.032 H 
ATOM     23  H   LIG d   1       4.176  -2.167  -1.374  0.00  0.00     0.032 H 
ENDROOT
BRANCH   6  24
ATOM     24  O   LIG d   1       9.899   2.510  -5.081  0.00  0.00    -0.483 OA
BRANCH  24  25
ATOM     25  C   LIG d   1      10.780   2.997  -4.068  0.00  0.00     0.165 C 
ATOM     26  H   LIG d   1      10.531   2.530  -3.115  0.00  0.00     0.080 H 
ATOM     27  H   LIG d   1      11.809   2.754  -4.334  0.00  0.00     0.080 H 
BRANCH  25  28
ATOM     28  C   LIG d   1      10.632   4.492  -3.950  0.00  0.00     0.251 C 
ATOM     29  O   LIG d   1      11.240   5.223  -4.702  0.00  0.00    -0.272 OA
ATOM     30  N   LIG d   1       9.823   5.017  -3.007  0.00  0.00    -0.304 N 
ATOM     31  H   LIG d   1       9.337   4.432  -2.405  0.00  0.00     0.149 HD
BRANCH  30  32
ATOM     32  C   LIG d   1       9.679   6.470  -2.893  0.00  0.00     0.088 C 
ATOM     33  H   LIG d   1      10.474   6.960  -3.456  0.00  0.00     0.056 H 
ATOM     34  H   LIG d   1       8.712   6.772  -3.293  0.00  0.00     0.056 H 
BRANCH  32  35
ATOM     35  C   LIG d   1       9.772   6.870  -1.443  0.00  0.00     0.231 C 
ATOM     36  O   LIG d   1       8.885   7.524  -0.935  0.00  0.00    -0.274 OA
ATOM     37  N   LIG d   1      10.842   6.502  -0.710  0.00  0.00    -0.309 N 
ATOM     38  H   LIG d   1      11.551   5.980  -1.115  0.00  0.00     0.149 HD
BRANCH  37  39
ATOM     39  C   LIG d   1      10.933   6.891   0.700  0.00  0.00     0.051 C 
ATOM     40  H   LIG d   1       9.930   7.033   1.103  0.00  0.00     0.052 H 
ATOM     41  H   LIG d   1      11.443   6.108   1.261  0.00  0.00     0.052 H 
BRANCH  39  42
ATOM     42  C   LIG d   1      11.708   8.178   0.816  0.00  0.00     0.059 C 
ATOM     43  O   LIG d   1      11.127   9.218   1.019  0.00  0.00    -0.548 OA
ATOM     44  O   LIG d   1      13.045   8.170   0.696  0.00  0.00    -0.548 OA
ENDBRANCH  39  42
ENDBRANCH  37  39
ENDBRANCH  32  35
ENDBRANCH  30  32
ENDBRANCH  25  28
ENDBRANCH  24  25
ENDBRANCH   6  24
TORSDOF 7
ENDMDL
MODEL 4
REMARK VINA RESULT:      -7.1      8.111     11.989
REMARK  7 active torsions:
REMARK  status: ('A' for Active; 'I' for Inactive)
REMARK    1  A    between atoms: C_6  and  O_7 
REMARK    2  A    between atoms: O_7  and  C_8 
REMARK    3  A    between atoms: C_8  and  C_9 
REMARK       I    between atoms: C_9  and  N_11 
REMARK    4  A    between atoms: N_11  and  C_12 
REMARK    5  A    between atoms: C_12  and  C_13 
REMARK       I    between atoms: C_13  and  N_15 
REMARK    6  A    between atoms: N_15  and  C_16 
REMARK    7  A    between atoms: C_16  and  C_17 
ROOT
ATOM      1  C   LIG d   1       8.993   0.289  -5.183  0.00  0.00    -0.019 A 
ATOM      2  C   LIG d   1       8.036  -0.593  -4.768  0.00  0.00    -0.047 A 
ATOM      3  C   LIG d   1       7.003  -0.155  -3.932  0.00  0.00     0.021 A 
ATOM      4  C   LIG d   1       6.953   1.190  -3.519  0.00  0.00     0.143 A 
ATOM      5  C   LIG d   1       7.933   2.072  -3.948  0.00  0.00     0.023 A 
ATOM      6  C   LIG d   1       8.948   1.621  -4.777  0.00  0.00     0.125 A 
ATOM      7  O   LIG d   1       5.954   1.606  -2.711  0.00  0.00    -0.422 OA
ATOM      8  C   LIG d   1       4.999   0.765  -2.289  0.00  0.00     0.341 A 
ATOM      9  O   LIG d   1       4.118   1.187  -1.561  0.00  0.00    -0.245 OA
ATOM     10  C   LIG d   1       4.989  -0.599  -2.659  0.00  0.00     0.041 A 
ATOM     11  C   LIG d   1       5.962  -1.077  -3.474  0.00  0.00    -0.027 A 
ATOM     12  C   LIG d   1       5.748  -2.549  -3.741  0.00  0.00    -0.026 C 
ATOM     13  C   LIG d   1       4.280  -2.819  -3.347  0.00  0.00    -0.045 C 
ATOM     14  C   LIG d   1       4.017  -1.705  -2.308  0.00  0.00    -0.020 C 
ATOM     15  H   LIG d   1       9.790  -0.049  -5.828  0.00  0.00     0.065 H 
ATOM     16  H   LIG d   1       8.075  -1.623  -5.086  0.00  0.00     0.063 H 
ATOM     17  H   LIG d   1       7.905   3.105  -3.638  0.00  0.00     0.069 H 
ATOM     18  H   LIG d   1       5.902  -2.768  -4.797  0.00  0.00     0.031 H 
ATOM     19  H   LIG d   1       6.422  -3.147  -3.128  0.00  0.00     0.031 H 
ATOM     20  H   LIG d   1       3.619  -2.711  -4.207  0.00  0.00     0.027 H 
ATOM     21  H   LIG d   1       4.173  -3.804  -2.895  0.00  0.00     0.027 H 
ATOM     22  H   LIG d   1       2.989  -1.349  -2.386  0.00  0.00     0.032 H 
ATOM     23  H   LIG d   1       4.215  -2.074  -1.301  0.00  0.00     0.032 H 
ENDROOT
BRANCH   6  24
ATOM     24  O   LIG d   1       9.907   2.486  -5.197  0.00  0.00    -0.483 OA
BRANCH  24  25
ATOM     25  C   LIG d   1       9.900   2.839  -6.582  0.00  0.00     0.165 C 
ATOM     26  H   LIG d   1      10.780   2.417  -7.069  0.00  0.00     0.080 H 
ATOM     27  H   LIG d   1       9.000   2.444  -7.054  0.00  0.00     0.080 H 
BRANCH  25  28
ATOM     28  C   LIG d   1       9.921   4.340  -6.718  0.00  0.00     0.251 C 
ATOM     29  O   LIG d   1      10.160   4.847  -7.792  0.00  0.00    -0.272 OA
ATOM     30  N   LIG d   1       9.672   5.117  -5.645  0.00  0.00    -0.304 N 
ATOM     31  H   LIG d   1       9.481   4.710  -4.785  0.00  0.00     0.149 HD
BRANCH  30  32
ATOM     32  C   LIG d   1       9.692   6.576  -5.777  0.00  0.00     0.088 C 
ATOM     33  H   LIG d   1      10.284   6.853  -6.650  0.00  0.00     0.056 H 
ATOM     34  H   LIG d   1       8.674   6.943  -5.897  0.00  0.00     0.056 H 
BRANCH  32  35
ATOM     35  C   LIG d   1      10.305   7.183  -4.541  0.00  0.00     0.231 C 
ATOM     36  O   LIG d   1      11.506   7.336  -4.471  0.00  0.00    -0.274 OA
ATOM     37  N   LIG d   1       9.516   7.556  -3.513  0.00  0.00    -0.309 N 
ATOM     38  H   LIG d   1       8.556   7.434  -3.569  0.00  0.00     0.149 HD
BRANCH  37  39
ATOM     39  C   LIG d   1      10.111   8.146  -2.311  0.00  0.00     0.051 C 
ATOM     40  H   LIG d   1      11.170   7.890  -2.267  0.00  0.00     0.052 H 
ATOM     41  H   LIG d   1      10.001   9.230  -2.345  0.00  0.00     0.052 H 
BRANCH  39  42
ATOM     42  C   LIG d   1       9.413   7.608  -1.089  0.00  0.00     0.059 C 
ATOM     43  O   LIG d   1       8.271   7.926  -0.857  0.00  0.00    -0.548 OA
ATOM     44  O   LIG d   1      10.059   6.773  -0.260  0.00  0.00    -0.548 OA
ENDBRANCH  39  42
ENDBRANCH  37  39
ENDBRANCH  32  35
ENDBRANCH  30  32
ENDBRANCH  25  28
ENDBRANCH  24  25
ENDBRANCH   6  24
TORSDOF 7
ENDMDL
MODEL 5
REMARK VINA RESULT:      -6.8      3.253      4.590
REMARK  7 active torsions:
REMARK  status: ('A' for Active; 'I' for Inactive)
REMARK    1  A    between atoms: C_6  and  O_7 
REMARK    2  A    between atoms: O_7  and  C_8 
REMARK    3  A    between atoms: C_8  and  C_9 
REMARK       I    between atoms: C_9  and  N_11 
REMARK    4  A    between atoms: N_11  and  C_12 
REMARK    5  A    between atoms: C_12  and  C_13 
REMARK       I    between atoms: C_13  and  N_15 
REMARK    6  A    between atoms: N_15  and  C_16 
REMARK    7  A    between atoms: C_16  and  C_17 
ROOT
ATOM      1  C   LIG d   1       2.696   0.006  -7.656  0.00  0.00    -0.019 A 
ATOM      2  C   LIG d   1       2.813   0.293  -6.326  0.00  0.00    -0.047 A 
ATOM      3  C   LIG d   1       3.746  -0.398  -5.545  0.00  0.00     0.021 A 
ATOM      4  C   LIG d   1       4.560  -1.386  -6.131  0.00  0.00     0.143 A 
ATOM      5  C   LIG d   1       4.427  -1.666  -7.482  0.00  0.00     0.023 A 
ATOM      6  C   LIG d   1       3.499  -0.972  -8.240  0.00  0.00     0.125 A 
ATOM      7  O   LIG d   1       5.458  -2.051  -5.371  0.00  0.00    -0.422 OA
ATOM      8  C   LIG d   1       5.599  -1.789  -4.064  0.00  0.00     0.341 A 
ATOM      9  O   LIG d   1       6.423  -2.414  -3.420  0.00  0.00    -0.245 OA
ATOM     10  C   LIG d   1       4.812  -0.814  -3.408  0.00  0.00     0.041 A 
ATOM     11  C   LIG d   1       3.896  -0.108  -4.118  0.00  0.00    -0.027 A 
ATOM     12  C   LIG d   1       3.183   0.877  -3.221  0.00  0.00    -0.026 C 
ATOM     13  C   LIG d   1       4.077   0.999  -1.968  0.00  0.00    -0.045 C 
ATOM     14  C   LIG d   1       4.811  -0.361  -1.964  0.00  0.00    -0.020 C 
ATOM     15  H   LIG d   1       1.976   0.539  -8.258  0.00  0.00     0.065 H 
ATOM     16  H   LIG d   1       2.190   1.053  -5.879  0.00  0.00     0.063 H 
ATOM     17  H   LIG d   1       5.046  -2.423  -7.941  0.00  0.00     0.069 H 
ATOM     18  H   LIG d   1       3.093   1.843  -3.717  0.00  0.00     0.031 H 
ATOM     19  H   LIG d   1       2.198   0.498  -2.949  0.00  0.00     0.031 H 
ATOM     20  H   LIG d   1       4.784   1.822  -2.073  0.00  0.00     0.027 H 
ATOM     21  H   LIG d   1       3.473   1.117  -1.069  0.00  0.00     0.027 H 
ATOM     22  H   LIG d   1       5.832  -0.239  -1.602  0.00  0.00     0.032 H 
ATOM     23  H   LIG d   1       4.272  -1.079  -1.346  0.00  0.00     0.032 H 
ENDROOT
BRANCH   6  24
ATOM     24  O   LIG d   1       3.370  -1.246  -9.563  0.00  0.00    -0.483 OA
BRANCH  24  25
ATOM     25  C   LIG d   1       2.100  -1.730 -10.005  0.00  0.00     0.165 C 
ATOM     26  H   LIG d   1       1.374  -1.634  -9.197  0.00  0.00     0.080 H 
ATOM     27  H   LIG d   1       1.767  -1.146 -10.863  0.00  0.00     0.080 H 
BRANCH  25  28
ATOM     28  C   LIG d   1       2.224  -3.179 -10.400  0.00  0.00     0.251 C 
ATOM     29  O   LIG d   1       2.300  -3.483 -11.571  0.00  0.00    -0.272 OA
ATOM     30  N   LIG d   1       2.249  -4.137  -9.452  0.00  0.00    -0.304 N 
ATOM     31  H   LIG d   1       2.187  -3.893  -8.515  0.00  0.00     0.149 HD
BRANCH  30  32
ATOM     32  C   LIG d   1       2.370  -5.545  -9.837  0.00  0.00     0.088 C 
ATOM     33  H   LIG d   1       1.432  -6.060  -9.627  0.00  0.00     0.056 H 
ATOM     34  H   LIG d   1       2.592  -5.613 -10.901  0.00  0.00     0.056 H 
BRANCH  32  35
ATOM     35  C   LIG d   1       3.482  -6.187  -9.048  0.00  0.00     0.231 C 
ATOM     36  O   LIG d   1       3.976  -7.227  -9.430  0.00  0.00    -0.274 OA
ATOM     37  N   LIG d   1       3.928  -5.604  -7.916  0.00  0.00    -0.309 N 
ATOM     38  H   LIG d   1       3.533  -4.773  -7.611  0.00  0.00     0.149 HD
BRANCH  37  39
ATOM     39  C   LIG d   1       5.009  -6.228  -7.149  0.00  0.00     0.051 C 
ATOM     40  H   LIG d   1       5.261  -7.191  -7.593  0.00  0.00     0.052 H 
ATOM     41  H   LIG d   1       5.886  -5.581  -7.163  0.00  0.00     0.052 H 
BRANCH  39  42
ATOM     42  C   LIG d   1       4.560  -6.434  -5.725  0.00  0.00     0.059 C 
ATOM     43  O   LIG d   1       4.092  -5.512  -5.100  0.00  0.00    -0.548 OA
ATOM     44  O   LIG d   1       4.678  -7.642  -5.152  0.00  0.00    -0.548 OA
ENDBRANCH  39  42
ENDBRANCH  37  39
ENDBRANCH  32  35
ENDBRANCH  30  32
ENDBRANCH  25  28
ENDBRANCH  24  25
ENDBRANCH   6  24
TORSDOF 7
ENDMDL
MODEL 6
REMARK VINA RESULT:      -6.7      1.524      2.109
REMARK  7 active torsions:
REMARK  status: ('A' for Active; 'I' for Inactive)
REMARK    1  A    between atoms: C_6  and  O_7 
REMARK    2  A    between atoms: O_7  and  C_8 
REMARK    3  A    between atoms: C_8  and  C_9 
REMARK       I    between atoms: C_9  and  N_11 
REMARK    4  A    between atoms: N_11  and  C_12 
REMARK    5  A    between atoms: C_12  and  C_13 
REMARK       I    between atoms: C_13  and  N_15 
REMARK    6  A    between atoms: N_15  and  C_16 
REMARK    7  A    between atoms: C_16  and  C_17 
ROOT
ATOM      1  C   LIG d   1       2.539   0.139  -7.457  0.00  0.00    -0.019 A 
ATOM      2  C   LIG d   1       2.742   0.419  -6.136  0.00  0.00    -0.047 A 
ATOM      3  C   LIG d   1       3.701  -0.299  -5.413  0.00  0.00     0.021 A 
ATOM      4  C   LIG d   1       4.453  -1.307  -6.048  0.00  0.00     0.143 A 
ATOM      5  C   LIG d   1       4.232  -1.578  -7.389  0.00  0.00     0.023 A 
ATOM      6  C   LIG d   1       3.279  -0.857  -8.089  0.00  0.00     0.125 A 
ATOM      7  O   LIG d   1       5.376  -1.997  -5.345  0.00  0.00    -0.422 OA
ATOM      8  C   LIG d   1       5.601  -1.745  -4.047  0.00  0.00     0.341 A 
ATOM      9  O   LIG d   1       6.445  -2.394  -3.455  0.00  0.00    -0.245 OA
ATOM     10  C   LIG d   1       4.881  -0.752  -3.344  0.00  0.00     0.041 A 
ATOM     11  C   LIG d   1       3.943  -0.020  -3.996  0.00  0.00    -0.027 A 
ATOM     12  C   LIG d   1       3.311   0.981  -3.057  0.00  0.00    -0.026 C 
ATOM     13  C   LIG d   1       4.280   1.074  -1.859  0.00  0.00    -0.045 C 
ATOM     14  C   LIG d   1       4.977  -0.304  -1.901  0.00  0.00    -0.020 C 
ATOM     15  H   LIG d   1       1.798   0.693  -8.014  0.00  0.00     0.065 H 
ATOM     16  H   LIG d   1       2.166   1.192  -5.650  0.00  0.00     0.063 H 
ATOM     17  H   LIG d   1       4.803  -2.349  -7.886  0.00  0.00     0.069 H 
ATOM     18  H   LIG d   1       3.217   1.951  -3.545  0.00  0.00     0.031 H 
ATOM     19  H   LIG d   1       2.334   0.627  -2.728  0.00  0.00     0.031 H 
ATOM     20  H   LIG d   1       5.001   1.879  -2.003  0.00  0.00     0.027 H 
ATOM     21  H   LIG d   1       3.733   1.205  -0.925  0.00  0.00     0.027 H 
ATOM     22  H   LIG d   1       6.020  -0.211  -1.600  0.00  0.00     0.032 H 
ATOM     23  H   LIG d   1       4.457  -1.010  -1.254  0.00  0.00     0.032 H 
ENDROOT
BRANCH   6  24
ATOM     24  O   LIG d   1       3.065  -1.123  -9.403  0.00  0.00    -0.483 OA
BRANCH  24  25
ATOM     25  C   LIG d   1       1.707  -1.154  -9.846  0.00  0.00     0.165 C 
ATOM     26  H   LIG d   1       1.043  -1.045  -8.988  0.00  0.00     0.080 H 
ATOM     27  H   LIG d   1       1.533  -0.335 -10.545  0.00  0.00     0.080 H 
BRANCH  25  28
ATOM     28  C   LIG d   1       1.432  -2.467 -10.533  0.00  0.00     0.251 C 
ATOM     29  O   LIG d   1       2.113  -3.437 -10.280  0.00  0.00    -0.272 OA
ATOM     30  N   LIG d   1       0.428  -2.562 -11.428  0.00  0.00    -0.304 N 
ATOM     31  H   LIG d   1      -0.116  -1.785 -11.630  0.00  0.00     0.149 HD
BRANCH  30  32
ATOM     32  C   LIG d   1       0.161  -3.839 -12.095  0.00  0.00     0.088 C 
ATOM     33  H   LIG d   1      -0.123  -3.655 -13.131  0.00  0.00     0.056 H 
ATOM     34  H   LIG d   1       1.058  -4.457 -12.068  0.00  0.00     0.056 H 
BRANCH  32  35
ATOM     35  C   LIG d   1      -0.963  -4.549 -11.385  0.00  0.00     0.231 C 
ATOM     36  O   LIG d   1      -2.021  -4.727 -11.949  0.00  0.00    -0.274 OA
ATOM     37  N   LIG d   1      -0.790  -4.988 -10.121  0.00  0.00    -0.309 N 
ATOM     38  H   LIG d   1       0.056  -4.846  -9.670  0.00  0.00     0.149 HD
BRANCH  37  39
ATOM     39  C   LIG d   1      -1.882  -5.678  -9.431  0.00  0.00     0.051 C 
ATOM     40  H   LIG d   1      -1.949  -5.317  -8.404  0.00  0.00     0.052 H 
ATOM     41  H   LIG d   1      -2.821  -5.481  -9.947  0.00  0.00     0.052 H 
BRANCH  39  42
ATOM     42  C   LIG d   1      -1.614  -7.161  -9.425  0.00  0.00     0.059 C 
ATOM     43  O   LIG d   1      -2.529  -7.940  -9.302  0.00  0.00    -0.548 OA
ATOM     44  O   LIG d   1      -0.359  -7.617  -9.557  0.00  0.00    -0.548 OA
ENDBRANCH  39  42
ENDBRANCH  37  39
ENDBRANCH  32  35
ENDBRANCH  30  32
ENDBRANCH  25  28
ENDBRANCH  24  25
ENDBRANCH   6  24
TORSDOF 7
ENDMDL
MODEL 7
REMARK VINA RESULT:      -6.7      7.878     10.999
REMARK  7 active torsions:
REMARK  status: ('A' for Active; 'I' for Inactive)
REMARK    1  A    between atoms: C_6  and  O_7 
REMARK    2  A    between atoms: O_7  and  C_8 
REMARK    3  A    between atoms: C_8  and  C_9 
REMARK       I    between atoms: C_9  and  N_11 
REMARK    4  A    between atoms: N_11  and  C_12 
REMARK    5  A    between atoms: C_12  and  C_13 
REMARK       I    between atoms: C_13  and  N_15 
REMARK    6  A    between atoms: N_15  and  C_16 
REMARK    7  A    between atoms: C_16  and  C_17 
ROOT
ATOM      1  C   LIG d   1       9.725   6.296  -3.914  0.00  0.00    -0.019 A 
ATOM      2  C   LIG d   1       9.927   7.411  -3.152  0.00  0.00    -0.047 A 
ATOM      3  C   LIG d   1      10.315   7.276  -1.814  0.00  0.00     0.021 A 
ATOM      4  C   LIG d   1      10.495   5.996  -1.258  0.00  0.00     0.143 A 
ATOM      5  C   LIG d   1      10.285   4.875  -2.046  0.00  0.00     0.023 A 
ATOM      6  C   LIG d   1       9.902   5.027  -3.369  0.00  0.00     0.125 A 
ATOM      7  O   LIG d   1      10.869   5.873   0.034  0.00  0.00    -0.422 OA
ATOM      8  C   LIG d   1      11.077   6.948   0.808  0.00  0.00     0.341 A 
ATOM      9  O   LIG d   1      11.414   6.786   1.967  0.00  0.00    -0.245 OA
ATOM     10  C   LIG d   1      10.911   8.264   0.319  0.00  0.00     0.041 A 
ATOM     11  C   LIG d   1      10.542   8.454  -0.973  0.00  0.00    -0.027 A 
ATOM     12  C   LIG d   1      10.433   9.930  -1.276  0.00  0.00    -0.026 C 
ATOM     13  C   LIG d   1      11.205  10.631  -0.138  0.00  0.00    -0.045 C 
ATOM     14  C   LIG d   1      11.097   9.599   1.007  0.00  0.00    -0.020 C 
ATOM     15  H   LIG d   1       9.425   6.400  -4.946  0.00  0.00     0.065 H 
ATOM     16  H   LIG d   1       9.790   8.393  -3.579  0.00  0.00     0.063 H 
ATOM     17  H   LIG d   1      10.420   3.888  -1.630  0.00  0.00     0.069 H 
ATOM     18  H   LIG d   1      10.893  10.153  -2.239  0.00  0.00     0.031 H 
ATOM     19  H   LIG d   1       9.389  10.241  -1.275  0.00  0.00     0.031 H 
ATOM     20  H   LIG d   1      12.246  10.795  -0.416  0.00  0.00     0.027 H 
ATOM     21  H   LIG d   1      10.724  11.569   0.138  0.00  0.00     0.027 H 
ATOM     22  H   LIG d   1      12.010   9.597   1.602  0.00  0.00     0.032 H 
ATOM     23  H   LIG d   1      10.234   9.821   1.636  0.00  0.00     0.032 H 
ENDROOT
BRANCH   6  24
ATOM     24  O   LIG d   1       9.697   3.928  -4.140  0.00  0.00    -0.483 OA
BRANCH  24  25
ATOM     25  C   LIG d   1       9.582   2.674  -3.465  0.00  0.00     0.165 C 
ATOM     26  H   LIG d   1      10.532   2.142  -3.522  0.00  0.00     0.080 H 
ATOM     27  H   LIG d   1       9.324   2.845  -2.420  0.00  0.00     0.080 H 
BRANCH  25  28
ATOM     28  C   LIG d   1       8.503   1.849  -4.119  0.00  0.00     0.251 C 
ATOM     29  O   LIG d   1       7.752   2.360  -4.922  0.00  0.00    -0.272 OA
ATOM     30  N   LIG d   1       8.375   0.542  -3.812  0.00  0.00    -0.304 N 
ATOM     31  H   LIG d   1       8.976   0.134  -3.169  0.00  0.00     0.149 HD
BRANCH  30  32
ATOM     32  C   LIG d   1       7.327  -0.260  -4.448  0.00  0.00     0.088 C 
ATOM     33  H   LIG d   1       7.105   0.148  -5.434  0.00  0.00     0.056 H 
ATOM     34  H   LIG d   1       7.669  -1.290  -4.548  0.00  0.00     0.056 H 
BRANCH  32  35
ATOM     35  C   LIG d   1       6.082  -0.223  -3.598  0.00  0.00     0.231 C 
ATOM     36  O   LIG d   1       5.824  -1.149  -2.859  0.00  0.00    -0.274 OA
ATOM     37  N   LIG d   1       5.256   0.841  -3.661  0.00  0.00    -0.309 N 
ATOM     38  H   LIG d   1       5.462   1.581  -4.252  0.00  0.00     0.149 HD
BRANCH  37  39
ATOM     39  C   LIG d   1       4.046   0.877  -2.836  0.00  0.00     0.051 C 
ATOM     40  H   LIG d   1       4.232   0.361  -1.894  0.00  0.00     0.052 H 
ATOM     41  H   LIG d   1       3.773   1.913  -2.635  0.00  0.00     0.052 H 
BRANCH  39  42
ATOM     42  C   LIG d   1       2.919   0.194  -3.568  0.00  0.00     0.059 C 
ATOM     43  O   LIG d   1       2.507   0.653  -4.607  0.00  0.00    -0.548 OA
ATOM     44  O   LIG d   1       2.373  -0.925  -3.066  0.00  0.00    -0.548 OA
ENDBRANCH  39  42
ENDBRANCH  37  39
ENDBRANCH  32  35
ENDBRANCH  30  32
ENDBRANCH  25  28
ENDBRANCH  24  25
ENDBRANCH   6  24
TORSDOF 7
ENDMDL
MODEL 8
REMARK VINA RESULT:      -6.7      1.892      2.586
REMARK  7 active torsions:
REMARK  status: ('A' for Active; 'I' for Inactive)
REMARK    1  A    between atoms: C_6  and  O_7 
REMARK    2  A    between atoms: O_7  and  C_8 
REMARK    3  A    between atoms: C_8  and  C_9 
REMARK       I    between atoms: C_9  and  N_11 
REMARK    4  A    between atoms: N_11  and  C_12 
REMARK    5  A    between atoms: C_12  and  C_13 
REMARK       I    between atoms: C_13  and  N_15 
REMARK    6  A    between atoms: N_15  and  C_16 
REMARK    7  A    between atoms: C_16  and  C_17 
ROOT
ATOM      1  C   LIG d   1       4.228  -2.263  -7.623  0.00  0.00    -0.019 A 
ATOM      2  C   LIG d   1       4.466  -2.213  -6.279  0.00  0.00    -0.047 A 
ATOM      3  C   LIG d   1       4.077  -1.087  -5.546  0.00  0.00     0.021 A 
ATOM      4  C   LIG d   1       3.444  -0.009  -6.193  0.00  0.00     0.143 A 
ATOM      5  C   LIG d   1       3.211  -0.075  -7.558  0.00  0.00     0.023 A 
ATOM      6  C   LIG d   1       3.602  -1.198  -8.268  0.00  0.00     0.125 A 
ATOM      7  O   LIG d   1       3.072   1.076  -5.479  0.00  0.00    -0.422 OA
ATOM      8  C   LIG d   1       3.290   1.154  -4.159  0.00  0.00     0.341 A 
ATOM      9  O   LIG d   1       2.936   2.153  -3.558  0.00  0.00    -0.245 OA
ATOM     10  C   LIG d   1       3.925   0.112  -3.444  0.00  0.00     0.041 A 
ATOM     11  C   LIG d   1       4.317  -1.007  -4.103  0.00  0.00    -0.027 A 
ATOM     12  C   LIG d   1       4.961  -1.982  -3.146  0.00  0.00    -0.026 C 
ATOM     13  C   LIG d   1       4.522  -1.514  -1.741  0.00  0.00    -0.045 C 
ATOM     14  C   LIG d   1       4.258  -0.009  -1.973  0.00  0.00    -0.020 C 
ATOM     15  H   LIG d   1       4.529  -3.131  -8.188  0.00  0.00     0.065 H 
ATOM     16  H   LIG d   1       4.951  -3.041  -5.784  0.00  0.00     0.063 H 
ATOM     17  H   LIG d   1       2.726   0.746  -8.065  0.00  0.00     0.069 H 
ATOM     18  H   LIG d   1       4.601  -2.993  -3.337  0.00  0.00     0.031 H 
ATOM     19  H   LIG d   1       6.046  -1.943  -3.237  0.00  0.00     0.031 H 
ATOM     20  H   LIG d   1       3.612  -2.024  -1.427  0.00  0.00     0.027 H 
ATOM     21  H   LIG d   1       5.321  -1.661  -1.015  0.00  0.00     0.027 H 
ATOM     22  H   LIG d   1       3.419   0.326  -1.363  0.00  0.00     0.032 H 
ATOM     23  H   LIG d   1       5.151   0.571  -1.741  0.00  0.00     0.032 H 
ENDROOT
BRANCH   6  24
ATOM     24  O   LIG d   1       3.373  -1.263  -9.605  0.00  0.00    -0.483 OA
BRANCH  24  25
ATOM     25  C   LIG d   1       2.207  -0.598 -10.096  0.00  0.00     0.165 C 
ATOM     26  H   LIG d   1       1.466  -0.529  -9.299  0.00  0.00     0.080 H 
ATOM     27  H   LIG d   1       2.473   0.404 -10.431  0.00  0.00     0.080 H 
BRANCH  25  28
ATOM     28  C   LIG d   1       1.632  -1.379 -11.250  0.00  0.00     0.251 C 
ATOM     29  O   LIG d   1       1.978  -1.126 -12.384  0.00  0.00    -0.272 OA
ATOM     30  N   LIG d   1       0.734  -2.358 -11.022  0.00  0.00    -0.304 N 
ATOM     31  H   LIG d   1       0.458  -2.560 -10.113  0.00  0.00     0.149 HD
BRANCH  30  32
ATOM     32  C   LIG d   1       0.176  -3.116 -12.144  0.00  0.00     0.088 C 
ATOM     33  H   LIG d   1      -0.571  -2.510 -12.657  0.00  0.00     0.056 H 
ATOM     34  H   LIG d   1       0.974  -3.375 -12.839  0.00  0.00     0.056 H 
BRANCH  32  35
ATOM     35  C   LIG d   1      -0.470  -4.376 -11.626  0.00  0.00     0.231 C 
ATOM     36  O   LIG d   1      -0.723  -5.285 -12.387  0.00  0.00    -0.274 OA
ATOM     37  N   LIG d   1      -0.766  -4.491 -10.316  0.00  0.00    -0.309 N 
ATOM     38  H   LIG d   1      -0.564  -3.763  -9.707  0.00  0.00     0.149 HD
BRANCH  37  39
ATOM     39  C   LIG d   1      -1.395  -5.714  -9.812  0.00  0.00     0.051 C 
ATOM     40  H   LIG d   1      -1.320  -6.498 -10.566  0.00  0.00     0.052 H 
ATOM     41  H   LIG d   1      -0.887  -6.036  -8.903  0.00  0.00     0.052 H 
BRANCH  39  42
ATOM     42  C   LIG d   1      -2.846  -5.445  -9.509  0.00  0.00     0.059 C 
ATOM     43  O   LIG d   1      -3.394  -6.034  -8.607  0.00  0.00    -0.548 OA
ATOM     44  O   LIG d   1      -3.530  -4.550 -10.239  0.00  0.00    -0.548 OA
ENDBRANCH  39  42
ENDBRANCH  37  39
ENDBRANCH  32  35
ENDBRANCH  30  32
ENDBRANCH  25  28
ENDBRANCH  24  25
ENDBRANCH   6  24
TORSDOF 7
ENDMDL
MODEL 9
REMARK VINA RESULT:      -6.3      8.098     11.193
REMARK  7 active torsions:
REMARK  status: ('A' for Active; 'I' for Inactive)
REMARK    1  A    between atoms: C_6  and  O_7 
REMARK    2  A    between atoms: O_7  and  C_8 
REMARK    3  A    between atoms: C_8  and  C_9 
REMARK       I    between atoms: C_9  and  N_11 
REMARK    4  A    between atoms: N_11  and  C_12 
REMARK    5  A    between atoms: C_12  and  C_13 
REMARK       I    between atoms: C_13  and  N_15 
REMARK    6  A    between atoms: N_15  and  C_16 
REMARK    7  A    between atoms: C_16  and  C_17 
ROOT
ATOM      1  C   LIG d   1       8.969   0.357  -5.167  0.00  0.00    -0.019 A 
ATOM      2  C   LIG d   1       8.025  -0.547  -4.772  0.00  0.00    -0.047 A 
ATOM      3  C   LIG d   1       6.982  -0.141  -3.933  0.00  0.00     0.021 A 
ATOM      4  C   LIG d   1       6.909   1.196  -3.497  0.00  0.00     0.143 A 
ATOM      5  C   LIG d   1       7.876   2.100  -3.907  0.00  0.00     0.023 A 
ATOM      6  C   LIG d   1       8.901   1.681  -4.739  0.00  0.00     0.125 A 
ATOM      7  O   LIG d   1       5.900   1.582  -2.686  0.00  0.00    -0.422 OA
ATOM      8  C   LIG d   1       4.957   0.719  -2.283  0.00  0.00     0.341 A 
ATOM      9  O   LIG d   1       4.067   1.114  -1.551  0.00  0.00    -0.245 OA
ATOM     10  C   LIG d   1       4.970  -0.639  -2.676  0.00  0.00     0.041 A 
ATOM     11  C   LIG d   1       5.954  -1.087  -3.495  0.00  0.00    -0.027 A 
ATOM     12  C   LIG d   1       5.765  -2.557  -3.788  0.00  0.00    -0.026 C 
ATOM     13  C   LIG d   1       4.300  -2.858  -3.404  0.00  0.00    -0.045 C 
ATOM     14  C   LIG d   1       4.015  -1.767  -2.348  0.00  0.00    -0.020 C 
ATOM     15  H   LIG d   1       9.774   0.042  -5.815  0.00  0.00     0.065 H 
ATOM     16  H   LIG d   1       8.082  -1.572  -5.107  0.00  0.00     0.063 H 
ATOM     17  H   LIG d   1       7.830   3.128  -3.579  0.00  0.00     0.069 H 
ATOM     18  H   LIG d   1       5.927  -2.756  -4.847  0.00  0.00     0.031 H 
ATOM     19  H   LIG d   1       6.446  -3.155  -3.182  0.00  0.00     0.031 H 
ATOM     20  H   LIG d   1       3.641  -2.746  -4.265  0.00  0.00     0.027 H 
ATOM     21  H   LIG d   1       4.207  -3.853  -2.970  0.00  0.00     0.027 H 
ATOM     22  H   LIG d   1       2.982  -1.426  -2.424  0.00  0.00     0.032 H 
ATOM     23  H   LIG d   1       4.215  -2.149  -1.347  0.00  0.00     0.032 H 
ENDROOT
BRANCH   6  24
ATOM     24  O   LIG d   1       9.848   2.567  -5.141  0.00  0.00    -0.483 OA
BRANCH  24  25
ATOM     25  C   LIG d   1       9.990   3.759  -4.366  0.00  0.00     0.165 C 
ATOM     26  H   LIG d   1       9.291   3.735  -3.530  0.00  0.00     0.080 H 
ATOM     27  H   LIG d   1      11.010   3.825  -3.985  0.00  0.00     0.080 H 
BRANCH  25  28
ATOM     28  C   LIG d   1       9.699   4.959  -5.230  0.00  0.00     0.251 C 
ATOM     29  O   LIG d   1       9.027   5.870  -4.796  0.00  0.00    -0.272 OA
ATOM     30  N   LIG d   1      10.185   5.019  -6.487  0.00  0.00    -0.304 N 
ATOM     31  H   LIG d   1      10.723   4.289  -6.833  0.00  0.00     0.149 HD
BRANCH  30  32
ATOM     32  C   LIG d   1       9.902   6.185  -7.326  0.00  0.00     0.088 C 
ATOM     33  H   LIG d   1       8.849   6.452  -7.234  0.00  0.00     0.056 H 
ATOM     34  H   LIG d   1      10.519   7.023  -7.004  0.00  0.00     0.056 H 
BRANCH  32  35
ATOM     35  C   LIG d   1      10.212   5.855  -8.764  0.00  0.00     0.231 C 
ATOM     36  O   LIG d   1      10.190   4.702  -9.140  0.00  0.00    -0.274 OA
ATOM     37  N   LIG d   1      10.515   6.842  -9.631  0.00  0.00    -0.309 N 
ATOM     38  H   LIG d   1      10.534   7.763  -9.330  0.00  0.00     0.149 HD
BRANCH  37  39
ATOM     39  C   LIG d   1      10.818   6.522 -11.028  0.00  0.00     0.051 C 
ATOM     40  H   LIG d   1      11.679   7.104 -11.357  0.00  0.00     0.052 H 
ATOM     41  H   LIG d   1      11.043   5.459 -11.117  0.00  0.00     0.052 H 
BRANCH  39  42
ATOM     42  C   LIG d   1       9.627   6.856 -11.889  0.00  0.00     0.059 C 
ATOM     43  O   LIG d   1       9.571   7.922 -12.456  0.00  0.00    -0.548 OA
ATOM     44  O   LIG d   1       8.628   5.970 -12.027  0.00  0.00    -0.548 OA
ENDBRANCH  39  42
ENDBRANCH  37  39
ENDBRANCH  32  35
ENDBRANCH  30  32
ENDBRANCH  25  28
ENDBRANCH  24  25
ENDBRANCH   6  24
TORSDOF 7
ENDMDL
MODEL 10
REMARK VINA RESULT:      -6.0     10.019     14.576
REMARK  7 active torsions:
REMARK  status: ('A' for Active; 'I' for Inactive)
REMARK    1  A    between atoms: C_6  and  O_7 
REMARK    2  A    between atoms: O_7  and  C_8 
REMARK    3  A    between atoms: C_8  and  C_9 
REMARK       I    between atoms: C_9  and  N_11 
REMARK    4  A    between atoms: N_11  and  C_12 
REMARK    5  A    between atoms: C_12  and  C_13 
REMARK       I    between atoms: C_13  and  N_15 
REMARK    6  A    between atoms: N_15  and  C_16 
REMARK    7  A    between atoms: C_16  and  C_17 
ROOT
ATOM      1  C   LIG d   1      10.774   6.032  -4.606  0.00  0.00    -0.019 A 
ATOM      2  C   LIG d   1      10.287   5.136  -5.515  0.00  0.00    -0.047 A 
ATOM      3  C   LIG d   1       9.617   3.991  -5.071  0.00  0.00     0.021 A 
ATOM      4  C   LIG d   1       9.447   3.764  -3.692  0.00  0.00     0.143 A 
ATOM      5  C   LIG d   1       9.948   4.683  -2.783  0.00  0.00     0.023 A 
ATOM      6  C   LIG d   1      10.608   5.812  -3.240  0.00  0.00     0.125 A 
ATOM      7  O   LIG d   1       8.801   2.656  -3.270  0.00  0.00    -0.422 OA
ATOM      8  C   LIG d   1       8.309   1.759  -4.137  0.00  0.00     0.341 A 
ATOM      9  O   LIG d   1       7.733   0.775  -3.709  0.00  0.00    -0.245 OA
ATOM     10  C   LIG d   1       8.447   1.919  -5.535  0.00  0.00     0.041 A 
ATOM     11  C   LIG d   1       9.082   3.014  -6.022  0.00  0.00    -0.027 A 
ATOM     12  C   LIG d   1       9.105   2.981  -7.532  0.00  0.00    -0.026 C 
ATOM     13  C   LIG d   1       8.023   1.952  -7.927  0.00  0.00    -0.045 C 
ATOM     14  C   LIG d   1       7.970   1.046  -6.676  0.00  0.00    -0.020 C 
ATOM     15  H   LIG d   1      11.291   6.915  -4.949  0.00  0.00     0.065 H 
ATOM     16  H   LIG d   1      10.417   5.312  -6.572  0.00  0.00     0.063 H 
ATOM     17  H   LIG d   1       9.824   4.519  -1.723  0.00  0.00     0.069 H 
ATOM     18  H   LIG d   1       8.859   3.962  -7.937  0.00  0.00     0.031 H 
ATOM     19  H   LIG d   1      10.083   2.658  -7.890  0.00  0.00     0.031 H 
ATOM     20  H   LIG d   1       7.063   2.440  -8.093  0.00  0.00     0.027 H 
ATOM     21  H   LIG d   1       8.328   1.384  -8.805  0.00  0.00     0.027 H 
ATOM     22  H   LIG d   1       6.950   0.707  -6.496  0.00  0.00     0.032 H 
ATOM     23  H   LIG d   1       8.637   0.192  -6.800  0.00  0.00     0.032 H 
ENDROOT
BRANCH   6  24
ATOM     24  O   LIG d   1      11.098   6.712  -2.349  0.00  0.00    -0.483 OA
BRANCH  24  25
ATOM     25  C   LIG d   1      10.575   6.660  -1.021  0.00  0.00     0.165 C 
ATOM     26  H   LIG d   1       9.919   5.794  -0.922  0.00  0.00     0.080 H 
ATOM     27  H   LIG d   1      11.396   6.576  -0.309  0.00  0.00     0.080 H 
BRANCH  25  28
ATOM     28  C   LIG d   1       9.794   7.918  -0.739  0.00  0.00     0.251 C 
ATOM     29  O   LIG d   1       8.585   7.913  -0.831  0.00  0.00    -0.272 OA
ATOM     30  N   LIG d   1      10.439   9.048  -0.385  0.00  0.00    -0.304 N 
ATOM     31  H   LIG d   1      11.406   9.050  -0.312  0.00  0.00     0.149 HD
BRANCH  30  32
ATOM     32  C   LIG d   1       9.679  10.269  -0.111  0.00  0.00     0.088 C 
ATOM     33  H   LIG d   1       8.680  10.006   0.235  0.00  0.00     0.056 H 
ATOM     34  H   LIG d   1      10.189  10.850   0.657  0.00  0.00     0.056 H 
BRANCH  32  35
ATOM     35  C   LIG d   1       9.573  11.087  -1.373  0.00  0.00     0.231 C 
ATOM     36  O   LIG d   1      10.333  12.013  -1.562  0.00  0.00    -0.274 OA
ATOM     37  N   LIG d   1       8.633  10.788  -2.292  0.00  0.00    -0.309 N 
ATOM     38  H   LIG d   1       8.025  10.048  -2.141  0.00  0.00     0.149 HD
BRANCH  37  39
ATOM     39  C   LIG d   1       8.529  11.583  -3.518  0.00  0.00     0.051 C 
ATOM     40  H   LIG d   1       7.479  11.714  -3.779  0.00  0.00     0.052 H 
ATOM     41  H   LIG d   1       8.989  12.559  -3.359  0.00  0.00     0.052 H 
BRANCH  39  42
ATOM     42  C   LIG d   1       9.239  10.870  -4.640  0.00  0.00     0.059 C 
ATOM     43  O   LIG d   1       9.562   9.713  -4.512  0.00  0.00    -0.548 OA
ATOM     44  O   LIG d   1       9.512  11.520  -5.783  0.00  0.00    -0.548 OA
ENDBRANCH  39  42
ENDBRANCH  37  39
ENDBRANCH  32  35
ENDBRANCH  30  32
ENDBRANCH  25  28
ENDBRANCH  24  25
ENDBRANCH   6  24
TORSDOF 7
ENDMDL
