MODEL 1
REMARK VINA RESULT:      -7.1      0.000      0.000
REMARK  3 active torsions:
REMARK  status: ('A' for Active; 'I' for Inactive)
REMARK    1  A    between atoms: C_4  and  C_7 
REMARK    2  A    between atoms: C_7  and  C_8 
REMARK    3  A    between atoms: C_8  and  C_10 
ROOT
ATOM      1  C   LIG d   1       3.600  -0.368  -6.882  0.00  0.00     0.025 A 
ATOM      2  C   LIG d   1       4.817  -0.813  -6.374  0.00  0.00    -0.051 A 
ATOM      3  C   LIG d   1       5.620  -1.667  -7.117  0.00  0.00    -0.060 A 
ATOM      4  C   LIG d   1       5.252  -2.107  -8.352  0.00  0.00    -0.054 A 
ATOM      5  C   LIG d   1       4.034  -1.703  -8.925  0.00  0.00    -0.017 A 
ATOM      6  C   LIG d   1       3.183  -0.828  -8.207  0.00  0.00    -0.007 A 
ATOM      7  C   LIG d   1       1.970  -0.423  -8.774  0.00  0.00    -0.053 A 
ATOM      8  C   LIG d   1       1.621  -0.876 -10.011  0.00  0.00    -0.061 A 
ATOM      9  C   LIG d   1       2.455  -1.737 -10.720  0.00  0.00    -0.061 A 
ATOM     10  C   LIG d   1       3.642  -2.151 -10.198  0.00  0.00    -0.054 A 
ATOM     11  H   LIG d   1       5.141  -0.489  -5.396  0.00  0.00     0.062 H 
ATOM     12  H   LIG d   1       6.562  -1.995  -6.701  0.00  0.00     0.062 H 
ATOM     13  H   LIG d   1       5.904  -2.775  -8.896  0.00  0.00     0.062 H 
ATOM     14  H   LIG d   1       1.315   0.244  -8.234  0.00  0.00     0.062 H 
ATOM     15  H   LIG d   1       0.684  -0.562 -10.449  0.00  0.00     0.062 H 
ATOM     16  H   LIG d   1       2.156  -2.082 -11.699  0.00  0.00     0.062 H 
ATOM     17  H   LIG d   1       4.280  -2.818 -10.759  0.00  0.00     0.062 H 
ENDROOT
BRANCH   1  18
ATOM     18  C   LIG d   1       2.750   0.539  -6.103  0.00  0.00     0.168 C 
ATOM     19  O   LIG d   1       2.669   1.709  -6.411  0.00  0.00    -0.292 OA
BRANCH  18  20
ATOM     20  C   LIG d   1       1.976   0.016  -4.919  0.00  0.00     0.036 C 
ATOM     21  H   LIG d   1       1.231   0.646  -4.703  0.00  0.00     0.039 H 
ATOM     22  H   LIG d   1       1.564  -0.965  -5.160  0.00  0.00     0.039 H 
BRANCH  20  23
ATOM     23  C   LIG d   1       2.896  -0.104  -3.732  0.00  0.00    -0.040 A 
ATOM     24  C   LIG d   1       3.414   1.034  -3.142  0.00  0.00    -0.058 A 
ATOM     25  C   LIG d   1       4.258   0.925  -2.052  0.00  0.00    -0.061 A 
ATOM     26  H   LIG d   1       3.160   2.009  -3.533  0.00  0.00     0.062 H 
ATOM     27  C   LIG d   1       4.584  -0.322  -1.553  0.00  0.00    -0.062 A 
ATOM     28  H   LIG d   1       4.663   1.814  -1.592  0.00  0.00     0.062 H 
ATOM     29  C   LIG d   1       4.065  -1.460  -2.143  0.00  0.00    -0.061 A 
ATOM     30  H   LIG d   1       5.244  -0.407  -0.702  0.00  0.00     0.062 H 
ATOM     31  C   LIG d   1       3.217  -1.351  -3.229  0.00  0.00    -0.058 A 
ATOM     32  H   LIG d   1       4.320  -2.434  -1.753  0.00  0.00     0.062 H 
ATOM     33  H   LIG d   1       2.809  -2.239  -3.687  0.00  0.00     0.062 H 
ENDBRANCH  20  23
ENDBRANCH  18  20
ENDBRANCH   1  18
TORSDOF 3
ENDMDL
MODEL 2
REMARK VINA RESULT:      -7.1      2.433      3.723
REMARK  3 active torsions:
REMARK  status: ('A' for Active; 'I' for Inactive)
REMARK    1  A    between atoms: C_4  and  C_7 
REMARK    2  A    between atoms: C_7  and  C_8 
REMARK    3  A    between atoms: C_8  and  C_10 
ROOT
ATOM      1  C   LIG d   1       5.823  -2.279  -4.494  0.00  0.00     0.025 A 
ATOM      2  C   LIG d   1       7.046  -2.355  -3.833  0.00  0.00    -0.051 A 
ATOM      3  C   LIG d   1       8.135  -1.620  -4.280  0.00  0.00    -0.060 A 
ATOM      4  C   LIG d   1       8.057  -0.812  -5.373  0.00  0.00    -0.054 A 
ATOM      5  C   LIG d   1       6.856  -0.691  -6.092  0.00  0.00    -0.017 A 
ATOM      6  C   LIG d   1       5.716  -1.418  -5.672  0.00  0.00    -0.007 A 
ATOM      7  C   LIG d   1       4.518  -1.300  -6.385  0.00  0.00    -0.053 A 
ATOM      8  C   LIG d   1       4.462  -0.487  -7.477  0.00  0.00    -0.061 A 
ATOM      9  C   LIG d   1       5.581   0.230  -7.894  0.00  0.00    -0.061 A 
ATOM     10  C   LIG d   1       6.762   0.138  -7.224  0.00  0.00    -0.054 A 
ATOM     11  H   LIG d   1       7.147  -2.988  -2.964  0.00  0.00     0.062 H 
ATOM     12  H   LIG d   1       9.071  -1.694  -3.747  0.00  0.00     0.062 H 
ATOM     13  H   LIG d   1       8.928  -0.259  -5.691  0.00  0.00     0.062 H 
ATOM     14  H   LIG d   1       3.643  -1.851  -6.072  0.00  0.00     0.062 H 
ATOM     15  H   LIG d   1       3.536  -0.396  -8.027  0.00  0.00     0.062 H 
ATOM     16  H   LIG d   1       5.511   0.868  -8.762  0.00  0.00     0.062 H 
ATOM     17  H   LIG d   1       7.622   0.700  -7.558  0.00  0.00     0.062 H 
ENDROOT
BRANCH   1  18
ATOM     18  C   LIG d   1       4.667  -3.051  -4.022  0.00  0.00     0.168 C 
ATOM     19  O   LIG d   1       4.295  -4.024  -4.642  0.00  0.00    -0.292 OA
BRANCH  18  20
ATOM     20  C   LIG d   1       3.945  -2.634  -2.767  0.00  0.00     0.036 C 
ATOM     21  H   LIG d   1       3.022  -3.019  -2.770  0.00  0.00     0.039 H 
ATOM     22  H   LIG d   1       4.488  -3.001  -1.896  0.00  0.00     0.039 H 
BRANCH  20  23
ATOM     23  C   LIG d   1       3.863  -1.131  -2.711  0.00  0.00    -0.040 A 
ATOM     24  C   LIG d   1       4.626  -0.432  -1.794  0.00  0.00    -0.058 A 
ATOM     25  C   LIG d   1       4.552   0.948  -1.742  0.00  0.00    -0.061 A 
ATOM     26  H   LIG d   1       5.280  -0.963  -1.117  0.00  0.00     0.062 H 
ATOM     27  C   LIG d   1       3.715   1.628  -2.607  0.00  0.00    -0.062 A 
ATOM     28  H   LIG d   1       5.148   1.494  -1.025  0.00  0.00     0.062 H 
ATOM     29  C   LIG d   1       2.952   0.929  -3.524  0.00  0.00    -0.061 A 
ATOM     30  H   LIG d   1       3.657   2.706  -2.566  0.00  0.00     0.062 H 
ATOM     31  C   LIG d   1       3.031  -0.450  -3.579  0.00  0.00    -0.058 A 
ATOM     32  H   LIG d   1       2.299   1.460  -4.199  0.00  0.00     0.062 H 
ATOM     33  H   LIG d   1       2.438  -0.996  -4.298  0.00  0.00     0.062 H 
ENDBRANCH  20  23
ENDBRANCH  18  20
ENDBRANCH   1  18
TORSDOF 3
ENDMDL
MODEL 3
REMARK VINA RESULT:      -7.1      1.276      2.697
REMARK  3 active torsions:
REMARK  status: ('A' for Active; 'I' for Inactive)
REMARK    1  A    between atoms: C_4  and  C_7 
REMARK    2  A    between atoms: C_7  and  C_8 
REMARK    3  A    between atoms: C_8  and  C_10 
ROOT
ATOM      1  C   LIG d   1       3.169  -0.541  -7.697  0.00  0.00     0.025 A 
ATOM      2  C   LIG d   1       2.377   0.188  -8.579  0.00  0.00    -0.051 A 
ATOM      3  C   LIG d   1       1.916  -0.390  -9.753  0.00  0.00    -0.060 A 
ATOM      4  C   LIG d   1       2.221  -1.674 -10.091  0.00  0.00    -0.054 A 
ATOM      5  C   LIG d   1       3.021  -2.466  -9.251  0.00  0.00    -0.017 A 
ATOM      6  C   LIG d   1       3.512  -1.922  -8.040  0.00  0.00    -0.007 A 
ATOM      7  C   LIG d   1       4.308  -2.708  -7.200  0.00  0.00    -0.053 A 
ATOM      8  C   LIG d   1       4.603  -3.990  -7.558  0.00  0.00    -0.061 A 
ATOM      9  C   LIG d   1       4.122  -4.529  -8.748  0.00  0.00    -0.061 A 
ATOM     10  C   LIG d   1       3.345  -3.792  -9.589  0.00  0.00    -0.054 A 
ATOM     11  H   LIG d   1       2.116   1.210  -8.347  0.00  0.00     0.062 H 
ATOM     12  H   LIG d   1       1.299   0.196 -10.419  0.00  0.00     0.062 H 
ATOM     13  H   LIG d   1       1.845  -2.086 -11.016  0.00  0.00     0.062 H 
ATOM     14  H   LIG d   1       4.687  -2.301  -6.274  0.00  0.00     0.062 H 
ATOM     15  H   LIG d   1       5.217  -4.596  -6.908  0.00  0.00     0.062 H 
ATOM     16  H   LIG d   1       4.370  -5.547  -9.010  0.00  0.00     0.062 H 
ATOM     17  H   LIG d   1       2.979  -4.223 -10.509  0.00  0.00     0.062 H 
ENDROOT
BRANCH   1  18
ATOM     18  C   LIG d   1       3.656   0.064  -6.452  0.00  0.00     0.168 C 
ATOM     19  O   LIG d   1       4.830   0.344  -6.332  0.00  0.00    -0.292 OA
BRANCH  18  20
ATOM     20  C   LIG d   1       2.696   0.338  -5.322  0.00  0.00     0.036 C 
ATOM     21  H   LIG d   1       2.485   1.315  -5.293  0.00  0.00     0.039 H 
ATOM     22  H   LIG d   1       1.777  -0.228  -5.481  0.00  0.00     0.039 H 
BRANCH  20  23
ATOM     23  C   LIG d   1       3.324  -0.081  -4.018  0.00  0.00    -0.040 A 
ATOM     24  C   LIG d   1       3.464  -1.424  -3.719  0.00  0.00    -0.058 A 
ATOM     25  C   LIG d   1       4.041  -1.808  -2.522  0.00  0.00    -0.061 A 
ATOM     26  H   LIG d   1       3.123  -2.172  -4.418  0.00  0.00     0.062 H 
ATOM     27  C   LIG d   1       4.476  -0.851  -1.625  0.00  0.00    -0.062 A 
ATOM     28  H   LIG d   1       4.150  -2.857  -2.288  0.00  0.00     0.062 H 
ATOM     29  C   LIG d   1       4.336   0.492  -1.925  0.00  0.00    -0.061 A 
ATOM     30  H   LIG d   1       4.926  -1.151  -0.690  0.00  0.00     0.062 H 
ATOM     31  C   LIG d   1       3.765   0.876  -3.124  0.00  0.00    -0.058 A 
ATOM     32  H   LIG d   1       4.677   1.239  -1.225  0.00  0.00     0.062 H 
ATOM     33  H   LIG d   1       3.660   1.925  -3.360  0.00  0.00     0.062 H 
ENDBRANCH  20  23
ENDBRANCH  18  20
ENDBRANCH   1  18
TORSDOF 3
ENDMDL
MODEL 4
REMARK VINA RESULT:      -7.0      1.640      2.179
REMARK  3 active torsions:
REMARK  status: ('A' for Active; 'I' for Inactive)
REMARK    1  A    between atoms: C_4  and  C_7 
REMARK    2  A    between atoms: C_7  and  C_8 
REMARK    3  A    between atoms: C_8  and  C_10 
ROOT
ATOM      1  C   LIG d   1       3.699   0.448  -7.998  0.00  0.00     0.025 A 
ATOM      2  C   LIG d   1       4.118   1.744  -8.288  0.00  0.00    -0.051 A 
ATOM      3  C   LIG d   1       4.008   2.247  -9.576  0.00  0.00    -0.060 A 
ATOM      4  C   LIG d   1       3.502   1.503 -10.598  0.00  0.00    -0.054 A 
ATOM      5  C   LIG d   1       3.066   0.186 -10.380  0.00  0.00    -0.017 A 
ATOM      6  C   LIG d   1       3.153  -0.371  -9.081  0.00  0.00    -0.007 A 
ATOM      7  C   LIG d   1       2.718  -1.682  -8.859  0.00  0.00    -0.053 A 
ATOM      8  C   LIG d   1       2.216  -2.409  -9.896  0.00  0.00    -0.061 A 
ATOM      9  C   LIG d   1       2.129  -1.866 -11.176  0.00  0.00    -0.061 A 
ATOM     10  C   LIG d   1       2.543  -0.593 -11.426  0.00  0.00    -0.054 A 
ATOM     11  H   LIG d   1       4.528   2.363  -7.503  0.00  0.00     0.062 H 
ATOM     12  H   LIG d   1       4.337   3.257  -9.773  0.00  0.00     0.062 H 
ATOM     13  H   LIG d   1       3.438   1.931 -11.588  0.00  0.00     0.062 H 
ATOM     14  H   LIG d   1       2.781  -2.115  -7.871  0.00  0.00     0.062 H 
ATOM     15  H   LIG d   1       1.881  -3.422  -9.724  0.00  0.00     0.062 H 
ATOM     16  H   LIG d   1       1.728  -2.462 -11.981  0.00  0.00     0.062 H 
ATOM     17  H   LIG d   1       2.469  -0.184 -12.423  0.00  0.00     0.062 H 
ENDROOT
BRANCH   1  18
ATOM     18  C   LIG d   1       3.808  -0.088  -6.636  0.00  0.00     0.168 C 
ATOM     19  O   LIG d   1       4.770  -0.756  -6.323  0.00  0.00    -0.292 OA
BRANCH  18  20
ATOM     20  C   LIG d   1       2.724   0.193  -5.627  0.00  0.00     0.036 C 
ATOM     21  H   LIG d   1       2.391   1.128  -5.747  0.00  0.00     0.039 H 
ATOM     22  H   LIG d   1       1.901  -0.507  -5.773  0.00  0.00     0.039 H 
BRANCH  20  23
ATOM     23  C   LIG d   1       3.279   0.031  -4.236  0.00  0.00    -0.040 A 
ATOM     24  C   LIG d   1       3.698   1.141  -3.525  0.00  0.00    -0.058 A 
ATOM     25  C   LIG d   1       4.208   0.992  -2.248  0.00  0.00    -0.061 A 
ATOM     26  H   LIG d   1       3.629   2.124  -3.968  0.00  0.00     0.062 H 
ATOM     27  C   LIG d   1       4.298  -0.266  -1.683  0.00  0.00    -0.062 A 
ATOM     28  H   LIG d   1       4.536   1.859  -1.694  0.00  0.00     0.062 H 
ATOM     29  C   LIG d   1       3.879  -1.375  -2.393  0.00  0.00    -0.061 A 
ATOM     30  H   LIG d   1       4.697  -0.382  -0.685  0.00  0.00     0.062 H 
ATOM     31  C   LIG d   1       3.364  -1.226  -3.667  0.00  0.00    -0.058 A 
ATOM     32  H   LIG d   1       3.949  -2.357  -1.950  0.00  0.00     0.062 H 
ATOM     33  H   LIG d   1       3.033  -2.092  -4.220  0.00  0.00     0.062 H 
ENDBRANCH  20  23
ENDBRANCH  18  20
ENDBRANCH   1  18
TORSDOF 3
ENDMDL
MODEL 5
REMARK VINA RESULT:      -6.8      1.609      6.201
REMARK  3 active torsions:
REMARK  status: ('A' for Active; 'I' for Inactive)
REMARK    1  A    between atoms: C_4  and  C_7 
REMARK    2  A    between atoms: C_7  and  C_8 
REMARK    3  A    between atoms: C_8  and  C_10 
ROOT
ATOM      1  C   LIG d   1       4.453  -1.073  -5.842  0.00  0.00     0.025 A 
ATOM      2  C   LIG d   1       4.674  -2.386  -6.251  0.00  0.00    -0.051 A 
ATOM      3  C   LIG d   1       4.809  -3.401  -5.315  0.00  0.00    -0.060 A 
ATOM      4  C   LIG d   1       4.742  -3.159  -3.976  0.00  0.00    -0.054 A 
ATOM      5  C   LIG d   1       4.527  -1.857  -3.492  0.00  0.00    -0.017 A 
ATOM      6  C   LIG d   1       4.378  -0.789  -4.409  0.00  0.00    -0.007 A 
ATOM      7  C   LIG d   1       4.163   0.509  -3.931  0.00  0.00    -0.053 A 
ATOM      8  C   LIG d   1       4.100   0.729  -2.587  0.00  0.00    -0.061 A 
ATOM      9  C   LIG d   1       4.246  -0.319  -1.682  0.00  0.00    -0.061 A 
ATOM     10  C   LIG d   1       4.457  -1.593  -2.113  0.00  0.00    -0.054 A 
ATOM     11  H   LIG d   1       4.737  -2.616  -7.304  0.00  0.00     0.062 H 
ATOM     12  H   LIG d   1       4.976  -4.411  -5.658  0.00  0.00     0.062 H 
ATOM     13  H   LIG d   1       4.856  -3.976  -3.280  0.00  0.00     0.062 H 
ATOM     14  H   LIG d   1       4.048   1.330  -4.623  0.00  0.00     0.062 H 
ATOM     15  H   LIG d   1       3.934   1.731  -2.219  0.00  0.00     0.062 H 
ATOM     16  H   LIG d   1       4.193  -0.119  -0.623  0.00  0.00     0.062 H 
ATOM     17  H   LIG d   1       4.569  -2.397  -1.400  0.00  0.00     0.062 H 
ENDROOT
BRANCH   1  18
ATOM     18  C   LIG d   1       4.304   0.004  -6.829  0.00  0.00     0.168 C 
ATOM     19  O   LIG d   1       5.280   0.610  -7.216  0.00  0.00    -0.292 OA
BRANCH  18  20
ATOM     20  C   LIG d   1       2.938   0.355  -7.360  0.00  0.00     0.036 C 
ATOM     21  H   LIG d   1       2.245  -0.179  -6.876  0.00  0.00     0.039 H 
ATOM     22  H   LIG d   1       2.750   1.418  -7.204  0.00  0.00     0.039 H 
BRANCH  20  23
ATOM     23  C   LIG d   1       2.877   0.045  -8.833  0.00  0.00    -0.040 A 
ATOM     24  C   LIG d   1       2.150  -1.043  -9.280  0.00  0.00    -0.058 A 
ATOM     25  C   LIG d   1       2.093  -1.328 -10.632  0.00  0.00    -0.061 A 
ATOM     26  H   LIG d   1       1.626  -1.670  -8.574  0.00  0.00     0.062 H 
ATOM     27  C   LIG d   1       2.764  -0.525 -11.536  0.00  0.00    -0.062 A 
ATOM     28  H   LIG d   1       1.525  -2.177 -10.981  0.00  0.00     0.062 H 
ATOM     29  C   LIG d   1       3.491   0.563 -11.088  0.00  0.00    -0.061 A 
ATOM     30  H   LIG d   1       2.720  -0.748 -12.592  0.00  0.00     0.062 H 
ATOM     31  C   LIG d   1       3.543   0.850  -9.737  0.00  0.00    -0.058 A 
ATOM     32  H   LIG d   1       4.015   1.189 -11.794  0.00  0.00     0.062 H 
ATOM     33  H   LIG d   1       4.107   1.702  -9.388  0.00  0.00     0.062 H 
ENDBRANCH  20  23
ENDBRANCH  18  20
ENDBRANCH   1  18
TORSDOF 3
ENDMDL
MODEL 6
REMARK VINA RESULT:      -6.8      2.170      3.179
REMARK  3 active torsions:
REMARK  status: ('A' for Active; 'I' for Inactive)
REMARK    1  A    between atoms: C_4  and  C_7 
REMARK    2  A    between atoms: C_7  and  C_8 
REMARK    3  A    between atoms: C_8  and  C_10 
ROOT
ATOM      1  C   LIG d   1       5.377  -2.415  -6.273  0.00  0.00     0.025 A 
ATOM      2  C   LIG d   1       6.263  -2.967  -7.195  0.00  0.00    -0.051 A 
ATOM      3  C   LIG d   1       6.356  -2.449  -8.478  0.00  0.00    -0.060 A 
ATOM      4  C   LIG d   1       5.590  -1.400  -8.888  0.00  0.00    -0.054 A 
ATOM      5  C   LIG d   1       4.670  -0.797  -8.013  0.00  0.00    -0.017 A 
ATOM      6  C   LIG d   1       4.542  -1.288  -6.691  0.00  0.00    -0.007 A 
ATOM      7  C   LIG d   1       3.629  -0.690  -5.816  0.00  0.00    -0.053 A 
ATOM      8  C   LIG d   1       2.871   0.358  -6.247  0.00  0.00    -0.061 A 
ATOM      9  C   LIG d   1       2.994   0.843  -7.546  0.00  0.00    -0.061 A 
ATOM     10  C   LIG d   1       3.872   0.285  -8.423  0.00  0.00    -0.054 A 
ATOM     11  H   LIG d   1       6.884  -3.802  -6.907  0.00  0.00     0.062 H 
ATOM     12  H   LIG d   1       7.054  -2.893  -9.173  0.00  0.00     0.062 H 
ATOM     13  H   LIG d   1       5.690  -1.029  -9.897  0.00  0.00     0.062 H 
ATOM     14  H   LIG d   1       3.525  -1.058  -4.806  0.00  0.00     0.062 H 
ATOM     15  H   LIG d   1       2.166   0.819  -5.571  0.00  0.00     0.062 H 
ATOM     16  H   LIG d   1       2.382   1.674  -7.864  0.00  0.00     0.062 H 
ATOM     17  H   LIG d   1       3.957   0.671  -9.428  0.00  0.00     0.062 H 
ENDROOT
BRANCH   1  18
ATOM     18  C   LIG d   1       5.278  -2.956  -4.912  0.00  0.00     0.168 C 
ATOM     19  O   LIG d   1       4.417  -3.767  -4.644  0.00  0.00    -0.292 OA
BRANCH  18  20
ATOM     20  C   LIG d   1       6.247  -2.504  -3.850  0.00  0.00     0.036 C 
ATOM     21  H   LIG d   1       6.341  -3.220  -3.158  0.00  0.00     0.039 H 
ATOM     22  H   LIG d   1       7.219  -2.309  -4.304  0.00  0.00     0.039 H 
BRANCH  20  23
ATOM     23  C   LIG d   1       5.732  -1.244  -3.204  0.00  0.00    -0.040 A 
ATOM     24  C   LIG d   1       6.304  -0.025  -3.517  0.00  0.00    -0.058 A 
ATOM     25  C   LIG d   1       5.831   1.132  -2.925  0.00  0.00    -0.061 A 
ATOM     26  H   LIG d   1       7.120   0.025  -4.222  0.00  0.00     0.062 H 
ATOM     27  C   LIG d   1       4.787   1.069  -2.020  0.00  0.00    -0.062 A 
ATOM     28  H   LIG d   1       6.278   2.085  -3.169  0.00  0.00     0.062 H 
ATOM     29  C   LIG d   1       4.215  -0.151  -1.709  0.00  0.00    -0.061 A 
ATOM     30  H   LIG d   1       4.418   1.973  -1.558  0.00  0.00     0.062 H 
ATOM     31  C   LIG d   1       4.684  -1.306  -2.305  0.00  0.00    -0.058 A 
ATOM     32  H   LIG d   1       3.400  -0.199  -1.003  0.00  0.00     0.062 H 
ATOM     33  H   LIG d   1       4.235  -2.258  -2.064  0.00  0.00     0.062 H 
ENDBRANCH  20  23
ENDBRANCH  18  20
ENDBRANCH   1  18
TORSDOF 3
ENDMDL
MODEL 7
REMARK VINA RESULT:      -6.7      2.490      5.935
REMARK  3 active torsions:
REMARK  status: ('A' for Active; 'I' for Inactive)
REMARK    1  A    between atoms: C_4  and  C_7 
REMARK    2  A    between atoms: C_7  and  C_8 
REMARK    3  A    between atoms: C_8  and  C_10 
ROOT
ATOM      1  C   LIG d   1       5.934  -0.466  -5.571  0.00  0.00     0.025 A 
ATOM      2  C   LIG d   1       7.152   0.185  -5.742  0.00  0.00    -0.051 A 
ATOM      3  C   LIG d   1       7.633   1.046  -4.766  0.00  0.00    -0.060 A 
ATOM      4  C   LIG d   1       6.940   1.292  -3.619  0.00  0.00    -0.054 A 
ATOM      5  C   LIG d   1       5.701   0.673  -3.383  0.00  0.00    -0.017 A 
ATOM      6  C   LIG d   1       5.171  -0.216  -4.349  0.00  0.00    -0.007 A 
ATOM      7  C   LIG d   1       3.937  -0.835  -4.116  0.00  0.00    -0.053 A 
ATOM      8  C   LIG d   1       3.260  -0.573  -2.963  0.00  0.00    -0.061 A 
ATOM      9  C   LIG d   1       3.778   0.301  -2.011  0.00  0.00    -0.061 A 
ATOM     10  C   LIG d   1       4.974   0.920  -2.205  0.00  0.00    -0.054 A 
ATOM     11  H   LIG d   1       7.729   0.018  -6.640  0.00  0.00     0.062 H 
ATOM     12  H   LIG d   1       8.583   1.536  -4.921  0.00  0.00     0.062 H 
ATOM     13  H   LIG d   1       7.347   1.972  -2.885  0.00  0.00     0.062 H 
ATOM     14  H   LIG d   1       3.525  -1.515  -4.847  0.00  0.00     0.062 H 
ATOM     15  H   LIG d   1       2.308  -1.052  -2.784  0.00  0.00     0.062 H 
ATOM     16  H   LIG d   1       3.221   0.492  -1.105  0.00  0.00     0.062 H 
ATOM     17  H   LIG d   1       5.364   1.596  -1.458  0.00  0.00     0.062 H 
ENDROOT
BRANCH   1  18
ATOM     18  C   LIG d   1       5.423  -1.381  -6.599  0.00  0.00     0.168 C 
ATOM     19  O   LIG d   1       6.098  -2.319  -6.967  0.00  0.00    -0.292 OA
BRANCH  18  20
ATOM     20  C   LIG d   1       4.058  -1.154  -7.198  0.00  0.00     0.036 C 
ATOM     21  H   LIG d   1       3.849  -1.892  -7.839  0.00  0.00     0.039 H 
ATOM     22  H   LIG d   1       3.311  -1.141  -6.403  0.00  0.00     0.039 H 
BRANCH  20  23
ATOM     23  C   LIG d   1       4.041   0.166  -7.923  0.00  0.00    -0.040 A 
ATOM     24  C   LIG d   1       5.104   0.523  -8.732  0.00  0.00    -0.058 A 
ATOM     25  C   LIG d   1       5.089   1.734  -9.399  0.00  0.00    -0.061 A 
ATOM     26  H   LIG d   1       5.947  -0.144  -8.844  0.00  0.00     0.062 H 
ATOM     27  C   LIG d   1       4.012   2.589  -9.256  0.00  0.00    -0.062 A 
ATOM     28  H   LIG d   1       5.920   2.013 -10.031  0.00  0.00     0.062 H 
ATOM     29  C   LIG d   1       2.949   2.231  -8.447  0.00  0.00    -0.061 A 
ATOM     30  H   LIG d   1       4.000   3.535  -9.777  0.00  0.00     0.062 H 
ATOM     31  C   LIG d   1       2.961   1.018  -7.785  0.00  0.00    -0.058 A 
ATOM     32  H   LIG d   1       2.107   2.898  -8.336  0.00  0.00     0.062 H 
ATOM     33  H   LIG d   1       2.130   0.737  -7.157  0.00  0.00     0.062 H 
ENDBRANCH  20  23
ENDBRANCH  18  20
ENDBRANCH   1  18
TORSDOF 3
ENDMDL
MODEL 8
REMARK VINA RESULT:      -6.7      2.899      4.965
REMARK  3 active torsions:
REMARK  status: ('A' for Active; 'I' for Inactive)
REMARK    1  A    between atoms: C_4  and  C_7 
REMARK    2  A    between atoms: C_7  and  C_8 
REMARK    3  A    between atoms: C_8  and  C_10 
ROOT
ATOM      1  C   LIG d   1       4.891  -1.993  -3.993  0.00  0.00     0.025 A 
ATOM      2  C   LIG d   1       4.338  -2.063  -2.718  0.00  0.00    -0.051 A 
ATOM      3  C   LIG d   1       3.194  -1.343  -2.405  0.00  0.00    -0.060 A 
ATOM      4  C   LIG d   1       2.577  -0.542  -3.318  0.00  0.00    -0.054 A 
ATOM      5  C   LIG d   1       3.083  -0.418  -4.623  0.00  0.00    -0.017 A 
ATOM      6  C   LIG d   1       4.246  -1.137  -4.990  0.00  0.00    -0.007 A 
ATOM      7  C   LIG d   1       4.752  -1.017  -6.289  0.00  0.00    -0.053 A 
ATOM      8  C   LIG d   1       4.120  -0.209  -7.186  0.00  0.00    -0.061 A 
ATOM      9  C   LIG d   1       2.976   0.499  -6.829  0.00  0.00    -0.061 A 
ATOM     10  C   LIG d   1       2.457   0.406  -5.574  0.00  0.00    -0.054 A 
ATOM     11  H   LIG d   1       4.802  -2.685  -1.966  0.00  0.00     0.062 H 
ATOM     12  H   LIG d   1       2.784  -1.418  -1.409  0.00  0.00     0.062 H 
ATOM     13  H   LIG d   1       1.690   0.005  -3.034  0.00  0.00     0.062 H 
ATOM     14  H   LIG d   1       5.639  -1.562  -6.578  0.00  0.00     0.062 H 
ATOM     15  H   LIG d   1       4.512  -0.118  -8.189  0.00  0.00     0.062 H 
ATOM     16  H   LIG d   1       2.493   1.133  -7.557  0.00  0.00     0.062 H 
ATOM     17  H   LIG d   1       1.569   0.962  -5.310  0.00  0.00     0.062 H 
ENDROOT
BRANCH   1  18
ATOM     18  C   LIG d   1       6.099  -2.756  -4.330  0.00  0.00     0.168 C 
ATOM     19  O   LIG d   1       6.012  -3.766  -4.996  0.00  0.00    -0.292 OA
BRANCH  18  20
ATOM     20  C   LIG d   1       7.446  -2.284  -3.849  0.00  0.00     0.036 C 
ATOM     21  H   LIG d   1       7.474  -2.318  -2.850  0.00  0.00     0.039 H 
ATOM     22  H   LIG d   1       8.225  -2.931  -4.256  0.00  0.00     0.039 H 
BRANCH  20  23
ATOM     23  C   LIG d   1       7.677  -0.869  -4.311  0.00  0.00    -0.040 A 
ATOM     24  C   LIG d   1       8.269  -0.631  -5.538  0.00  0.00    -0.058 A 
ATOM     25  C   LIG d   1       8.481   0.668  -5.963  0.00  0.00    -0.061 A 
ATOM     26  H   LIG d   1       8.568  -1.459  -6.164  0.00  0.00     0.062 H 
ATOM     27  C   LIG d   1       8.101   1.728  -5.161  0.00  0.00    -0.062 A 
ATOM     28  H   LIG d   1       8.944   0.853  -6.921  0.00  0.00     0.062 H 
ATOM     29  C   LIG d   1       7.508   1.490  -3.935  0.00  0.00    -0.061 A 
ATOM     30  H   LIG d   1       8.266   2.743  -5.493  0.00  0.00     0.062 H 
ATOM     31  C   LIG d   1       7.291   0.191  -3.513  0.00  0.00    -0.058 A 
ATOM     32  H   LIG d   1       7.211   2.318  -3.309  0.00  0.00     0.062 H 
ATOM     33  H   LIG d   1       6.825   0.005  -2.557  0.00  0.00     0.062 H 
ENDBRANCH  20  23
ENDBRANCH  18  20
ENDBRANCH   1  18
TORSDOF 3
ENDMDL
MODEL 9
REMARK VINA RESULT:      -6.6      2.054      6.109
REMARK  3 active torsions:
REMARK  status: ('A' for Active; 'I' for Inactive)
REMARK    1  A    between atoms: C_4  and  C_7 
REMARK    2  A    between atoms: C_7  and  C_8 
REMARK    3  A    between atoms: C_8  and  C_10 
ROOT
ATOM      1  C   LIG d   1       5.899  -1.473  -5.050  0.00  0.00     0.025 A 
ATOM      2  C   LIG d   1       5.461  -2.790  -5.151  0.00  0.00    -0.051 A 
ATOM      3  C   LIG d   1       4.628  -3.331  -4.182  0.00  0.00    -0.060 A 
ATOM      4  C   LIG d   1       4.217  -2.610  -3.103  0.00  0.00    -0.054 A 
ATOM      5  C   LIG d   1       4.625  -1.276  -2.933  0.00  0.00    -0.017 A 
ATOM      6  C   LIG d   1       5.472  -0.679  -3.897  0.00  0.00    -0.007 A 
ATOM      7  C   LIG d   1       5.880   0.649  -3.732  0.00  0.00    -0.053 A 
ATOM      8  C   LIG d   1       5.458   1.353  -2.644  0.00  0.00    -0.061 A 
ATOM      9  C   LIG d   1       4.625   0.769  -1.693  0.00  0.00    -0.061 A 
ATOM     10  C   LIG d   1       4.209  -0.521  -1.822  0.00  0.00    -0.054 A 
ATOM     11  H   LIG d   1       5.769  -3.394  -5.992  0.00  0.00     0.062 H 
ATOM     12  H   LIG d   1       4.299  -4.355  -4.287  0.00  0.00     0.062 H 
ATOM     13  H   LIG d   1       3.571  -3.069  -2.369  0.00  0.00     0.062 H 
ATOM     14  H   LIG d   1       6.526   1.114  -4.463  0.00  0.00     0.062 H 
ATOM     15  H   LIG d   1       5.773   2.378  -2.517  0.00  0.00     0.062 H 
ATOM     16  H   LIG d   1       4.305   1.347  -0.839  0.00  0.00     0.062 H 
ATOM     17  H   LIG d   1       3.564  -0.962  -1.077  0.00  0.00     0.062 H 
ENDROOT
BRANCH   1  18
ATOM     18  C   LIG d   1       6.777  -0.894  -6.074  0.00  0.00     0.168 C 
ATOM     19  O   LIG d   1       7.929  -1.263  -6.164  0.00  0.00    -0.292 OA
BRANCH  18  20
ATOM     20  C   LIG d   1       6.247   0.159  -7.013  0.00  0.00     0.036 C 
ATOM     21  H   LIG d   1       6.042   0.991  -6.499  0.00  0.00     0.039 H 
ATOM     22  H   LIG d   1       6.997   0.378  -7.775  0.00  0.00     0.039 H 
BRANCH  20  23
ATOM     23  C   LIG d   1       4.991  -0.347  -7.676  0.00  0.00    -0.040 A 
ATOM     24  C   LIG d   1       5.062  -1.379  -8.593  0.00  0.00    -0.058 A 
ATOM     25  C   LIG d   1       3.910  -1.843  -9.201  0.00  0.00    -0.061 A 
ATOM     26  H   LIG d   1       6.017  -1.822  -8.835  0.00  0.00     0.062 H 
ATOM     27  C   LIG d   1       2.689  -1.275  -8.892  0.00  0.00    -0.062 A 
ATOM     28  H   LIG d   1       3.966  -2.649  -9.918  0.00  0.00     0.062 H 
ATOM     29  C   LIG d   1       2.618  -0.243  -7.974  0.00  0.00    -0.061 A 
ATOM     30  H   LIG d   1       1.788  -1.638  -9.367  0.00  0.00     0.062 H 
ATOM     31  C   LIG d   1       3.769   0.217  -7.362  0.00  0.00    -0.058 A 
ATOM     32  H   LIG d   1       1.664   0.200  -7.732  0.00  0.00     0.062 H 
ATOM     33  H   LIG d   1       3.714   1.020  -6.643  0.00  0.00     0.062 H 
ENDBRANCH  20  23
ENDBRANCH  18  20
ENDBRANCH   1  18
TORSDOF 3
ENDMDL
MODEL 10
REMARK VINA RESULT:      -6.5      2.537      5.508
REMARK  3 active torsions:
REMARK  status: ('A' for Active; 'I' for Inactive)
REMARK    1  A    between atoms: C_4  and  C_7 
REMARK    2  A    between atoms: C_7  and  C_8 
REMARK    3  A    between atoms: C_8  and  C_10 
ROOT
ATOM      1  C   LIG d   1       5.548  -1.508  -3.925  0.00  0.00     0.025 A 
ATOM      2  C   LIG d   1       5.347  -1.582  -2.550  0.00  0.00    -0.051 A 
ATOM      3  C   LIG d   1       4.203  -1.046  -1.976  0.00  0.00    -0.060 A 
ATOM      4  C   LIG d   1       3.246  -0.427  -2.722  0.00  0.00    -0.054 A 
ATOM      5  C   LIG d   1       3.386  -0.311  -4.115  0.00  0.00    -0.017 A 
ATOM      6  C   LIG d   1       4.534  -0.846  -4.747  0.00  0.00    -0.007 A 
ATOM      7  C   LIG d   1       4.676  -0.733  -6.134  0.00  0.00    -0.053 A 
ATOM      8  C   LIG d   1       3.707  -0.108  -6.862  0.00  0.00    -0.061 A 
ATOM      9  C   LIG d   1       2.576   0.419  -6.244  0.00  0.00    -0.061 A 
ATOM     10  C   LIG d   1       2.406   0.327  -4.896  0.00  0.00    -0.054 A 
ATOM     11  H   LIG d   1       6.086  -2.062  -1.925  0.00  0.00     0.062 H 
ATOM     12  H   LIG d   1       4.070  -1.121  -0.907  0.00  0.00     0.062 H 
ATOM     13  H   LIG d   1       2.372  -0.020  -2.236  0.00  0.00     0.062 H 
ATOM     14  H   LIG d   1       5.549  -1.138  -6.625  0.00  0.00     0.062 H 
ATOM     15  H   LIG d   1       3.818  -0.022  -7.933  0.00  0.00     0.062 H 
ATOM     16  H   LIG d   1       1.823   0.909  -6.842  0.00  0.00     0.062 H 
ATOM     17  H   LIG d   1       1.524   0.740  -4.430  0.00  0.00     0.062 H 
ENDROOT
BRANCH   1  18
ATOM     18  C   LIG d   1       6.754  -2.076  -4.538  0.00  0.00     0.168 C 
ATOM     19  O   LIG d   1       7.641  -1.344  -4.925  0.00  0.00    -0.292 OA
BRANCH  18  20
ATOM     20  C   LIG d   1       6.891  -3.570  -4.687  0.00  0.00     0.036 C 
ATOM     21  H   LIG d   1       7.834  -3.795  -4.932  0.00  0.00     0.039 H 
ATOM     22  H   LIG d   1       6.636  -4.054  -3.743  0.00  0.00     0.039 H 
BRANCH  20  23
ATOM     23  C   LIG d   1       5.960  -4.054  -5.768  0.00  0.00    -0.040 A 
ATOM     24  C   LIG d   1       6.263  -3.819  -7.096  0.00  0.00    -0.058 A 
ATOM     25  C   LIG d   1       5.409  -4.264  -8.089  0.00  0.00    -0.061 A 
ATOM     26  H   LIG d   1       7.166  -3.288  -7.359  0.00  0.00     0.062 H 
ATOM     27  C   LIG d   1       4.252  -4.942  -7.752  0.00  0.00    -0.062 A 
ATOM     28  H   LIG d   1       5.645  -4.080  -9.126  0.00  0.00     0.062 H 
ATOM     29  C   LIG d   1       3.950  -5.178  -6.423  0.00  0.00    -0.061 A 
ATOM     30  H   LIG d   1       3.585  -5.290  -8.527  0.00  0.00     0.062 H 
ATOM     31  C   LIG d   1       4.807  -4.738  -5.432  0.00  0.00    -0.058 A 
ATOM     32  H   LIG d   1       3.047  -5.708  -6.161  0.00  0.00     0.062 H 
ATOM     33  H   LIG d   1       4.573  -4.925  -4.394  0.00  0.00     0.062 H 
ENDBRANCH  20  23
ENDBRANCH  18  20
ENDBRANCH   1  18
TORSDOF 3
ENDMDL
