MODEL 1
REMARK VINA RESULT:      -7.9      0.000      0.000
REMARK  3 active torsions:
REMARK  status: ('A' for Active; 'I' for Inactive)
REMARK    1  A    between atoms: C_4  and  N_7 
REMARK    2  A    between atoms: C_9  and  C_19 
REMARK    3  A    between atoms: C_10  and  C_12 
ROOT
ATOM      1  N   LIG d   1       4.571  -5.213  -6.294  0.00  0.00    -0.238 N 
ATOM      2  C   LIG d   1       4.394  -4.339  -7.305  0.00  0.00     0.044 A 
ATOM      3  C   LIG d   1       4.381  -3.078  -6.776  0.00  0.00     0.083 A 
ATOM      4  C   LIG d   1       4.567  -3.228  -5.330  0.00  0.00     0.105 A 
ATOM      5  N   LIG d   1       4.669  -4.517  -5.086  0.00  0.00    -0.166 NA
ATOM      6  H   LIG d   1       4.281  -4.590  -8.349  0.00  0.00     0.084 H 
ENDROOT
BRANCH   3   7
ATOM      7  C   LIG d   1       4.214  -1.813  -7.516  0.00  0.00     0.232 A 
ATOM      8  O   LIG d   1       3.429  -0.789  -7.128  0.00  0.00    -0.435 OA
ATOM      9  C   LIG d   1       3.533   0.193  -8.051  0.00  0.00     0.156 A 
ATOM     10  C   LIG d   1       4.415  -0.278  -9.036  0.00  0.00     0.110 A 
ATOM     11  C   LIG d   1       2.970   1.454  -8.177  0.00  0.00    -0.017 A 
ATOM     12  N   LIG d   1       4.802  -1.523  -8.650  0.00  0.00    -0.209 NA
ATOM     13  C   LIG d   1       4.718   0.528 -10.136  0.00  0.00    -0.033 A 
ATOM     14  C   LIG d   1       4.149   1.777 -10.245  0.00  0.00    -0.059 A 
ATOM     15  H   LIG d   1       5.396   0.172 -10.898  0.00  0.00     0.064 H 
ATOM     16  C   LIG d   1       3.277   2.239  -9.270  0.00  0.00    -0.058 A 
ATOM     17  H   LIG d   1       4.382   2.400 -11.095  0.00  0.00     0.062 H 
ATOM     18  H   LIG d   1       2.838   3.220  -9.365  0.00  0.00     0.062 H 
ATOM     19  H   LIG d   1       2.291   1.820  -7.421  0.00  0.00     0.066 H 
ENDBRANCH   3   7
BRANCH   4  20
ATOM     20  C   LIG d   1       4.623  -2.135  -4.330  0.00  0.00     0.003 A 
ATOM     21  C   LIG d   1       5.734  -1.293  -4.275  0.00  0.00    -0.051 A 
ATOM     22  C   LIG d   1       5.779  -0.275  -3.347  0.00  0.00    -0.043 A 
ATOM     23  H   LIG d   1       6.555  -1.437  -4.962  0.00  0.00     0.062 H 
ATOM     24  C   LIG d   1       4.728  -0.094  -2.462  0.00  0.00     0.041 A 
ATOM     25  H   LIG d   1       6.636   0.381  -3.306  0.00  0.00     0.063 H 
ATOM     26  C   LIG d   1       3.627  -0.930  -2.509  0.00  0.00    -0.043 A 
ATOM     27 CL   LIG d   1       4.795   1.187  -1.291  0.00  0.00    -0.084 Cl
ATOM     28  C   LIG d   1       3.568  -1.948  -3.438  0.00  0.00    -0.051 A 
ATOM     29  H   LIG d   1       2.810  -0.784  -1.818  0.00  0.00     0.063 H 
ATOM     30  H   LIG d   1       2.708  -2.600  -3.474  0.00  0.00     0.062 H 
ENDBRANCH   4  20
BRANCH   1  31
ATOM     31  C   LIG d   1       4.639  -6.605  -6.433  0.00  0.00     0.065 A 
ATOM     32  C   LIG d   1       4.332  -7.200  -7.649  0.00  0.00    -0.036 A 
ATOM     33  C   LIG d   1       4.400  -8.572  -7.783  0.00  0.00    -0.060 A 
ATOM     34  H   LIG d   1       4.041  -6.588  -8.491  0.00  0.00     0.064 H 
ATOM     35  C   LIG d   1       4.773  -9.356  -6.706  0.00  0.00    -0.062 A 
ATOM     36  H   LIG d   1       4.162  -9.035  -8.730  0.00  0.00     0.062 H 
ATOM     37  C   LIG d   1       5.080  -8.767  -5.493  0.00  0.00    -0.060 A 
ATOM     38  H   LIG d   1       4.822 -10.430  -6.812  0.00  0.00     0.062 H 
ATOM     39  C   LIG d   1       5.013  -7.395  -5.352  0.00  0.00    -0.036 A 
ATOM     40  H   LIG d   1       5.371  -9.382  -4.654  0.00  0.00     0.062 H 
ATOM     41  H   LIG d   1       5.253  -6.936  -4.404  0.00  0.00     0.064 H 
ENDBRANCH   1  31
TORSDOF 3
ENDMDL
MODEL 2
REMARK VINA RESULT:      -7.3      2.323      4.846
REMARK  3 active torsions:
REMARK  status: ('A' for Active; 'I' for Inactive)
REMARK    1  A    between atoms: C_4  and  N_7 
REMARK    2  A    between atoms: C_9  and  C_19 
REMARK    3  A    between atoms: C_10  and  C_12 
ROOT
ATOM      1  N   LIG d   1       4.618  -5.610  -6.560  0.00  0.00    -0.238 N 
ATOM      2  C   LIG d   1       4.691  -4.856  -5.444  0.00  0.00     0.044 A 
ATOM      3  C   LIG d   1       4.623  -3.542  -5.816  0.00  0.00     0.083 A 
ATOM      4  C   LIG d   1       4.498  -3.525  -7.275  0.00  0.00     0.105 A 
ATOM      5  N   LIG d   1       4.506  -4.778  -7.678  0.00  0.00    -0.166 NA
ATOM      6  H   LIG d   1       4.788  -5.225  -4.434  0.00  0.00     0.084 H 
ENDROOT
BRANCH   3   7
ATOM      7  C   LIG d   1       4.664  -2.370  -4.922  0.00  0.00     0.232 A 
ATOM      8  O   LIG d   1       5.672  -1.477  -4.865  0.00  0.00    -0.435 OA
ATOM      9  C   LIG d   1       5.357  -0.546  -3.937  0.00  0.00     0.156 A 
ATOM     10  C   LIG d   1       4.105  -0.912  -3.415  0.00  0.00     0.110 A 
ATOM     11  C   LIG d   1       5.996   0.588  -3.460  0.00  0.00    -0.017 A 
ATOM     12  N   LIG d   1       3.730  -2.046  -4.063  0.00  0.00    -0.209 NA
ATOM     13  C   LIG d   1       3.515  -0.129  -2.420  0.00  0.00    -0.033 A 
ATOM     14  C   LIG d   1       4.166   0.993  -1.958  0.00  0.00    -0.059 A 
ATOM     15  H   LIG d   1       2.553  -0.404  -2.014  0.00  0.00     0.064 H 
ATOM     16  C   LIG d   1       5.402   1.351  -2.476  0.00  0.00    -0.058 A 
ATOM     17  H   LIG d   1       3.711   1.599  -1.189  0.00  0.00     0.062 H 
ATOM     18  H   LIG d   1       5.902   2.234  -2.107  0.00  0.00     0.062 H 
ATOM     19  H   LIG d   1       6.959   0.873  -3.859  0.00  0.00     0.066 H 
ENDBRANCH   3   7
BRANCH   4  20
ATOM     20  C   LIG d   1       4.390  -2.324  -8.138  0.00  0.00     0.003 A 
ATOM     21  C   LIG d   1       5.513  -1.532  -8.379  0.00  0.00    -0.051 A 
ATOM     22  C   LIG d   1       5.408  -0.419  -9.186  0.00  0.00    -0.043 A 
ATOM     23  H   LIG d   1       6.464  -1.794  -7.938  0.00  0.00     0.062 H 
ATOM     24  C   LIG d   1       4.187  -0.079  -9.746  0.00  0.00     0.041 A 
ATOM     25  H   LIG d   1       6.277   0.193  -9.377  0.00  0.00     0.063 H 
ATOM     26  C   LIG d   1       3.070  -0.858  -9.505  0.00  0.00    -0.043 A 
ATOM     27 CL   LIG d   1       4.061   1.328 -10.756  0.00  0.00    -0.084 Cl
ATOM     28  C   LIG d   1       3.165  -1.978  -8.705  0.00  0.00    -0.051 A 
ATOM     29  H   LIG d   1       2.120  -0.590  -9.946  0.00  0.00     0.063 H 
ATOM     30  H   LIG d   1       2.291  -2.585  -8.518  0.00  0.00     0.062 H 
ENDBRANCH   4  20
BRANCH   1  31
ATOM     31  C   LIG d   1       4.656  -7.009  -6.594  0.00  0.00     0.065 A 
ATOM     32  C   LIG d   1       4.984  -7.724  -5.450  0.00  0.00    -0.036 A 
ATOM     33  C   LIG d   1       5.020  -9.104  -5.486  0.00  0.00    -0.060 A 
ATOM     34  H   LIG d   1       5.210  -7.201  -4.531  0.00  0.00     0.064 H 
ATOM     35  C   LIG d   1       4.730  -9.775  -6.660  0.00  0.00    -0.062 A 
ATOM     36  H   LIG d   1       5.274  -9.661  -4.596  0.00  0.00     0.062 H 
ATOM     37  C   LIG d   1       4.403  -9.065  -7.802  0.00  0.00    -0.060 A 
ATOM     38  H   LIG d   1       4.762 -10.854  -6.687  0.00  0.00     0.062 H 
ATOM     39  C   LIG d   1       4.365  -7.685  -7.772  0.00  0.00    -0.036 A 
ATOM     40  H   LIG d   1       4.177  -9.591  -8.717  0.00  0.00     0.062 H 
ATOM     41  H   LIG d   1       4.110  -7.132  -8.664  0.00  0.00     0.064 H 
ENDBRANCH   1  31
TORSDOF 3
ENDMDL
MODEL 3
REMARK VINA RESULT:      -7.0      3.967      6.561
REMARK  3 active torsions:
REMARK  status: ('A' for Active; 'I' for Inactive)
REMARK    1  A    between atoms: C_4  and  N_7 
REMARK    2  A    between atoms: C_9  and  C_19 
REMARK    3  A    between atoms: C_10  and  C_12 
ROOT
ATOM      1  N   LIG d   1       3.437  -0.964  -9.928  0.00  0.00    -0.238 N 
ATOM      2  C   LIG d   1       3.112  -1.223  -8.646  0.00  0.00     0.044 A 
ATOM      3  C   LIG d   1       4.062  -0.653  -7.845  0.00  0.00     0.083 A 
ATOM      4  C   LIG d   1       5.027  -0.004  -8.736  0.00  0.00     0.105 A 
ATOM      5  N   LIG d   1       4.620  -0.219  -9.968  0.00  0.00    -0.166 NA
ATOM      6  H   LIG d   1       2.252  -1.783  -8.310  0.00  0.00     0.084 H 
ENDROOT
BRANCH   3   7
ATOM      7  C   LIG d   1       4.107  -0.684  -6.371  0.00  0.00     0.232 A 
ATOM      8  O   LIG d   1       3.855   0.369  -5.568  0.00  0.00    -0.435 OA
ATOM      9  C   LIG d   1       3.988  -0.038  -4.286  0.00  0.00     0.156 A 
ATOM     10  C   LIG d   1       4.344  -1.396  -4.335  0.00  0.00     0.110 A 
ATOM     11  C   LIG d   1       3.852   0.594  -3.060  0.00  0.00    -0.017 A 
ATOM     12  N   LIG d   1       4.402  -1.736  -5.649  0.00  0.00    -0.209 NA
ATOM     13  C   LIG d   1       4.558  -2.098  -3.147  0.00  0.00    -0.033 A 
ATOM     14  C   LIG d   1       4.418  -1.453  -1.938  0.00  0.00    -0.059 A 
ATOM     15  H   LIG d   1       4.832  -3.142  -3.176  0.00  0.00     0.064 H 
ATOM     16  C   LIG d   1       4.066  -0.112  -1.894  0.00  0.00    -0.058 A 
ATOM     17  H   LIG d   1       4.583  -1.995  -1.019  0.00  0.00     0.062 H 
ATOM     18  H   LIG d   1       3.958   0.383  -0.940  0.00  0.00     0.062 H 
ATOM     19  H   LIG d   1       3.577   1.638  -3.018  0.00  0.00     0.066 H 
ENDBRANCH   3   7
BRANCH   4  20
ATOM     20  C   LIG d   1       6.238   0.749  -8.327  0.00  0.00     0.003 A 
ATOM     21  C   LIG d   1       6.602   1.910  -9.007  0.00  0.00    -0.051 A 
ATOM     22  C   LIG d   1       7.726   2.610  -8.620  0.00  0.00    -0.043 A 
ATOM     23  H   LIG d   1       6.003   2.264  -9.834  0.00  0.00     0.062 H 
ATOM     24  C   LIG d   1       8.498   2.154  -7.564  0.00  0.00     0.041 A 
ATOM     25  H   LIG d   1       8.007   3.512  -9.143  0.00  0.00     0.063 H 
ATOM     26  C   LIG d   1       8.143   0.999  -6.890  0.00  0.00    -0.043 A 
ATOM     27 CL   LIG d   1       9.916   3.036  -7.086  0.00  0.00    -0.084 Cl
ATOM     28  C   LIG d   1       7.018   0.296  -7.265  0.00  0.00    -0.051 A 
ATOM     29  H   LIG d   1       8.748   0.649  -6.066  0.00  0.00     0.063 H 
ATOM     30  H   LIG d   1       6.742  -0.606  -6.737  0.00  0.00     0.062 H 
ENDBRANCH   4  20
BRANCH   1  31
ATOM     31  C   LIG d   1       2.707  -1.382 -11.047  0.00  0.00     0.065 A 
ATOM     32  C   LIG d   1       1.397  -1.818 -10.901  0.00  0.00    -0.036 A 
ATOM     33  C   LIG d   1       0.679  -2.229 -12.006  0.00  0.00    -0.060 A 
ATOM     34  H   LIG d   1       0.939  -1.833  -9.922  0.00  0.00     0.064 H 
ATOM     35  C   LIG d   1       1.264  -2.208 -13.260  0.00  0.00    -0.062 A 
ATOM     36  H   LIG d   1      -0.340  -2.568 -11.893  0.00  0.00     0.062 H 
ATOM     37  C   LIG d   1       2.569  -1.775 -13.409  0.00  0.00    -0.060 A 
ATOM     38  H   LIG d   1       0.702  -2.534 -14.122  0.00  0.00     0.062 H 
ATOM     39  C   LIG d   1       3.292  -1.363 -12.308  0.00  0.00    -0.036 A 
ATOM     40  H   LIG d   1       3.023  -1.760 -14.389  0.00  0.00     0.062 H 
ATOM     41  H   LIG d   1       4.311  -1.024 -12.426  0.00  0.00     0.064 H 
ENDBRANCH   1  31
TORSDOF 3
ENDMDL
MODEL 4
REMARK VINA RESULT:      -6.7      5.888      8.353
REMARK  3 active torsions:
REMARK  status: ('A' for Active; 'I' for Inactive)
REMARK    1  A    between atoms: C_4  and  N_7 
REMARK    2  A    between atoms: C_9  and  C_19 
REMARK    3  A    between atoms: C_10  and  C_12 
ROOT
ATOM      1  N   LIG d   1       6.698   0.360  -4.186  0.00  0.00    -0.238 N 
ATOM      2  C   LIG d   1       7.231   1.423  -3.553  0.00  0.00     0.044 A 
ATOM      3  C   LIG d   1       8.095   2.040  -4.415  0.00  0.00     0.083 A 
ATOM      4  C   LIG d   1       8.064   1.271  -5.661  0.00  0.00     0.105 A 
ATOM      5  N   LIG d   1       7.224   0.275  -5.479  0.00  0.00    -0.166 NA
ATOM      6  H   LIG d   1       7.016   1.733  -2.541  0.00  0.00     0.084 H 
ENDROOT
BRANCH   3   7
ATOM      7  C   LIG d   1       8.900   3.246  -4.144  0.00  0.00     0.232 A 
ATOM      8  O   LIG d   1       9.107   4.250  -5.019  0.00  0.00    -0.435 OA
ATOM      9  C   LIG d   1       9.887   5.176  -4.419  0.00  0.00     0.156 A 
ATOM     10  C   LIG d   1      10.160   4.692  -3.130  0.00  0.00     0.110 A 
ATOM     11  C   LIG d   1      10.411   6.395  -4.822  0.00  0.00    -0.017 A 
ATOM     12  N   LIG d   1       9.524   3.496  -3.019  0.00  0.00    -0.209 NA
ATOM     13  C   LIG d   1      10.959   5.443  -2.264  0.00  0.00    -0.033 A 
ATOM     14  C   LIG d   1      11.471   6.651  -2.682  0.00  0.00    -0.059 A 
ATOM     15  H   LIG d   1      11.173   5.077  -1.270  0.00  0.00     0.064 H 
ATOM     16  C   LIG d   1      11.199   7.126  -3.956  0.00  0.00    -0.058 A 
ATOM     17  H   LIG d   1      12.088   7.232  -2.013  0.00  0.00     0.062 H 
ATOM     18  H   LIG d   1      11.605   8.075  -4.273  0.00  0.00     0.062 H 
ATOM     19  H   LIG d   1      10.202   6.771  -5.813  0.00  0.00     0.066 H 
ENDBRANCH   3   7
BRANCH   4  20
ATOM     20  C   LIG d   1       8.838   1.557  -6.894  0.00  0.00     0.003 A 
ATOM     21  C   LIG d   1       8.216   2.165  -7.984  0.00  0.00    -0.051 A 
ATOM     22  C   LIG d   1       8.941   2.433  -9.126  0.00  0.00    -0.043 A 
ATOM     23  H   LIG d   1       7.170   2.429  -7.932  0.00  0.00     0.062 H 
ATOM     24  C   LIG d   1      10.281   2.089  -9.195  0.00  0.00     0.041 A 
ATOM     25  H   LIG d   1       8.463   2.908  -9.970  0.00  0.00     0.063 H 
ATOM     26  C   LIG d   1      10.900   1.480  -8.118  0.00  0.00    -0.043 A 
ATOM     27 CL   LIG d   1      11.187   2.424 -10.639  0.00  0.00    -0.084 Cl
ATOM     28  C   LIG d   1      10.186   1.213  -6.969  0.00  0.00    -0.051 A 
ATOM     29  H   LIG d   1      11.946   1.215  -8.177  0.00  0.00     0.063 H 
ATOM     30  H   LIG d   1      10.671   0.738  -6.128  0.00  0.00     0.062 H 
ENDBRANCH   4  20
BRANCH   1  31
ATOM     31  C   LIG d   1       5.767  -0.527  -3.633  0.00  0.00     0.065 A 
ATOM     32  C   LIG d   1       5.120  -0.207  -2.447  0.00  0.00    -0.036 A 
ATOM     33  C   LIG d   1       4.201  -1.082  -1.903  0.00  0.00    -0.060 A 
ATOM     34  H   LIG d   1       5.334   0.729  -1.950  0.00  0.00     0.064 H 
ATOM     35  C   LIG d   1       3.925  -2.280  -2.538  0.00  0.00    -0.062 A 
ATOM     36  H   LIG d   1       3.698  -0.833  -0.981  0.00  0.00     0.062 H 
ATOM     37  C   LIG d   1       4.568  -2.602  -3.720  0.00  0.00    -0.060 A 
ATOM     38  H   LIG d   1       3.209  -2.965  -2.109  0.00  0.00     0.062 H 
ATOM     39  C   LIG d   1       5.487  -1.731  -4.269  0.00  0.00    -0.036 A 
ATOM     40  H   LIG d   1       4.350  -3.538  -4.214  0.00  0.00     0.062 H 
ATOM     41  H   LIG d   1       5.989  -1.983  -5.191  0.00  0.00     0.064 H 
ENDBRANCH   1  31
TORSDOF 3
ENDMDL
MODEL 5
REMARK VINA RESULT:      -6.6      5.702      9.795
REMARK  3 active torsions:
REMARK  status: ('A' for Active; 'I' for Inactive)
REMARK    1  A    between atoms: C_4  and  N_7 
REMARK    2  A    between atoms: C_9  and  C_19 
REMARK    3  A    between atoms: C_10  and  C_12 
ROOT
ATOM      1  N   LIG d   1      10.083   3.502  -4.214  0.00  0.00    -0.238 N 
ATOM      2  C   LIG d   1       9.164   2.896  -3.437  0.00  0.00     0.044 A 
ATOM      3  C   LIG d   1       8.421   2.064  -4.229  0.00  0.00     0.083 A 
ATOM      4  C   LIG d   1       8.953   2.195  -5.588  0.00  0.00     0.105 A 
ATOM      5  N   LIG d   1       9.938   3.066  -5.535  0.00  0.00    -0.166 NA
ATOM      6  H   LIG d   1       9.035   3.042  -2.375  0.00  0.00     0.084 H 
ENDROOT
BRANCH   3   7
ATOM      7  C   LIG d   1       7.304   1.203  -3.799  0.00  0.00     0.232 A 
ATOM      8  O   LIG d   1       7.291  -0.143  -3.879  0.00  0.00    -0.435 OA
ATOM      9  C   LIG d   1       6.109  -0.581  -3.391  0.00  0.00     0.156 A 
ATOM     10  C   LIG d   1       5.386   0.562  -3.013  0.00  0.00     0.110 A 
ATOM     11  C   LIG d   1       5.548  -1.838  -3.223  0.00  0.00    -0.017 A 
ATOM     12  N   LIG d   1       6.176   1.632  -3.290  0.00  0.00    -0.209 NA
ATOM     13  C   LIG d   1       4.107   0.422  -2.471  0.00  0.00    -0.033 A 
ATOM     14  C   LIG d   1       3.565  -0.834  -2.312  0.00  0.00    -0.059 A 
ATOM     15  H   LIG d   1       3.544   1.296  -2.177  0.00  0.00     0.064 H 
ATOM     16  C   LIG d   1       4.282  -1.960  -2.687  0.00  0.00    -0.058 A 
ATOM     17  H   LIG d   1       2.576  -0.943  -1.893  0.00  0.00     0.062 H 
ATOM     18  H   LIG d   1       3.848  -2.940  -2.557  0.00  0.00     0.062 H 
ATOM     19  H   LIG d   1       6.101  -2.719  -3.513  0.00  0.00     0.066 H 
ENDBRANCH   3   7
BRANCH   4  20
ATOM     20  C   LIG d   1       8.470   1.484  -6.796  0.00  0.00     0.003 A 
ATOM     21  C   LIG d   1       8.820   0.151  -7.011  0.00  0.00    -0.051 A 
ATOM     22  C   LIG d   1       8.364  -0.506  -8.134  0.00  0.00    -0.043 A 
ATOM     23  H   LIG d   1       9.445  -0.365  -6.297  0.00  0.00     0.062 H 
ATOM     24  C   LIG d   1       7.568   0.158  -9.053  0.00  0.00     0.041 A 
ATOM     25  H   LIG d   1       8.631  -1.540  -8.300  0.00  0.00     0.063 H 
ATOM     26  C   LIG d   1       7.223   1.481  -8.847  0.00  0.00    -0.043 A 
ATOM     27 CL   LIG d   1       7.003  -0.676 -10.468  0.00  0.00    -0.084 Cl
ATOM     28  C   LIG d   1       7.669   2.147  -7.724  0.00  0.00    -0.051 A 
ATOM     29  H   LIG d   1       6.602   1.994  -9.567  0.00  0.00     0.063 H 
ATOM     30  H   LIG d   1       7.398   3.181  -7.564  0.00  0.00     0.062 H 
ENDBRANCH   4  20
BRANCH   1  31
ATOM     31  C   LIG d   1      11.033   4.430  -3.769  0.00  0.00     0.065 A 
ATOM     32  C   LIG d   1      12.148   4.711  -4.546  0.00  0.00    -0.036 A 
ATOM     33  C   LIG d   1      13.082   5.627  -4.105  0.00  0.00    -0.060 A 
ATOM     34  H   LIG d   1      12.284   4.215  -5.496  0.00  0.00     0.064 H 
ATOM     35  C   LIG d   1      12.909   6.264  -2.890  0.00  0.00    -0.062 A 
ATOM     36  H   LIG d   1      13.950   5.847  -4.710  0.00  0.00     0.062 H 
ATOM     37  C   LIG d   1      11.799   5.986  -2.113  0.00  0.00    -0.060 A 
ATOM     38  H   LIG d   1      13.643   6.977  -2.545  0.00  0.00     0.062 H 
ATOM     39  C   LIG d   1      10.861   5.071  -2.548  0.00  0.00    -0.036 A 
ATOM     40  H   LIG d   1      11.666   6.485  -1.165  0.00  0.00     0.062 H 
ATOM     41  H   LIG d   1       9.994   4.854  -1.941  0.00  0.00     0.064 H 
ENDBRANCH   1  31
TORSDOF 3
ENDMDL
MODEL 6
REMARK VINA RESULT:      -6.6      1.893      2.271
REMARK  3 active torsions:
REMARK  status: ('A' for Active; 'I' for Inactive)
REMARK    1  A    between atoms: C_4  and  N_7 
REMARK    2  A    between atoms: C_9  and  C_19 
REMARK    3  A    between atoms: C_10  and  C_12 
ROOT
ATOM      1  N   LIG d   1       6.470  -5.488  -6.056  0.00  0.00    -0.238 N 
ATOM      2  C   LIG d   1       5.801  -4.880  -7.056  0.00  0.00     0.044 A 
ATOM      3  C   LIG d   1       5.320  -3.691  -6.582  0.00  0.00     0.083 A 
ATOM      4  C   LIG d   1       5.746  -3.595  -5.183  0.00  0.00     0.105 A 
ATOM      5  N   LIG d   1       6.422  -4.690  -4.910  0.00  0.00    -0.166 NA
ATOM      6  H   LIG d   1       5.666  -5.265  -8.056  0.00  0.00     0.084 H 
ENDROOT
BRANCH   3   7
ATOM      7  C   LIG d   1       4.529  -2.698  -7.332  0.00  0.00     0.232 A 
ATOM      8  O   LIG d   1       3.554  -2.993  -8.214  0.00  0.00    -0.435 OA
ATOM      9  C   LIG d   1       3.057  -1.832  -8.696  0.00  0.00     0.156 A 
ATOM     10  C   LIG d   1       3.780  -0.801  -8.074  0.00  0.00     0.110 A 
ATOM     11  C   LIG d   1       2.061  -1.521  -9.609  0.00  0.00    -0.017 A 
ATOM     12  N   LIG d   1       4.674  -1.399  -7.244  0.00  0.00    -0.209 NA
ATOM     13  C   LIG d   1       3.489   0.530  -8.381  0.00  0.00    -0.033 A 
ATOM     14  C   LIG d   1       2.497   0.820  -9.291  0.00  0.00    -0.059 A 
ATOM     15  H   LIG d   1       4.041   1.328  -7.907  0.00  0.00     0.064 H 
ATOM     16  C   LIG d   1       1.785  -0.201  -9.903  0.00  0.00    -0.058 A 
ATOM     17  H   LIG d   1       2.272   1.848  -9.529  0.00  0.00     0.062 H 
ATOM     18  H   LIG d   1       1.009   0.038 -10.614  0.00  0.00     0.062 H 
ATOM     19  H   LIG d   1       1.503  -2.311 -10.089  0.00  0.00     0.066 H 
ENDBRANCH   3   7
BRANCH   4  20
ATOM     20  C   LIG d   1       5.463  -2.478  -4.250  0.00  0.00     0.003 A 
ATOM     21  C   LIG d   1       6.334  -1.391  -4.175  0.00  0.00    -0.051 A 
ATOM     22  C   LIG d   1       6.063  -0.353  -3.309  0.00  0.00    -0.043 A 
ATOM     23  H   LIG d   1       7.217  -1.362  -4.797  0.00  0.00     0.062 H 
ATOM     24  C   LIG d   1       4.935  -0.393  -2.506  0.00  0.00     0.041 A 
ATOM     25  H   LIG d   1       6.734   0.492  -3.252  0.00  0.00     0.063 H 
ATOM     26  C   LIG d   1       4.071  -1.472  -2.574  0.00  0.00    -0.043 A 
ATOM     27 CL   LIG d   1       4.604   0.916  -1.414  0.00  0.00    -0.084 Cl
ATOM     28  C   LIG d   1       4.328  -2.513  -3.441  0.00  0.00    -0.051 A 
ATOM     29  H   LIG d   1       3.192  -1.498  -1.946  0.00  0.00     0.063 H 
ATOM     30  H   LIG d   1       3.653  -3.354  -3.492  0.00  0.00     0.062 H 
ENDBRANCH   4  20
BRANCH   1  31
ATOM     31  C   LIG d   1       7.108  -6.731  -6.150  0.00  0.00     0.065 A 
ATOM     32  C   LIG d   1       7.917  -7.178  -5.114  0.00  0.00    -0.036 A 
ATOM     33  C   LIG d   1       8.545  -8.404  -5.209  0.00  0.00    -0.060 A 
ATOM     34  H   LIG d   1       8.055  -6.566  -4.234  0.00  0.00     0.064 H 
ATOM     35  C   LIG d   1       8.369  -9.188  -6.334  0.00  0.00    -0.062 A 
ATOM     36  H   LIG d   1       9.174  -8.752  -4.403  0.00  0.00     0.062 H 
ATOM     37  C   LIG d   1       7.563  -8.746  -7.368  0.00  0.00    -0.060 A 
ATOM     38  H   LIG d   1       8.864 -10.145  -6.408  0.00  0.00     0.062 H 
ATOM     39  C   LIG d   1       6.933  -7.521  -7.280  0.00  0.00    -0.036 A 
ATOM     40  H   LIG d   1       7.427  -9.360  -8.246  0.00  0.00     0.062 H 
ATOM     41  H   LIG d   1       6.304  -7.177  -8.088  0.00  0.00     0.064 H 
ENDBRANCH   1  31
TORSDOF 3
ENDMDL
MODEL 7
REMARK VINA RESULT:      -6.4      3.324      4.512
REMARK  3 active torsions:
REMARK  status: ('A' for Active; 'I' for Inactive)
REMARK    1  A    between atoms: C_4  and  N_7 
REMARK    2  A    between atoms: C_9  and  C_19 
REMARK    3  A    between atoms: C_10  and  C_12 
ROOT
ATOM      1  N   LIG d   1       5.556  -6.132  -5.757  0.00  0.00    -0.238 N 
ATOM      2  C   LIG d   1       4.744  -5.187  -5.243  0.00  0.00     0.044 A 
ATOM      3  C   LIG d   1       5.500  -4.080  -4.974  0.00  0.00     0.083 A 
ATOM      4  C   LIG d   1       6.874  -4.405  -5.366  0.00  0.00     0.105 A 
ATOM      5  N   LIG d   1       6.863  -5.639  -5.820  0.00  0.00    -0.166 NA
ATOM      6  H   LIG d   1       3.683  -5.287  -5.072  0.00  0.00     0.084 H 
ENDROOT
BRANCH   3   7
ATOM      7  C   LIG d   1       5.025  -2.805  -4.403  0.00  0.00     0.232 A 
ATOM      8  O   LIG d   1       5.344  -2.341  -3.179  0.00  0.00    -0.435 OA
ATOM      9  C   LIG d   1       4.728  -1.150  -3.008  0.00  0.00     0.156 A 
ATOM     10  C   LIG d   1       4.004  -0.903  -4.186  0.00  0.00     0.110 A 
ATOM     11  C   LIG d   1       4.692  -0.229  -1.973  0.00  0.00    -0.017 A 
ATOM     12  N   LIG d   1       4.227  -1.961  -5.009  0.00  0.00    -0.209 NA
ATOM     13  C   LIG d   1       3.253   0.269  -4.304  0.00  0.00    -0.033 A 
ATOM     14  C   LIG d   1       3.228   1.171  -3.264  0.00  0.00    -0.059 A 
ATOM     15  H   LIG d   1       2.694   0.465  -5.206  0.00  0.00     0.064 H 
ATOM     16  C   LIG d   1       3.945   0.924  -2.102  0.00  0.00    -0.058 A 
ATOM     17  H   LIG d   1       2.648   2.077  -3.354  0.00  0.00     0.062 H 
ATOM     18  H   LIG d   1       3.919   1.640  -1.294  0.00  0.00     0.062 H 
ATOM     19  H   LIG d   1       5.248  -0.414  -1.065  0.00  0.00     0.066 H 
ENDBRANCH   3   7
BRANCH   4  20
ATOM     20  C   LIG d   1       8.055  -3.514  -5.263  0.00  0.00     0.003 A 
ATOM     21  C   LIG d   1       9.099  -3.833  -4.395  0.00  0.00    -0.051 A 
ATOM     22  C   LIG d   1      10.197  -3.004  -4.307  0.00  0.00    -0.043 A 
ATOM     23  H   LIG d   1       9.048  -4.731  -3.796  0.00  0.00     0.062 H 
ATOM     24  C   LIG d   1      10.259  -1.850  -5.070  0.00  0.00     0.041 A 
ATOM     25  H   LIG d   1      11.008  -3.252  -3.639  0.00  0.00     0.063 H 
ATOM     26  C   LIG d   1       9.223  -1.526  -5.928  0.00  0.00    -0.043 A 
ATOM     27 CL   LIG d   1      11.642  -0.807  -4.949  0.00  0.00    -0.084 Cl
ATOM     28  C   LIG d   1       8.123  -2.351  -6.029  0.00  0.00    -0.051 A 
ATOM     29  H   LIG d   1       9.277  -0.625  -6.522  0.00  0.00     0.063 H 
ATOM     30  H   LIG d   1       7.315  -2.098  -6.699  0.00  0.00     0.062 H 
ENDBRANCH   4  20
BRANCH   1  31
ATOM     31  C   LIG d   1       5.154  -7.412  -6.158  0.00  0.00     0.065 A 
ATOM     32  C   LIG d   1       4.732  -7.632  -7.462  0.00  0.00    -0.036 A 
ATOM     33  C   LIG d   1       4.337  -8.895  -7.856  0.00  0.00    -0.060 A 
ATOM     34  H   LIG d   1       4.714  -6.814  -8.170  0.00  0.00     0.064 H 
ATOM     35  C   LIG d   1       4.360  -9.941  -6.953  0.00  0.00    -0.062 A 
ATOM     36  H   LIG d   1       4.008  -9.066  -8.871  0.00  0.00     0.062 H 
ATOM     37  C   LIG d   1       4.780  -9.726  -5.652  0.00  0.00    -0.060 A 
ATOM     38  H   LIG d   1       4.046 -10.928  -7.261  0.00  0.00     0.062 H 
ATOM     39  C   LIG d   1       5.176  -8.465  -5.252  0.00  0.00    -0.036 A 
ATOM     40  H   LIG d   1       4.797 -10.545  -4.949  0.00  0.00     0.062 H 
ATOM     41  H   LIG d   1       5.504  -8.298  -4.237  0.00  0.00     0.064 H 
ENDBRANCH   1  31
TORSDOF 3
ENDMDL
MODEL 8
REMARK VINA RESULT:      -6.4      4.346      8.407
REMARK  3 active torsions:
REMARK  status: ('A' for Active; 'I' for Inactive)
REMARK    1  A    between atoms: C_4  and  N_7 
REMARK    2  A    between atoms: C_9  and  C_19 
REMARK    3  A    between atoms: C_10  and  C_12 
ROOT
ATOM      1  N   LIG d   1       8.488   1.814  -8.077  0.00  0.00    -0.238 N 
ATOM      2  C   LIG d   1       8.232   1.332  -6.845  0.00  0.00     0.044 A 
ATOM      3  C   LIG d   1       6.973   0.798  -6.853  0.00  0.00     0.083 A 
ATOM      4  C   LIG d   1       6.448   0.984  -8.208  0.00  0.00     0.105 A 
ATOM      5  N   LIG d   1       7.380   1.600  -8.902  0.00  0.00    -0.166 NA
ATOM      6  H   LIG d   1       8.903   1.362  -6.000  0.00  0.00     0.084 H 
ENDROOT
BRANCH   3   7
ATOM      7  C   LIG d   1       6.280   0.158  -5.720  0.00  0.00     0.232 A 
ATOM      8  O   LIG d   1       5.692  -1.054  -5.759  0.00  0.00    -0.435 OA
ATOM      9  C   LIG d   1       5.167  -1.306  -4.539  0.00  0.00     0.156 A 
ATOM     10  C   LIG d   1       5.451  -0.184  -3.744  0.00  0.00     0.110 A 
ATOM     11  C   LIG d   1       4.464  -2.372  -3.999  0.00  0.00    -0.017 A 
ATOM     12  N   LIG d   1       6.140   0.685  -4.529  0.00  0.00    -0.209 NA
ATOM     13  C   LIG d   1       5.023  -0.152  -2.415  0.00  0.00    -0.033 A 
ATOM     14  C   LIG d   1       4.325  -1.219  -1.896  0.00  0.00    -0.059 A 
ATOM     15  H   LIG d   1       5.238   0.708  -1.797  0.00  0.00     0.064 H 
ATOM     16  C   LIG d   1       4.046  -2.326  -2.684  0.00  0.00    -0.058 A 
ATOM     17  H   LIG d   1       3.994  -1.195  -0.869  0.00  0.00     0.062 H 
ATOM     18  H   LIG d   1       3.499  -3.158  -2.266  0.00  0.00     0.062 H 
ATOM     19  H   LIG d   1       4.243  -3.237  -4.607  0.00  0.00     0.066 H 
ENDBRANCH   3   7
BRANCH   4  20
ATOM     20  C   LIG d   1       5.114   0.565  -8.702  0.00  0.00     0.003 A 
ATOM     21  C   LIG d   1       4.051   1.467  -8.698  0.00  0.00    -0.051 A 
ATOM     22  C   LIG d   1       2.813   1.074  -9.163  0.00  0.00    -0.043 A 
ATOM     23  H   LIG d   1       4.198   2.474  -8.335  0.00  0.00     0.062 H 
ATOM     24  C   LIG d   1       2.623  -0.219  -9.623  0.00  0.00     0.041 A 
ATOM     25  H   LIG d   1       1.990   1.773  -9.165  0.00  0.00     0.063 H 
ATOM     26  C   LIG d   1       3.674  -1.119  -9.623  0.00  0.00    -0.043 A 
ATOM     27 CL   LIG d   1       1.061  -0.709 -10.201  0.00  0.00    -0.084 Cl
ATOM     28  C   LIG d   1       4.916  -0.735  -9.166  0.00  0.00    -0.051 A 
ATOM     29  H   LIG d   1       3.520  -2.126  -9.984  0.00  0.00     0.063 H 
ATOM     30  H   LIG d   1       5.736  -1.439  -9.167  0.00  0.00     0.062 H 
ENDBRANCH   4  20
BRANCH   1  31
ATOM     31  C   LIG d   1       9.678   2.441  -8.469  0.00  0.00     0.065 A 
ATOM     32  C   LIG d   1      10.704   1.695  -9.033  0.00  0.00    -0.036 A 
ATOM     33  C   LIG d   1      11.876   2.315  -9.419  0.00  0.00    -0.060 A 
ATOM     34  H   LIG d   1      10.585   0.630  -9.172  0.00  0.00     0.064 H 
ATOM     35  C   LIG d   1      12.030   3.678  -9.243  0.00  0.00    -0.062 A 
ATOM     36  H   LIG d   1      12.674   1.735  -9.858  0.00  0.00     0.062 H 
ATOM     37  C   LIG d   1      11.009   4.424  -8.681  0.00  0.00    -0.060 A 
ATOM     38  H   LIG d   1      12.949   4.161  -9.541  0.00  0.00     0.062 H 
ATOM     39  C   LIG d   1       9.835   3.810  -8.293  0.00  0.00    -0.036 A 
ATOM     40  H   LIG d   1      11.132   5.489  -8.545  0.00  0.00     0.062 H 
ATOM     41  H   LIG d   1       9.039   4.393  -7.854  0.00  0.00     0.064 H 
ENDBRANCH   1  31
TORSDOF 3
ENDMDL
MODEL 9
REMARK VINA RESULT:      -6.2      4.907      6.427
REMARK  3 active torsions:
REMARK  status: ('A' for Active; 'I' for Inactive)
REMARK    1  A    between atoms: C_4  and  N_7 
REMARK    2  A    between atoms: C_9  and  C_19 
REMARK    3  A    between atoms: C_10  and  C_12 
ROOT
ATOM      1  N   LIG d   1       9.749  -3.942  -3.922  0.00  0.00    -0.238 N 
ATOM      2  C   LIG d   1       8.595  -3.601  -3.315  0.00  0.00     0.044 A 
ATOM      3  C   LIG d   1       8.132  -2.454  -3.898  0.00  0.00     0.083 A 
ATOM      4  C   LIG d   1       9.100  -2.094  -4.938  0.00  0.00     0.105 A 
ATOM      5  N   LIG d   1      10.050  -3.003  -4.914  0.00  0.00    -0.166 NA
ATOM      6  H   LIG d   1       8.120  -4.138  -2.508  0.00  0.00     0.084 H 
ENDROOT
BRANCH   3   7
ATOM      7  C   LIG d   1       6.900  -1.723  -3.550  0.00  0.00     0.232 A 
ATOM      8  O   LIG d   1       6.857  -0.467  -3.065  0.00  0.00    -0.435 OA
ATOM      9  C   LIG d   1       5.562  -0.135  -2.870  0.00  0.00     0.156 A 
ATOM     10  C   LIG d   1       4.803  -1.253  -3.251  0.00  0.00     0.110 A 
ATOM     11  C   LIG d   1       4.923   1.003  -2.402  0.00  0.00    -0.017 A 
ATOM     12  N   LIG d   1       5.685  -2.202  -3.661  0.00  0.00    -0.209 NA
ATOM     13  C   LIG d   1       3.410  -1.209  -3.155  0.00  0.00    -0.033 A 
ATOM     14  C   LIG d   1       2.793  -0.070  -2.687  0.00  0.00    -0.059 A 
ATOM     15  H   LIG d   1       2.819  -2.065  -3.446  0.00  0.00     0.064 H 
ATOM     16  C   LIG d   1       3.546   1.032  -2.312  0.00  0.00    -0.058 A 
ATOM     17  H   LIG d   1       1.717  -0.035  -2.612  0.00  0.00     0.062 H 
ATOM     18  H   LIG d   1       3.052   1.921  -1.948  0.00  0.00     0.062 H 
ATOM     19  H   LIG d   1       5.503   1.866  -2.109  0.00  0.00     0.066 H 
ENDBRANCH   3   7
BRANCH   4  20
ATOM     20  C   LIG d   1       9.025  -0.921  -5.843  0.00  0.00     0.003 A 
ATOM     21  C   LIG d   1       9.651   0.275  -5.491  0.00  0.00    -0.051 A 
ATOM     22  C   LIG d   1       9.583   1.361  -6.339  0.00  0.00    -0.043 A 
ATOM     23  H   LIG d   1      10.191   0.349  -4.558  0.00  0.00     0.062 H 
ATOM     24  C   LIG d   1       8.886   1.268  -7.532  0.00  0.00     0.041 A 
ATOM     25  H   LIG d   1      10.071   2.286  -6.070  0.00  0.00     0.063 H 
ATOM     26  C   LIG d   1       8.259   0.086  -7.882  0.00  0.00    -0.043 A 
ATOM     27 CL   LIG d   1       8.799   2.642  -8.591  0.00  0.00    -0.084 Cl
ATOM     28  C   LIG d   1       8.325  -1.008  -7.045  0.00  0.00    -0.051 A 
ATOM     29  H   LIG d   1       7.717   0.019  -8.814  0.00  0.00     0.063 H 
ATOM     30  H   LIG d   1       7.836  -1.931  -7.320  0.00  0.00     0.062 H 
ENDBRANCH   4  20
BRANCH   1  31
ATOM     31  C   LIG d   1      10.529  -5.061  -3.605  0.00  0.00     0.065 A 
ATOM     32  C   LIG d   1      11.612  -5.404  -4.404  0.00  0.00    -0.036 A 
ATOM     33  C   LIG d   1      12.380  -6.507  -4.089  0.00  0.00    -0.060 A 
ATOM     34  H   LIG d   1      11.854  -4.806  -5.272  0.00  0.00     0.064 H 
ATOM     35  C   LIG d   1      12.072  -7.271  -2.978  0.00  0.00    -0.062 A 
ATOM     36  H   LIG d   1      13.222  -6.773  -4.710  0.00  0.00     0.062 H 
ATOM     37  C   LIG d   1      10.994  -6.933  -2.180  0.00  0.00    -0.060 A 
ATOM     38  H   LIG d   1      12.672  -8.136  -2.736  0.00  0.00     0.062 H 
ATOM     39  C   LIG d   1      10.222  -5.831  -2.490  0.00  0.00    -0.036 A 
ATOM     40  H   LIG d   1      10.756  -7.532  -1.314  0.00  0.00     0.062 H 
ATOM     41  H   LIG d   1       9.380  -5.568  -1.866  0.00  0.00     0.064 H 
ENDBRANCH   1  31
TORSDOF 3
ENDMDL
