MODEL 1
REMARK VINA RESULT:      -6.3      0.000      0.000
REMARK  7 active torsions:
REMARK  status: ('A' for Active; 'I' for Inactive)
REMARK    1  A    between atoms: C_1  and  C_2 
REMARK    2  A    between atoms: C_2  and  C_4 
REMARK    3  A    between atoms: C_2  and  C_8 
REMARK    4  A    between atoms: C_4  and  C_5 
REMARK    5  A    between atoms: C_5  and  C_6 
REMARK    6  A    between atoms: C_14  and  C_31 
REMARK    7  A    between atoms: C_25  and  C_30 
ROOT
ATOM      1  C   LIG d   1       8.080  -5.623  -5.860  0.00  0.00    -0.033 C 
ATOM      2  H   LIG d   1       7.967  -6.034  -6.860  0.00  0.00     0.031 H 
ATOM      3  C   LIG d   1       9.492  -5.002  -5.688  0.00  0.00    -0.049 C 
ATOM      4  C   LIG d   1       9.289  -3.635  -4.981  0.00  0.00    -0.049 C 
ATOM      5  C   LIG d   1       7.823  -3.676  -4.521  0.00  0.00    -0.032 C 
ATOM      6  H   LIG d   1       7.777  -4.308  -3.610  0.00  0.00     0.031 H 
ATOM      7  C   LIG d   1       7.138  -4.415  -5.686  0.00  0.00    -0.026 C 
ATOM      8  C   LIG d   1       5.699  -4.726  -5.386  0.00  0.00    -0.047 C 
ATOM      9  C   LIG d   1       5.043  -3.610  -4.559  0.00  0.00    -0.049 C 
ATOM     10  C   LIG d   1       5.759  -2.281  -4.742  0.00  0.00    -0.032 C 
ATOM     11  H   LIG d   1       5.783  -2.019  -5.801  0.00  0.00     0.031 H 
ATOM     12  C   LIG d   1       7.184  -2.358  -4.199  0.00  0.00    -0.034 C 
ATOM     13  H   LIG d   1       7.107  -2.308  -3.093  0.00  0.00     0.031 H 
ATOM     14  C   LIG d   1       7.995  -1.146  -4.637  0.00  0.00    -0.049 C 
ATOM     15  C   LIG d   1       7.158   0.125  -4.417  0.00  0.00    -0.049 C 
ATOM     16  C   LIG d   1       6.048  -0.194  -3.428  0.00  0.00    -0.035 C 
ATOM     17  H   LIG d   1       6.508  -0.718  -2.573  0.00  0.00     0.031 H 
ATOM     18  C   LIG d   1       5.018  -1.136  -4.050  0.00  0.00    -0.026 C 
ATOM     19  C   LIG d   1       4.078  -1.623  -2.955  0.00  0.00    -0.047 C 
ATOM     20  C   LIG d   1       3.375  -0.422  -2.312  0.00  0.00    -0.052 C 
ATOM     21  C   LIG d   1       4.378   0.593  -1.775  0.00  0.00    -0.053 C 
ATOM     22  C   LIG d   1       5.359   1.040  -2.865  0.00  0.00    -0.050 C 
ATOM     23  H   LIG d   1       9.955  -4.856  -6.663  0.00  0.00     0.027 H 
ATOM     24  H   LIG d   1      10.111  -5.654  -5.072  0.00  0.00     0.027 H 
ATOM     25  H   LIG d   1       9.469  -2.810  -5.666  0.00  0.00     0.027 H 
ATOM     26  H   LIG d   1       9.953  -3.555  -4.116  0.00  0.00     0.027 H 
ATOM     27  H   LIG d   1       5.146  -4.831  -6.334  0.00  0.00     0.027 H 
ATOM     28  H   LIG d   1       5.582  -5.670  -4.846  0.00  0.00     0.027 H 
ATOM     29  H   LIG d   1       3.999  -3.507  -4.871  0.00  0.00     0.027 H 
ATOM     30  H   LIG d   1       5.058  -3.891  -3.503  0.00  0.00     0.027 H 
ATOM     31  H   LIG d   1       8.906  -1.080  -4.043  0.00  0.00     0.027 H 
ATOM     32  H   LIG d   1       8.250  -1.226  -5.691  0.00  0.00     0.027 H 
ATOM     33  H   LIG d   1       7.801   0.906  -4.002  0.00  0.00     0.027 H 
ATOM     34  H   LIG d   1       6.750   0.465  -5.366  0.00  0.00     0.027 H 
ATOM     35  H   LIG d   1       3.329  -2.295  -3.383  0.00  0.00     0.027 H 
ATOM     36  H   LIG d   1       4.647  -2.164  -2.195  0.00  0.00     0.027 H 
ATOM     37  H   LIG d   1       2.705   0.057  -3.021  0.00  0.00     0.026 H 
ATOM     38  H   LIG d   1       2.766  -0.785  -1.473  0.00  0.00     0.026 H 
ATOM     39  H   LIG d   1       3.839   1.467  -1.402  0.00  0.00     0.026 H 
ATOM     40  H   LIG d   1       4.936   0.147  -0.950  0.00  0.00     0.026 H 
ATOM     41  H   LIG d   1       4.844   1.601  -3.635  0.00  0.00     0.027 H 
ATOM     42  H   LIG d   1       6.116   1.691  -2.409  0.00  0.00     0.027 H 
ENDROOT
BRANCH   1  43
ATOM     43  C   LIG d   1       7.849  -6.691  -4.800  0.00  0.00    -0.040 C 
ATOM     44  H   LIG d   1       7.270  -6.268  -3.979  0.00  0.00     0.030 H 
BRANCH  43  45
ATOM     45  C   LIG d   1       7.079  -7.862  -5.415  0.00  0.00    -0.062 C 
ATOM     46  H   LIG d   1       6.696  -7.571  -6.392  0.00  0.00     0.023 H 
ATOM     47  H   LIG d   1       7.746  -8.717  -5.524  0.00  0.00     0.023 H 
ATOM     48  H   LIG d   1       6.248  -8.132  -4.764  0.00  0.00     0.023 H 
ENDBRANCH  43  45
BRANCH  43  49
ATOM     49  C   LIG d   1       9.197  -7.187  -4.273  0.00  0.00    -0.045 C 
ATOM     50  H   LIG d   1       9.388  -8.191  -4.651  0.00  0.00     0.027 H 
ATOM     51  H   LIG d   1       9.987  -6.515  -4.609  0.00  0.00     0.027 H 
BRANCH  49  52
ATOM     52  C   LIG d   1       9.168  -7.214  -2.743  0.00  0.00    -0.013 C 
ATOM     53  H   LIG d   1       8.140  -7.106  -2.397  0.00  0.00     0.033 H 
ATOM     54  H   LIG d   1       9.572  -8.164  -2.389  0.00  0.00     0.033 H 
BRANCH  52  55
ATOM     55  C   LIG d   1      10.001  -6.081  -2.204  0.00  0.00     0.042 C 
ATOM     56  O   LIG d   1      11.084  -5.845  -2.687  0.00  0.00    -0.550 OA
ATOM     57  O   LIG d   1       9.543  -5.335  -1.187  0.00  0.00    -0.550 OA
ENDBRANCH  52  55
ENDBRANCH  49  52
ENDBRANCH  43  49
ENDBRANCH   1  43
BRANCH   7  58
ATOM     58  C   LIG d   1       7.239  -3.616  -6.998  0.00  0.00    -0.059 C 
ATOM     59  H   LIG d   1       6.880  -2.600  -6.833  0.00  0.00     0.024 H 
ATOM     60  H   LIG d   1       8.276  -3.587  -7.328  0.00  0.00     0.024 H 
ATOM     61  H   LIG d   1       6.628  -4.096  -7.763  0.00  0.00     0.024 H 
ENDBRANCH   7  58
BRANCH  18  62
ATOM     62  C   LIG d   1       4.209  -0.404  -5.124  0.00  0.00    -0.059 C 
ATOM     63  H   LIG d   1       4.677   0.557  -5.339  0.00  0.00     0.024 H 
ATOM     64  H   LIG d   1       4.181  -1.006  -6.031  0.00  0.00     0.024 H 
ATOM     65  H   LIG d   1       3.193  -0.242  -4.764  0.00  0.00     0.024 H 
ENDBRANCH  18  62
TORSDOF 7
ENDMDL
MODEL 2
REMARK VINA RESULT:      -5.8      4.041      6.441
REMARK  7 active torsions:
REMARK  status: ('A' for Active; 'I' for Inactive)
REMARK    1  A    between atoms: C_1  and  C_2 
REMARK    2  A    between atoms: C_2  and  C_4 
REMARK    3  A    between atoms: C_2  and  C_8 
REMARK    4  A    between atoms: C_4  and  C_5 
REMARK    5  A    between atoms: C_5  and  C_6 
REMARK    6  A    between atoms: C_14  and  C_31 
REMARK    7  A    between atoms: C_25  and  C_30 
ROOT
ATOM      1  C   LIG d   1       5.830  -2.005  -3.649  0.00  0.00    -0.033 C 
ATOM      2  H   LIG d   1       6.153  -2.957  -3.236  0.00  0.00     0.031 H 
ATOM      3  C   LIG d   1       6.944  -0.938  -3.484  0.00  0.00    -0.049 C 
ATOM      4  C   LIG d   1       7.038  -0.186  -4.839  0.00  0.00    -0.049 C 
ATOM      5  C   LIG d   1       5.787  -0.650  -5.601  0.00  0.00    -0.032 C 
ATOM      6  H   LIG d   1       4.920  -0.089  -5.194  0.00  0.00     0.031 H 
ATOM      7  C   LIG d   1       5.679  -2.127  -5.178  0.00  0.00    -0.026 C 
ATOM      8  C   LIG d   1       4.412  -2.764  -5.677  0.00  0.00    -0.047 C 
ATOM      9  C   LIG d   1       4.021  -2.225  -7.061  0.00  0.00    -0.049 C 
ATOM     10  C   LIG d   1       5.223  -1.676  -7.812  0.00  0.00    -0.032 C 
ATOM     11  H   LIG d   1       5.988  -2.448  -7.897  0.00  0.00     0.031 H 
ATOM     12  C   LIG d   1       5.799  -0.460  -7.088  0.00  0.00    -0.034 C 
ATOM     13  H   LIG d   1       5.118   0.390  -7.302  0.00  0.00     0.031 H 
ATOM     14  C   LIG d   1       7.160  -0.086  -7.660  0.00  0.00    -0.049 C 
ATOM     15  C   LIG d   1       7.080  -0.099  -9.196  0.00  0.00    -0.049 C 
ATOM     16  C   LIG d   1       5.619  -0.002  -9.604  0.00  0.00    -0.035 C 
ATOM     17  H   LIG d   1       5.167   0.821  -9.025  0.00  0.00     0.031 H 
ATOM     18  C   LIG d   1       4.869  -1.285  -9.247  0.00  0.00    -0.026 C 
ATOM     19  C   LIG d   1       3.376  -1.047  -9.438  0.00  0.00    -0.047 C 
ATOM     20  C   LIG d   1       3.101  -0.663 -10.896  0.00  0.00    -0.052 C 
ATOM     21  C   LIG d   1       3.919   0.553 -11.319  0.00  0.00    -0.053 C 
ATOM     22  C   LIG d   1       5.416   0.333 -11.074  0.00  0.00    -0.050 C 
ATOM     23  H   LIG d   1       7.893  -1.424  -3.257  0.00  0.00     0.027 H 
ATOM     24  H   LIG d   1       6.679  -0.244  -2.687  0.00  0.00     0.027 H 
ATOM     25  H   LIG d   1       7.950  -0.448  -5.369  0.00  0.00     0.027 H 
ATOM     26  H   LIG d   1       6.999   0.894  -4.673  0.00  0.00     0.027 H 
ATOM     27  H   LIG d   1       4.562  -3.853  -5.755  0.00  0.00     0.027 H 
ATOM     28  H   LIG d   1       3.573  -2.608  -4.995  0.00  0.00     0.027 H 
ATOM     29  H   LIG d   1       3.570  -3.037  -7.641  0.00  0.00     0.027 H 
ATOM     30  H   LIG d   1       3.273  -1.436  -6.940  0.00  0.00     0.027 H 
ATOM     31  H   LIG d   1       7.436   0.914  -7.326  0.00  0.00     0.027 H 
ATOM     32  H   LIG d   1       7.912  -0.802  -7.337  0.00  0.00     0.027 H 
ATOM     33  H   LIG d   1       7.624   0.766  -9.587  0.00  0.00     0.027 H 
ATOM     34  H   LIG d   1       7.534  -1.009  -9.580  0.00  0.00     0.027 H 
ATOM     35  H   LIG d   1       2.822  -1.957  -9.193  0.00  0.00     0.027 H 
ATOM     36  H   LIG d   1       3.045  -0.241  -8.779  0.00  0.00     0.027 H 
ATOM     37  H   LIG d   1       3.308  -1.498 -11.561  0.00  0.00     0.026 H 
ATOM     38  H   LIG d   1       2.036  -0.415 -10.996  0.00  0.00     0.026 H 
ATOM     39  H   LIG d   1       3.757   0.742 -12.383  0.00  0.00     0.026 H 
ATOM     40  H   LIG d   1       3.587   1.425 -10.754  0.00  0.00     0.026 H 
ATOM     41  H   LIG d   1       5.799  -0.446 -11.721  0.00  0.00     0.027 H 
ATOM     42  H   LIG d   1       5.950   1.266 -11.301  0.00  0.00     0.027 H 
ENDROOT
BRANCH   1  43
ATOM     43  C   LIG d   1       4.548  -1.525  -2.980  0.00  0.00    -0.040 C 
ATOM     44  H   LIG d   1       3.888  -1.090  -3.731  0.00  0.00     0.030 H 
BRANCH  43  45
ATOM     45  C   LIG d   1       3.847  -2.710  -2.311  0.00  0.00    -0.062 C 
ATOM     46  H   LIG d   1       3.242  -2.352  -1.479  0.00  0.00     0.023 H 
ATOM     47  H   LIG d   1       3.208  -3.211  -3.038  0.00  0.00     0.023 H 
ATOM     48  H   LIG d   1       4.595  -3.412  -1.942  0.00  0.00     0.023 H 
ENDBRANCH  43  45
BRANCH  43  49
ATOM     49  C   LIG d   1       4.888  -0.471  -1.924  0.00  0.00    -0.045 C 
ATOM     50  H   LIG d   1       4.916  -0.939  -0.941  0.00  0.00     0.027 H 
ATOM     51  H   LIG d   1       5.861  -0.033  -2.148  0.00  0.00     0.027 H 
BRANCH  49  52
ATOM     52  C   LIG d   1       3.821   0.626  -1.937  0.00  0.00    -0.013 C 
ATOM     53  H   LIG d   1       2.847   0.184  -2.150  0.00  0.00     0.033 H 
ATOM     54  H   LIG d   1       3.791   1.116  -0.963  0.00  0.00     0.033 H 
BRANCH  52  55
ATOM     55  C   LIG d   1       4.155   1.639  -3.000  0.00  0.00     0.042 C 
ATOM     56  O   LIG d   1       3.312   1.978  -3.798  0.00  0.00    -0.550 OA
ATOM     57  O   LIG d   1       5.388   2.165  -3.063  0.00  0.00    -0.550 OA
ENDBRANCH  52  55
ENDBRANCH  49  52
ENDBRANCH  43  49
ENDBRANCH   1  43
BRANCH   7  58
ATOM     58  C   LIG d   1       6.897  -2.941  -5.653  0.00  0.00    -0.059 C 
ATOM     59  H   LIG d   1       6.851  -3.066  -6.734  0.00  0.00     0.024 H 
ATOM     60  H   LIG d   1       7.812  -2.414  -5.386  0.00  0.00     0.024 H 
ATOM     61  H   LIG d   1       6.888  -3.920  -5.174  0.00  0.00     0.024 H 
ENDBRANCH   7  58
BRANCH  18  62
ATOM     62  C   LIG d   1       5.318  -2.434 -10.154  0.00  0.00    -0.059 C 
ATOM     63  H   LIG d   1       6.211  -2.898  -9.736  0.00  0.00     0.024 H 
ATOM     64  H   LIG d   1       4.522  -3.175 -10.223  0.00  0.00     0.024 H 
ATOM     65  H   LIG d   1       5.540  -2.045 -11.147  0.00  0.00     0.024 H 
ENDBRANCH  18  62
TORSDOF 7
ENDMDL
MODEL 3
REMARK VINA RESULT:      -5.8      4.491      6.669
REMARK  7 active torsions:
REMARK  status: ('A' for Active; 'I' for Inactive)
REMARK    1  A    between atoms: C_1  and  C_2 
REMARK    2  A    between atoms: C_2  and  C_4 
REMARK    3  A    between atoms: C_2  and  C_8 
REMARK    4  A    between atoms: C_4  and  C_5 
REMARK    5  A    between atoms: C_5  and  C_6 
REMARK    6  A    between atoms: C_14  and  C_31 
REMARK    7  A    between atoms: C_25  and  C_30 
ROOT
ATOM      1  C   LIG d   1       5.792  -2.224  -9.672  0.00  0.00    -0.033 C 
ATOM      2  H   LIG d   1       6.690  -2.548 -10.190  0.00  0.00     0.031 H 
ATOM      3  C   LIG d   1       4.743  -3.367  -9.640  0.00  0.00    -0.049 C 
ATOM      4  C   LIG d   1       4.177  -3.406  -8.195  0.00  0.00    -0.049 C 
ATOM      5  C   LIG d   1       4.702  -2.107  -7.563  0.00  0.00    -0.032 C 
ATOM      6  H   LIG d   1       4.070  -1.275  -7.934  0.00  0.00     0.031 H 
ATOM      7  C   LIG d   1       6.108  -1.992  -8.181  0.00  0.00    -0.026 C 
ATOM      8  C   LIG d   1       6.771  -0.688  -7.832  0.00  0.00    -0.047 C 
ATOM      9  C   LIG d   1       6.407  -0.236  -6.410  0.00  0.00    -0.049 C 
ATOM     10  C   LIG d   1       5.993  -1.410  -5.536  0.00  0.00    -0.032 C 
ATOM     11  H   LIG d   1       6.790  -2.153  -5.517  0.00  0.00     0.031 H 
ATOM     12  C   LIG d   1       4.709  -2.046  -6.064  0.00  0.00    -0.034 C 
ATOM     13  H   LIG d   1       3.876  -1.373  -5.774  0.00  0.00     0.031 H 
ATOM     14  C   LIG d   1       4.450  -3.383  -5.382  0.00  0.00    -0.049 C 
ATOM     15  C   LIG d   1       4.661  -3.224  -3.867  0.00  0.00    -0.049 C 
ATOM     16  C   LIG d   1       4.579  -1.746  -3.522  0.00  0.00    -0.035 C 
ATOM     17  H   LIG d   1       3.675  -1.342  -4.008  0.00  0.00     0.031 H 
ATOM     18  C   LIG d   1       5.784  -0.989  -4.081  0.00  0.00    -0.026 C 
ATOM     19  C   LIG d   1       5.532   0.506  -3.933  0.00  0.00    -0.047 C 
ATOM     20  C   LIG d   1       5.335   0.848  -2.452  0.00  0.00    -0.052 C 
ATOM     21  C   LIG d   1       4.207   0.029  -1.833  0.00  0.00    -0.053 C 
ATOM     22  C   LIG d   1       4.433  -1.474  -2.033  0.00  0.00    -0.050 C 
ATOM     23  H   LIG d   1       5.221  -4.316  -9.883  0.00  0.00     0.027 H 
ATOM     24  H   LIG d   1       3.944  -3.157 -10.351  0.00  0.00     0.027 H 
ATOM     25  H   LIG d   1       4.531  -4.283  -7.660  0.00  0.00     0.027 H 
ATOM     26  H   LIG d   1       3.084  -3.397  -8.218  0.00  0.00     0.027 H 
ATOM     27  H   LIG d   1       7.864  -0.811  -7.892  0.00  0.00     0.027 H 
ATOM     28  H   LIG d   1       6.504   0.112  -8.528  0.00  0.00     0.027 H 
ATOM     29  H   LIG d   1       7.275   0.260  -5.965  0.00  0.00     0.027 H 
ATOM     30  H   LIG d   1       5.589   0.488  -6.463  0.00  0.00     0.027 H 
ATOM     31  H   LIG d   1       3.423  -3.697  -5.569  0.00  0.00     0.027 H 
ATOM     32  H   LIG d   1       5.137  -4.137  -5.760  0.00  0.00     0.027 H 
ATOM     33  H   LIG d   1       3.869  -3.765  -3.340  0.00  0.00     0.027 H 
ATOM     34  H   LIG d   1       5.625  -3.639  -3.586  0.00  0.00     0.027 H 
ATOM     35  H   LIG d   1       6.387   1.065  -4.323  0.00  0.00     0.027 H 
ATOM     36  H   LIG d   1       4.639   0.787  -4.495  0.00  0.00     0.027 H 
ATOM     37  H   LIG d   1       6.255   0.694  -1.894  0.00  0.00     0.026 H 
ATOM     38  H   LIG d   1       5.073   1.912  -2.373  0.00  0.00     0.026 H 
ATOM     39  H   LIG d   1       4.155   0.242  -0.763  0.00  0.00     0.026 H 
ATOM     40  H   LIG d   1       3.260   0.314  -2.294  0.00  0.00     0.026 H 
ATOM     41  H   LIG d   1       5.300  -1.807  -1.476  0.00  0.00     0.027 H 
ATOM     42  H   LIG d   1       3.553  -2.014  -1.659  0.00  0.00     0.027 H 
ENDROOT
BRANCH   1  43
ATOM     43  C   LIG d   1       5.194  -0.988 -10.333  0.00  0.00    -0.040 C 
ATOM     44  H   LIG d   1       4.952  -0.249  -9.569  0.00  0.00     0.030 H 
BRANCH  43  45
ATOM     45  C   LIG d   1       6.208  -0.394 -11.313  0.00  0.00    -0.062 C 
ATOM     46  H   LIG d   1       5.861   0.583 -11.647  0.00  0.00     0.023 H 
ATOM     47  H   LIG d   1       7.173  -0.288 -10.818  0.00  0.00     0.023 H 
ATOM     48  H   LIG d   1       6.313  -1.056 -12.173  0.00  0.00     0.023 H 
ENDBRANCH  43  45
BRANCH  43  49
ATOM     49  C   LIG d   1       3.922  -1.379 -11.089  0.00  0.00    -0.045 C 
ATOM     50  H   LIG d   1       4.177  -1.645 -12.114  0.00  0.00     0.027 H 
ATOM     51  H   LIG d   1       3.455  -2.233 -10.596  0.00  0.00     0.027 H 
BRANCH  49  52
ATOM     52  C   LIG d   1       2.949  -0.198 -11.094  0.00  0.00    -0.013 C 
ATOM     53  H   LIG d   1       3.484   0.712 -11.362  0.00  0.00     0.033 H 
ATOM     54  H   LIG d   1       2.158  -0.382 -11.822  0.00  0.00     0.033 H 
BRANCH  52  55
ATOM     55  C   LIG d   1       2.344  -0.041  -9.723  0.00  0.00     0.042 C 
ATOM     56  O   LIG d   1       1.706  -0.945  -9.237  0.00  0.00    -0.550 OA
ATOM     57  O   LIG d   1       2.510   1.104  -9.043  0.00  0.00    -0.550 OA
ENDBRANCH  52  55
ENDBRANCH  49  52
ENDBRANCH  43  49
ENDBRANCH   1  43
BRANCH   7  58
ATOM     58  C   LIG d   1       7.009  -3.167  -7.759  0.00  0.00    -0.059 C 
ATOM     59  H   LIG d   1       6.601  -4.097  -8.153  0.00  0.00     0.024 H 
ATOM     60  H   LIG d   1       8.013  -3.015  -8.153  0.00  0.00     0.024 H 
ATOM     61  H   LIG d   1       7.050  -3.220  -6.671  0.00  0.00     0.024 H 
ENDBRANCH   7  58
BRANCH  18  62
ATOM     62  C   LIG d   1       7.053  -1.367  -3.313  0.00  0.00    -0.059 C 
ATOM     63  H   LIG d   1       7.021  -0.921  -2.318  0.00  0.00     0.024 H 
ATOM     64  H   LIG d   1       7.113  -2.451  -3.222  0.00  0.00     0.024 H 
ATOM     65  H   LIG d   1       7.925  -0.998  -3.850  0.00  0.00     0.024 H 
ENDBRANCH  18  62
TORSDOF 7
ENDMDL
MODEL 4
REMARK VINA RESULT:      -5.6      5.993      8.832
REMARK  7 active torsions:
REMARK  status: ('A' for Active; 'I' for Inactive)
REMARK    1  A    between atoms: C_1  and  C_2 
REMARK    2  A    between atoms: C_2  and  C_4 
REMARK    3  A    between atoms: C_2  and  C_8 
REMARK    4  A    between atoms: C_4  and  C_5 
REMARK    5  A    between atoms: C_5  and  C_6 
REMARK    6  A    between atoms: C_14  and  C_31 
REMARK    7  A    between atoms: C_25  and  C_30 
ROOT
ATOM      1  C   LIG d   1       4.172  -0.170  -7.624  0.00  0.00    -0.033 C 
ATOM      2  H   LIG d   1       5.233   0.062  -7.658  0.00  0.00     0.031 H 
ATOM      3  C   LIG d   1       3.333   1.074  -8.016  0.00  0.00    -0.049 C 
ATOM      4  C   LIG d   1       2.236   0.577  -8.995  0.00  0.00    -0.049 C 
ATOM      5  C   LIG d   1       2.314  -0.954  -8.882  0.00  0.00    -0.032 C 
ATOM      6  H   LIG d   1       1.800  -1.246  -7.944  0.00  0.00     0.031 H 
ATOM      7  C   LIG d   1       3.828  -1.191  -8.727  0.00  0.00    -0.026 C 
ATOM      8  C   LIG d   1       4.144  -2.630  -8.429  0.00  0.00    -0.047 C 
ATOM      9  C   LIG d   1       3.187  -3.579  -9.166  0.00  0.00    -0.049 C 
ATOM     10  C   LIG d   1       2.585  -2.925 -10.399  0.00  0.00    -0.032 C 
ATOM     11  H   LIG d   1       3.382  -2.584 -11.061  0.00  0.00     0.031 H 
ATOM     12  C   LIG d   1       1.705  -1.741 -10.004  0.00  0.00    -0.034 C 
ATOM     13  H   LIG d   1       0.757  -2.165  -9.612  0.00  0.00     0.031 H 
ATOM     14  C   LIG d   1       1.339  -0.909 -11.226  0.00  0.00    -0.049 C 
ATOM     15  C   LIG d   1       0.898  -1.849 -12.360  0.00  0.00    -0.049 C 
ATOM     16  C   LIG d   1       0.522  -3.191 -11.755  0.00  0.00    -0.035 C 
ATOM     17  H   LIG d   1      -0.145  -2.994 -10.899  0.00  0.00     0.031 H 
ATOM     18  C   LIG d   1       1.758  -3.914 -11.222  0.00  0.00    -0.026 C 
ATOM     19  C   LIG d   1       1.306  -5.120 -10.408  0.00  0.00    -0.047 C 
ATOM     20  C   LIG d   1       0.488  -6.061 -11.298  0.00  0.00    -0.052 C 
ATOM     21  C   LIG d   1      -0.696  -5.342 -11.935  0.00  0.00    -0.053 C 
ATOM     22  C   LIG d   1      -0.246  -4.097 -12.707  0.00  0.00    -0.050 C 
ATOM     23  H   LIG d   1       3.968   1.812  -8.505  0.00  0.00     0.027 H 
ATOM     24  H   LIG d   1       2.874   1.507  -7.127  0.00  0.00     0.027 H 
ATOM     25  H   LIG d   1       2.436   0.913 -10.009  0.00  0.00     0.027 H 
ATOM     26  H   LIG d   1       1.253   0.928  -8.671  0.00  0.00     0.027 H 
ATOM     27  H   LIG d   1       5.174  -2.849  -8.756  0.00  0.00     0.027 H 
ATOM     28  H   LIG d   1       4.098  -2.853  -7.360  0.00  0.00     0.027 H 
ATOM     29  H   LIG d   1       3.740  -4.476  -9.463  0.00  0.00     0.027 H 
ATOM     30  H   LIG d   1       2.388  -3.881  -8.484  0.00  0.00     0.027 H 
ATOM     31  H   LIG d   1       0.517  -0.237 -10.979  0.00  0.00     0.027 H 
ATOM     32  H   LIG d   1       2.199  -0.331 -11.557  0.00  0.00     0.027 H 
ATOM     33  H   LIG d   1       0.025  -1.417 -12.859  0.00  0.00     0.027 H 
ATOM     34  H   LIG d   1       1.704  -1.957 -13.082  0.00  0.00     0.027 H 
ATOM     35  H   LIG d   1       2.179  -5.653 -10.022  0.00  0.00     0.027 H 
ATOM     36  H   LIG d   1       0.694  -4.787  -9.567  0.00  0.00     0.027 H 
ATOM     37  H   LIG d   1       1.114  -6.502 -12.071  0.00  0.00     0.026 H 
ATOM     38  H   LIG d   1       0.103  -6.880 -10.676  0.00  0.00     0.026 H 
ATOM     39  H   LIG d   1      -1.201  -6.023 -12.623  0.00  0.00     0.026 H 
ATOM     40  H   LIG d   1      -1.400  -5.046 -11.155  0.00  0.00     0.026 H 
ATOM     41  H   LIG d   1       0.351  -4.376 -13.566  0.00  0.00     0.027 H 
ATOM     42  H   LIG d   1      -1.136  -3.562 -13.062  0.00  0.00     0.027 H 
ENDROOT
BRANCH   1  43
ATOM     43  C   LIG d   1       3.763  -0.658  -6.240  0.00  0.00    -0.040 C 
ATOM     44  H   LIG d   1       3.144  -1.550  -6.338  0.00  0.00     0.030 H 
BRANCH  43  45
ATOM     45  C   LIG d   1       5.015  -0.994  -5.427  0.00  0.00    -0.062 C 
ATOM     46  H   LIG d   1       4.784  -0.939  -4.364  0.00  0.00     0.023 H 
ATOM     47  H   LIG d   1       5.351  -2.000  -5.676  0.00  0.00     0.023 H 
ATOM     48  H   LIG d   1       5.804  -0.280  -5.665  0.00  0.00     0.023 H 
ENDBRANCH  43  45
BRANCH  43  49
ATOM     49  C   LIG d   1       2.970   0.439  -5.526  0.00  0.00    -0.045 C 
ATOM     50  H   LIG d   1       3.546   1.363  -5.529  0.00  0.00     0.027 H 
ATOM     51  H   LIG d   1       2.023   0.597  -6.043  0.00  0.00     0.027 H 
BRANCH  49  52
ATOM     52  C   LIG d   1       2.696   0.012  -4.082  0.00  0.00    -0.013 C 
ATOM     53  H   LIG d   1       1.621  -0.061  -3.922  0.00  0.00     0.033 H 
ATOM     54  H   LIG d   1       3.157  -0.959  -3.896  0.00  0.00     0.033 H 
BRANCH  52  55
ATOM     55  C   LIG d   1       3.276   1.033  -3.138  0.00  0.00     0.042 C 
ATOM     56  O   LIG d   1       3.497   0.734  -1.988  0.00  0.00    -0.550 OA
ATOM     57  O   LIG d   1       3.545   2.273  -3.572  0.00  0.00    -0.550 OA
ENDBRANCH  52  55
ENDBRANCH  49  52
ENDBRANCH  43  49
ENDBRANCH   1  43
BRANCH   7  58
ATOM     58  C   LIG d   1       4.603  -0.731  -9.975  0.00  0.00    -0.059 C 
ATOM     59  H   LIG d   1       4.420   0.330 -10.145  0.00  0.00     0.024 H 
ATOM     60  H   LIG d   1       5.669  -0.897  -9.823  0.00  0.00     0.024 H 
ATOM     61  H   LIG d   1       4.266  -1.300 -10.841  0.00  0.00     0.024 H 
ENDBRANCH   7  58
BRANCH  18  62
ATOM     62  C   LIG d   1       2.639  -4.387 -12.381  0.00  0.00    -0.059 C 
ATOM     63  H   LIG d   1       3.687  -4.329 -12.088  0.00  0.00     0.024 H 
ATOM     64  H   LIG d   1       2.389  -5.418 -12.630  0.00  0.00     0.024 H 
ATOM     65  H   LIG d   1       2.468  -3.752 -13.249  0.00  0.00     0.024 H 
ENDBRANCH  18  62
TORSDOF 7
ENDMDL
MODEL 5
REMARK VINA RESULT:      -5.6      4.923      7.493
REMARK  7 active torsions:
REMARK  status: ('A' for Active; 'I' for Inactive)
REMARK    1  A    between atoms: C_1  and  C_2 
REMARK    2  A    between atoms: C_2  and  C_4 
REMARK    3  A    between atoms: C_2  and  C_8 
REMARK    4  A    between atoms: C_4  and  C_5 
REMARK    5  A    between atoms: C_5  and  C_6 
REMARK    6  A    between atoms: C_14  and  C_31 
REMARK    7  A    between atoms: C_25  and  C_30 
ROOT
ATOM      1  C   LIG d   1      10.351   1.580  -6.883  0.00  0.00    -0.033 C 
ATOM      2  H   LIG d   1      11.360   1.208  -6.731  0.00  0.00     0.031 H 
ATOM      3  C   LIG d   1       9.799   1.102  -8.252  0.00  0.00    -0.049 C 
ATOM      4  C   LIG d   1       8.348   0.614  -7.998  0.00  0.00    -0.049 C 
ATOM      5  C   LIG d   1       8.041   1.109  -6.576  0.00  0.00    -0.032 C 
ATOM      6  H   LIG d   1       7.811   2.192  -6.641  0.00  0.00     0.031 H 
ATOM      7  C   LIG d   1       9.396   0.920  -5.867  0.00  0.00    -0.026 C 
ATOM      8  C   LIG d   1       9.391   1.499  -4.480  0.00  0.00    -0.047 C 
ATOM      9  C   LIG d   1       8.024   1.321  -3.803  0.00  0.00    -0.049 C 
ATOM     10  C   LIG d   1       7.247   0.160  -4.402  0.00  0.00    -0.032 C 
ATOM     11  H   LIG d   1       7.838  -0.754  -4.332  0.00  0.00     0.031 H 
ATOM     12  C   LIG d   1       6.904   0.439  -5.863  0.00  0.00    -0.034 C 
ATOM     13  H   LIG d   1       6.064   1.165  -5.861  0.00  0.00     0.031 H 
ATOM     14  C   LIG d   1       6.392  -0.821  -6.549  0.00  0.00    -0.049 C 
ATOM     15  C   LIG d   1       5.361  -1.505  -5.635  0.00  0.00    -0.049 C 
ATOM     16  C   LIG d   1       4.859  -0.486  -4.626  0.00  0.00    -0.035 C 
ATOM     17  H   LIG d   1       4.596   0.429  -5.182  0.00  0.00     0.031 H 
ATOM     18  C   LIG d   1       5.958  -0.122  -3.628  0.00  0.00    -0.026 C 
ATOM     19  C   LIG d   1       5.494   1.075  -2.806  0.00  0.00    -0.047 C 
ATOM     20  C   LIG d   1       4.204   0.716  -2.062  0.00  0.00    -0.052 C 
ATOM     21  C   LIG d   1       3.116   0.243  -3.021  0.00  0.00    -0.053 C 
ATOM     22  C   LIG d   1       3.604  -0.925  -3.887  0.00  0.00    -0.050 C 
ATOM     23  H   LIG d   1      10.410   0.284  -8.634  0.00  0.00     0.027 H 
ATOM     24  H   LIG d   1       9.798   1.931  -8.961  0.00  0.00     0.027 H 
ATOM     25  H   LIG d   1       8.282  -0.468  -8.067  0.00  0.00     0.027 H 
ATOM     26  H   LIG d   1       7.664   1.078  -8.713  0.00  0.00     0.027 H 
ATOM     27  H   LIG d   1      10.153   0.985  -3.871  0.00  0.00     0.027 H 
ATOM     28  H   LIG d   1       9.645   2.562  -4.473  0.00  0.00     0.027 H 
ATOM     29  H   LIG d   1       8.181   1.141  -2.734  0.00  0.00     0.027 H 
ATOM     30  H   LIG d   1       7.447   2.244  -3.913  0.00  0.00     0.027 H 
ATOM     31  H   LIG d   1       5.914  -0.557  -7.492  0.00  0.00     0.027 H 
ATOM     32  H   LIG d   1       7.215  -1.508  -6.733  0.00  0.00     0.027 H 
ATOM     33  H   LIG d   1       4.523  -1.855  -6.246  0.00  0.00     0.027 H 
ATOM     34  H   LIG d   1       5.819  -2.356  -5.138  0.00  0.00     0.027 H 
ATOM     35  H   LIG d   1       6.267   1.347  -2.082  0.00  0.00     0.027 H 
ATOM     36  H   LIG d   1       5.311   1.926  -3.466  0.00  0.00     0.027 H 
ATOM     37  H   LIG d   1       4.392  -0.046  -1.310  0.00  0.00     0.026 H 
ATOM     38  H   LIG d   1       3.841   1.613  -1.542  0.00  0.00     0.026 H 
ATOM     39  H   LIG d   1       2.246  -0.081  -2.446  0.00  0.00     0.026 H 
ATOM     40  H   LIG d   1       2.821   1.070  -3.668  0.00  0.00     0.026 H 
ATOM     41  H   LIG d   1       3.781  -1.803  -3.279  0.00  0.00     0.027 H 
ATOM     42  H   LIG d   1       2.826  -1.164  -4.624  0.00  0.00     0.027 H 
ENDROOT
BRANCH   1  43
ATOM     43  C   LIG d   1      10.311   3.101  -6.808  0.00  0.00    -0.040 C 
ATOM     44  H   LIG d   1       9.388   3.416  -6.320  0.00  0.00     0.030 H 
BRANCH  43  45
ATOM     45  C   LIG d   1      11.510   3.603  -6.001  0.00  0.00    -0.062 C 
ATOM     46  H   LIG d   1      11.535   4.692  -6.027  0.00  0.00     0.023 H 
ATOM     47  H   LIG d   1      11.421   3.266  -4.969  0.00  0.00     0.023 H 
ATOM     48  H   LIG d   1      12.429   3.208  -6.433  0.00  0.00     0.023 H 
ENDBRANCH  43  45
BRANCH  43  49
ATOM     49  C   LIG d   1      10.367   3.683  -8.222  0.00  0.00    -0.045 C 
ATOM     50  H   LIG d   1      11.398   3.929  -8.472  0.00  0.00     0.027 H 
ATOM     51  H   LIG d   1       9.984   2.949  -8.932  0.00  0.00     0.027 H 
BRANCH  49  52
ATOM     52  C   LIG d   1       9.509   4.949  -8.286  0.00  0.00    -0.013 C 
ATOM     53  H   LIG d   1       9.004   5.094  -7.332  0.00  0.00     0.033 H 
ATOM     54  H   LIG d   1      10.147   5.809  -8.494  0.00  0.00     0.033 H 
BRANCH  52  55
ATOM     55  C   LIG d   1       8.485   4.806  -9.381  0.00  0.00     0.042 C 
ATOM     56  O   LIG d   1       8.382   5.664 -10.227  0.00  0.00    -0.550 OA
ATOM     57  O   LIG d   1       7.685   3.730  -9.417  0.00  0.00    -0.550 OA
ENDBRANCH  52  55
ENDBRANCH  49  52
ENDBRANCH  43  49
ENDBRANCH   1  43
BRANCH   7  58
ATOM     58  C   LIG d   1       9.804  -0.563  -5.815  0.00  0.00    -0.059 C 
ATOM     59  H   LIG d   1       9.280  -1.112  -6.597  0.00  0.00     0.024 H 
ATOM     60  H   LIG d   1      10.879  -0.650  -5.968  0.00  0.00     0.024 H 
ATOM     61  H   LIG d   1       9.541  -0.978  -4.842  0.00  0.00     0.024 H 
ENDBRANCH   7  58
BRANCH  18  62
ATOM     62  C   LIG d   1       6.239  -1.300  -2.692  0.00  0.00    -0.059 C 
ATOM     63  H   LIG d   1       6.753  -0.941  -1.801  0.00  0.00     0.024 H 
ATOM     64  H   LIG d   1       5.297  -1.768  -2.405  0.00  0.00     0.024 H 
ATOM     65  H   LIG d   1       6.865  -2.029  -3.205  0.00  0.00     0.024 H 
ENDBRANCH  18  62
TORSDOF 7
ENDMDL
MODEL 6
REMARK VINA RESULT:      -5.5      4.716      6.746
REMARK  7 active torsions:
REMARK  status: ('A' for Active; 'I' for Inactive)
REMARK    1  A    between atoms: C_1  and  C_2 
REMARK    2  A    between atoms: C_2  and  C_4 
REMARK    3  A    between atoms: C_2  and  C_8 
REMARK    4  A    between atoms: C_4  and  C_5 
REMARK    5  A    between atoms: C_5  and  C_6 
REMARK    6  A    between atoms: C_14  and  C_31 
REMARK    7  A    between atoms: C_25  and  C_30 
ROOT
ATOM      1  C   LIG d   1       3.552  -1.076 -10.367  0.00  0.00    -0.033 C 
ATOM      2  H   LIG d   1       3.701  -0.238 -11.042  0.00  0.00     0.031 H 
ATOM      3  C   LIG d   1       4.621  -2.172 -10.621  0.00  0.00    -0.049 C 
ATOM      4  C   LIG d   1       5.129  -2.623  -9.226  0.00  0.00    -0.049 C 
ATOM      5  C   LIG d   1       4.126  -1.989  -8.250  0.00  0.00    -0.032 C 
ATOM      6  H   LIG d   1       3.206  -2.609  -8.266  0.00  0.00     0.031 H 
ATOM      7  C   LIG d   1       3.836  -0.632  -8.918  0.00  0.00    -0.026 C 
ATOM      8  C   LIG d   1       2.736   0.116  -8.219  0.00  0.00    -0.047 C 
ATOM      9  C   LIG d   1       2.779  -0.113  -6.701  0.00  0.00    -0.049 C 
ATOM     10  C   LIG d   1       4.169  -0.512  -6.231  0.00  0.00    -0.032 C 
ATOM     11  H   LIG d   1       4.890   0.249  -6.531  0.00  0.00     0.031 H 
ATOM     12  C   LIG d   1       4.569  -1.862  -6.822  0.00  0.00    -0.034 C 
ATOM     13  H   LIG d   1       4.017  -2.637  -6.252  0.00  0.00     0.031 H 
ATOM     14  C   LIG d   1       6.052  -2.129  -6.601  0.00  0.00    -0.049 C 
ATOM     15  C   LIG d   1       6.412  -1.792  -5.144  0.00  0.00    -0.049 C 
ATOM     16  C   LIG d   1       5.132  -1.777  -4.324  0.00  0.00    -0.035 C 
ATOM     17  H   LIG d   1       4.573  -2.696  -4.565  0.00  0.00     0.031 H 
ATOM     18  C   LIG d   1       4.255  -0.586  -4.706  0.00  0.00    -0.026 C 
ATOM     19  C   LIG d   1       2.890  -0.754  -4.049  0.00  0.00    -0.047 C 
ATOM     20  C   LIG d   1       3.058  -0.818  -2.527  0.00  0.00    -0.052 C 
ATOM     21  C   LIG d   1       4.017  -1.931  -2.116  0.00  0.00    -0.053 C 
ATOM     22  C   LIG d   1       5.371  -1.792  -2.821  0.00  0.00    -0.050 C 
ATOM     23  H   LIG d   1       5.443  -1.760 -11.206  0.00  0.00     0.027 H 
ATOM     24  H   LIG d   1       4.171  -3.013 -11.148  0.00  0.00     0.027 H 
ATOM     25  H   LIG d   1       6.141  -2.270  -9.046  0.00  0.00     0.027 H 
ATOM     26  H   LIG d   1       5.093  -3.713  -9.147  0.00  0.00     0.027 H 
ATOM     27  H   LIG d   1       2.852   1.195  -8.414  0.00  0.00     0.027 H 
ATOM     28  H   LIG d   1       1.745  -0.166  -8.584  0.00  0.00     0.027 H 
ATOM     29  H   LIG d   1       2.475   0.810  -6.196  0.00  0.00     0.027 H 
ATOM     30  H   LIG d   1       2.064  -0.898  -6.437  0.00  0.00     0.027 H 
ATOM     31  H   LIG d   1       6.267  -3.181  -6.787  0.00  0.00     0.027 H 
ATOM     32  H   LIG d   1       6.648  -1.510  -7.267  0.00  0.00     0.027 H 
ATOM     33  H   LIG d   1       7.083  -2.564  -4.757  0.00  0.00     0.027 H 
ATOM     34  H   LIG d   1       6.914  -0.829  -5.104  0.00  0.00     0.027 H 
ATOM     35  H   LIG d   1       2.248   0.093  -4.307  0.00  0.00     0.027 H 
ATOM     36  H   LIG d   1       2.422  -1.675  -4.405  0.00  0.00     0.027 H 
ATOM     37  H   LIG d   1       3.407   0.135  -2.138  0.00  0.00     0.026 H 
ATOM     38  H   LIG d   1       2.077  -1.022  -2.077  0.00  0.00     0.026 H 
ATOM     39  H   LIG d   1       4.173  -1.889  -1.036  0.00  0.00     0.026 H 
ATOM     40  H   LIG d   1       3.577  -2.897  -2.369  0.00  0.00     0.026 H 
ATOM     41  H   LIG d   1       5.886  -0.900  -2.486  0.00  0.00     0.027 H 
ATOM     42  H   LIG d   1       5.988  -2.664  -2.570  0.00  0.00     0.027 H 
ENDROOT
BRANCH   1  43
ATOM     43  C   LIG d   1       2.156  -1.665 -10.526  0.00  0.00    -0.040 C 
ATOM     44  H   LIG d   1       1.709  -1.809  -9.542  0.00  0.00     0.030 H 
BRANCH  43  45
ATOM     45  C   LIG d   1       1.288  -0.706 -11.344  0.00  0.00    -0.062 C 
ATOM     46  H   LIG d   1       0.383  -0.469 -10.785  0.00  0.00     0.023 H 
ATOM     47  H   LIG d   1       1.845   0.209 -11.542  0.00  0.00     0.023 H 
ATOM     48  H   LIG d   1       1.018  -1.178 -12.289  0.00  0.00     0.023 H 
ENDBRANCH  43  45
BRANCH  43  49
ATOM     49  C   LIG d   1       2.249  -3.011 -11.247  0.00  0.00    -0.045 C 
ATOM     50  H   LIG d   1       1.769  -2.934 -12.222  0.00  0.00     0.027 H 
ATOM     51  H   LIG d   1       3.297  -3.281 -11.378  0.00  0.00     0.027 H 
BRANCH  49  52
ATOM     52  C   LIG d   1       1.546  -4.086 -10.415  0.00  0.00    -0.013 C 
ATOM     53  H   LIG d   1       1.156  -3.639  -9.501  0.00  0.00     0.033 H 
ATOM     54  H   LIG d   1       0.724  -4.511 -10.991  0.00  0.00     0.033 H 
BRANCH  52  55
ATOM     55  C   LIG d   1       2.529  -5.172 -10.063  0.00  0.00     0.042 C 
ATOM     56  O   LIG d   1       2.539  -5.639  -8.948  0.00  0.00    -0.550 OA
ATOM     57  O   LIG d   1       3.394  -5.619 -10.986  0.00  0.00    -0.550 OA
ENDBRANCH  52  55
ENDBRANCH  49  52
ENDBRANCH  43  49
ENDBRANCH   1  43
BRANCH   7  58
ATOM     58  C   LIG d   1       5.101   0.243  -8.992  0.00  0.00    -0.059 C 
ATOM     59  H   LIG d   1       5.161   0.869  -8.103  0.00  0.00     0.024 H 
ATOM     60  H   LIG d   1       5.982  -0.395  -9.048  0.00  0.00     0.024 H 
ATOM     61  H   LIG d   1       5.053   0.875  -9.879  0.00  0.00     0.024 H 
ENDBRANCH   7  58
BRANCH  18  62
ATOM     62  C   LIG d   1       4.890   0.721  -4.224  0.00  0.00    -0.059 C 
ATOM     63  H   LIG d   1       4.761   1.490  -4.985  0.00  0.00     0.024 H 
ATOM     64  H   LIG d   1       4.410   1.039  -3.299  0.00  0.00     0.024 H 
ATOM     65  H   LIG d   1       5.953   0.561  -4.044  0.00  0.00     0.024 H 
ENDBRANCH  18  62
TORSDOF 7
ENDMDL
MODEL 7
REMARK VINA RESULT:      -5.3      4.381      7.004
REMARK  7 active torsions:
REMARK  status: ('A' for Active; 'I' for Inactive)
REMARK    1  A    between atoms: C_1  and  C_2 
REMARK    2  A    between atoms: C_2  and  C_4 
REMARK    3  A    between atoms: C_2  and  C_8 
REMARK    4  A    between atoms: C_4  and  C_5 
REMARK    5  A    between atoms: C_5  and  C_6 
REMARK    6  A    between atoms: C_14  and  C_31 
REMARK    7  A    between atoms: C_25  and  C_30 
ROOT
ATOM      1  C   LIG d   1       6.442  -1.339  -4.773  0.00  0.00    -0.033 C 
ATOM      2  H   LIG d   1       6.736  -2.385  -4.779  0.00  0.00     0.031 H 
ATOM      3  C   LIG d   1       6.576  -0.747  -3.345  0.00  0.00    -0.049 C 
ATOM      4  C   LIG d   1       7.261   0.637  -3.503  0.00  0.00    -0.049 C 
ATOM      5  C   LIG d   1       7.213   0.896  -5.017  0.00  0.00    -0.032 C 
ATOM      6  H   LIG d   1       6.184   1.225  -5.268  0.00  0.00     0.031 H 
ATOM      7  C   LIG d   1       7.451  -0.512  -5.595  0.00  0.00    -0.026 C 
ATOM      8  C   LIG d   1       7.283  -0.543  -7.088  0.00  0.00    -0.047 C 
ATOM      9  C   LIG d   1       7.780   0.758  -7.737  0.00  0.00    -0.049 C 
ATOM     10  C   LIG d   1       8.804   1.466  -6.863  0.00  0.00    -0.032 C 
ATOM     11  H   LIG d   1       9.635   0.793  -6.651  0.00  0.00     0.031 H 
ATOM     12  C   LIG d   1       8.167   1.923  -5.552  0.00  0.00    -0.034 C 
ATOM     13  H   LIG d   1       7.560   2.822  -5.788  0.00  0.00     0.031 H 
ATOM     14  C   LIG d   1       9.234   2.364  -4.558  0.00  0.00    -0.049 C 
ATOM     15  C   LIG d   1      10.246   3.271  -5.278  0.00  0.00    -0.049 C 
ATOM     16  C   LIG d   1       9.602   3.796  -6.551  0.00  0.00    -0.035 C 
ATOM     17  H   LIG d   1       8.601   4.174  -6.284  0.00  0.00     0.031 H 
ATOM     18  C   LIG d   1       9.419   2.674  -7.571  0.00  0.00    -0.026 C 
ATOM     19  C   LIG d   1       8.550   3.189  -8.712  0.00  0.00    -0.047 C 
ATOM     20  C   LIG d   1       9.232   4.393  -9.371  0.00  0.00    -0.052 C 
ATOM     21  C   LIG d   1       9.529   5.493  -8.356  0.00  0.00    -0.053 C 
ATOM     22  C   LIG d   1      10.355   4.959  -7.180  0.00  0.00    -0.050 C 
ATOM     23  H   LIG d   1       7.189  -1.402  -2.727  0.00  0.00     0.027 H 
ATOM     24  H   LIG d   1       5.588  -0.628  -2.899  0.00  0.00     0.027 H 
ATOM     25  H   LIG d   1       8.283   0.611  -3.134  0.00  0.00     0.027 H 
ATOM     26  H   LIG d   1       6.690   1.403  -2.972  0.00  0.00     0.027 H 
ATOM     27  H   LIG d   1       7.864  -1.384  -7.500  0.00  0.00     0.027 H 
ATOM     28  H   LIG d   1       6.243  -0.701  -7.386  0.00  0.00     0.027 H 
ATOM     29  H   LIG d   1       8.232   0.519  -8.705  0.00  0.00     0.027 H 
ATOM     30  H   LIG d   1       6.927   1.420  -7.911  0.00  0.00     0.027 H 
ATOM     31  H   LIG d   1       8.770   2.921  -3.745  0.00  0.00     0.027 H 
ATOM     32  H   LIG d   1       9.754   1.497  -4.158  0.00  0.00     0.027 H 
ATOM     33  H   LIG d   1      10.496   4.111  -4.623  0.00  0.00     0.027 H 
ATOM     34  H   LIG d   1      11.150   2.709  -5.499  0.00  0.00     0.027 H 
ATOM     35  H   LIG d   1       8.412   2.399  -9.457  0.00  0.00     0.027 H 
ATOM     36  H   LIG d   1       7.573   3.487  -8.326  0.00  0.00     0.027 H 
ATOM     37  H   LIG d   1      10.149   4.092  -9.871  0.00  0.00     0.026 H 
ATOM     38  H   LIG d   1       8.555   4.801 -10.134  0.00  0.00     0.026 H 
ATOM     39  H   LIG d   1      10.086   6.293  -8.848  0.00  0.00     0.026 H 
ATOM     40  H   LIG d   1       8.590   5.900  -7.980  0.00  0.00     0.026 H 
ATOM     41  H   LIG d   1      11.345   4.668  -7.509  0.00  0.00     0.027 H 
ATOM     42  H   LIG d   1      10.460   5.758  -6.434  0.00  0.00     0.027 H 
ENDROOT
BRANCH   1  43
ATOM     43  C   LIG d   1       5.014  -1.169  -5.275  0.00  0.00    -0.040 C 
ATOM     44  H   LIG d   1       4.947  -0.266  -5.881  0.00  0.00     0.030 H 
BRANCH  43  45
ATOM     45  C   LIG d   1       4.624  -2.381  -6.124  0.00  0.00    -0.062 C 
ATOM     46  H   LIG d   1       4.614  -3.274  -5.499  0.00  0.00     0.023 H 
ATOM     47  H   LIG d   1       3.634  -2.223  -6.550  0.00  0.00     0.023 H 
ATOM     48  H   LIG d   1       5.349  -2.509  -6.929  0.00  0.00     0.023 H 
ENDBRANCH  43  45
BRANCH  43  49
ATOM     49  C   LIG d   1       4.064  -1.056  -4.081  0.00  0.00    -0.045 C 
ATOM     50  H   LIG d   1       3.446  -1.951  -4.022  0.00  0.00     0.027 H 
ATOM     51  H   LIG d   1       4.645  -0.953  -3.164  0.00  0.00     0.027 H 
BRANCH  49  52
ATOM     52  C   LIG d   1       3.168   0.172  -4.257  0.00  0.00    -0.013 C 
ATOM     53  H   LIG d   1       3.342   0.611  -5.239  0.00  0.00     0.033 H 
ATOM     54  H   LIG d   1       2.122  -0.126  -4.173  0.00  0.00     0.033 H 
BRANCH  52  55
ATOM     55  C   LIG d   1       3.489   1.186  -3.190  0.00  0.00     0.042 C 
ATOM     56  O   LIG d   1       3.627   2.350  -3.485  0.00  0.00    -0.550 OA
ATOM     57  O   LIG d   1       3.624   0.797  -1.913  0.00  0.00    -0.550 OA
ENDBRANCH  52  55
ENDBRANCH  49  52
ENDBRANCH  43  49
ENDBRANCH   1  43
BRANCH   7  58
ATOM     58  C   LIG d   1       8.841  -1.052  -5.213  0.00  0.00    -0.059 C 
ATOM     59  H   LIG d   1       9.605  -0.337  -5.517  0.00  0.00     0.024 H 
ATOM     60  H   LIG d   1       8.890  -1.201  -4.135  0.00  0.00     0.024 H 
ATOM     61  H   LIG d   1       9.012  -2.002  -5.719  0.00  0.00     0.024 H 
ENDBRANCH   7  58
BRANCH  18  62
ATOM     62  C   LIG d   1      10.775   2.232  -8.126  0.00  0.00    -0.059 C 
ATOM     63  H   LIG d   1      11.566   2.820  -7.661  0.00  0.00     0.024 H 
ATOM     64  H   LIG d   1      10.930   1.176  -7.908  0.00  0.00     0.024 H 
ATOM     65  H   LIG d   1      10.792   2.386  -9.205  0.00  0.00     0.024 H 
ENDBRANCH  18  62
TORSDOF 7
ENDMDL
MODEL 8
REMARK VINA RESULT:      -5.3      3.354      4.493
REMARK  7 active torsions:
REMARK  status: ('A' for Active; 'I' for Inactive)
REMARK    1  A    between atoms: C_1  and  C_2 
REMARK    2  A    between atoms: C_2  and  C_4 
REMARK    3  A    between atoms: C_2  and  C_8 
REMARK    4  A    between atoms: C_4  and  C_5 
REMARK    5  A    between atoms: C_5  and  C_6 
REMARK    6  A    between atoms: C_14  and  C_31 
REMARK    7  A    between atoms: C_25  and  C_30 
ROOT
ATOM      1  C   LIG d   1      10.123   0.108  -7.346  0.00  0.00    -0.033 C 
ATOM      2  H   LIG d   1      10.092   0.476  -8.368  0.00  0.00     0.031 H 
ATOM      3  C   LIG d   1      10.796   1.152  -6.416  0.00  0.00    -0.049 C 
ATOM      4  C   LIG d   1       9.917   1.238  -5.140  0.00  0.00    -0.049 C 
ATOM      5  C   LIG d   1       8.966   0.038  -5.271  0.00  0.00    -0.032 C 
ATOM      6  H   LIG d   1       9.532  -0.871  -4.985  0.00  0.00     0.031 H 
ATOM      7  C   LIG d   1       8.690   0.007  -6.787  0.00  0.00    -0.026 C 
ATOM      8  C   LIG d   1       7.898  -1.205  -7.190  0.00  0.00    -0.047 C 
ATOM      9  C   LIG d   1       6.873  -1.589  -6.113  0.00  0.00    -0.049 C 
ATOM     10  C   LIG d   1       6.503  -0.401  -5.239  0.00  0.00    -0.032 C 
ATOM     11  H   LIG d   1       6.127   0.411  -5.862  0.00  0.00     0.031 H 
ATOM     12  C   LIG d   1       7.715   0.080  -4.445  0.00  0.00    -0.034 C 
ATOM     13  H   LIG d   1       7.862  -0.644  -3.616  0.00  0.00     0.031 H 
ATOM     14  C   LIG d   1       7.436   1.432  -3.800  0.00  0.00    -0.049 C 
ATOM     15  C   LIG d   1       6.049   1.395  -3.137  0.00  0.00    -0.049 C 
ATOM     16  C   LIG d   1       5.651  -0.057  -2.932  0.00  0.00    -0.035 C 
ATOM     17  H   LIG d   1       6.508  -0.573  -2.467  0.00  0.00     0.031 H 
ATOM     18  C   LIG d   1       5.369  -0.739  -4.270  0.00  0.00    -0.026 C 
ATOM     19  C   LIG d   1       5.225  -2.237  -4.034  0.00  0.00    -0.047 C 
ATOM     20  C   LIG d   1       4.072  -2.494  -3.058  0.00  0.00    -0.052 C 
ATOM     21  C   LIG d   1       4.269  -1.739  -1.748  0.00  0.00    -0.053 C 
ATOM     22  C   LIG d   1       4.469  -0.239  -1.991  0.00  0.00    -0.050 C 
ATOM     23  H   LIG d   1      10.835   2.121  -6.912  0.00  0.00     0.027 H 
ATOM     24  H   LIG d   1      11.803   0.823  -6.157  0.00  0.00     0.027 H 
ATOM     25  H   LIG d   1       9.373   2.178  -5.103  0.00  0.00     0.027 H 
ATOM     26  H   LIG d   1      10.537   1.129  -4.246  0.00  0.00     0.027 H 
ATOM     27  H   LIG d   1       7.358  -0.988  -8.126  0.00  0.00     0.027 H 
ATOM     28  H   LIG d   1       8.535  -2.071  -7.386  0.00  0.00     0.027 H 
ATOM     29  H   LIG d   1       5.973  -1.974  -6.603  0.00  0.00     0.027 H 
ATOM     30  H   LIG d   1       7.290  -2.386  -5.490  0.00  0.00     0.027 H 
ATOM     31  H   LIG d   1       8.190   1.638  -3.040  0.00  0.00     0.027 H 
ATOM     32  H   LIG d   1       7.450   2.216  -4.553  0.00  0.00     0.027 H 
ATOM     33  H   LIG d   1       6.106   1.897  -2.167  0.00  0.00     0.027 H 
ATOM     34  H   LIG d   1       5.329   1.913  -3.765  0.00  0.00     0.027 H 
ATOM     35  H   LIG d   1       5.017  -2.742  -4.982  0.00  0.00     0.027 H 
ATOM     36  H   LIG d   1       6.153  -2.634  -3.617  0.00  0.00     0.027 H 
ATOM     37  H   LIG d   1       3.120  -2.220  -3.505  0.00  0.00     0.026 H 
ATOM     38  H   LIG d   1       4.037  -3.569  -2.836  0.00  0.00     0.026 H 
ATOM     39  H   LIG d   1       3.389  -1.882  -1.116  0.00  0.00     0.026 H 
ATOM     40  H   LIG d   1       5.141  -2.139  -1.229  0.00  0.00     0.026 H 
ATOM     41  H   LIG d   1       3.566   0.207  -2.388  0.00  0.00     0.027 H 
ATOM     42  H   LIG d   1       4.702   0.244  -1.033  0.00  0.00     0.027 H 
ENDROOT
BRANCH   1  43
ATOM     43  C   LIG d   1      10.868  -1.218  -7.264  0.00  0.00    -0.040 C 
ATOM     44  H   LIG d   1      10.352  -1.882  -6.571  0.00  0.00     0.030 H 
BRANCH  43  45
ATOM     45  C   LIG d   1      10.913  -1.864  -8.651  0.00  0.00    -0.062 C 
ATOM     46  H   LIG d   1      10.425  -2.838  -8.614  0.00  0.00     0.023 H 
ATOM     47  H   LIG d   1      10.397  -1.225  -9.366  0.00  0.00     0.023 H 
ATOM     48  H   LIG d   1      11.951  -1.989  -8.960  0.00  0.00     0.023 H 
ENDBRANCH  43  45
BRANCH  43  49
ATOM     49  C   LIG d   1      12.295  -0.972  -6.770  0.00  0.00    -0.045 C 
ATOM     50  H   LIG d   1      12.966  -0.891  -7.624  0.00  0.00     0.027 H 
ATOM     51  H   LIG d   1      12.325  -0.047  -6.193  0.00  0.00     0.027 H 
BRANCH  49  52
ATOM     52  C   LIG d   1      12.736  -2.139  -5.883  0.00  0.00    -0.013 C 
ATOM     53  H   LIG d   1      12.264  -3.058  -6.231  0.00  0.00     0.033 H 
ATOM     54  H   LIG d   1      13.820  -2.246  -5.935  0.00  0.00     0.033 H 
BRANCH  52  55
ATOM     55  C   LIG d   1      12.324  -1.871  -4.459  0.00  0.00     0.042 C 
ATOM     56  O   LIG d   1      11.731  -2.718  -3.833  0.00  0.00    -0.550 OA
ATOM     57  O   LIG d   1      12.615  -0.693  -3.886  0.00  0.00    -0.550 OA
ENDBRANCH  52  55
ENDBRANCH  49  52
ENDBRANCH  43  49
ENDBRANCH   1  43
BRANCH   7  58
ATOM     58  C   LIG d   1       7.970   1.284  -7.256  0.00  0.00    -0.059 C 
ATOM     59  H   LIG d   1       7.549   1.120  -8.248  0.00  0.00     0.024 H 
ATOM     60  H   LIG d   1       7.171   1.529  -6.558  0.00  0.00     0.024 H 
ATOM     61  H   LIG d   1       8.682   2.109  -7.296  0.00  0.00     0.024 H 
ENDBRANCH   7  58
BRANCH  18  62
ATOM     62  C   LIG d   1       4.074  -0.197  -4.881  0.00  0.00    -0.059 C 
ATOM     63  H   LIG d   1       4.156   0.883  -5.007  0.00  0.00     0.024 H 
ATOM     64  H   LIG d   1       3.907  -0.663  -5.851  0.00  0.00     0.024 H 
ATOM     65  H   LIG d   1       3.238  -0.424  -4.220  0.00  0.00     0.024 H 
ENDBRANCH  18  62
TORSDOF 7
ENDMDL
MODEL 9
REMARK VINA RESULT:      -5.2      2.978      7.443
REMARK  7 active torsions:
REMARK  status: ('A' for Active; 'I' for Inactive)
REMARK    1  A    between atoms: C_1  and  C_2 
REMARK    2  A    between atoms: C_2  and  C_4 
REMARK    3  A    between atoms: C_2  and  C_8 
REMARK    4  A    between atoms: C_4  and  C_5 
REMARK    5  A    between atoms: C_5  and  C_6 
REMARK    6  A    between atoms: C_14  and  C_31 
REMARK    7  A    between atoms: C_25  and  C_30 
ROOT
ATOM      1  C   LIG d   1       6.055  -3.233  -5.660  0.00  0.00    -0.033 C 
ATOM      2  H   LIG d   1       6.777  -2.603  -6.175  0.00  0.00     0.031 H 
ATOM      3  C   LIG d   1       4.668  -3.140  -6.348  0.00  0.00    -0.049 C 
ATOM      4  C   LIG d   1       4.132  -4.593  -6.456  0.00  0.00    -0.049 C 
ATOM      5  C   LIG d   1       5.089  -5.402  -5.567  0.00  0.00    -0.032 C 
ATOM      6  H   LIG d   1       4.794  -5.227  -4.512  0.00  0.00     0.031 H 
ATOM      7  C   LIG d   1       6.441  -4.715  -5.837  0.00  0.00    -0.026 C 
ATOM      8  C   LIG d   1       7.526  -5.237  -4.937  0.00  0.00    -0.047 C 
ATOM      9  C   LIG d   1       7.354  -6.738  -4.662  0.00  0.00    -0.049 C 
ATOM     10  C   LIG d   1       6.552  -7.422  -5.758  0.00  0.00    -0.032 C 
ATOM     11  H   LIG d   1       7.032  -7.256  -6.723  0.00  0.00     0.031 H 
ATOM     12  C   LIG d   1       5.124  -6.884  -5.794  0.00  0.00    -0.034 C 
ATOM     13  H   LIG d   1       4.587  -7.345  -4.939  0.00  0.00     0.031 H 
ATOM     14  C   LIG d   1       4.407  -7.340  -7.059  0.00  0.00    -0.049 C 
ATOM     15  C   LIG d   1       4.668  -8.841  -7.270  0.00  0.00    -0.049 C 
ATOM     16  C   LIG d   1       5.121  -9.442  -5.949  0.00  0.00    -0.035 C 
ATOM     17  H   LIG d   1       4.418  -9.099  -5.171  0.00  0.00     0.031 H 
ATOM     18  C   LIG d   1       6.513  -8.940  -5.571  0.00  0.00    -0.026 C 
ATOM     19  C   LIG d   1       6.813  -9.362  -4.138  0.00  0.00    -0.047 C 
ATOM     20  C   LIG d   1       6.757 -10.890  -4.033  0.00  0.00    -0.052 C 
ATOM     21  C   LIG d   1       5.414 -11.436  -4.507  0.00  0.00    -0.053 C 
ATOM     22  C   LIG d   1       5.088 -10.963  -5.928  0.00  0.00    -0.050 C 
ATOM     23  H   LIG d   1       4.775  -2.703  -7.341  0.00  0.00     0.027 H 
ATOM     24  H   LIG d   1       3.993  -2.535  -5.743  0.00  0.00     0.027 H 
ATOM     25  H   LIG d   1       4.152  -4.941  -7.486  0.00  0.00     0.027 H 
ATOM     26  H   LIG d   1       3.114  -4.649  -6.062  0.00  0.00     0.027 H 
ATOM     27  H   LIG d   1       8.504  -5.079  -5.421  0.00  0.00     0.027 H 
ATOM     28  H   LIG d   1       7.560  -4.711  -3.979  0.00  0.00     0.027 H 
ATOM     29  H   LIG d   1       8.344  -7.200  -4.593  0.00  0.00     0.027 H 
ATOM     30  H   LIG d   1       6.848  -6.870  -3.701  0.00  0.00     0.027 H 
ATOM     31  H   LIG d   1       3.335  -7.176  -6.952  0.00  0.00     0.027 H 
ATOM     32  H   LIG d   1       4.779  -6.790  -7.920  0.00  0.00     0.027 H 
ATOM     33  H   LIG d   1       3.738  -9.321  -7.588  0.00  0.00     0.027 H 
ATOM     34  H   LIG d   1       5.422  -8.977  -8.041  0.00  0.00     0.027 H 
ATOM     35  H   LIG d   1       7.809  -9.015  -3.851  0.00  0.00     0.027 H 
ATOM     36  H   LIG d   1       6.076  -8.922  -3.463  0.00  0.00     0.027 H 
ATOM     37  H   LIG d   1       7.564 -11.346  -4.601  0.00  0.00     0.026 H 
ATOM     38  H   LIG d   1       6.893 -11.171  -2.980  0.00  0.00     0.026 H 
ATOM     39  H   LIG d   1       5.446 -12.527  -4.494  0.00  0.00     0.026 H 
ATOM     40  H   LIG d   1       4.629 -11.100  -3.828  0.00  0.00     0.026 H 
ATOM     41  H   LIG d   1       5.782 -11.391  -6.641  0.00  0.00     0.027 H 
ATOM     42  H   LIG d   1       4.075 -11.299  -6.186  0.00  0.00     0.027 H 
ENDROOT
BRANCH   1  43
ATOM     43  C   LIG d   1       5.935  -2.840  -4.193  0.00  0.00    -0.040 C 
ATOM     44  H   LIG d   1       6.039  -3.728  -3.570  0.00  0.00     0.030 H 
BRANCH  43  45
ATOM     45  C   LIG d   1       7.038  -1.840  -3.841  0.00  0.00    -0.062 C 
ATOM     46  H   LIG d   1       7.159  -1.798  -2.759  0.00  0.00     0.023 H 
ATOM     47  H   LIG d   1       7.975  -2.155  -4.300  0.00  0.00     0.023 H 
ATOM     48  H   LIG d   1       6.766  -0.852  -4.214  0.00  0.00     0.023 H 
ENDBRANCH  43  45
BRANCH  43  49
ATOM     49  C   LIG d   1       4.568  -2.199  -3.947  0.00  0.00    -0.045 C 
ATOM     50  H   LIG d   1       4.505  -1.258  -4.491  0.00  0.00     0.027 H 
ATOM     51  H   LIG d   1       3.783  -2.873  -4.293  0.00  0.00     0.027 H 
BRANCH  49  52
ATOM     52  C   LIG d   1       4.390  -1.936  -2.450  0.00  0.00    -0.013 C 
ATOM     53  H   LIG d   1       3.657  -2.633  -2.043  0.00  0.00     0.033 H 
ATOM     54  H   LIG d   1       5.344  -2.075  -1.941  0.00  0.00     0.033 H 
BRANCH  52  55
ATOM     55  C   LIG d   1       3.909  -0.524  -2.241  0.00  0.00     0.042 C 
ATOM     56  O   LIG d   1       2.841  -0.178  -2.687  0.00  0.00    -0.550 OA
ATOM     57  O   LIG d   1       4.668   0.350  -1.562  0.00  0.00    -0.550 OA
ENDBRANCH  52  55
ENDBRANCH  49  52
ENDBRANCH  43  49
ENDBRANCH   1  43
BRANCH   7  58
ATOM     58  C   LIG d   1       6.865  -4.861  -7.309  0.00  0.00    -0.059 C 
ATOM     59  H   LIG d   1       7.697  -5.562  -7.379  0.00  0.00     0.024 H 
ATOM     60  H   LIG d   1       6.025  -5.233  -7.895  0.00  0.00     0.024 H 
ATOM     61  H   LIG d   1       7.176  -3.891  -7.695  0.00  0.00     0.024 H 
ENDBRANCH   7  58
BRANCH  18  62
ATOM     62  C   LIG d   1       7.567  -9.539  -6.506  0.00  0.00    -0.059 C 
ATOM     63  H   LIG d   1       8.039 -10.393  -6.021  0.00  0.00     0.024 H 
ATOM     64  H   LIG d   1       7.090  -9.863  -7.431  0.00  0.00     0.024 H 
ATOM     65  H   LIG d   1       8.322  -8.785  -6.731  0.00  0.00     0.024 H 
ENDBRANCH  18  62
TORSDOF 7
ENDMDL
