MODEL 1
REMARK VINA RESULT:      -4.7      0.000      0.000
REMARK  8 active torsions:
REMARK  status: ('A' for Active; 'I' for Inactive)
REMARK    1  A    between atoms: C_1  and  N_2 
REMARK    2  A    between atoms: N_6  and  C_20 
REMARK    3  A    between atoms: N_9  and  C_17 
REMARK    4  A    between atoms: N_13  and  C_16 
REMARK    5  A    between atoms: C_17  and  C_18 
REMARK    6  A    between atoms: C_18  and  N_19 
REMARK    7  A    between atoms: C_20  and  C_21 
REMARK    8  A    between atoms: C_21  and  N_22 
ROOT
ATOM      1  N   LIG d   1       9.677  11.683  -1.142  0.00  0.00     0.234 N 
ATOM      2  C   LIG d   1       9.300  10.803  -2.246  0.00  0.00    -0.031 C 
ATOM      3  C   LIG d   1       9.922  11.207  -3.578  0.00  0.00     0.000 C 
ATOM      4  C   LIG d   1       9.330  10.330  -4.689  0.00  0.00     0.004 C 
ATOM      5  N   LIG d   1      10.430   9.471  -5.240  0.00  0.00    -0.296 N 
ATOM      6  C   LIG d   1      10.038   8.066  -4.886  0.00  0.00     0.012 C 
ATOM      7  C   LIG d   1      11.311   7.263  -4.627  0.00  0.00     0.012 C 
ATOM      8  N   LIG d   1      11.127   6.461  -3.389  0.00  0.00    -0.296 N 
ATOM      9  C   LIG d   1      12.283   6.733  -2.496  0.00  0.00     0.000 C 
ATOM     10  C   LIG d   1      11.791   6.767  -1.049  0.00  0.00    -0.027 C 
ATOM     11  C   LIG d   1      12.404   7.966  -0.326  0.00  0.00    -0.000 C 
ATOM     12  N   LIG d   1      11.313   8.765   0.292  0.00  0.00    -0.300 N 
ATOM     13  C   LIG d   1      11.390  10.136  -0.280  0.00  0.00     0.039 C 
ATOM     14  C   LIG d   1      10.085  10.872   0.016  0.00  0.00    -0.019 C 
ATOM     15  H   LIG d   1       9.593   9.775  -2.008  0.00  0.00     0.082 H 
ATOM     16  H   LIG d   1       8.207  10.820  -2.348  0.00  0.00     0.082 H 
ATOM     17  H   LIG d   1       9.691  12.246  -3.809  0.00  0.00     0.033 H 
ATOM     18  H   LIG d   1      11.000  11.053  -3.561  0.00  0.00     0.033 H 
ATOM     19  H   LIG d   1       8.557   9.690  -4.289  0.00  0.00     0.043 H 
ATOM     20  H   LIG d   1       8.954  10.951  -5.493  0.00  0.00     0.043 H 
ATOM     21  H   LIG d   1       9.425   8.097  -3.993  0.00  0.00     0.044 H 
ATOM     22  H   LIG d   1       9.491   7.648  -5.725  0.00  0.00     0.044 H 
ATOM     23  H   LIG d   1      11.495   6.580  -5.455  0.00  0.00     0.044 H 
ATOM     24  H   LIG d   1      12.156   7.931  -4.495  0.00  0.00     0.044 H 
ATOM     25  H   LIG d   1      13.013   5.936  -2.620  0.00  0.00     0.043 H 
ATOM     26  H   LIG d   1      12.719   7.691  -2.763  0.00  0.00     0.043 H 
ATOM     27  H   LIG d   1      10.703   6.850  -1.035  0.00  0.00     0.029 H 
ATOM     28  H   LIG d   1      12.089   5.848  -0.543  0.00  0.00     0.029 H 
ATOM     29  H   LIG d   1      13.071   7.625   0.460  0.00  0.00     0.043 H 
ATOM     30  H   LIG d   1      12.940   8.595  -1.031  0.00  0.00     0.043 H 
ATOM     31  H   LIG d   1      12.225  10.654   0.187  0.00  0.00     0.048 H 
ATOM     32  H   LIG d   1      11.548  10.046  -1.352  0.00  0.00     0.048 H 
ATOM     33  H   LIG d   1      10.222  11.529   0.877  0.00  0.00     0.083 H 
ATOM     34  H   LIG d   1       9.299  10.149   0.239  0.00  0.00     0.083 H 
ATOM     35  H   LIG d   1       8.856  12.221  -0.865  0.00  0.00     0.203 HD
ENDROOT
BRANCH   5  36
ATOM     36  C   LIG d   1      10.245   9.544  -6.733  0.00  0.00     0.039 C 
ATOM     37  H   LIG d   1       9.971  10.560  -7.016  0.00  0.00     0.048 H 
ATOM     38  H   LIG d   1      11.175   9.267  -7.228  0.00  0.00     0.048 H 
BRANCH  36  39
ATOM     39  C   LIG d   1       9.135   8.580  -7.156  0.00  0.00    -0.022 C 
ATOM     40  H   LIG d   1       9.549   7.579  -7.275  0.00  0.00     0.083 H 
ATOM     41  H   LIG d   1       8.357   8.563  -6.393  0.00  0.00     0.083 H 
BRANCH  39  42
ATOM     42  N   LIG d   1       8.559   9.026  -8.432  0.00  0.00     0.219 N 
ATOM     43  H   LIG d   1       9.012   9.878  -8.726  0.00  0.00     0.200 HD
ATOM     44  H   LIG d   1       8.699   8.312  -9.132  0.00  0.00     0.200 HD
ATOM     45  H   LIG d   1       7.571   9.193  -8.315  0.00  0.00     0.200 HD
ENDBRANCH  39  42
ENDBRANCH  36  39
ENDBRANCH   5  36
BRANCH   8  46
ATOM     46  C   LIG d   1      11.198   5.026  -3.780  0.00  0.00     0.039 C 
ATOM     47  H   LIG d   1      10.966   4.926  -4.840  0.00  0.00     0.048 H 
ATOM     48  H   LIG d   1      12.203   4.648  -3.591  0.00  0.00     0.048 H 
BRANCH  46  49
ATOM     49  C   LIG d   1      10.188   4.223  -2.958  0.00  0.00    -0.022 C 
ATOM     50  H   LIG d   1       9.568   4.905  -2.377  0.00  0.00     0.083 H 
ATOM     51  H   LIG d   1       9.557   3.640  -3.629  0.00  0.00     0.083 H 
BRANCH  49  52
ATOM     52  N   LIG d   1      10.904   3.317  -2.049  0.00  0.00     0.219 N 
ATOM     53  H   LIG d   1      10.373   2.468  -1.931  0.00  0.00     0.200 HD
ATOM     54  H   LIG d   1      11.809   3.097  -2.438  0.00  0.00     0.200 HD
ATOM     55  H   LIG d   1      11.024   3.766  -1.153  0.00  0.00     0.200 HD
ENDBRANCH  49  52
ENDBRANCH  46  49
ENDBRANCH   8  46
BRANCH   1  56
ATOM     56  C   LIG d   1      10.744  12.619  -1.496  0.00  0.00    -0.043 C 
ATOM     57  H   LIG d   1      11.530  12.087  -2.032  0.00  0.00     0.078 H 
ATOM     58  H   LIG d   1      10.340  13.407  -2.131  0.00  0.00     0.078 H 
ATOM     59  H   LIG d   1      11.157  13.059  -0.588  0.00  0.00     0.078 H 
ENDBRANCH   1  56
BRANCH  12  60
ATOM     60  C   LIG d   1      11.614   8.873   1.745  0.00  0.00    -0.013 C 
ATOM     61  H   LIG d   1      12.273   8.057   2.041  0.00  0.00     0.039 H 
ATOM     62  H   LIG d   1      12.102   9.826   1.946  0.00  0.00     0.039 H 
ATOM     63  H   LIG d   1      10.685   8.814   2.313  0.00  0.00     0.039 H 
ENDBRANCH  12  60
TORSDOF 8
ENDMDL
MODEL 2
REMARK VINA RESULT:      -4.6      2.079      5.486
REMARK  8 active torsions:
REMARK  status: ('A' for Active; 'I' for Inactive)
REMARK    1  A    between atoms: C_1  and  N_2 
REMARK    2  A    between atoms: N_6  and  C_20 
REMARK    3  A    between atoms: N_9  and  C_17 
REMARK    4  A    between atoms: N_13  and  C_16 
REMARK    5  A    between atoms: C_17  and  C_18 
REMARK    6  A    between atoms: C_18  and  N_19 
REMARK    7  A    between atoms: C_20  and  C_21 
REMARK    8  A    between atoms: C_21  and  N_22 
ROOT
ATOM      1  N   LIG d   1      10.651   5.284  -1.036  0.00  0.00     0.234 N 
ATOM      2  C   LIG d   1       9.999   6.367  -1.770  0.00  0.00    -0.031 C 
ATOM      3  C   LIG d   1      10.532   7.748  -1.408  0.00  0.00     0.000 C 
ATOM      4  C   LIG d   1       9.671   8.811  -2.102  0.00  0.00     0.004 C 
ATOM      5  N   LIG d   1      10.526   9.521  -3.110  0.00  0.00    -0.296 N 
ATOM      6  C   LIG d   1       9.924   9.173  -4.440  0.00  0.00     0.012 C 
ATOM      7  C   LIG d   1      11.049   9.097  -5.471  0.00  0.00     0.012 C 
ATOM      8  N   LIG d   1      10.859   7.875  -6.296  0.00  0.00    -0.296 N 
ATOM      9  C   LIG d   1      12.138   7.118  -6.286  0.00  0.00     0.000 C 
ATOM     10  C   LIG d   1      11.824   5.622  -6.247  0.00  0.00    -0.027 C 
ATOM     11  C   LIG d   1      12.722   4.934  -5.220  0.00  0.00    -0.000 C 
ATOM     12  N   LIG d   1      11.872   4.162  -4.276  0.00  0.00    -0.300 N 
ATOM     13  C   LIG d   1      12.135   4.690  -2.910  0.00  0.00     0.039 C 
ATOM     14  C   LIG d   1      11.029   4.213  -1.972  0.00  0.00    -0.019 C 
ATOM     15  H   LIG d   1      10.123   6.203  -2.846  0.00  0.00     0.082 H 
ATOM     16  H   LIG d   1       8.923   6.337  -1.554  0.00  0.00     0.082 H 
ATOM     17  H   LIG d   1      10.472   7.912  -0.333  0.00  0.00     0.033 H 
ATOM     18  H   LIG d   1      11.559   7.866  -1.753  0.00  0.00     0.033 H 
ATOM     19  H   LIG d   1       8.842   8.345  -2.616  0.00  0.00     0.043 H 
ATOM     20  H   LIG d   1       9.328   9.542  -1.378  0.00  0.00     0.043 H 
ATOM     21  H   LIG d   1       9.431   8.213  -4.352  0.00  0.00     0.044 H 
ATOM     22  H   LIG d   1       9.221   9.955  -4.705  0.00  0.00     0.044 H 
ATOM     23  H   LIG d   1      11.012   9.965  -6.127  0.00  0.00     0.044 H 
ATOM     24  H   LIG d   1      12.012   9.043  -4.972  0.00  0.00     0.044 H 
ATOM     25  H   LIG d   1      12.691   7.356  -7.191  0.00  0.00     0.043 H 
ATOM     26  H   LIG d   1      12.710   7.400  -5.407  0.00  0.00     0.043 H 
ATOM     27  H   LIG d   1      10.778   5.475  -5.973  0.00  0.00     0.029 H 
ATOM     28  H   LIG d   1      12.002   5.188  -7.232  0.00  0.00     0.029 H 
ATOM     29  H   LIG d   1      13.399   4.247  -5.719  0.00  0.00     0.043 H 
ATOM     30  H   LIG d   1      13.283   5.675  -4.657  0.00  0.00     0.043 H 
ATOM     31  H   LIG d   1      13.098   4.308  -2.577  0.00  0.00     0.048 H 
ATOM     32  H   LIG d   1      12.155   5.775  -2.966  0.00  0.00     0.048 H 
ATOM     33  H   LIG d   1      11.378   3.352  -1.400  0.00  0.00     0.083 H 
ATOM     34  H   LIG d   1      10.154   3.924  -2.554  0.00  0.00     0.083 H 
ATOM     35  H   LIG d   1       9.978   4.892  -0.377  0.00  0.00     0.203 HD
ENDROOT
BRANCH   5  36
ATOM     36  C   LIG d   1      10.193  10.977  -2.920  0.00  0.00     0.039 C 
ATOM     37  H   LIG d   1       9.967  11.164  -1.870  0.00  0.00     0.048 H 
ATOM     38  H   LIG d   1      11.044  11.586  -3.223  0.00  0.00     0.048 H 
BRANCH  36  39
ATOM     39  C   LIG d   1       8.977  11.337  -3.775  0.00  0.00    -0.022 C 
ATOM     40  H   LIG d   1       9.207  12.212  -4.383  0.00  0.00     0.083 H 
ATOM     41  H   LIG d   1       8.728  10.498  -4.425  0.00  0.00     0.083 H 
BRANCH  39  42
ATOM     42  N   LIG d   1       7.835  11.635  -2.901  0.00  0.00     0.219 N 
ATOM     43  H   LIG d   1       7.543  10.792  -2.429  0.00  0.00     0.200 HD
ATOM     44  H   LIG d   1       8.106  12.326  -2.217  0.00  0.00     0.200 HD
ATOM     45  H   LIG d   1       7.071  11.993  -3.455  0.00  0.00     0.200 HD
ENDBRANCH  39  42
ENDBRANCH  36  39
ENDBRANCH   5  36
BRANCH   8  46
ATOM     46  C   LIG d   1      10.623   8.323  -7.696  0.00  0.00     0.039 C 
ATOM     47  H   LIG d   1      10.699   9.409  -7.749  0.00  0.00     0.048 H 
ATOM     48  H   LIG d   1      11.369   7.875  -8.352  0.00  0.00     0.048 H 
BRANCH  46  49
ATOM     49  C   LIG d   1       9.225   7.888  -8.141  0.00  0.00    -0.022 C 
ATOM     50  H   LIG d   1       9.310   7.148  -8.936  0.00  0.00     0.083 H 
ATOM     51  H   LIG d   1       8.693   7.453  -7.294  0.00  0.00     0.083 H 
BRANCH  49  52
ATOM     52  N   LIG d   1       8.482   9.055  -8.637  0.00  0.00     0.219 N 
ATOM     53  H   LIG d   1       9.125   9.812  -8.814  0.00  0.00     0.200 HD
ATOM     54  H   LIG d   1       8.006   8.812  -9.493  0.00  0.00     0.200 HD
ATOM     55  H   LIG d   1       7.806   9.342  -7.946  0.00  0.00     0.200 HD
ENDBRANCH  49  52
ENDBRANCH  46  49
ENDBRANCH   8  46
BRANCH   1  56
ATOM     56  C   LIG d   1      11.826   5.730  -0.287  0.00  0.00    -0.043 C 
ATOM     57  H   LIG d   1      12.720   5.269  -0.707  0.00  0.00     0.078 H 
ATOM     58  H   LIG d   1      11.910   6.814  -0.354  0.00  0.00     0.078 H 
ATOM     59  H   LIG d   1      11.722   5.437   0.758  0.00  0.00     0.078 H 
ENDBRANCH   1  56
BRANCH  12  60
ATOM     60  C   LIG d   1      12.347   2.753  -4.307  0.00  0.00    -0.013 C 
ATOM     61  H   LIG d   1      12.373   2.400  -5.337  0.00  0.00     0.039 H 
ATOM     62  H   LIG d   1      13.348   2.696  -3.878  0.00  0.00     0.039 H 
ATOM     63  H   LIG d   1      11.668   2.128  -3.725  0.00  0.00     0.039 H 
ENDBRANCH  12  60
TORSDOF 8
ENDMDL
MODEL 3
REMARK VINA RESULT:      -4.5      2.081      5.343
REMARK  8 active torsions:
REMARK  status: ('A' for Active; 'I' for Inactive)
REMARK    1  A    between atoms: C_1  and  N_2 
REMARK    2  A    between atoms: N_6  and  C_20 
REMARK    3  A    between atoms: N_9  and  C_17 
REMARK    4  A    between atoms: N_13  and  C_16 
REMARK    5  A    between atoms: C_17  and  C_18 
REMARK    6  A    between atoms: C_18  and  N_19 
REMARK    7  A    between atoms: C_20  and  C_21 
REMARK    8  A    between atoms: C_21  and  N_22 
ROOT
ATOM      1  N   LIG d   1      11.085   8.465  -7.652  0.00  0.00     0.234 N 
ATOM      2  C   LIG d   1      11.477   9.034  -6.365  0.00  0.00    -0.031 C 
ATOM      3  C   LIG d   1      10.610  10.213  -5.938  0.00  0.00     0.000 C 
ATOM      4  C   LIG d   1      11.208  10.837  -4.670  0.00  0.00     0.004 C 
ATOM      5  N   LIG d   1      10.240  10.625  -3.543  0.00  0.00    -0.296 N 
ATOM      6  C   LIG d   1      10.954   9.714  -2.587  0.00  0.00     0.012 C 
ATOM      7  C   LIG d   1       9.917   8.813  -1.919  0.00  0.00     0.012 C 
ATOM      8  N   LIG d   1      10.429   7.416  -1.918  0.00  0.00    -0.296 N 
ATOM      9  C   LIG d   1       9.375   6.547  -2.502  0.00  0.00     0.000 C 
ATOM     10  C   LIG d   1      10.044   5.462  -3.347  0.00  0.00    -0.027 C 
ATOM     11  C   LIG d   1       9.306   5.319  -4.677  0.00  0.00    -0.000 C 
ATOM     12  N   LIG d   1      10.287   5.444  -5.788  0.00  0.00    -0.300 N 
ATOM     13  C   LIG d   1       9.856   6.590  -6.632  0.00  0.00     0.039 C 
ATOM     14  C   LIG d   1      11.012   7.000  -7.541  0.00  0.00    -0.019 C 
ATOM     15  H   LIG d   1      11.434   8.257  -5.595  0.00  0.00     0.082 H 
ATOM     16  H   LIG d   1      12.520   9.372  -6.435  0.00  0.00     0.082 H 
ATOM     17  H   LIG d   1      10.592  10.977  -6.714  0.00  0.00     0.033 H 
ATOM     18  H   LIG d   1       9.598   9.882  -5.707  0.00  0.00     0.033 H 
ATOM     19  H   LIG d   1      12.143  10.355  -4.420  0.00  0.00     0.043 H 
ATOM     20  H   LIG d   1      11.337  11.905  -4.806  0.00  0.00     0.043 H 
ATOM     21  H   LIG d   1      11.664   9.119  -3.148  0.00  0.00     0.044 H 
ATOM     22  H   LIG d   1      11.453  10.330  -1.846  0.00  0.00     0.044 H 
ATOM     23  H   LIG d   1       9.763   9.124  -0.887  0.00  0.00     0.044 H 
ATOM     24  H   LIG d   1       8.981   8.848  -2.466  0.00  0.00     0.044 H 
ATOM     25  H   LIG d   1       8.812   6.090  -1.692  0.00  0.00     0.043 H 
ATOM     26  H   LIG d   1       8.722   7.152  -3.124  0.00  0.00     0.043 H 
ATOM     27  H   LIG d   1      11.083   5.734  -3.533  0.00  0.00     0.029 H 
ATOM     28  H   LIG d   1      10.011   4.513  -2.810  0.00  0.00     0.029 H 
ATOM     29  H   LIG d   1       8.836   4.342  -4.738  0.00  0.00     0.043 H 
ATOM     30  H   LIG d   1       8.562   6.104  -4.780  0.00  0.00     0.043 H 
ATOM     31  H   LIG d   1       9.005   6.271  -7.231  0.00  0.00     0.048 H 
ATOM     32  H   LIG d   1       9.574   7.407  -5.973  0.00  0.00     0.048 H 
ATOM     33  H   LIG d   1      10.865   6.577  -8.536  0.00  0.00     0.083 H 
ATOM     34  H   LIG d   1      11.952   6.627  -7.129  0.00  0.00     0.083 H 
ATOM     35  H   LIG d   1      11.811   8.685  -8.335  0.00  0.00     0.203 HD
ENDROOT
BRANCH   5  36
ATOM     36  C   LIG d   1      10.200  11.952  -2.834  0.00  0.00     0.039 C 
ATOM     37  H   LIG d   1      10.348  11.798  -1.765  0.00  0.00     0.048 H 
ATOM     38  H   LIG d   1      10.990  12.595  -3.221  0.00  0.00     0.048 H 
BRANCH  36  39
ATOM     39  C   LIG d   1       8.841  12.615  -3.070  0.00  0.00    -0.022 C 
ATOM     40  H   LIG d   1       8.681  13.391  -2.322  0.00  0.00     0.083 H 
ATOM     41  H   LIG d   1       8.821  13.059  -4.065  0.00  0.00     0.083 H 
BRANCH  39  42
ATOM     42  N   LIG d   1       7.779  11.606  -2.963  0.00  0.00     0.219 N 
ATOM     43  H   LIG d   1       7.233  11.600  -3.812  0.00  0.00     0.200 HD
ATOM     44  H   LIG d   1       8.193  10.696  -2.823  0.00  0.00     0.200 HD
ATOM     45  H   LIG d   1       7.182  11.827  -2.180  0.00  0.00     0.200 HD
ENDBRANCH  39  42
ENDBRANCH  36  39
ENDBRANCH   5  36
BRANCH   8  46
ATOM     46  C   LIG d   1      10.596   7.012  -0.495  0.00  0.00     0.039 C 
ATOM     47  H   LIG d   1      10.655   7.901   0.133  0.00  0.00     0.048 H 
ATOM     48  H   LIG d   1       9.744   6.406  -0.186  0.00  0.00     0.048 H 
BRANCH  46  49
ATOM     49  C   LIG d   1      11.883   6.196  -0.345  0.00  0.00    -0.022 C 
ATOM     50  H   LIG d   1      12.482   6.293  -1.249  0.00  0.00     0.083 H 
ATOM     51  H   LIG d   1      12.449   6.567   0.509  0.00  0.00     0.083 H 
BRANCH  49  52
ATOM     52  N   LIG d   1      11.544   4.782  -0.131  0.00  0.00     0.219 N 
ATOM     53  H   LIG d   1      10.543   4.681  -0.070  0.00  0.00     0.200 HD
ATOM     54  H   LIG d   1      11.892   4.232  -0.902  0.00  0.00     0.200 HD
ATOM     55  H   LIG d   1      11.968   4.461   0.728  0.00  0.00     0.200 HD
ENDBRANCH  49  52
ENDBRANCH  46  49
ENDBRANCH   8  46
BRANCH   1  56
ATOM     56  C   LIG d   1       9.812   8.991  -8.145  0.00  0.00    -0.043 C 
ATOM     57  H   LIG d   1       9.623   9.965  -7.694  0.00  0.00     0.078 H 
ATOM     58  H   LIG d   1       9.858   9.096  -9.229  0.00  0.00     0.078 H 
ATOM     59  H   LIG d   1       9.009   8.305  -7.880  0.00  0.00     0.078 H 
ENDBRANCH   1  56
BRANCH  12  60
ATOM     60  C   LIG d   1      10.173   4.214  -6.617  0.00  0.00    -0.013 C 
ATOM     61  H   LIG d   1       9.211   4.208  -7.128  0.00  0.00     0.039 H 
ATOM     62  H   LIG d   1      10.976   4.194  -7.353  0.00  0.00     0.039 H 
ATOM     63  H   LIG d   1      10.248   3.335  -5.975  0.00  0.00     0.039 H 
ENDBRANCH  12  60
TORSDOF 8
ENDMDL
MODEL 4
REMARK VINA RESULT:      -4.5      1.480      5.083
REMARK  8 active torsions:
REMARK  status: ('A' for Active; 'I' for Inactive)
REMARK    1  A    between atoms: C_1  and  N_2 
REMARK    2  A    between atoms: N_6  and  C_20 
REMARK    3  A    between atoms: N_9  and  C_17 
REMARK    4  A    between atoms: N_13  and  C_16 
REMARK    5  A    between atoms: C_17  and  C_18 
REMARK    6  A    between atoms: C_18  and  N_19 
REMARK    7  A    between atoms: C_20  and  C_21 
REMARK    8  A    between atoms: C_21  and  N_22 
ROOT
ATOM      1  N   LIG d   1      11.111   4.642  -3.320  0.00  0.00     0.234 N 
ATOM      2  C   LIG d   1      11.406   5.895  -4.011  0.00  0.00    -0.031 C 
ATOM      3  C   LIG d   1      10.292   6.342  -4.951  0.00  0.00     0.000 C 
ATOM      4  C   LIG d   1      10.772   7.564  -5.746  0.00  0.00     0.004 C 
ATOM      5  N   LIG d   1       9.940   8.744  -5.337  0.00  0.00    -0.296 N 
ATOM      6  C   LIG d   1      10.902   9.680  -4.665  0.00  0.00     0.012 C 
ATOM      7  C   LIG d   1      10.155  10.420  -3.557  0.00  0.00     0.012 C 
ATOM      8  N   LIG d   1      10.999  10.424  -2.332  0.00  0.00    -0.296 N 
ATOM      9  C   LIG d   1      10.171   9.914  -1.209  0.00  0.00     0.000 C 
ATOM     10  C   LIG d   1      11.051   9.058  -0.298  0.00  0.00    -0.027 C 
ATOM     11  C   LIG d   1      10.312   7.771   0.069  0.00  0.00    -0.000 C 
ATOM     12  N   LIG d   1      11.179   6.608  -0.259  0.00  0.00    -0.300 N 
ATOM     13  C   LIG d   1      10.437   5.764  -1.233  0.00  0.00     0.039 C 
ATOM     14  C   LIG d   1      11.412   4.788  -1.887  0.00  0.00    -0.019 C 
ATOM     15  H   LIG d   1      11.593   6.682  -3.274  0.00  0.00     0.082 H 
ATOM     16  H   LIG d   1      12.326   5.763  -4.595  0.00  0.00     0.082 H 
ATOM     17  H   LIG d   1      10.048   5.552  -5.660  0.00  0.00     0.033 H 
ATOM     18  H   LIG d   1       9.406   6.633  -4.386  0.00  0.00     0.033 H 
ATOM     19  H   LIG d   1      11.808   7.774  -5.520  0.00  0.00     0.043 H 
ATOM     20  H   LIG d   1      10.623   7.399  -6.807  0.00  0.00     0.043 H 
ATOM     21  H   LIG d   1      11.712   9.095  -4.246  0.00  0.00     0.044 H 
ATOM     22  H   LIG d   1      11.265  10.381  -5.410  0.00  0.00     0.044 H 
ATOM     23  H   LIG d   1       9.976  11.452  -3.854  0.00  0.00     0.044 H 
ATOM     24  H   LIG d   1       9.216   9.922  -3.339  0.00  0.00     0.044 H 
ATOM     25  H   LIG d   1       9.777  10.762  -0.654  0.00  0.00     0.043 H 
ATOM     26  H   LIG d   1       9.359   9.315  -1.612  0.00  0.00     0.043 H 
ATOM     27  H   LIG d   1      11.979   8.811  -0.813  0.00  0.00     0.029 H 
ATOM     28  H   LIG d   1      11.280   9.615   0.612  0.00  0.00     0.029 H 
ATOM     29  H   LIG d   1      10.099   7.755   1.134  0.00  0.00     0.043 H 
ATOM     30  H   LIG d   1       9.392   7.691  -0.502  0.00  0.00     0.043 H 
ATOM     31  H   LIG d   1       9.667   5.217  -0.693  0.00  0.00     0.048 H 
ATOM     32  H   LIG d   1       9.990   6.420  -1.975  0.00  0.00     0.048 H 
ATOM     33  H   LIG d   1      11.330   3.811  -1.408  0.00  0.00     0.083 H 
ATOM     34  H   LIG d   1      12.432   5.157  -1.774  0.00  0.00     0.083 H 
ATOM     35  H   LIG d   1      11.726   3.918  -3.691  0.00  0.00     0.203 HD
ENDROOT
BRANCH   5  36
ATOM     36  C   LIG d   1       9.602   9.426  -6.635  0.00  0.00     0.039 C 
ATOM     37  H   LIG d   1       8.788  10.133  -6.473  0.00  0.00     0.048 H 
ATOM     38  H   LIG d   1      10.477   9.959  -7.005  0.00  0.00     0.048 H 
BRANCH  36  39
ATOM     39  C   LIG d   1       9.170   8.379  -7.664  0.00  0.00    -0.022 C 
ATOM     40  H   LIG d   1      10.053   7.920  -8.107  0.00  0.00     0.083 H 
ATOM     41  H   LIG d   1       8.569   7.614  -7.174  0.00  0.00     0.083 H 
BRANCH  39  42
ATOM     42  N   LIG d   1       8.375   9.026  -8.717  0.00  0.00     0.219 N 
ATOM     43  H   LIG d   1       8.707   9.967  -8.860  0.00  0.00     0.200 HD
ATOM     44  H   LIG d   1       8.465   8.503  -9.575  0.00  0.00     0.200 HD
ATOM     45  H   LIG d   1       7.405   9.050  -8.439  0.00  0.00     0.200 HD
ENDBRANCH  39  42
ENDBRANCH  36  39
ENDBRANCH   5  36
BRANCH   8  46
ATOM     46  C   LIG d   1      11.327  11.844  -2.029  0.00  0.00     0.039 C 
ATOM     47  H   LIG d   1      11.490  11.960  -0.957  0.00  0.00     0.048 H 
ATOM     48  H   LIG d   1      12.231  12.131  -2.567  0.00  0.00     0.048 H 
BRANCH  46  49
ATOM     49  C   LIG d   1      10.166  12.740  -2.468  0.00  0.00    -0.022 C 
ATOM     50  H   LIG d   1      10.509  13.425  -3.242  0.00  0.00     0.083 H 
ATOM     51  H   LIG d   1       9.359  12.121  -2.860  0.00  0.00     0.083 H 
BRANCH  49  52
ATOM     52  N   LIG d   1       9.678  13.509  -1.315  0.00  0.00     0.219 N 
ATOM     53  H   LIG d   1      10.182  14.381  -1.254  0.00  0.00     0.200 HD
ATOM     54  H   LIG d   1       8.694  13.698  -1.429  0.00  0.00     0.200 HD
ATOM     55  H   LIG d   1       9.823  12.977  -0.470  0.00  0.00     0.200 HD
ENDBRANCH  49  52
ENDBRANCH  46  49
ENDBRANCH   8  46
BRANCH   1  56
ATOM     56  C   LIG d   1       9.725   4.205  -3.496  0.00  0.00    -0.043 C 
ATOM     57  H   LIG d   1       9.471   4.223  -4.556  0.00  0.00     0.078 H 
ATOM     58  H   LIG d   1       9.612   3.192  -3.113  0.00  0.00     0.078 H 
ATOM     59  H   LIG d   1       9.061   4.877  -2.952  0.00  0.00     0.078 H 
ENDBRANCH   1  56
BRANCH  12  60
ATOM     60  C   LIG d   1      11.338   5.812   0.988  0.00  0.00    -0.013 C 
ATOM     61  H   LIG d   1      12.068   6.295   1.637  0.00  0.00     0.039 H 
ATOM     62  H   LIG d   1      10.380   5.748   1.504  0.00  0.00     0.039 H 
ATOM     63  H   LIG d   1      11.683   4.809   0.736  0.00  0.00     0.039 H 
ENDBRANCH  12  60
TORSDOF 8
ENDMDL
MODEL 5
REMARK VINA RESULT:      -4.4      0.938      5.128
REMARK  8 active torsions:
REMARK  status: ('A' for Active; 'I' for Inactive)
REMARK    1  A    between atoms: C_1  and  N_2 
REMARK    2  A    between atoms: N_6  and  C_20 
REMARK    3  A    between atoms: N_9  and  C_17 
REMARK    4  A    between atoms: N_13  and  C_16 
REMARK    5  A    between atoms: C_17  and  C_18 
REMARK    6  A    between atoms: C_18  and  N_19 
REMARK    7  A    between atoms: C_20  and  C_21 
REMARK    8  A    between atoms: C_21  and  N_22 
ROOT
ATOM      1  N   LIG d   1      12.118  10.082   0.057  0.00  0.00     0.234 N 
ATOM      2  C   LIG d   1      12.370   9.262  -1.126  0.00  0.00    -0.031 C 
ATOM      3  C   LIG d   1      11.651   7.919  -1.094  0.00  0.00     0.000 C 
ATOM      4  C   LIG d   1      12.115   7.077  -2.289  0.00  0.00     0.004 C 
ATOM      5  N   LIG d   1      10.945   6.885  -3.209  0.00  0.00    -0.296 N 
ATOM      6  C   LIG d   1      11.320   7.609  -4.469  0.00  0.00     0.012 C 
ATOM      7  C   LIG d   1      10.048   8.185  -5.088  0.00  0.00     0.012 C 
ATOM      8  N   LIG d   1      10.312   9.588  -5.502  0.00  0.00    -0.296 N 
ATOM      9  C   LIG d   1       9.245  10.442  -4.917  0.00  0.00     0.000 C 
ATOM     10  C   LIG d   1       9.861  11.775  -4.490  0.00  0.00    -0.027 C 
ATOM     11  C   LIG d   1       9.351  12.153  -3.100  0.00  0.00    -0.000 C 
ATOM     12  N   LIG d   1      10.517  12.427  -2.218  0.00  0.00    -0.300 N 
ATOM     13  C   LIG d   1      10.436  11.483  -1.071  0.00  0.00     0.039 C 
ATOM     14  C   LIG d   1      11.784  11.454  -0.356  0.00  0.00    -0.019 C 
ATOM     15  H   LIG d   1      12.065   9.814  -2.022  0.00  0.00     0.082 H 
ATOM     16  H   LIG d   1      13.450   9.081  -1.202  0.00  0.00     0.082 H 
ATOM     17  H   LIG d   1      11.895   7.375  -0.182  0.00  0.00     0.033 H 
ATOM     18  H   LIG d   1      10.573   8.058  -1.176  0.00  0.00     0.033 H 
ATOM     19  H   LIG d   1      12.899   7.592  -2.828  0.00  0.00     0.043 H 
ATOM     20  H   LIG d   1      12.442   6.100  -1.952  0.00  0.00     0.043 H 
ATOM     21  H   LIG d   1      12.008   8.406  -4.213  0.00  0.00     0.044 H 
ATOM     22  H   LIG d   1      11.779   6.894  -5.143  0.00  0.00     0.044 H 
ATOM     23  H   LIG d   1       9.772   7.611  -5.971  0.00  0.00     0.044 H 
ATOM     24  H   LIG d   1       9.240   8.174  -4.364  0.00  0.00     0.044 H 
ATOM     25  H   LIG d   1       8.482  10.612  -5.673  0.00  0.00     0.043 H 
ATOM     26  H   LIG d   1       8.820   9.936  -4.056  0.00  0.00     0.043 H 
ATOM     27  H   LIG d   1      10.947  11.685  -4.468  0.00  0.00     0.029 H 
ATOM     28  H   LIG d   1       9.577  12.550  -5.203  0.00  0.00     0.029 H 
ATOM     29  H   LIG d   1       8.743  13.051  -3.159  0.00  0.00     0.043 H 
ATOM     30  H   LIG d   1       8.778  11.335  -2.675  0.00  0.00     0.043 H 
ATOM     31  H   LIG d   1       9.661  11.835  -0.394  0.00  0.00     0.048 H 
ATOM     32  H   LIG d   1      10.183  10.500  -1.461  0.00  0.00     0.048 H 
ATOM     33  H   LIG d   1      11.744  12.089   0.530  0.00  0.00     0.083 H 
ATOM     34  H   LIG d   1      12.562  11.823  -1.025  0.00  0.00     0.083 H 
ATOM     35  H   LIG d   1      12.977  10.127   0.606  0.00  0.00     0.203 HD
ENDROOT
BRANCH   5  36
ATOM     36  C   LIG d   1      11.004   5.428  -3.585  0.00  0.00     0.039 C 
ATOM     37  H   LIG d   1      10.618   5.298  -4.596  0.00  0.00     0.048 H 
ATOM     38  H   LIG d   1      12.037   5.084  -3.543  0.00  0.00     0.048 H 
BRANCH  36  39
ATOM     39  C   LIG d   1      10.154   4.615  -2.606  0.00  0.00    -0.022 C 
ATOM     40  H   LIG d   1       9.679   5.287  -1.892  0.00  0.00     0.083 H 
ATOM     41  H   LIG d   1       9.388   4.070  -3.156  0.00  0.00     0.083 H 
BRANCH  39  42
ATOM     42  N   LIG d   1      11.012   3.663  -1.887  0.00  0.00     0.219 N 
ATOM     43  H   LIG d   1      10.442   2.933  -1.487  0.00  0.00     0.200 HD
ATOM     44  H   LIG d   1      11.676   3.257  -2.530  0.00  0.00     0.200 HD
ATOM     45  H   LIG d   1      11.507   4.145  -1.152  0.00  0.00     0.200 HD
ENDBRANCH  39  42
ENDBRANCH  36  39
ENDBRANCH   5  36
BRANCH   8  46
ATOM     46  C   LIG d   1      10.160   9.645  -6.982  0.00  0.00     0.039 C 
ATOM     47  H   LIG d   1       9.776  10.623  -7.272  0.00  0.00     0.048 H 
ATOM     48  H   LIG d   1      11.129   9.481  -7.454  0.00  0.00     0.048 H 
BRANCH  46  49
ATOM     49  C   LIG d   1       9.182   8.559  -7.437  0.00  0.00    -0.022 C 
ATOM     50  H   LIG d   1       9.734   7.650  -7.675  0.00  0.00     0.083 H 
ATOM     51  H   LIG d   1       8.471   8.354  -6.636  0.00  0.00     0.083 H 
BRANCH  49  52
ATOM     52  N   LIG d   1       8.458   9.019  -8.629  0.00  0.00     0.219 N 
ATOM     53  H   LIG d   1       8.896   9.853  -8.989  0.00  0.00     0.200 HD
ATOM     54  H   LIG d   1       8.477   8.297  -9.334  0.00  0.00     0.200 HD
ATOM     55  H   LIG d   1       7.500   9.221  -8.383  0.00  0.00     0.200 HD
ENDBRANCH  49  52
ENDBRANCH  46  49
ENDBRANCH   8  46
BRANCH   1  56
ATOM     56  C   LIG d   1      11.056   9.545   0.908  0.00  0.00    -0.043 C 
ATOM     57  H   LIG d   1      10.981   8.467   0.758  0.00  0.00     0.078 H 
ATOM     58  H   LIG d   1      11.288   9.751   1.952  0.00  0.00     0.078 H 
ATOM     59  H   LIG d   1      10.108  10.015   0.646  0.00  0.00     0.078 H 
ENDBRANCH   1  56
BRANCH  12  60
ATOM     60  C   LIG d   1      10.345  13.801  -1.674  0.00  0.00    -0.013 C 
ATOM     61  H   LIG d   1      10.989  14.491  -2.218  0.00  0.00     0.039 H 
ATOM     62  H   LIG d   1       9.305  14.110  -1.787  0.00  0.00     0.039 H 
ATOM     63  H   LIG d   1      10.613  13.810  -0.617  0.00  0.00     0.039 H 
ENDBRANCH  12  60
TORSDOF 8
ENDMDL
MODEL 6
REMARK VINA RESULT:      -4.4      1.645      6.518
REMARK  8 active torsions:
REMARK  status: ('A' for Active; 'I' for Inactive)
REMARK    1  A    between atoms: C_1  and  N_2 
REMARK    2  A    between atoms: N_6  and  C_20 
REMARK    3  A    between atoms: N_9  and  C_17 
REMARK    4  A    between atoms: N_13  and  C_16 
REMARK    5  A    between atoms: C_17  and  C_18 
REMARK    6  A    between atoms: C_18  and  N_19 
REMARK    7  A    between atoms: C_20  and  C_21 
REMARK    8  A    between atoms: C_21  and  N_22 
ROOT
ATOM      1  N   LIG d   1      10.394   5.330  -1.316  0.00  0.00     0.234 N 
ATOM      2  C   LIG d   1       9.995   6.724  -1.139  0.00  0.00    -0.031 C 
ATOM      3  C   LIG d   1      11.104   7.601  -0.571  0.00  0.00     0.000 C 
ATOM      4  C   LIG d   1      10.532   8.992  -0.267  0.00  0.00     0.004 C 
ATOM      5  N   LIG d   1      11.189   9.979  -1.187  0.00  0.00    -0.296 N 
ATOM      6  C   LIG d   1      10.081  10.485  -2.064  0.00  0.00     0.012 C 
ATOM      7  C   LIG d   1      10.662  10.785  -3.445  0.00  0.00     0.012 C 
ATOM      8  N   LIG d   1       9.748  10.229  -4.478  0.00  0.00    -0.296 N 
ATOM      9  C   LIG d   1      10.559   9.388  -5.395  0.00  0.00     0.000 C 
ATOM     10  C   LIG d   1       9.732   8.168  -5.805  0.00  0.00    -0.027 C 
ATOM     11  C   LIG d   1      10.595   6.910  -5.719  0.00  0.00    -0.000 C 
ATOM     12  N   LIG d   1       9.896   5.904  -4.875  0.00  0.00    -0.300 N 
ATOM     13  C   LIG d   1      10.794   5.583  -3.734  0.00  0.00     0.039 C 
ATOM     14  C   LIG d   1       9.987   4.868  -2.653  0.00  0.00    -0.019 C 
ATOM     15  H   LIG d   1       9.668   7.135  -2.101  0.00  0.00     0.082 H 
ATOM     16  H   LIG d   1       9.135   6.758  -0.456  0.00  0.00     0.082 H 
ATOM     17  H   LIG d   1      11.486   7.182   0.359  0.00  0.00     0.033 H 
ATOM     18  H   LIG d   1      11.911   7.718  -1.294  0.00  0.00     0.033 H 
ATOM     19  H   LIG d   1       9.466   9.006  -0.446  0.00  0.00     0.043 H 
ATOM     20  H   LIG d   1      10.766   9.276   0.753  0.00  0.00     0.043 H 
ATOM     21  H   LIG d   1       9.322   9.716  -2.135  0.00  0.00     0.044 H 
ATOM     22  H   LIG d   1       9.685  11.390  -1.616  0.00  0.00     0.044 H 
ATOM     23  H   LIG d   1      10.735  11.861  -3.593  0.00  0.00     0.044 H 
ATOM     24  H   LIG d   1      11.639  10.323  -3.550  0.00  0.00     0.044 H 
ATOM     25  H   LIG d   1      10.812   9.975  -6.275  0.00  0.00     0.043 H 
ATOM     26  H   LIG d   1      11.460   9.069  -4.880  0.00  0.00     0.043 H 
ATOM     27  H   LIG d   1       8.874   8.069  -5.139  0.00  0.00     0.029 H 
ATOM     28  H   LIG d   1       9.380   8.296  -6.830  0.00  0.00     0.029 H 
ATOM     29  H   LIG d   1      10.740   6.490  -6.710  0.00  0.00     0.043 H 
ATOM     30  H   LIG d   1      11.552   7.142  -5.262  0.00  0.00     0.043 H 
ATOM     31  H   LIG d   1      11.589   4.935  -4.097  0.00  0.00     0.048 H 
ATOM     32  H   LIG d   1      11.206   6.515  -3.357  0.00  0.00     0.048 H 
ATOM     33  H   LIG d   1      10.155   3.792  -2.721  0.00  0.00     0.083 H 
ATOM     34  H   LIG d   1       8.925   5.074  -2.792  0.00  0.00     0.083 H 
ATOM     35  H   LIG d   1       9.895   4.763  -0.631  0.00  0.00     0.203 HD
ENDROOT
BRANCH   5  36
ATOM     36  C   LIG d   1      11.524  11.148  -0.299  0.00  0.00     0.039 C 
ATOM     37  H   LIG d   1      12.430  10.927   0.265  0.00  0.00     0.048 H 
ATOM     38  H   LIG d   1      11.685  12.034  -0.912  0.00  0.00     0.048 H 
BRANCH  36  39
ATOM     39  C   LIG d   1      10.368  11.399   0.671  0.00  0.00    -0.022 C 
ATOM     40  H   LIG d   1       9.509  10.797   0.376  0.00  0.00     0.083 H 
ATOM     41  H   LIG d   1      10.674  11.125   1.680  0.00  0.00     0.083 H 
BRANCH  39  42
ATOM     42  N   LIG d   1      10.003  12.822   0.639  0.00  0.00     0.219 N 
ATOM     43  H   LIG d   1      10.784  13.377   0.953  0.00  0.00     0.200 HD
ATOM     44  H   LIG d   1       9.761  13.086  -0.305  0.00  0.00     0.200 HD
ATOM     45  H   LIG d   1       9.212  12.980   1.245  0.00  0.00     0.200 HD
ENDBRANCH  39  42
ENDBRANCH  36  39
ENDBRANCH   5  36
BRANCH   8  46
ATOM     46  C   LIG d   1       9.233  11.379  -5.273  0.00  0.00     0.039 C 
ATOM     47  H   LIG d   1       8.226  11.156  -5.625  0.00  0.00     0.048 H 
ATOM     48  H   LIG d   1       9.210  12.271  -4.648  0.00  0.00     0.048 H 
BRANCH  46  49
ATOM     49  C   LIG d   1      10.151  11.620  -6.473  0.00  0.00    -0.022 C 
ATOM     50  H   LIG d   1      10.888  12.381  -6.219  0.00  0.00     0.083 H 
ATOM     51  H   LIG d   1      10.661  10.692  -6.732  0.00  0.00     0.083 H 
BRANCH  49  52
ATOM     52  N   LIG d   1       9.351  12.076  -7.618  0.00  0.00     0.219 N 
ATOM     53  H   LIG d   1       9.964  12.416  -8.344  0.00  0.00     0.200 HD
ATOM     54  H   LIG d   1       8.804  11.307  -7.973  0.00  0.00     0.200 HD
ATOM     55  H   LIG d   1       8.735  12.819  -7.323  0.00  0.00     0.200 HD
ENDBRANCH  49  52
ENDBRANCH  46  49
ENDBRANCH   8  46
BRANCH   1  56
ATOM     56  C   LIG d   1      11.830   5.119  -1.132  0.00  0.00    -0.043 C 
ATOM     57  H   LIG d   1      12.382   5.755  -1.824  0.00  0.00     0.078 H 
ATOM     58  H   LIG d   1      12.105   5.372  -0.108  0.00  0.00     0.078 H 
ATOM     59  H   LIG d   1      12.071   4.074  -1.326  0.00  0.00     0.078 H 
ENDBRANCH   1  56
BRANCH  12  60
ATOM     60  C   LIG d   1       9.755   4.667  -5.691  0.00  0.00    -0.013 C 
ATOM     61  H   LIG d   1      10.656   4.063  -5.594  0.00  0.00     0.039 H 
ATOM     62  H   LIG d   1       8.895   4.097  -5.341  0.00  0.00     0.039 H 
ATOM     63  H   LIG d   1       9.609   4.938  -6.737  0.00  0.00     0.039 H 
ENDBRANCH  12  60
TORSDOF 8
ENDMDL
MODEL 7
REMARK VINA RESULT:      -4.4      1.398      1.871
REMARK  8 active torsions:
REMARK  status: ('A' for Active; 'I' for Inactive)
REMARK    1  A    between atoms: C_1  and  N_2 
REMARK    2  A    between atoms: N_6  and  C_20 
REMARK    3  A    between atoms: N_9  and  C_17 
REMARK    4  A    between atoms: N_13  and  C_16 
REMARK    5  A    between atoms: C_17  and  C_18 
REMARK    6  A    between atoms: C_18  and  N_19 
REMARK    7  A    between atoms: C_20  and  C_21 
REMARK    8  A    between atoms: C_21  and  N_22 
ROOT
ATOM      1  N   LIG d   1       9.581  12.192  -3.776  0.00  0.00     0.234 N 
ATOM      2  C   LIG d   1       9.173  10.989  -4.498  0.00  0.00    -0.031 C 
ATOM      3  C   LIG d   1      10.082  10.654  -5.675  0.00  0.00     0.000 C 
ATOM      4  C   LIG d   1       9.471   9.485  -6.458  0.00  0.00     0.004 C 
ATOM      5  N   LIG d   1      10.387   8.304  -6.325  0.00  0.00    -0.296 N 
ATOM      6  C   LIG d   1       9.596   7.286  -5.556  0.00  0.00     0.012 C 
ATOM      7  C   LIG d   1      10.562   6.485  -4.686  0.00  0.00     0.012 C 
ATOM      8  N   LIG d   1       9.983   6.356  -3.323  0.00  0.00    -0.296 N 
ATOM      9  C   LIG d   1      11.012   6.802  -2.349  0.00  0.00     0.000 C 
ATOM     10  C   LIG d   1      10.320   7.553  -1.211  0.00  0.00    -0.027 C 
ATOM     11  C   LIG d   1      11.097   8.831  -0.891  0.00  0.00    -0.000 C 
ATOM     12  N   LIG d   1      10.163   9.986  -0.940  0.00  0.00    -0.300 N 
ATOM     13  C   LIG d   1      10.680  10.930  -1.968  0.00  0.00     0.039 C 
ATOM     14  C   LIG d   1       9.578  11.922  -2.329  0.00  0.00    -0.019 C 
ATOM     15  H   LIG d   1       9.151  10.139  -3.807  0.00  0.00     0.082 H 
ATOM     16  H   LIG d   1       8.152  11.136  -4.873  0.00  0.00     0.082 H 
ATOM     17  H   LIG d   1      10.165  11.506  -6.349  0.00  0.00     0.033 H 
ATOM     18  H   LIG d   1      11.068  10.349  -5.325  0.00  0.00     0.033 H 
ATOM     19  H   LIG d   1       8.506   9.224  -6.049  0.00  0.00     0.043 H 
ATOM     20  H   LIG d   1       9.400   9.738  -7.510  0.00  0.00     0.043 H 
ATOM     21  H   LIG d   1       8.877   7.809  -4.937  0.00  0.00     0.044 H 
ATOM     22  H   LIG d   1       9.102   6.636  -6.270  0.00  0.00     0.044 H 
ATOM     23  H   LIG d   1      10.695   5.487  -5.099  0.00  0.00     0.044 H 
ATOM     24  H   LIG d   1      11.518   6.995  -4.619  0.00  0.00     0.044 H 
ATOM     25  H   LIG d   1      11.523   5.926  -1.956  0.00  0.00     0.043 H 
ATOM     26  H   LIG d   1      11.716   7.458  -2.853  0.00  0.00     0.043 H 
ATOM     27  H   LIG d   1       9.303   7.810  -1.508  0.00  0.00     0.029 H 
ATOM     28  H   LIG d   1      10.288   6.918  -0.324  0.00  0.00     0.029 H 
ATOM     29  H   LIG d   1      11.520   8.768   0.107  0.00  0.00     0.043 H 
ATOM     30  H   LIG d   1      11.882   8.986  -1.626  0.00  0.00     0.043 H 
ATOM     31  H   LIG d   1      11.534  11.457  -1.548  0.00  0.00     0.048 H 
ATOM     32  H   LIG d   1      10.979  10.350  -2.837  0.00  0.00     0.048 H 
ATOM     33  H   LIG d   1       9.738  12.860  -1.795  0.00  0.00     0.083 H 
ATOM     34  H   LIG d   1       8.607  11.512  -2.047  0.00  0.00     0.083 H 
ATOM     35  H   LIG d   1       8.892  12.923  -3.954  0.00  0.00     0.203 HD
ENDROOT
BRANCH   5  36
ATOM     36  C   LIG d   1      10.468   7.738  -7.718  0.00  0.00     0.039 C 
ATOM     37  H   LIG d   1      11.324   8.169  -8.236  0.00  0.00     0.048 H 
ATOM     38  H   LIG d   1      10.583   6.656  -7.664  0.00  0.00     0.048 H 
BRANCH  36  39
ATOM     39  C   LIG d   1       9.186   8.078  -8.481  0.00  0.00    -0.022 C 
ATOM     40  H   LIG d   1       8.523   7.213  -8.482  0.00  0.00     0.083 H 
ATOM     41  H   LIG d   1       8.687   8.918  -7.998  0.00  0.00     0.083 H 
BRANCH  39  42
ATOM     42  N   LIG d   1       9.521   8.439  -9.865  0.00  0.00     0.219 N 
ATOM     43  H   LIG d   1      10.491   8.713  -9.917  0.00  0.00     0.200 HD
ATOM     44  H   LIG d   1       9.365   7.643 -10.467  0.00  0.00     0.200 HD
ATOM     45  H   LIG d   1       8.938   9.206 -10.164  0.00  0.00     0.200 HD
ENDBRANCH  39  42
ENDBRANCH  36  39
ENDBRANCH   5  36
BRANCH   8  46
ATOM     46  C   LIG d   1       9.745   4.906  -3.082  0.00  0.00     0.039 C 
ATOM     47  H   LIG d   1       9.230   4.775  -2.130  0.00  0.00     0.048 H 
ATOM     48  H   LIG d   1       9.132   4.500  -3.885  0.00  0.00     0.048 H 
BRANCH  46  49
ATOM     49  C   LIG d   1      11.087   4.170  -3.041  0.00  0.00    -0.022 C 
ATOM     50  H   LIG d   1      11.297   3.744  -4.021  0.00  0.00     0.083 H 
ATOM     51  H   LIG d   1      11.877   4.871  -2.772  0.00  0.00     0.083 H 
BRANCH  49  52
ATOM     52  N   LIG d   1      11.025   3.094  -2.042  0.00  0.00     0.219 N 
ATOM     53  H   LIG d   1      11.690   2.374  -2.282  0.00  0.00     0.200 HD
ATOM     54  H   LIG d   1      11.248   3.468  -1.132  0.00  0.00     0.200 HD
ATOM     55  H   LIG d   1      10.095   2.703  -2.027  0.00  0.00     0.200 HD
ENDBRANCH  49  52
ENDBRANCH  46  49
ENDBRANCH   8  46
BRANCH   1  56
ATOM     56  C   LIG d   1      10.895  12.686  -4.187  0.00  0.00    -0.043 C 
ATOM     57  H   LIG d   1      11.666  11.991  -3.852  0.00  0.00     0.078 H 
ATOM     58  H   LIG d   1      10.929  12.768  -5.274  0.00  0.00     0.078 H 
ATOM     59  H   LIG d   1      11.070  13.666  -3.743  0.00  0.00     0.078 H 
ENDBRANCH   1  56
BRANCH  12  60
ATOM     60  C   LIG d   1      10.245  10.675   0.376  0.00  0.00    -0.013 C 
ATOM     61  H   LIG d   1      10.944  11.508   0.308  0.00  0.00     0.039 H 
ATOM     62  H   LIG d   1       9.260  11.049   0.654  0.00  0.00     0.039 H 
ATOM     63  H   LIG d   1      10.592   9.971   1.133  0.00  0.00     0.039 H 
ENDBRANCH  12  60
TORSDOF 8
ENDMDL
MODEL 8
REMARK VINA RESULT:      -4.3      8.523     11.212
REMARK  8 active torsions:
REMARK  status: ('A' for Active; 'I' for Inactive)
REMARK    1  A    between atoms: C_1  and  N_2 
REMARK    2  A    between atoms: N_6  and  C_20 
REMARK    3  A    between atoms: N_9  and  C_17 
REMARK    4  A    between atoms: N_13  and  C_16 
REMARK    5  A    between atoms: C_17  and  C_18 
REMARK    6  A    between atoms: C_18  and  N_19 
REMARK    7  A    between atoms: C_20  and  C_21 
REMARK    8  A    between atoms: C_21  and  N_22 
ROOT
ATOM      1  N   LIG d   1       7.810   1.793  -8.895  0.00  0.00     0.234 N 
ATOM      2  C   LIG d   1       6.398   1.792  -8.518  0.00  0.00    -0.031 C 
ATOM      3  C   LIG d   1       5.582   0.724  -9.237  0.00  0.00     0.000 C 
ATOM      4  C   LIG d   1       4.098   0.922  -8.901  0.00  0.00     0.004 C 
ATOM      5  N   LIG d   1       3.638  -0.265  -8.106  0.00  0.00    -0.296 N 
ATOM      6  C   LIG d   1       3.296   0.285  -6.752  0.00  0.00     0.012 C 
ATOM      7  C   LIG d   1       3.618  -0.781  -5.706  0.00  0.00     0.012 C 
ATOM      8  N   LIG d   1       4.340  -0.138  -4.576  0.00  0.00    -0.296 N 
ATOM      9  C   LIG d   1       5.582  -0.916  -4.331  0.00  0.00     0.000 C 
ATOM     10  C   LIG d   1       6.704   0.053  -3.956  0.00  0.00    -0.027 C 
ATOM     11  C   LIG d   1       7.977  -0.315  -4.718  0.00  0.00    -0.000 C 
ATOM     12  N   LIG d   1       8.475   0.890  -5.433  0.00  0.00    -0.300 N 
ATOM     13  C   LIG d   1       8.515   0.559  -6.883  0.00  0.00     0.039 C 
ATOM     14  C   LIG d   1       8.643   1.853  -7.683  0.00  0.00    -0.019 C 
ATOM     15  H   LIG d   1       6.311   1.644  -7.436  0.00  0.00     0.082 H 
ATOM     16  H   LIG d   1       5.974   2.777  -8.752  0.00  0.00     0.082 H 
ATOM     17  H   LIG d   1       5.699   0.816 -10.317  0.00  0.00     0.033 H 
ATOM     18  H   LIG d   1       5.875  -0.272  -8.907  0.00  0.00     0.033 H 
ATOM     19  H   LIG d   1       3.965   1.812  -8.303  0.00  0.00     0.043 H 
ATOM     20  H   LIG d   1       3.512   0.964  -9.811  0.00  0.00     0.043 H 
ATOM     21  H   LIG d   1       3.896   1.171  -6.582  0.00  0.00     0.044 H 
ATOM     22  H   LIG d   1       2.237   0.518  -6.741  0.00  0.00     0.044 H 
ATOM     23  H   LIG d   1       2.698  -1.216  -5.323  0.00  0.00     0.044 H 
ATOM     24  H   LIG d   1       4.249  -1.552  -6.138  0.00  0.00     0.044 H 
ATOM     25  H   LIG d   1       5.403  -1.608  -3.512  0.00  0.00     0.043 H 
ATOM     26  H   LIG d   1       5.845  -1.457  -5.234  0.00  0.00     0.043 H 
ATOM     27  H   LIG d   1       6.407   1.071  -4.211  0.00  0.00     0.029 H 
ATOM     28  H   LIG d   1       6.894  -0.009  -2.883  0.00  0.00     0.029 H 
ATOM     29  H   LIG d   1       8.743  -0.648  -4.023  0.00  0.00     0.043 H 
ATOM     30  H   LIG d   1       7.766  -1.090  -5.448  0.00  0.00     0.043 H 
ATOM     31  H   LIG d   1       9.378  -0.078  -7.063  0.00  0.00     0.048 H 
ATOM     32  H   LIG d   1       7.596   0.037  -7.135  0.00  0.00     0.048 H 
ATOM     33  H   LIG d   1       9.683   2.001  -7.978  0.00  0.00     0.083 H 
ATOM     34  H   LIG d   1       8.320   2.696  -7.072  0.00  0.00     0.083 H 
ATOM     35  H   LIG d   1       7.997   2.635  -9.438  0.00  0.00     0.203 HD
ENDROOT
BRANCH   5  36
ATOM     36  C   LIG d   1       2.306  -0.621  -8.710  0.00  0.00     0.039 C 
ATOM     37  H   LIG d   1       1.557  -0.698  -7.921  0.00  0.00     0.048 H 
ATOM     38  H   LIG d   1       2.009   0.152  -9.418  0.00  0.00     0.048 H 
BRANCH  36  39
ATOM     39  C   LIG d   1       2.418  -1.963  -9.437  0.00  0.00    -0.022 C 
ATOM     40  H   LIG d   1       1.463  -2.486  -9.384  0.00  0.00     0.083 H 
ATOM     41  H   LIG d   1       2.680  -1.790 -10.481  0.00  0.00     0.083 H 
BRANCH  39  42
ATOM     42  N   LIG d   1       3.459  -2.780  -8.799  0.00  0.00     0.219 N 
ATOM     43  H   LIG d   1       3.579  -2.485  -7.842  0.00  0.00     0.200 HD
ATOM     44  H   LIG d   1       3.185  -3.751  -8.821  0.00  0.00     0.200 HD
ATOM     45  H   LIG d   1       4.329  -2.666  -9.298  0.00  0.00     0.200 HD
ENDBRANCH  39  42
ENDBRANCH  36  39
ENDBRANCH   5  36
BRANCH   8  46
ATOM     46  C   LIG d   1       3.482  -0.283  -3.368  0.00  0.00     0.039 C 
ATOM     47  H   LIG d   1       2.452  -0.467  -3.673  0.00  0.00     0.048 H 
ATOM     48  H   LIG d   1       3.838  -1.121  -2.768  0.00  0.00     0.048 H 
BRANCH  46  49
ATOM     49  C   LIG d   1       3.547   1.001  -2.539  0.00  0.00    -0.022 C 
ATOM     50  H   LIG d   1       2.684   1.051  -1.877  0.00  0.00     0.083 H 
ATOM     51  H   LIG d   1       4.462   1.004  -1.946  0.00  0.00     0.083 H 
BRANCH  49  52
ATOM     52  N   LIG d   1       3.543   2.165  -3.437  0.00  0.00     0.219 N 
ATOM     53  H   LIG d   1       2.630   2.593  -3.429  0.00  0.00     0.200 HD
ATOM     54  H   LIG d   1       4.231   2.834  -3.124  0.00  0.00     0.200 HD
ATOM     55  H   LIG d   1       3.767   1.866  -4.375  0.00  0.00     0.200 HD
ENDBRANCH  49  52
ENDBRANCH  46  49
ENDBRANCH   8  46
BRANCH   1  56
ATOM     56  C   LIG d   1       8.186   0.631  -9.701  0.00  0.00    -0.043 C 
ATOM     57  H   LIG d   1       9.079   0.866 -10.281  0.00  0.00     0.078 H 
ATOM     58  H   LIG d   1       8.390  -0.215  -9.046  0.00  0.00     0.078 H 
ATOM     59  H   LIG d   1       7.369   0.379 -10.377  0.00  0.00     0.078 H 
ENDBRANCH   1  56
BRANCH  12  60
ATOM     60  C   LIG d   1       9.877   1.116  -4.990  0.00  0.00    -0.013 C 
ATOM     61  H   LIG d   1       9.946   0.974  -3.912  0.00  0.00     0.039 H 
ATOM     62  H   LIG d   1      10.537   0.409  -5.493  0.00  0.00     0.039 H 
ATOM     63  H   LIG d   1      10.178   2.134  -5.242  0.00  0.00     0.039 H 
ENDBRANCH  12  60
TORSDOF 8
ENDMDL
MODEL 9
REMARK VINA RESULT:      -4.2      1.810      5.428
REMARK  8 active torsions:
REMARK  status: ('A' for Active; 'I' for Inactive)
REMARK    1  A    between atoms: C_1  and  N_2 
REMARK    2  A    between atoms: N_6  and  C_20 
REMARK    3  A    between atoms: N_9  and  C_17 
REMARK    4  A    between atoms: N_13  and  C_16 
REMARK    5  A    between atoms: C_17  and  C_18 
REMARK    6  A    between atoms: C_18  and  N_19 
REMARK    7  A    between atoms: C_20  and  C_21 
REMARK    8  A    between atoms: C_21  and  N_22 
ROOT
ATOM      1  N   LIG d   1      11.075  11.552  -6.348  0.00  0.00     0.234 N 
ATOM      2  C   LIG d   1      11.567  10.757  -5.225  0.00  0.00    -0.031 C 
ATOM      3  C   LIG d   1      10.746  10.937  -3.954  0.00  0.00     0.000 C 
ATOM      4  C   LIG d   1      11.444  10.199  -2.803  0.00  0.00     0.004 C 
ATOM      5  N   LIG d   1      10.560   9.065  -2.371  0.00  0.00    -0.296 N 
ATOM      6  C   LIG d   1      11.333   7.823  -2.706  0.00  0.00     0.012 C 
ATOM      7  C   LIG d   1      10.340   6.730  -3.097  0.00  0.00     0.012 C 
ATOM      8  N   LIG d   1      10.835   6.051  -4.323  0.00  0.00    -0.296 N 
ATOM      9  C   LIG d   1       9.732   6.050  -5.318  0.00  0.00     0.000 C 
ATOM     10  C   LIG d   1      10.325   6.265  -6.711  0.00  0.00    -0.027 C 
ATOM     11  C   LIG d   1       9.489   7.293  -7.472  0.00  0.00    -0.000 C 
ATOM     12  N   LIG d   1      10.386   8.369  -7.972  0.00  0.00    -0.300 N 
ATOM     13  C   LIG d   1       9.905   9.651  -7.391  0.00  0.00     0.039 C 
ATOM     14  C   LIG d   1      10.995  10.708  -7.551  0.00  0.00    -0.019 C 
ATOM     15  H   LIG d   1      11.573   9.698  -5.504  0.00  0.00     0.082 H 
ATOM     16  H   LIG d   1      12.605  11.050  -5.019  0.00  0.00     0.082 H 
ATOM     17  H   LIG d   1      10.679  11.990  -3.687  0.00  0.00     0.033 H 
ATOM     18  H   LIG d   1       9.751  10.511  -4.075  0.00  0.00     0.033 H 
ATOM     19  H   LIG d   1      12.389   9.794  -3.136  0.00  0.00     0.043 H 
ATOM     20  H   LIG d   1      11.573  10.864  -1.958  0.00  0.00     0.043 H 
ATOM     21  H   LIG d   1      11.993   8.044  -3.536  0.00  0.00     0.044 H 
ATOM     22  H   LIG d   1      11.893   7.528  -1.825  0.00  0.00     0.044 H 
ATOM     23  H   LIG d   1      10.266   5.992  -2.300  0.00  0.00     0.044 H 
ATOM     24  H   LIG d   1       9.365   7.164  -3.300  0.00  0.00     0.044 H 
ATOM     25  H   LIG d   1       9.226   5.089  -5.276  0.00  0.00     0.043 H 
ATOM     26  H   LIG d   1       9.040   6.853  -5.081  0.00  0.00     0.043 H 
ATOM     27  H   LIG d   1      11.350   6.625  -6.620  0.00  0.00     0.029 H 
ATOM     28  H   LIG d   1      10.321   5.320  -7.257  0.00  0.00     0.029 H 
ATOM     29  H   LIG d   1       9.005   6.822  -8.323  0.00  0.00     0.043 H 
ATOM     30  H   LIG d   1       8.748   7.736  -6.814  0.00  0.00     0.043 H 
ATOM     31  H   LIG d   1       9.009   9.954  -7.928  0.00  0.00     0.048 H 
ATOM     32  H   LIG d   1       9.681   9.482  -6.341  0.00  0.00     0.048 H 
ATOM     33  H   LIG d   1      10.770  11.340  -8.412  0.00  0.00     0.083 H 
ATOM     34  H   LIG d   1      11.958  10.220  -7.708  0.00  0.00     0.083 H 
ATOM     35  H   LIG d   1      11.750  12.293  -6.537  0.00  0.00     0.203 HD
ENDROOT
BRANCH   5  36
ATOM     36  C   LIG d   1      10.587   9.127  -0.867  0.00  0.00     0.039 C 
ATOM     37  H   LIG d   1      10.361   8.141  -0.459  0.00  0.00     0.048 H 
ATOM     38  H   LIG d   1      11.575   9.440  -0.534  0.00  0.00     0.048 H 
BRANCH  36  39
ATOM     39  C   LIG d   1       9.540  10.131  -0.380  0.00  0.00    -0.022 C 
ATOM     40  H   LIG d   1       9.322   9.946   0.672  0.00  0.00     0.083 H 
ATOM     41  H   LIG d   1       9.926  11.144  -0.498  0.00  0.00     0.083 H 
BRANCH  39  42
ATOM     42  N   LIG d   1       8.311   9.980  -1.170  0.00  0.00     0.219 N 
ATOM     43  H   LIG d   1       7.658  10.706  -0.918  0.00  0.00     0.200 HD
ATOM     44  H   LIG d   1       8.532  10.052  -2.152  0.00  0.00     0.200 HD
ATOM     45  H   LIG d   1       7.900   9.078  -0.983  0.00  0.00     0.200 HD
ENDBRANCH  39  42
ENDBRANCH  36  39
ENDBRANCH   5  36
BRANCH   8  46
ATOM     46  C   LIG d   1      11.104   4.632  -3.961  0.00  0.00     0.039 C 
ATOM     47  H   LIG d   1      10.862   3.988  -4.807  0.00  0.00     0.048 H 
ATOM     48  H   LIG d   1      12.157   4.515  -3.705  0.00  0.00     0.048 H 
BRANCH  46  49
ATOM     49  C   LIG d   1      10.240   4.241  -2.759  0.00  0.00    -0.022 C 
ATOM     50  H   LIG d   1       9.997   5.131  -2.181  0.00  0.00     0.083 H 
ATOM     51  H   LIG d   1       9.321   3.772  -3.111  0.00  0.00     0.083 H 
BRANCH  49  52
ATOM     52  N   LIG d   1      10.979   3.294  -1.912  0.00  0.00     0.219 N 
ATOM     53  H   LIG d   1      11.007   3.640  -0.965  0.00  0.00     0.200 HD
ATOM     54  H   LIG d   1      10.517   2.397  -1.929  0.00  0.00     0.200 HD
ATOM     55  H   LIG d   1      11.920   3.194  -2.262  0.00  0.00     0.200 HD
ENDBRANCH  49  52
ENDBRANCH  46  49
ENDBRANCH   8  46
BRANCH   1  56
ATOM     56  C   LIG d   1       9.774  12.168  -6.085  0.00  0.00    -0.043 C 
ATOM     57  H   LIG d   1       9.387  12.606  -7.005  0.00  0.00     0.078 H 
ATOM     58  H   LIG d   1       9.080  11.410  -5.723  0.00  0.00     0.078 H 
ATOM     59  H   LIG d   1       9.888  12.947  -5.331  0.00  0.00     0.078 H 
ENDBRANCH   1  56
BRANCH  12  60
ATOM     60  C   LIG d   1      10.197   8.451  -9.446  0.00  0.00    -0.013 C 
ATOM     61  H   LIG d   1      10.255   7.452  -9.876  0.00  0.00     0.039 H 
ATOM     62  H   LIG d   1       9.221   8.884  -9.664  0.00  0.00     0.039 H 
ATOM     63  H   LIG d   1      10.977   9.079  -9.877  0.00  0.00     0.039 H 
ENDBRANCH  12  60
TORSDOF 8
ENDMDL
MODEL 10
REMARK VINA RESULT:      -4.1      1.635      4.143
REMARK  8 active torsions:
REMARK  status: ('A' for Active; 'I' for Inactive)
REMARK    1  A    between atoms: C_1  and  N_2 
REMARK    2  A    between atoms: N_6  and  C_20 
REMARK    3  A    between atoms: N_9  and  C_17 
REMARK    4  A    between atoms: N_13  and  C_16 
REMARK    5  A    between atoms: C_17  and  C_18 
REMARK    6  A    between atoms: C_18  and  N_19 
REMARK    7  A    between atoms: C_20  and  C_21 
REMARK    8  A    between atoms: C_21  and  N_22 
ROOT
ATOM      1  N   LIG d   1      10.633   9.777   0.377  0.00  0.00     0.234 N 
ATOM      2  C   LIG d   1       9.845  10.252  -0.758  0.00  0.00    -0.031 C 
ATOM      3  C   LIG d   1      10.449  11.471  -1.445  0.00  0.00     0.000 C 
ATOM      4  C   LIG d   1       9.464  11.985  -2.503  0.00  0.00     0.004 C 
ATOM      5  N   LIG d   1      10.088  11.793  -3.854  0.00  0.00    -0.296 N 
ATOM      6  C   LIG d   1       9.215  10.785  -4.543  0.00  0.00     0.012 C 
ATOM      7  C   LIG d   1      10.095   9.934  -5.458  0.00  0.00     0.012 C 
ATOM      8  N   LIG d   1       9.728   8.504  -5.278  0.00  0.00    -0.296 N 
ATOM      9  C   LIG d   1      10.976   7.748  -4.998  0.00  0.00     0.000 C 
ATOM     10  C   LIG d   1      10.671   6.657  -3.971  0.00  0.00    -0.027 C 
ATOM     11  C   LIG d   1      11.765   6.636  -2.904  0.00  0.00    -0.000 C 
ATOM     12  N   LIG d   1      11.132   6.739  -1.563  0.00  0.00    -0.300 N 
ATOM     13  C   LIG d   1      11.683   7.955  -0.905  0.00  0.00     0.039 C 
ATOM     14  C   LIG d   1      10.800   8.318   0.285  0.00  0.00    -0.019 C 
ATOM     15  H   LIG d   1       9.736   9.443  -1.489  0.00  0.00     0.082 H 
ATOM     16  H   LIG d   1       8.840  10.511  -0.401  0.00  0.00     0.082 H 
ATOM     17  H   LIG d   1      10.620  12.271  -0.725  0.00  0.00     0.033 H 
ATOM     18  H   LIG d   1      11.380  11.208  -1.947  0.00  0.00     0.033 H 
ATOM     19  H   LIG d   1       8.543  11.421  -2.463  0.00  0.00     0.043 H 
ATOM     20  H   LIG d   1       9.286  13.045  -2.362  0.00  0.00     0.043 H 
ATOM     21  H   LIG d   1       8.748  10.164  -3.788  0.00  0.00     0.044 H 
ATOM     22  H   LIG d   1       8.475  11.324  -5.125  0.00  0.00     0.044 H 
ATOM     23  H   LIG d   1       9.923  10.206  -6.497  0.00  0.00     0.044 H 
ATOM     24  H   LIG d   1      11.142  10.067  -5.202  0.00  0.00     0.044 H 
ATOM     25  H   LIG d   1      11.324   7.297  -5.924  0.00  0.00     0.043 H 
ATOM     26  H   LIG d   1      11.723   8.431  -4.605  0.00  0.00     0.043 H 
ATOM     27  H   LIG d   1       9.708   6.858  -3.501  0.00  0.00     0.029 H 
ATOM     28  H   LIG d   1      10.634   5.688  -4.471  0.00  0.00     0.029 H 
ATOM     29  H   LIG d   1      12.317   5.702  -2.956  0.00  0.00     0.043 H 
ATOM     30  H   LIG d   1      12.436   7.479  -3.038  0.00  0.00     0.043 H 
ATOM     31  H   LIG d   1      12.692   7.732  -0.568  0.00  0.00     0.048 H 
ATOM     32  H   LIG d   1      11.694   8.757  -1.638  0.00  0.00     0.048 H 
ATOM     33  H   LIG d   1      11.259   7.957   1.207  0.00  0.00     0.083 H 
ATOM     34  H   LIG d   1       9.819   7.855   0.170  0.00  0.00     0.083 H 
ATOM     35  H   LIG d   1      10.115   9.974   1.233  0.00  0.00     0.203 HD
ENDROOT
BRANCH   5  36
ATOM     36  C   LIG d   1       9.810  13.083  -4.578  0.00  0.00     0.039 C 
ATOM     37  H   LIG d   1       9.334  12.868  -5.535  0.00  0.00     0.048 H 
ATOM     38  H   LIG d   1       9.147  13.703  -3.974  0.00  0.00     0.048 H 
BRANCH  36  39
ATOM     39  C   LIG d   1      11.125  13.827  -4.818  0.00  0.00    -0.022 C 
ATOM     40  H   LIG d   1      11.114  14.272  -5.813  0.00  0.00     0.083 H 
ATOM     41  H   LIG d   1      11.242  14.611  -4.071  0.00  0.00     0.083 H 
BRANCH  39  42
ATOM     42  N   LIG d   1      12.247  12.883  -4.717  0.00  0.00     0.219 N 
ATOM     43  H   LIG d   1      12.295  12.326  -5.557  0.00  0.00     0.200 HD
ATOM     44  H   LIG d   1      13.108  13.396  -4.603  0.00  0.00     0.200 HD
ATOM     45  H   LIG d   1      12.107  12.280  -3.920  0.00  0.00     0.200 HD
ENDBRANCH  39  42
ENDBRANCH  36  39
ENDBRANCH   5  36
BRANCH   8  46
ATOM     46  C   LIG d   1       9.201   8.019  -6.583  0.00  0.00     0.039 C 
ATOM     47  H   LIG d   1       9.651   7.055  -6.822  0.00  0.00     0.048 H 
ATOM     48  H   LIG d   1       8.118   7.908  -6.519  0.00  0.00     0.048 H 
BRANCH  46  49
ATOM     49  C   LIG d   1       9.546   9.029  -7.680  0.00  0.00    -0.022 C 
ATOM     50  H   LIG d   1       9.653  10.020  -7.240  0.00  0.00     0.083 H 
ATOM     51  H   LIG d   1      10.482   8.739  -8.157  0.00  0.00     0.083 H 
BRANCH  49  52
ATOM     52  N   LIG d   1       8.472   9.051  -8.682  0.00  0.00     0.219 N 
ATOM     53  H   LIG d   1       8.697   9.720  -9.402  0.00  0.00     0.200 HD
ATOM     54  H   LIG d   1       8.376   8.134  -9.093  0.00  0.00     0.200 HD
ATOM     55  H   LIG d   1       7.604   9.312  -8.238  0.00  0.00     0.200 HD
ENDBRANCH  49  52
ENDBRANCH  46  49
ENDBRANCH   8  46
BRANCH   1  56
ATOM     56  C   LIG d   1      11.943  10.423   0.472  0.00  0.00    -0.043 C 
ATOM     57  H   LIG d   1      11.810  11.484   0.685  0.00  0.00     0.078 H 
ATOM     58  H   LIG d   1      12.519   9.961   1.274  0.00  0.00     0.078 H 
ATOM     59  H   LIG d   1      12.475  10.305  -0.472  0.00  0.00     0.078 H 
ENDBRANCH   1  56
BRANCH  12  60
ATOM     60  C   LIG d   1      11.584   5.563  -0.771  0.00  0.00    -0.013 C 
ATOM     61  H   LIG d   1      11.853   4.752  -1.446  0.00  0.00     0.039 H 
ATOM     62  H   LIG d   1      12.450   5.839  -0.171  0.00  0.00     0.039 H 
ATOM     63  H   LIG d   1      10.777   5.237  -0.114  0.00  0.00     0.039 H 
ENDBRANCH  12  60
TORSDOF 8
ENDMDL
