MODEL 1
REMARK VINA RESULT:      -7.1      0.000      0.000
REMARK  6 active torsions:
REMARK  status: ('A' for Active; 'I' for Inactive)
REMARK    1  A    between atoms: C_1  and  C_2 
REMARK    2  A    between atoms: C_6  and  C_7 
REMARK    3  A    between atoms: C_7  and  C_8 
REMARK    4  A    between atoms: C_9  and  C_10 
REMARK    5  A    between atoms: C_9  and  C_11 
REMARK    6  A    between atoms: C_19  and  C_21 
ROOT
ATOM      1  C   LIG d   1       3.593  -0.056  -2.415  0.00  0.00    -0.035 C 
ATOM      2  H   LIG d   1       3.237  -0.395  -1.442  0.00  0.00     0.030 H 
ATOM      3  C   LIG d   1       2.629  -0.533  -3.506  0.00  0.00    -0.029 C 
ATOM      4  C   LIG d   1       3.212  -0.161  -4.863  0.00  0.00    -0.067 C 
ATOM      5  C   LIG d   1       2.535   0.509  -5.763  0.00  0.00    -0.081 C 
ATOM      6  C   LIG d   1       4.629  -0.627  -5.133  0.00  0.00     0.011 C 
ATOM      7  H   LIG d   1       4.978  -0.268  -6.103  0.00  0.00     0.037 H 
ATOM      8  C   LIG d   1       5.530  -0.106  -4.003  0.00  0.00    -0.039 C 
ATOM      9  C   LIG d   1       4.989  -0.625  -2.669  0.00  0.00    -0.014 C 
ATOM     10  H   LIG d   1       5.656  -0.312  -1.864  0.00  0.00     0.033 H 
ATOM     11  C   LIG d   1       4.919  -2.151  -2.702  0.00  0.00     0.052 C 
ATOM     12  O   LIG d   1       4.119  -2.586  -3.823  0.00  0.00    -0.371 OA
ATOM     13  C   LIG d   1       4.641  -2.161  -5.085  0.00  0.00     0.090 C 
ATOM     14  H   LIG d   1       4.020  -2.557  -5.889  0.00  0.00     0.065 H 
ATOM     15  H   LIG d   1       2.491  -1.610  -3.425  0.00  0.00     0.031 H 
ATOM     16  H   LIG d   1       1.668  -0.031  -3.389  0.00  0.00     0.031 H 
ATOM     17  H   LIG d   1       1.573   0.930  -5.511  0.00  0.00     0.058 H 
ATOM     18  H   LIG d   1       6.548  -0.467  -4.150  0.00  0.00     0.028 H 
ATOM     19  H   LIG d   1       5.522   0.984  -4.002  0.00  0.00     0.028 H 
ATOM     20  H   LIG d   1       5.927  -2.556  -2.788  0.00  0.00     0.056 H 
ATOM     21  H   LIG d   1       4.462  -2.512  -1.780  0.00  0.00     0.056 H 
ENDROOT
BRANCH   5  22
ATOM     22  C   LIG d   1       3.098   0.691  -7.149  0.00  0.00    -0.016 C 
ATOM     23  H   LIG d   1       2.963   1.725  -7.464  0.00  0.00     0.035 H 
ATOM     24  H   LIG d   1       4.161   0.450  -7.143  0.00  0.00     0.035 H 
BRANCH  22  25
ATOM     25  C   LIG d   1       2.381  -0.225  -8.107  0.00  0.00    -0.082 C 
ATOM     26  C   LIG d   1       2.361   0.053  -9.387  0.00  0.00    -0.079 C 
ATOM     27  H   LIG d   1       1.884  -1.109  -7.739  0.00  0.00     0.058 H 
BRANCH  26  28
ATOM     28  C   LIG d   1       3.197   1.186  -9.925  0.00  0.00    -0.044 C 
ATOM     29  H   LIG d   1       4.191   0.816 -10.177  0.00  0.00     0.027 H 
ATOM     30  H   LIG d   1       2.724   1.593 -10.819  0.00  0.00     0.027 H 
ATOM     31  H   LIG d   1       3.280   1.967  -9.169  0.00  0.00     0.027 H 
ENDBRANCH  26  28
BRANCH  26  32
ATOM     32  C   LIG d   1       1.502  -0.760 -10.321  0.00  0.00    -0.044 C 
ATOM     33  H   LIG d   1       0.451  -0.595 -10.084  0.00  0.00     0.027 H 
ATOM     34  H   LIG d   1       1.695  -0.455 -11.349  0.00  0.00     0.027 H 
ATOM     35  H   LIG d   1       1.739  -1.817 -10.205  0.00  0.00     0.027 H 
ENDBRANCH  26  32
ENDBRANCH  22  25
ENDBRANCH   5  22
BRANCH   1  36
ATOM     36  C   LIG d   1       3.658   1.472  -2.429  0.00  0.00    -0.062 C 
ATOM     37  H   LIG d   1       4.584   1.801  -1.957  0.00  0.00     0.023 H 
ATOM     38  H   LIG d   1       3.628   1.827  -3.459  0.00  0.00     0.023 H 
ATOM     39  H   LIG d   1       2.808   1.877  -1.880  0.00  0.00     0.023 H 
ENDBRANCH   1  36
BRANCH  13  40
ATOM     40  C   LIG d   1       6.053  -2.662  -5.243  0.00  0.00    -0.018 A 
ATOM     41  C   LIG d   1       6.381  -3.946  -4.847  0.00  0.00    -0.056 A 
ATOM     42  C   LIG d   1       7.676  -4.405  -4.993  0.00  0.00    -0.061 A 
ATOM     43  H   LIG d   1       5.624  -4.589  -4.425  0.00  0.00     0.062 H 
ATOM     44  C   LIG d   1       8.645  -3.580  -5.534  0.00  0.00    -0.062 A 
ATOM     45  H   LIG d   1       7.932  -5.407  -4.684  0.00  0.00     0.062 H 
ATOM     46  C   LIG d   1       8.319  -2.297  -5.929  0.00  0.00    -0.061 A 
ATOM     47  H   LIG d   1       9.657  -3.940  -5.648  0.00  0.00     0.062 H 
ATOM     48  C   LIG d   1       7.022  -1.837  -5.784  0.00  0.00    -0.056 A 
ATOM     49  H   LIG d   1       9.075  -1.652  -6.351  0.00  0.00     0.062 H 
ATOM     50  H   LIG d   1       6.766  -0.836  -6.097  0.00  0.00     0.062 H 
ENDBRANCH  13  40
TORSDOF 6
ENDMDL
MODEL 2
REMARK VINA RESULT:      -6.7      1.552      5.793
REMARK  6 active torsions:
REMARK  status: ('A' for Active; 'I' for Inactive)
REMARK    1  A    between atoms: C_1  and  C_2 
REMARK    2  A    between atoms: C_6  and  C_7 
REMARK    3  A    between atoms: C_7  and  C_8 
REMARK    4  A    between atoms: C_9  and  C_10 
REMARK    5  A    between atoms: C_9  and  C_11 
REMARK    6  A    between atoms: C_19  and  C_21 
ROOT
ATOM      1  C   LIG d   1       7.694  -2.330  -6.312  0.00  0.00    -0.035 C 
ATOM      2  H   LIG d   1       8.436  -2.832  -6.933  0.00  0.00     0.030 H 
ATOM      3  C   LIG d   1       6.643  -3.345  -5.853  0.00  0.00    -0.029 C 
ATOM      4  C   LIG d   1       5.550  -2.602  -5.095  0.00  0.00    -0.067 C 
ATOM      5  C   LIG d   1       5.161  -2.950  -3.894  0.00  0.00    -0.081 C 
ATOM      6  C   LIG d   1       4.913  -1.431  -5.818  0.00  0.00     0.011 C 
ATOM      7  H   LIG d   1       4.184  -0.930  -5.179  0.00  0.00     0.037 H 
ATOM      8  C   LIG d   1       6.028  -0.461  -6.239  0.00  0.00    -0.039 C 
ATOM      9  C   LIG d   1       7.026  -1.217  -7.118  0.00  0.00    -0.014 C 
ATOM     10  H   LIG d   1       7.789  -0.524  -7.474  0.00  0.00     0.033 H 
ATOM     11  C   LIG d   1       6.298  -1.823  -8.317  0.00  0.00     0.052 C 
ATOM     12  O   LIG d   1       5.218  -2.670  -7.866  0.00  0.00    -0.371 OA
ATOM     13  C   LIG d   1       4.241  -1.969  -7.090  0.00  0.00     0.090 C 
ATOM     14  H   LIG d   1       3.434  -2.649  -6.818  0.00  0.00     0.065 H 
ATOM     15  H   LIG d   1       6.232  -3.862  -6.719  0.00  0.00     0.031 H 
ATOM     16  H   LIG d   1       7.104  -4.069  -5.180  0.00  0.00     0.031 H 
ATOM     17  H   LIG d   1       5.702  -3.711  -3.351  0.00  0.00     0.058 H 
ATOM     18  H   LIG d   1       5.598   0.367  -6.802  0.00  0.00     0.028 H 
ATOM     19  H   LIG d   1       6.535  -0.081  -5.353  0.00  0.00     0.028 H 
ATOM     20  H   LIG d   1       5.903  -1.023  -8.942  0.00  0.00     0.056 H 
ATOM     21  H   LIG d   1       6.998  -2.424  -8.899  0.00  0.00     0.056 H 
ENDROOT
BRANCH   5  22
ATOM     22  C   LIG d   1       3.957  -2.291  -3.271  0.00  0.00    -0.016 C 
ATOM     23  H   LIG d   1       3.364  -1.808  -4.047  0.00  0.00     0.035 H 
ATOM     24  H   LIG d   1       3.352  -3.045  -2.767  0.00  0.00     0.035 H 
BRANCH  22  25
ATOM     25  C   LIG d   1       4.411  -1.260  -2.269  0.00  0.00    -0.082 C 
ATOM     26  C   LIG d   1       4.026  -0.014  -2.393  0.00  0.00    -0.079 C 
ATOM     27  H   LIG d   1       5.053  -1.549  -1.451  0.00  0.00     0.058 H 
BRANCH  26  28
ATOM     28  C   LIG d   1       2.995   0.357  -3.427  0.00  0.00    -0.044 C 
ATOM     29  H   LIG d   1       3.472   0.917  -4.231  0.00  0.00     0.027 H 
ATOM     30  H   LIG d   1       2.545  -0.550  -3.832  0.00  0.00     0.027 H 
ATOM     31  H   LIG d   1       2.222   0.971  -2.965  0.00  0.00     0.027 H 
ENDBRANCH  26  28
BRANCH  26  32
ATOM     32  C   LIG d   1       4.616   1.048  -1.501  0.00  0.00    -0.044 C 
ATOM     33  H   LIG d   1       4.417   0.799  -0.458  0.00  0.00     0.027 H 
ATOM     34  H   LIG d   1       5.693   1.100  -1.663  0.00  0.00     0.027 H 
ATOM     35  H   LIG d   1       4.166   2.012  -1.736  0.00  0.00     0.027 H 
ENDBRANCH  26  32
ENDBRANCH  22  25
ENDBRANCH   5  22
BRANCH   1  36
ATOM     36  C   LIG d   1       8.383  -1.725  -5.087  0.00  0.00    -0.062 C 
ATOM     37  H   LIG d   1       7.870  -0.808  -4.797  0.00  0.00     0.023 H 
ATOM     38  H   LIG d   1       8.348  -2.438  -4.262  0.00  0.00     0.023 H 
ATOM     39  H   LIG d   1       9.421  -1.499  -5.328  0.00  0.00     0.023 H 
ENDBRANCH   1  36
BRANCH  13  40
ATOM     40  C   LIG d   1       3.687  -0.821  -7.894  0.00  0.00    -0.018 A 
ATOM     41  C   LIG d   1       3.549  -0.939  -9.264  0.00  0.00    -0.056 A 
ATOM     42  C   LIG d   1       3.040   0.115 -10.001  0.00  0.00    -0.061 A 
ATOM     43  H   LIG d   1       3.840  -1.853  -9.759  0.00  0.00     0.062 H 
ATOM     44  C   LIG d   1       2.668   1.285  -9.367  0.00  0.00    -0.062 A 
ATOM     45  H   LIG d   1       2.933   0.022 -11.072  0.00  0.00     0.062 H 
ATOM     46  C   LIG d   1       2.806   1.404  -7.997  0.00  0.00    -0.061 A 
ATOM     47  H   LIG d   1       2.270   2.108  -9.943  0.00  0.00     0.062 H 
ATOM     48  C   LIG d   1       3.315   0.350  -7.260  0.00  0.00    -0.056 A 
ATOM     49  H   LIG d   1       2.516   2.319  -7.501  0.00  0.00     0.062 H 
ATOM     50  H   LIG d   1       3.418   0.441  -6.188  0.00  0.00     0.062 H 
ENDBRANCH  13  40
TORSDOF 6
ENDMDL
MODEL 3
REMARK VINA RESULT:      -6.4      1.591      4.437
REMARK  6 active torsions:
REMARK  status: ('A' for Active; 'I' for Inactive)
REMARK    1  A    between atoms: C_1  and  C_2 
REMARK    2  A    between atoms: C_6  and  C_7 
REMARK    3  A    between atoms: C_7  and  C_8 
REMARK    4  A    between atoms: C_9  and  C_10 
REMARK    5  A    between atoms: C_9  and  C_11 
REMARK    6  A    between atoms: C_19  and  C_21 
ROOT
ATOM      1  C   LIG d   1       6.689  -4.122  -5.792  0.00  0.00    -0.035 C 
ATOM      2  H   LIG d   1       7.679  -4.491  -5.525  0.00  0.00     0.030 H 
ATOM      3  C   LIG d   1       6.808  -3.139  -6.961  0.00  0.00    -0.029 C 
ATOM      4  C   LIG d   1       5.434  -2.540  -7.232  0.00  0.00    -0.067 C 
ATOM      5  C   LIG d   1       4.882  -2.548  -8.420  0.00  0.00    -0.081 C 
ATOM      6  C   LIG d   1       4.734  -1.908  -6.045  0.00  0.00     0.011 C 
ATOM      7  H   LIG d   1       3.739  -1.557  -6.323  0.00  0.00     0.037 H 
ATOM      8  C   LIG d   1       4.650  -2.955  -4.923  0.00  0.00    -0.039 C 
ATOM      9  C   LIG d   1       6.067  -3.422  -4.584  0.00  0.00    -0.014 C 
ATOM     10  H   LIG d   1       6.025  -4.119  -3.747  0.00  0.00     0.033 H 
ATOM     11  C   LIG d   1       6.925  -2.219  -4.195  0.00  0.00     0.052 C 
ATOM     12  O   LIG d   1       6.912  -1.237  -5.255  0.00  0.00    -0.371 OA
ATOM     13  C   LIG d   1       5.602  -0.743  -5.548  0.00  0.00     0.090 C 
ATOM     14  H   LIG d   1       5.664   0.022  -6.322  0.00  0.00     0.065 H 
ATOM     15  H   LIG d   1       7.528  -2.361  -6.711  0.00  0.00     0.031 H 
ATOM     16  H   LIG d   1       7.140  -3.672  -7.853  0.00  0.00     0.031 H 
ATOM     17  H   LIG d   1       5.342  -3.102  -9.225  0.00  0.00     0.058 H 
ATOM     18  H   LIG d   1       4.190  -2.509  -4.041  0.00  0.00     0.028 H 
ATOM     19  H   LIG d   1       4.055  -3.804  -5.259  0.00  0.00     0.028 H 
ATOM     20  H   LIG d   1       6.534  -1.777  -3.279  0.00  0.00     0.056 H 
ATOM     21  H   LIG d   1       7.952  -2.546  -4.029  0.00  0.00     0.056 H 
ENDROOT
BRANCH   5  22
ATOM     22  C   LIG d   1       3.606  -1.785  -8.663  0.00  0.00    -0.016 C 
ATOM     23  H   LIG d   1       2.904  -2.414  -9.209  0.00  0.00     0.035 H 
ATOM     24  H   LIG d   1       3.168  -1.497  -7.707  0.00  0.00     0.035 H 
BRANCH  22  25
ATOM     25  C   LIG d   1       3.905  -0.548  -9.470  0.00  0.00    -0.082 C 
ATOM     26  C   LIG d   1       3.507   0.625  -9.044  0.00  0.00    -0.079 C 
ATOM     27  H   LIG d   1       4.449  -0.629 -10.400  0.00  0.00     0.058 H 
BRANCH  26  28
ATOM     28  C   LIG d   1       2.906   0.762  -7.669  0.00  0.00    -0.044 C 
ATOM     29  H   LIG d   1       2.040   0.106  -7.584  0.00  0.00     0.027 H 
ATOM     30  H   LIG d   1       3.647   0.484  -6.920  0.00  0.00     0.027 H 
ATOM     31  H   LIG d   1       2.596   1.795  -7.509  0.00  0.00     0.027 H 
ENDBRANCH  26  28
BRANCH  26  32
ATOM     32  C   LIG d   1       3.649   1.836  -9.929  0.00  0.00    -0.044 C 
ATOM     33  H   LIG d   1       3.576   1.534 -10.974  0.00  0.00     0.027 H 
ATOM     34  H   LIG d   1       2.856   2.548  -9.700  0.00  0.00     0.027 H 
ATOM     35  H   LIG d   1       4.618   2.303  -9.754  0.00  0.00     0.027 H 
ENDBRANCH  26  32
ENDBRANCH  22  25
ENDBRANCH   5  22
BRANCH   1  36
ATOM     36  C   LIG d   1       5.804  -5.298  -6.208  0.00  0.00    -0.062 C 
ATOM     37  H   LIG d   1       6.210  -6.222  -5.797  0.00  0.00     0.023 H 
ATOM     38  H   LIG d   1       4.793  -5.144  -5.827  0.00  0.00     0.023 H 
ATOM     39  H   LIG d   1       5.775  -5.366  -7.295  0.00  0.00     0.023 H 
ENDBRANCH   1  36
BRANCH  13  40
ATOM     40  C   LIG d   1       4.993  -0.154  -4.301  0.00  0.00    -0.018 A 
ATOM     41  C   LIG d   1       3.647  -0.329  -4.040  0.00  0.00    -0.056 A 
ATOM     42  C   LIG d   1       3.089   0.211  -2.896  0.00  0.00    -0.061 A 
ATOM     43  H   LIG d   1       3.031  -0.887  -4.729  0.00  0.00     0.062 H 
ATOM     44  C   LIG d   1       3.878   0.926  -2.013  0.00  0.00    -0.062 A 
ATOM     45  H   LIG d   1       2.038   0.074  -2.692  0.00  0.00     0.062 H 
ATOM     46  C   LIG d   1       5.223   1.102  -2.275  0.00  0.00    -0.061 A 
ATOM     47  H   LIG d   1       3.442   1.347  -1.120  0.00  0.00     0.062 H 
ATOM     48  C   LIG d   1       5.782   0.561  -3.419  0.00  0.00    -0.056 A 
ATOM     49  H   LIG d   1       5.840   1.661  -1.587  0.00  0.00     0.062 H 
ATOM     50  H   LIG d   1       6.835   0.694  -3.622  0.00  0.00     0.062 H 
ENDBRANCH  13  40
TORSDOF 6
ENDMDL
MODEL 4
REMARK VINA RESULT:      -6.3      2.275      4.886
REMARK  6 active torsions:
REMARK  status: ('A' for Active; 'I' for Inactive)
REMARK    1  A    between atoms: C_1  and  C_2 
REMARK    2  A    between atoms: C_6  and  C_7 
REMARK    3  A    between atoms: C_7  and  C_8 
REMARK    4  A    between atoms: C_9  and  C_10 
REMARK    5  A    between atoms: C_9  and  C_11 
REMARK    6  A    between atoms: C_19  and  C_21 
ROOT
ATOM      1  C   LIG d   1       3.574  -0.361  -2.444  0.00  0.00    -0.035 C 
ATOM      2  H   LIG d   1       2.716  -0.011  -1.870  0.00  0.00     0.030 H 
ATOM      3  C   LIG d   1       4.439   0.836  -2.850  0.00  0.00    -0.029 C 
ATOM      4  C   LIG d   1       5.558   0.340  -3.757  0.00  0.00    -0.067 C 
ATOM      5  C   LIG d   1       6.821   0.604  -3.528  0.00  0.00    -0.081 C 
ATOM      6  C   LIG d   1       5.132  -0.471  -4.964  0.00  0.00     0.011 C 
ATOM      7  H   LIG d   1       6.001  -0.827  -5.519  0.00  0.00     0.037 H 
ATOM      8  C   LIG d   1       4.277  -1.651  -4.473  0.00  0.00    -0.039 C 
ATOM      9  C   LIG d   1       3.085  -1.097  -3.691  0.00  0.00    -0.014 C 
ATOM     10  H   LIG d   1       2.438  -1.922  -3.390  0.00  0.00     0.033 H 
ATOM     11  C   LIG d   1       2.294  -0.133  -4.574  0.00  0.00     0.052 C 
ATOM     12  O   LIG d   1       3.160   0.915  -5.063  0.00  0.00    -0.371 OA
ATOM     13  C   LIG d   1       4.250   0.422  -5.848  0.00  0.00     0.090 C 
ATOM     14  H   LIG d   1       4.839   1.260  -6.223  0.00  0.00     0.065 H 
ATOM     15  H   LIG d   1       3.823   1.574  -3.363  0.00  0.00     0.031 H 
ATOM     16  H   LIG d   1       4.882   1.285  -1.961  0.00  0.00     0.031 H 
ATOM     17  H   LIG d   1       7.114   1.083  -2.606  0.00  0.00     0.058 H 
ATOM     18  H   LIG d   1       3.920  -2.224  -5.329  0.00  0.00     0.028 H 
ATOM     19  H   LIG d   1       4.876  -2.291  -3.825  0.00  0.00     0.028 H 
ATOM     20  H   LIG d   1       1.867  -0.680  -5.414  0.00  0.00     0.056 H 
ATOM     21  H   LIG d   1       1.491   0.317  -3.989  0.00  0.00     0.056 H 
ENDROOT
BRANCH   5  22
ATOM     22  C   LIG d   1       7.864   0.240  -4.553  0.00  0.00    -0.016 C 
ATOM     23  H   LIG d   1       8.655  -0.339  -4.077  0.00  0.00     0.035 H 
ATOM     24  H   LIG d   1       7.405  -0.354  -5.343  0.00  0.00     0.035 H 
BRANCH  22  25
ATOM     25  C   LIG d   1       8.448   1.497  -5.145  0.00  0.00    -0.082 C 
ATOM     26  C   LIG d   1       8.416   1.687  -6.440  0.00  0.00    -0.079 C 
ATOM     27  H   LIG d   1       8.893   2.241  -4.501  0.00  0.00     0.058 H 
BRANCH  26  28
ATOM     28  C   LIG d   1       7.645   0.739  -7.322  0.00  0.00    -0.044 C 
ATOM     29  H   LIG d   1       6.604   1.057  -7.373  0.00  0.00     0.027 H 
ATOM     30  H   LIG d   1       8.076   0.743  -8.323  0.00  0.00     0.027 H 
ATOM     31  H   LIG d   1       7.698  -0.268  -6.907  0.00  0.00     0.027 H 
ENDBRANCH  26  28
BRANCH  26  32
ATOM     32  C   LIG d   1       9.152   2.853  -7.048  0.00  0.00    -0.044 C 
ATOM     33  H   LIG d   1       9.603   2.547  -7.992  0.00  0.00     0.027 H 
ATOM     34  H   LIG d   1       8.452   3.669  -7.229  0.00  0.00     0.027 H 
ATOM     35  H   LIG d   1       9.932   3.188  -6.365  0.00  0.00     0.027 H 
ENDBRANCH  26  32
ENDBRANCH  22  25
ENDBRANCH   5  22
BRANCH   1  36
ATOM     36  C   LIG d   1       4.404  -1.316  -1.585  0.00  0.00    -0.062 C 
ATOM     37  H   LIG d   1       3.755  -2.083  -1.162  0.00  0.00     0.023 H 
ATOM     38  H   LIG d   1       5.170  -1.788  -2.202  0.00  0.00     0.023 H 
ATOM     39  H   LIG d   1       4.881  -0.760  -0.778  0.00  0.00     0.023 H 
ENDBRANCH   1  36
BRANCH  13  40
ATOM     40  C   LIG d   1       3.717  -0.380  -7.007  0.00  0.00    -0.018 A 
ATOM     41  C   LIG d   1       2.665   0.107  -7.760  0.00  0.00    -0.056 A 
ATOM     42  C   LIG d   1       2.177  -0.629  -8.824  0.00  0.00    -0.061 A 
ATOM     43  H   LIG d   1       2.226   1.063  -7.518  0.00  0.00     0.062 H 
ATOM     44  C   LIG d   1       2.740  -1.853  -9.134  0.00  0.00    -0.062 A 
ATOM     45  H   LIG d   1       1.355  -0.248  -9.412  0.00  0.00     0.062 H 
ATOM     46  C   LIG d   1       3.791  -2.341  -8.380  0.00  0.00    -0.061 A 
ATOM     47  H   LIG d   1       2.358  -2.427  -9.964  0.00  0.00     0.062 H 
ATOM     48  C   LIG d   1       4.280  -1.604  -7.317  0.00  0.00    -0.056 A 
ATOM     49  H   LIG d   1       4.230  -3.298  -8.621  0.00  0.00     0.062 H 
ATOM     50  H   LIG d   1       5.105  -1.984  -6.730  0.00  0.00     0.062 H 
ENDBRANCH  13  40
TORSDOF 6
ENDMDL
MODEL 5
REMARK VINA RESULT:      -6.2      1.506      5.234
REMARK  6 active torsions:
REMARK  status: ('A' for Active; 'I' for Inactive)
REMARK    1  A    between atoms: C_1  and  C_2 
REMARK    2  A    between atoms: C_6  and  C_7 
REMARK    3  A    between atoms: C_7  and  C_8 
REMARK    4  A    between atoms: C_9  and  C_10 
REMARK    5  A    between atoms: C_9  and  C_11 
REMARK    6  A    between atoms: C_19  and  C_21 
ROOT
ATOM      1  C   LIG d   1       3.820  -0.646  -2.483  0.00  0.00    -0.035 C 
ATOM      2  H   LIG d   1       3.103  -0.077  -1.891  0.00  0.00     0.030 H 
ATOM      3  C   LIG d   1       4.983   0.263  -2.891  0.00  0.00    -0.029 C 
ATOM      4  C   LIG d   1       5.904  -0.516  -3.821  0.00  0.00    -0.067 C 
ATOM      5  C   LIG d   1       7.192  -0.624  -3.611  0.00  0.00    -0.081 C 
ATOM      6  C   LIG d   1       5.249  -1.154  -5.030  0.00  0.00     0.011 C 
ATOM      7  H   LIG d   1       5.975  -1.733  -5.603  0.00  0.00     0.037 H 
ATOM      8  C   LIG d   1       4.102  -2.051  -4.538  0.00  0.00    -0.039 C 
ATOM      9  C   LIG d   1       3.126  -1.194  -3.730  0.00  0.00    -0.014 C 
ATOM     10  H   LIG d   1       2.276  -1.806  -3.427  0.00  0.00     0.033 H 
ATOM     11  C   LIG d   1       2.629  -0.032  -4.589  0.00  0.00     0.052 C 
ATOM     12  O   LIG d   1       3.751   0.735  -5.081  0.00  0.00    -0.371 OA
ATOM     13  C   LIG d   1       4.646  -0.034  -5.889  0.00  0.00     0.090 C 
ATOM     14  H   LIG d   1       5.443   0.608  -6.264  0.00  0.00     0.065 H 
ATOM     15  H   LIG d   1       4.595   1.153  -3.385  0.00  0.00     0.031 H 
ATOM     16  H   LIG d   1       5.546   0.554  -2.004  0.00  0.00     0.031 H 
ATOM     17  H   LIG d   1       7.621  -0.262  -2.688  0.00  0.00     0.058 H 
ATOM     18  H   LIG d   1       3.586  -2.486  -5.394  0.00  0.00     0.028 H 
ATOM     19  H   LIG d   1       4.503  -2.844  -3.907  0.00  0.00     0.028 H 
ATOM     20  H   LIG d   1       2.054  -0.423  -5.427  0.00  0.00     0.056 H 
ATOM     21  H   LIG d   1       1.994   0.618  -3.986  0.00  0.00     0.056 H 
ENDROOT
BRANCH   5  22
ATOM     22  C   LIG d   1       8.077  -1.253  -4.656  0.00  0.00    -0.016 C 
ATOM     23  H   LIG d   1       7.581  -1.210  -5.626  0.00  0.00     0.035 H 
ATOM     24  H   LIG d   1       9.020  -0.710  -4.707  0.00  0.00     0.035 H 
BRANCH  22  25
ATOM     25  C   LIG d   1       8.344  -2.690  -4.291  0.00  0.00    -0.082 C 
ATOM     26  C   LIG d   1       8.114  -3.641  -5.162  0.00  0.00    -0.079 C 
ATOM     27  H   LIG d   1       8.725  -2.936  -3.311  0.00  0.00     0.058 H 
BRANCH  26  28
ATOM     28  C   LIG d   1       7.751  -3.290  -6.581  0.00  0.00    -0.044 C 
ATOM     29  H   LIG d   1       7.974  -4.135  -7.233  0.00  0.00     0.027 H 
ATOM     30  H   LIG d   1       6.686  -3.060  -6.637  0.00  0.00     0.027 H 
ATOM     31  H   LIG d   1       8.327  -2.422  -6.900  0.00  0.00     0.027 H 
ENDBRANCH  26  28
BRANCH  26  32
ATOM     32  C   LIG d   1       8.213  -5.085  -4.743  0.00  0.00    -0.044 C 
ATOM     33  H   LIG d   1       7.497  -5.679  -5.312  0.00  0.00     0.027 H 
ATOM     34  H   LIG d   1       9.221  -5.451  -4.936  0.00  0.00     0.027 H 
ATOM     35  H   LIG d   1       7.991  -5.172  -3.680  0.00  0.00     0.027 H 
ENDBRANCH  26  32
ENDBRANCH  22  25
ENDBRANCH   5  22
BRANCH   1  36
ATOM     36  C   LIG d   1       4.356  -1.811  -1.648  0.00  0.00    -0.062 C 
ATOM     37  H   LIG d   1       4.797  -2.558  -2.308  0.00  0.00     0.023 H 
ATOM     38  H   LIG d   1       5.115  -1.443  -0.957  0.00  0.00     0.023 H 
ATOM     39  H   LIG d   1       3.539  -2.261  -1.085  0.00  0.00     0.023 H 
ENDBRANCH   1  36
BRANCH  13  40
ATOM     40  C   LIG d   1       3.893  -0.635  -7.048  0.00  0.00    -0.018 A 
ATOM     41  C   LIG d   1       2.844   0.057  -7.624  0.00  0.00    -0.056 A 
ATOM     42  C   LIG d   1       2.153  -0.494  -8.687  0.00  0.00    -0.061 A 
ATOM     43  H   LIG d   1       2.564   1.028  -7.243  0.00  0.00     0.062 H 
ATOM     44  C   LIG d   1       2.511  -1.737  -9.174  0.00  0.00    -0.062 A 
ATOM     45  H   LIG d   1       1.333   0.047  -9.137  0.00  0.00     0.062 H 
ATOM     46  C   LIG d   1       3.559  -2.429  -8.598  0.00  0.00    -0.061 A 
ATOM     47  H   LIG d   1       1.971  -2.167 -10.005  0.00  0.00     0.062 H 
ATOM     48  C   LIG d   1       4.251  -1.878  -7.535  0.00  0.00    -0.056 A 
ATOM     49  H   LIG d   1       3.839  -3.401  -8.977  0.00  0.00     0.062 H 
ATOM     50  H   LIG d   1       5.073  -2.417  -7.087  0.00  0.00     0.062 H 
ENDBRANCH  13  40
TORSDOF 6
ENDMDL
MODEL 6
REMARK VINA RESULT:      -6.1      2.472      4.016
REMARK  6 active torsions:
REMARK  status: ('A' for Active; 'I' for Inactive)
REMARK    1  A    between atoms: C_1  and  C_2 
REMARK    2  A    between atoms: C_6  and  C_7 
REMARK    3  A    between atoms: C_7  and  C_8 
REMARK    4  A    between atoms: C_9  and  C_10 
REMARK    5  A    between atoms: C_9  and  C_11 
REMARK    6  A    between atoms: C_19  and  C_21 
ROOT
ATOM      1  C   LIG d   1       3.303  -0.257  -2.618  0.00  0.00    -0.035 C 
ATOM      2  H   LIG d   1       2.964   0.218  -1.698  0.00  0.00     0.030 H 
ATOM      3  C   LIG d   1       4.190  -1.458  -2.275  0.00  0.00    -0.029 C 
ATOM      4  C   LIG d   1       4.757  -2.028  -3.569  0.00  0.00    -0.067 C 
ATOM      5  C   LIG d   1       4.649  -3.293  -3.891  0.00  0.00    -0.081 C 
ATOM      6  C   LIG d   1       5.478  -1.046  -4.472  0.00  0.00     0.011 C 
ATOM      7  H   LIG d   1       5.798  -1.532  -5.395  0.00  0.00     0.037 H 
ATOM      8  C   LIG d   1       4.524   0.121  -4.773  0.00  0.00    -0.039 C 
ATOM      9  C   LIG d   1       4.095   0.754  -3.447  0.00  0.00    -0.014 C 
ATOM     10  H   LIG d   1       3.467   1.622  -3.650  0.00  0.00     0.033 H 
ATOM     11  C   LIG d   1       5.331   1.197  -2.666  0.00  0.00     0.052 C 
ATOM     12  O   LIG d   1       6.224   0.078  -2.473  0.00  0.00    -0.371 OA
ATOM     13  C   LIG d   1       6.684  -0.492  -3.702  0.00  0.00     0.090 C 
ATOM     14  H   LIG d   1       7.385  -1.300  -3.490  0.00  0.00     0.065 H 
ATOM     15  H   LIG d   1       4.990  -1.143  -1.607  0.00  0.00     0.031 H 
ATOM     16  H   LIG d   1       3.589  -2.228  -1.788  0.00  0.00     0.031 H 
ATOM     17  H   LIG d   1       4.035  -3.951  -3.294  0.00  0.00     0.058 H 
ATOM     18  H   LIG d   1       5.037   0.863  -5.384  0.00  0.00     0.028 H 
ATOM     19  H   LIG d   1       3.647  -0.251  -5.302  0.00  0.00     0.028 H 
ATOM     20  H   LIG d   1       5.842   1.986  -3.217  0.00  0.00     0.056 H 
ATOM     21  H   LIG d   1       5.025   1.578  -1.691  0.00  0.00     0.056 H 
ENDROOT
BRANCH   5  22
ATOM     22  C   LIG d   1       5.382  -3.830  -5.093  0.00  0.00    -0.016 C 
ATOM     23  H   LIG d   1       6.172  -3.135  -5.378  0.00  0.00     0.035 H 
ATOM     24  H   LIG d   1       5.820  -4.797  -4.848  0.00  0.00     0.035 H 
BRANCH  22  25
ATOM     25  C   LIG d   1       4.417  -3.992  -6.240  0.00  0.00    -0.082 C 
ATOM     26  C   LIG d   1       4.665  -3.417  -7.390  0.00  0.00    -0.079 C 
ATOM     27  H   LIG d   1       3.522  -4.582  -6.113  0.00  0.00     0.058 H 
BRANCH  26  28
ATOM     28  C   LIG d   1       5.992  -2.741  -7.624  0.00  0.00    -0.044 C 
ATOM     29  H   LIG d   1       5.830  -1.786  -8.123  0.00  0.00     0.027 H 
ATOM     30  H   LIG d   1       6.487  -2.573  -6.668  0.00  0.00     0.027 H 
ATOM     31  H   LIG d   1       6.618  -3.378  -8.250  0.00  0.00     0.027 H 
ENDBRANCH  26  28
BRANCH  26  32
ATOM     32  C   LIG d   1       3.623  -3.430  -8.478  0.00  0.00    -0.044 C 
ATOM     33  H   LIG d   1       3.132  -4.403  -8.500  0.00  0.00     0.027 H 
ATOM     34  H   LIG d   1       2.883  -2.654  -8.282  0.00  0.00     0.027 H 
ATOM     35  H   LIG d   1       4.099  -3.242  -9.441  0.00  0.00     0.027 H 
ENDBRANCH  26  32
ENDBRANCH  22  25
ENDBRANCH   5  22
BRANCH   1  36
ATOM     36  C   LIG d   1       2.092  -0.734  -3.421  0.00  0.00    -0.062 C 
ATOM     37  H   LIG d   1       1.230  -0.112  -3.182  0.00  0.00     0.023 H 
ATOM     38  H   LIG d   1       2.311  -0.659  -4.487  0.00  0.00     0.023 H 
ATOM     39  H   LIG d   1       1.873  -1.771  -3.167  0.00  0.00     0.023 H 
ENDBRANCH   1  36
BRANCH  13  40
ATOM     40  C   LIG d   1       7.368   0.568  -4.526  0.00  0.00    -0.018 A 
ATOM     41  C   LIG d   1       7.939   1.664  -3.908  0.00  0.00    -0.056 A 
ATOM     42  C   LIG d   1       8.567   2.636  -4.664  0.00  0.00    -0.061 A 
ATOM     43  H   LIG d   1       7.895   1.761  -2.833  0.00  0.00     0.062 H 
ATOM     44  C   LIG d   1       8.623   2.512  -6.040  0.00  0.00    -0.062 A 
ATOM     45  H   LIG d   1       9.013   3.493  -4.181  0.00  0.00     0.062 H 
ATOM     46  C   LIG d   1       8.050   1.417  -6.659  0.00  0.00    -0.061 A 
ATOM     47  H   LIG d   1       9.113   3.272  -6.631  0.00  0.00     0.062 H 
ATOM     48  C   LIG d   1       7.424   0.444  -5.902  0.00  0.00    -0.056 A 
ATOM     49  H   LIG d   1       8.093   1.320  -7.734  0.00  0.00     0.062 H 
ATOM     50  H   LIG d   1       6.981  -0.415  -6.386  0.00  0.00     0.062 H 
ENDBRANCH  13  40
TORSDOF 6
ENDMDL
MODEL 7
REMARK VINA RESULT:      -6.1      2.975      5.368
REMARK  6 active torsions:
REMARK  status: ('A' for Active; 'I' for Inactive)
REMARK    1  A    between atoms: C_1  and  C_2 
REMARK    2  A    between atoms: C_6  and  C_7 
REMARK    3  A    between atoms: C_7  and  C_8 
REMARK    4  A    between atoms: C_9  and  C_10 
REMARK    5  A    between atoms: C_9  and  C_11 
REMARK    6  A    between atoms: C_19  and  C_21 
ROOT
ATOM      1  C   LIG d   1       7.277  -3.842  -5.792  0.00  0.00    -0.035 C 
ATOM      2  H   LIG d   1       7.528  -4.329  -6.733  0.00  0.00     0.030 H 
ATOM      3  C   LIG d   1       5.814  -3.389  -5.825  0.00  0.00    -0.029 C 
ATOM      4  C   LIG d   1       5.522  -2.599  -4.556  0.00  0.00    -0.067 C 
ATOM      5  C   LIG d   1       4.519  -2.882  -3.763  0.00  0.00    -0.081 C 
ATOM      6  C   LIG d   1       6.455  -1.440  -4.260  0.00  0.00     0.011 C 
ATOM      7  H   LIG d   1       6.201  -0.972  -3.308  0.00  0.00     0.037 H 
ATOM      8  C   LIG d   1       7.895  -1.975  -4.239  0.00  0.00    -0.039 C 
ATOM      9  C   LIG d   1       8.191  -2.633  -5.588  0.00  0.00    -0.014 C 
ATOM     10  H   LIG d   1       9.231  -2.962  -5.607  0.00  0.00     0.033 H 
ATOM     11  C   LIG d   1       7.961  -1.625  -6.712  0.00  0.00     0.052 C 
ATOM     12  O   LIG d   1       6.616  -1.103  -6.643  0.00  0.00    -0.371 OA
ATOM     13  C   LIG d   1       6.336  -0.432  -5.411  0.00  0.00     0.090 C 
ATOM     14  H   LIG d   1       5.325  -0.024  -5.438  0.00  0.00     0.065 H 
ATOM     15  H   LIG d   1       5.641  -2.779  -6.711  0.00  0.00     0.031 H 
ATOM     16  H   LIG d   1       5.163  -4.263  -5.850  0.00  0.00     0.031 H 
ATOM     17  H   LIG d   1       3.937  -3.777  -3.927  0.00  0.00     0.058 H 
ATOM     18  H   LIG d   1       8.588  -1.151  -4.073  0.00  0.00     0.028 H 
ATOM     19  H   LIG d   1       8.000  -2.712  -3.441  0.00  0.00     0.028 H 
ATOM     20  H   LIG d   1       8.678  -0.810  -6.619  0.00  0.00     0.056 H 
ATOM     21  H   LIG d   1       8.099  -2.119  -7.675  0.00  0.00     0.056 H 
ENDROOT
BRANCH   5  22
ATOM     22  C   LIG d   1       4.175  -1.958  -2.623  0.00  0.00    -0.016 C 
ATOM     23  H   LIG d   1       3.479  -2.456  -1.949  0.00  0.00     0.035 H 
ATOM     24  H   LIG d   1       5.084  -1.699  -2.080  0.00  0.00     0.035 H 
BRANCH  22  25
ATOM     25  C   LIG d   1       3.540  -0.704  -3.166  0.00  0.00    -0.082 C 
ATOM     26  C   LIG d   1       3.804   0.455  -2.615  0.00  0.00    -0.079 C 
ATOM     27  H   LIG d   1       2.868  -0.760  -4.009  0.00  0.00     0.058 H 
BRANCH  26  28
ATOM     28  C   LIG d   1       4.871   0.560  -1.556  0.00  0.00    -0.044 C 
ATOM     29  H   LIG d   1       4.529   1.221  -0.760  0.00  0.00     0.027 H 
ATOM     30  H   LIG d   1       5.073  -0.429  -1.146  0.00  0.00     0.027 H 
ATOM     31  H   LIG d   1       5.782   0.964  -1.998  0.00  0.00     0.027 H 
ENDBRANCH  26  28
BRANCH  26  32
ATOM     32  C   LIG d   1       3.039   1.682  -3.040  0.00  0.00    -0.044 C 
ATOM     33  H   LIG d   1       3.511   2.118  -3.921  0.00  0.00     0.027 H 
ATOM     34  H   LIG d   1       2.012   1.405  -3.277  0.00  0.00     0.027 H 
ATOM     35  H   LIG d   1       3.041   2.411  -2.230  0.00  0.00     0.027 H 
ENDBRANCH  26  32
ENDBRANCH  22  25
ENDBRANCH   5  22
BRANCH   1  36
ATOM     36  C   LIG d   1       7.476  -4.828  -4.640  0.00  0.00    -0.062 C 
ATOM     37  H   LIG d   1       6.939  -5.751  -4.855  0.00  0.00     0.023 H 
ATOM     38  H   LIG d   1       8.539  -5.044  -4.526  0.00  0.00     0.023 H 
ATOM     39  H   LIG d   1       7.094  -4.392  -3.717  0.00  0.00     0.023 H 
ENDBRANCH   1  36
BRANCH  13  40
ATOM     40  C   LIG d   1       7.327   0.686  -5.208  0.00  0.00    -0.018 A 
ATOM     41  C   LIG d   1       7.626   1.122  -3.931  0.00  0.00    -0.056 A 
ATOM     42  C   LIG d   1       8.536   2.146  -3.745  0.00  0.00    -0.061 A 
ATOM     43  H   LIG d   1       7.150   0.662  -3.078  0.00  0.00     0.062 H 
ATOM     44  C   LIG d   1       9.145   2.736  -4.838  0.00  0.00    -0.062 A 
ATOM     45  H   LIG d   1       8.769   2.487  -2.747  0.00  0.00     0.062 H 
ATOM     46  C   LIG d   1       8.845   2.301  -6.114  0.00  0.00    -0.061 A 
ATOM     47  H   LIG d   1       9.856   3.536  -4.692  0.00  0.00     0.062 H 
ATOM     48  C   LIG d   1       7.936   1.275  -6.300  0.00  0.00    -0.056 A 
ATOM     49  H   LIG d   1       9.320   2.762  -6.968  0.00  0.00     0.062 H 
ATOM     50  H   LIG d   1       7.705   0.932  -7.298  0.00  0.00     0.062 H 
ENDBRANCH  13  40
TORSDOF 6
ENDMDL
MODEL 8
REMARK VINA RESULT:      -6.1      3.460      6.486
REMARK  6 active torsions:
REMARK  status: ('A' for Active; 'I' for Inactive)
REMARK    1  A    between atoms: C_1  and  C_2 
REMARK    2  A    between atoms: C_6  and  C_7 
REMARK    3  A    between atoms: C_7  and  C_8 
REMARK    4  A    between atoms: C_9  and  C_10 
REMARK    5  A    between atoms: C_9  and  C_11 
REMARK    6  A    between atoms: C_19  and  C_21 
ROOT
ATOM      1  C   LIG d   1       8.465  -1.308  -6.517  0.00  0.00    -0.035 C 
ATOM      2  H   LIG d   1       8.770  -2.295  -6.863  0.00  0.00     0.030 H 
ATOM      3  C   LIG d   1       9.303  -0.912  -5.298  0.00  0.00    -0.029 C 
ATOM      4  C   LIG d   1       8.775   0.410  -4.755  0.00  0.00    -0.067 C 
ATOM      5  C   LIG d   1       9.547   1.447  -4.546  0.00  0.00    -0.081 C 
ATOM      6  C   LIG d   1       7.291   0.461  -4.448  0.00  0.00     0.011 C 
ATOM      7  H   LIG d   1       6.997   1.459  -4.118  0.00  0.00     0.037 H 
ATOM      8  C   LIG d   1       6.523   0.058  -5.716  0.00  0.00    -0.039 C 
ATOM      9  C   LIG d   1       6.983  -1.338  -6.142  0.00  0.00    -0.014 C 
ATOM     10  H   LIG d   1       6.401  -1.661  -7.006  0.00  0.00     0.033 H 
ATOM     11  C   LIG d   1       6.768  -2.322  -4.994  0.00  0.00     0.052 C 
ATOM     12  O   LIG d   1       7.454  -1.859  -3.809  0.00  0.00    -0.371 OA
ATOM     13  C   LIG d   1       6.997  -0.580  -3.359  0.00  0.00     0.090 C 
ATOM     14  H   LIG d   1       7.518  -0.307  -2.442  0.00  0.00     0.065 H 
ATOM     15  H   LIG d   1       9.242  -1.694  -4.543  0.00  0.00     0.031 H 
ATOM     16  H   LIG d   1      10.342  -0.775  -5.599  0.00  0.00     0.031 H 
ATOM     17  H   LIG d   1      10.575   1.430  -4.877  0.00  0.00     0.058 H 
ATOM     18  H   LIG d   1       5.453   0.043  -5.507  0.00  0.00     0.028 H 
ATOM     19  H   LIG d   1       6.733   0.771  -6.513  0.00  0.00     0.028 H 
ATOM     20  H   LIG d   1       5.702  -2.413  -4.791  0.00  0.00     0.056 H 
ATOM     21  H   LIG d   1       7.168  -3.298  -5.274  0.00  0.00     0.056 H 
ENDROOT
BRANCH   5  22
ATOM     22  C   LIG d   1       9.002   2.663  -3.842  0.00  0.00    -0.016 C 
ATOM     23  H   LIG d   1       7.950   2.506  -3.607  0.00  0.00     0.035 H 
ATOM     24  H   LIG d   1       9.559   2.828  -2.920  0.00  0.00     0.035 H 
BRANCH  22  25
ATOM     25  C   LIG d   1       9.143   3.868  -4.737  0.00  0.00    -0.082 C 
ATOM     26  C   LIG d   1       9.511   5.019  -4.231  0.00  0.00    -0.079 C 
ATOM     27  H   LIG d   1       8.942   3.781  -5.794  0.00  0.00     0.058 H 
BRANCH  26  28
ATOM     28  C   LIG d   1       9.960   5.102  -2.795  0.00  0.00    -0.044 C 
ATOM     29  H   LIG d   1      10.020   6.147  -2.494  0.00  0.00     0.027 H 
ATOM     30  H   LIG d   1       9.244   4.581  -2.160  0.00  0.00     0.027 H 
ATOM     31  H   LIG d   1      10.941   4.637  -2.694  0.00  0.00     0.027 H 
ENDBRANCH  26  28
BRANCH  26  32
ATOM     32  C   LIG d   1       9.483   6.259  -5.086  0.00  0.00    -0.044 C 
ATOM     33  H   LIG d   1       8.592   6.250  -5.713  0.00  0.00     0.027 H 
ATOM     34  H   LIG d   1       9.467   7.141  -4.445  0.00  0.00     0.027 H 
ATOM     35  H   LIG d   1      10.371   6.286  -5.718  0.00  0.00     0.027 H 
ENDBRANCH  26  32
ENDBRANCH  22  25
ENDBRANCH   5  22
BRANCH   1  36
ATOM     36  C   LIG d   1       8.684  -0.288  -7.636  0.00  0.00    -0.062 C 
ATOM     37  H   LIG d   1       7.738   0.199  -7.874  0.00  0.00     0.023 H 
ATOM     38  H   LIG d   1       9.406   0.461  -7.308  0.00  0.00     0.023 H 
ATOM     39  H   LIG d   1       9.063  -0.796  -8.522  0.00  0.00     0.023 H 
ENDBRANCH   1  36
BRANCH  13  40
ATOM     40  C   LIG d   1       5.513  -0.636  -3.100  0.00  0.00    -0.018 A 
ATOM     41  C   LIG d   1       4.902  -1.847  -2.835  0.00  0.00    -0.056 A 
ATOM     42  C   LIG d   1       3.541  -1.898  -2.596  0.00  0.00    -0.061 A 
ATOM     43  H   LIG d   1       5.488  -2.754  -2.814  0.00  0.00     0.062 H 
ATOM     44  C   LIG d   1       2.791  -0.737  -2.624  0.00  0.00    -0.062 A 
ATOM     45  H   LIG d   1       3.064  -2.845  -2.389  0.00  0.00     0.062 H 
ATOM     46  C   LIG d   1       3.401   0.474  -2.890  0.00  0.00    -0.061 A 
ATOM     47  H   LIG d   1       1.728  -0.778  -2.437  0.00  0.00     0.062 H 
ATOM     48  C   LIG d   1       4.763   0.525  -3.127  0.00  0.00    -0.056 A 
ATOM     49  H   LIG d   1       2.815   1.381  -2.913  0.00  0.00     0.062 H 
ATOM     50  H   LIG d   1       5.240   1.472  -3.331  0.00  0.00     0.062 H 
ENDBRANCH  13  40
TORSDOF 6
ENDMDL
MODEL 9
REMARK VINA RESULT:      -6.0      2.556      6.982
REMARK  6 active torsions:
REMARK  status: ('A' for Active; 'I' for Inactive)
REMARK    1  A    between atoms: C_1  and  C_2 
REMARK    2  A    between atoms: C_6  and  C_7 
REMARK    3  A    between atoms: C_7  and  C_8 
REMARK    4  A    between atoms: C_9  and  C_10 
REMARK    5  A    between atoms: C_9  and  C_11 
REMARK    6  A    between atoms: C_19  and  C_21 
ROOT
ATOM      1  C   LIG d   1       6.256  -3.354  -6.981  0.00  0.00    -0.035 C 
ATOM      2  H   LIG d   1       5.569  -3.753  -7.728  0.00  0.00     0.030 H 
ATOM      3  C   LIG d   1       6.429  -4.374  -5.851  0.00  0.00    -0.029 C 
ATOM      4  C   LIG d   1       7.287  -3.746  -4.760  0.00  0.00    -0.067 C 
ATOM      5  C   LIG d   1       8.361  -4.326  -4.285  0.00  0.00    -0.081 C 
ATOM      6  C   LIG d   1       6.820  -2.405  -4.230  0.00  0.00     0.011 C 
ATOM      7  H   LIG d   1       7.524  -2.012  -3.495  0.00  0.00     0.037 H 
ATOM      8  C   LIG d   1       6.676  -1.442  -5.418  0.00  0.00    -0.039 C 
ATOM      9  C   LIG d   1       5.692  -2.048  -6.421  0.00  0.00    -0.014 C 
ATOM     10  H   LIG d   1       5.535  -1.345  -7.240  0.00  0.00     0.033 H 
ATOM     11  C   LIG d   1       4.358  -2.323  -5.730  0.00  0.00     0.052 C 
ATOM     12  O   LIG d   1       4.561  -3.175  -4.581  0.00  0.00    -0.371 OA
ATOM     13  C   LIG d   1       5.432  -2.601  -3.602  0.00  0.00     0.090 C 
ATOM     14  H   LIG d   1       5.510  -3.270  -2.745  0.00  0.00     0.065 H 
ATOM     15  H   LIG d   1       5.452  -4.657  -5.462  0.00  0.00     0.031 H 
ATOM     16  H   LIG d   1       6.941  -5.257  -6.233  0.00  0.00     0.031 H 
ATOM     17  H   LIG d   1       8.742  -5.222  -4.753  0.00  0.00     0.058 H 
ATOM     18  H   LIG d   1       6.296  -0.482  -5.067  0.00  0.00     0.028 H 
ATOM     19  H   LIG d   1       7.646  -1.302  -5.895  0.00  0.00     0.028 H 
ATOM     20  H   LIG d   1       3.913  -1.380  -5.415  0.00  0.00     0.056 H 
ATOM     21  H   LIG d   1       3.686  -2.825  -6.427  0.00  0.00     0.056 H 
ENDROOT
BRANCH   5  22
ATOM     22  C   LIG d   1       9.065  -3.744  -3.087  0.00  0.00    -0.016 C 
ATOM     23  H   LIG d   1       9.204  -2.673  -3.231  0.00  0.00     0.035 H 
ATOM     24  H   LIG d   1       8.464  -3.916  -2.194  0.00  0.00     0.035 H 
BRANCH  22  25
ATOM     25  C   LIG d   1      10.409  -4.407  -2.922  0.00  0.00    -0.082 C 
ATOM     26  C   LIG d   1      11.457  -3.926  -3.543  0.00  0.00    -0.079 C 
ATOM     27  H   LIG d   1      10.507  -5.278  -2.292  0.00  0.00     0.058 H 
BRANCH  26  28
ATOM     28  C   LIG d   1      11.361  -2.615  -4.279  0.00  0.00    -0.044 C 
ATOM     29  H   LIG d   1      11.747  -1.815  -3.648  0.00  0.00     0.027 H 
ATOM     30  H   LIG d   1      11.947  -2.670  -5.196  0.00  0.00     0.027 H 
ATOM     31  H   LIG d   1      10.318  -2.412  -4.525  0.00  0.00     0.027 H 
ENDBRANCH  26  28
BRANCH  26  32
ATOM     32  C   LIG d   1      12.759  -4.684  -3.521  0.00  0.00    -0.044 C 
ATOM     33  H   LIG d   1      12.570  -5.725  -3.255  0.00  0.00     0.027 H 
ATOM     34  H   LIG d   1      13.221  -4.640  -4.507  0.00  0.00     0.027 H 
ATOM     35  H   LIG d   1      13.428  -4.238  -2.786  0.00  0.00     0.027 H 
ENDBRANCH  26  32
ENDBRANCH  22  25
ENDBRANCH   5  22
BRANCH   1  36
ATOM     36  C   LIG d   1       7.613  -3.083  -7.632  0.00  0.00    -0.062 C 
ATOM     37  H   LIG d   1       7.865  -2.028  -7.522  0.00  0.00     0.023 H 
ATOM     38  H   LIG d   1       8.376  -3.692  -7.146  0.00  0.00     0.023 H 
ATOM     39  H   LIG d   1       7.566  -3.336  -8.691  0.00  0.00     0.023 H 
ENDBRANCH   1  36
BRANCH  13  40
ATOM     40  C   LIG d   1       4.885  -1.269  -3.157  0.00  0.00    -0.018 A 
ATOM     41  C   LIG d   1       5.749  -0.242  -2.828  0.00  0.00    -0.056 A 
ATOM     42  C   LIG d   1       5.246   0.980  -2.420  0.00  0.00    -0.061 A 
ATOM     43  H   LIG d   1       6.816  -0.394  -2.888  0.00  0.00     0.062 H 
ATOM     44  C   LIG d   1       3.879   1.174  -2.343  0.00  0.00    -0.062 A 
ATOM     45  H   LIG d   1       5.921   1.783  -2.162  0.00  0.00     0.062 H 
ATOM     46  C   LIG d   1       3.016   0.146  -2.671  0.00  0.00    -0.061 A 
ATOM     47  H   LIG d   1       3.487   2.129  -2.025  0.00  0.00     0.062 H 
ATOM     48  C   LIG d   1       3.518  -1.075  -3.080  0.00  0.00    -0.056 A 
ATOM     49  H   LIG d   1       1.948   0.297  -2.610  0.00  0.00     0.062 H 
ATOM     50  H   LIG d   1       2.843  -1.877  -3.342  0.00  0.00     0.062 H 
ENDBRANCH  13  40
TORSDOF 6
ENDMDL
