MODEL 1
REMARK VINA RESULT:      -4.6      0.000      0.000
REMARK  0 active torsions:
REMARK  status: ('A' for Active; 'I' for Inactive)
ROOT
ATOM      1  C   LIG d   1       5.420   0.290  -2.931  0.00  0.00     0.099 A 
ATOM      2  C   LIG d   1       5.421  -1.055  -2.972  0.00  0.00     0.099 A 
ATOM      3  C   LIG d   1       6.772  -1.468  -3.411  0.00  0.00     0.259 A 
ATOM      4  O   LIG d   1       7.151  -2.611  -3.567  0.00  0.00    -0.269 OA
ATOM      5  N   LIG d   1       7.511  -0.361  -3.610  0.00  0.00    -0.247 N 
ATOM      6  C   LIG d   1       6.772   0.730  -3.337  0.00  0.00     0.259 A 
ATOM      7  O   LIG d   1       7.152   1.881  -3.414  0.00  0.00    -0.269 OA
ATOM      8 BR   LIG d   1       3.974  -2.199  -2.553  0.00  0.00    -0.044 Br
ATOM      9 BR   LIG d   1       3.972   1.402  -2.439  0.00  0.00    -0.044 Br
ATOM     10  H   LIG d   1       8.436  -0.351  -3.902  0.00  0.00     0.158 HD
ENDROOT
TORSDOF 0
ENDMDL
MODEL 2
REMARK VINA RESULT:      -4.5      0.006      2.975
REMARK  0 active torsions:
REMARK  status: ('A' for Active; 'I' for Inactive)
ROOT
ATOM      1  C   LIG d   1       5.420  -1.059  -2.970  0.00  0.00     0.099 A 
ATOM      2  C   LIG d   1       5.420   0.287  -2.926  0.00  0.00     0.099 A 
ATOM      3  C   LIG d   1       6.771   0.727  -3.336  0.00  0.00     0.259 A 
ATOM      4  O   LIG d   1       7.150   1.878  -3.416  0.00  0.00    -0.269 OA
ATOM      5  N   LIG d   1       7.511  -0.365  -3.605  0.00  0.00    -0.247 N 
ATOM      6  C   LIG d   1       6.769  -1.471  -3.414  0.00  0.00     0.259 A 
ATOM      7  O   LIG d   1       7.145  -2.614  -3.577  0.00  0.00    -0.269 OA
ATOM      8 BR   LIG d   1       3.973   1.400  -2.432  0.00  0.00    -0.044 Br
ATOM      9 BR   LIG d   1       3.972  -2.200  -2.552  0.00  0.00    -0.044 Br
ATOM     10  H   LIG d   1       8.436  -0.355  -3.895  0.00  0.00     0.158 HD
ENDROOT
TORSDOF 0
ENDMDL
MODEL 3
REMARK VINA RESULT:      -4.4      2.114      2.937
REMARK  0 active torsions:
REMARK  status: ('A' for Active; 'I' for Inactive)
ROOT
ATOM      1  C   LIG d   1       4.864  -0.530  -2.755  0.00  0.00     0.099 A 
ATOM      2  C   LIG d   1       6.112  -0.513  -3.260  0.00  0.00     0.099 A 
ATOM      3  C   LIG d   1       6.501   0.908  -3.388  0.00  0.00     0.259 A 
ATOM      4  O   LIG d   1       7.563   1.319  -3.812  0.00  0.00    -0.269 OA
ATOM      5  N   LIG d   1       5.479   1.669  -2.957  0.00  0.00    -0.247 N 
ATOM      6  C   LIG d   1       4.466   0.880  -2.556  0.00  0.00     0.259 A 
ATOM      7  O   LIG d   1       3.403   1.262  -2.110  0.00  0.00    -0.269 OA
ATOM      8 BR   LIG d   1       7.164  -2.016  -3.720  0.00  0.00    -0.044 Br
ATOM      9 BR   LIG d   1       3.826  -2.062  -2.365  0.00  0.00    -0.044 Br
ATOM     10  H   LIG d   1       5.475   2.639  -2.936  0.00  0.00     0.158 HD
ENDROOT
TORSDOF 0
ENDMDL
MODEL 4
REMARK VINA RESULT:      -4.4      2.116      2.937
REMARK  0 active torsions:
REMARK  status: ('A' for Active; 'I' for Inactive)
ROOT
ATOM      1  C   LIG d   1       6.110  -0.512  -3.261  0.00  0.00     0.099 A 
ATOM      2  C   LIG d   1       4.863  -0.530  -2.754  0.00  0.00     0.099 A 
ATOM      3  C   LIG d   1       4.460   0.879  -2.559  0.00  0.00     0.259 A 
ATOM      4  O   LIG d   1       3.396   1.259  -2.115  0.00  0.00    -0.269 OA
ATOM      5  N   LIG d   1       5.475   1.669  -2.954  0.00  0.00    -0.247 N 
ATOM      6  C   LIG d   1       6.495   0.910  -3.393  0.00  0.00     0.259 A 
ATOM      7  O   LIG d   1       7.553   1.323  -3.822  0.00  0.00    -0.269 OA
ATOM      8 BR   LIG d   1       3.826  -2.064  -2.364  0.00  0.00    -0.044 Br
ATOM      9 BR   LIG d   1       7.162  -2.013  -3.723  0.00  0.00    -0.044 Br
ATOM     10  H   LIG d   1       5.470   2.639  -2.930  0.00  0.00     0.158 HD
ENDROOT
TORSDOF 0
ENDMDL
MODEL 5
REMARK VINA RESULT:      -4.0      2.677      2.828
REMARK  0 active torsions:
REMARK  status: ('A' for Active; 'I' for Inactive)
ROOT
ATOM      1  C   LIG d   1       5.994  -0.423  -3.361  0.00  0.00     0.099 A 
ATOM      2  C   LIG d   1       5.486  -1.664  -3.475  0.00  0.00     0.099 A 
ATOM      3  C   LIG d   1       4.327  -1.737  -2.560  0.00  0.00     0.259 A 
ATOM      4  O   LIG d   1       3.615  -2.706  -2.390  0.00  0.00    -0.269 OA
ATOM      5  N   LIG d   1       4.195  -0.548  -1.945  0.00  0.00    -0.247 N 
ATOM      6  C   LIG d   1       5.153   0.293  -2.377  0.00  0.00     0.259 A 
ATOM      7  O   LIG d   1       5.302   1.443  -2.017  0.00  0.00    -0.269 OA
ATOM      8 BR   LIG d   1       6.131  -3.049  -4.591  0.00  0.00    -0.044 Br
ATOM      9 BR   LIG d   1       7.489   0.274  -4.285  0.00  0.00    -0.044 Br
ATOM     10  H   LIG d   1       3.512  -0.328  -1.292  0.00  0.00     0.158 HD
ENDROOT
TORSDOF 0
ENDMDL
MODEL 6
REMARK VINA RESULT:      -4.0      3.103      4.087
REMARK  0 active torsions:
REMARK  status: ('A' for Active; 'I' for Inactive)
ROOT
ATOM      1  C   LIG d   1       5.170  -1.015  -4.210  0.00  0.00     0.099 A 
ATOM      2  C   LIG d   1       4.302  -0.099  -3.740  0.00  0.00     0.099 A 
ATOM      3  C   LIG d   1       3.249   0.058  -4.767  0.00  0.00     0.259 A 
ATOM      4  O   LIG d   1       2.293   0.803  -4.696  0.00  0.00    -0.269 OA
ATOM      5  N   LIG d   1       3.532  -0.764  -5.794  0.00  0.00    -0.247 N 
ATOM      6  C   LIG d   1       4.663  -1.443  -5.532  0.00  0.00     0.259 A 
ATOM      7  O   LIG d   1       5.181  -2.266  -6.259  0.00  0.00    -0.269 OA
ATOM      8 BR   LIG d   1       4.410   0.814  -2.087  0.00  0.00    -0.044 Br
ATOM      9 BR   LIG d   1       6.730  -1.639  -3.344  0.00  0.00    -0.044 Br
ATOM     10  H   LIG d   1       2.999  -0.855  -6.600  0.00  0.00     0.158 HD
ENDROOT
TORSDOF 0
ENDMDL
MODEL 7
REMARK VINA RESULT:      -3.9      2.669      4.121
REMARK  0 active torsions:
REMARK  status: ('A' for Active; 'I' for Inactive)
ROOT
ATOM      1  C   LIG d   1       5.682  -1.091  -3.280  0.00  0.00     0.099 A 
ATOM      2  C   LIG d   1       5.731   0.251  -3.366  0.00  0.00     0.099 A 
ATOM      3  C   LIG d   1       4.368   0.748  -3.077  0.00  0.00     0.259 A 
ATOM      4  O   LIG d   1       4.024   1.912  -3.063  0.00  0.00    -0.269 OA
ATOM      5  N   LIG d   1       3.573  -0.310  -2.833  0.00  0.00    -0.247 N 
ATOM      6  C   LIG d   1       4.289  -1.445  -2.930  0.00  0.00     0.259 A 
ATOM      7  O   LIG d   1       3.863  -2.569  -2.761  0.00  0.00    -0.269 OA
ATOM      8 BR   LIG d   1       7.249   1.301  -3.780  0.00  0.00    -0.044 Br
ATOM      9 BR   LIG d   1       7.118  -2.292  -3.547  0.00  0.00    -0.044 Br
ATOM     10  H   LIG d   1       2.629  -0.262  -2.616  0.00  0.00     0.158 HD
ENDROOT
TORSDOF 0
ENDMDL
MODEL 8
REMARK VINA RESULT:      -3.9      2.186      3.022
REMARK  0 active torsions:
REMARK  status: ('A' for Active; 'I' for Inactive)
ROOT
ATOM      1  C   LIG d   1       5.228  -0.572  -2.937  0.00  0.00     0.099 A 
ATOM      2  C   LIG d   1       6.361  -0.439  -3.652  0.00  0.00     0.099 A 
ATOM      3  C   LIG d   1       6.613  -1.745  -4.298  0.00  0.00     0.259 A 
ATOM      4  O   LIG d   1       7.550  -2.011  -5.024  0.00  0.00    -0.269 OA
ATOM      5  N   LIG d   1       5.629  -2.592  -3.944  0.00  0.00    -0.247 N 
ATOM      6  C   LIG d   1       4.759  -1.960  -3.135  0.00  0.00     0.259 A 
ATOM      7  O   LIG d   1       3.759  -2.449  -2.649  0.00  0.00    -0.269 OA
ATOM      8 BR   LIG d   1       7.426   1.116  -3.801  0.00  0.00    -0.044 Br
ATOM      9 BR   LIG d   1       4.393   0.762  -1.889  0.00  0.00    -0.044 Br
ATOM     10  H   LIG d   1       5.556  -3.515  -4.231  0.00  0.00     0.158 HD
ENDROOT
TORSDOF 0
ENDMDL
MODEL 9
REMARK VINA RESULT:      -3.8      3.483      4.166
REMARK  0 active torsions:
REMARK  status: ('A' for Active; 'I' for Inactive)
ROOT
ATOM      1  C   LIG d   1       3.937  -0.914  -4.618  0.00  0.00     0.099 A 
ATOM      2  C   LIG d   1       3.958  -0.526  -3.329  0.00  0.00     0.099 A 
ATOM      3  C   LIG d   1       3.322   0.808  -3.274  0.00  0.00     0.259 A 
ATOM      4  O   LIG d   1       3.161   1.478  -2.274  0.00  0.00    -0.269 OA
ATOM      5  N   LIG d   1       2.952   1.154  -4.520  0.00  0.00    -0.247 N 
ATOM      6  C   LIG d   1       3.282   0.172  -5.379  0.00  0.00     0.259 A 
ATOM      7  O   LIG d   1       3.078   0.178  -6.576  0.00  0.00    -0.269 OA
ATOM      8 BR   LIG d   1       4.666  -1.499  -1.870  0.00  0.00    -0.044 Br
ATOM      9 BR   LIG d   1       4.608  -2.537  -5.319  0.00  0.00    -0.044 Br
ATOM     10  H   LIG d   1       2.512   1.984  -4.763  0.00  0.00     0.158 HD
ENDROOT
TORSDOF 0
ENDMDL
MODEL 10
REMARK VINA RESULT:      -3.8      3.712      3.803
REMARK  0 active torsions:
REMARK  status: ('A' for Active; 'I' for Inactive)
ROOT
ATOM      1  C   LIG d   1       4.041  -0.710  -5.267  0.00  0.00     0.099 A 
ATOM      2  C   LIG d   1       4.300  -1.787  -4.502  0.00  0.00     0.099 A 
ATOM      3  C   LIG d   1       3.551  -1.603  -3.240  0.00  0.00     0.259 A 
ATOM      4  O   LIG d   1       3.541  -2.374  -2.301  0.00  0.00    -0.269 OA
ATOM      5  N   LIG d   1       2.885  -0.436  -3.307  0.00  0.00    -0.247 N 
ATOM      6  C   LIG d   1       3.123   0.153  -4.492  0.00  0.00     0.259 A 
ATOM      7  O   LIG d   1       2.664   1.215  -4.862  0.00  0.00    -0.269 OA
ATOM      8 BR   LIG d   1       5.408  -3.251  -4.953  0.00  0.00    -0.044 Br
ATOM      9 BR   LIG d   1       4.714  -0.371  -7.001  0.00  0.00    -0.044 Br
ATOM     10  H   LIG d   1       2.316  -0.076  -2.608  0.00  0.00     0.158 HD
ENDROOT
TORSDOF 0
ENDMDL
