MODEL 1
REMARK VINA RESULT:      -7.0      0.000      0.000
REMARK  7 active torsions:
REMARK  status: ('A' for Active; 'I' for Inactive)
REMARK    1  A    between atoms: CB_1  and  CA_2 
REMARK       I    between atoms: CA_2  and  C_4 
REMARK       I    between atoms: CA_2  and  N_6 
REMARK       I    between atoms: N_6  and  C_7 
REMARK    2  A    between atoms: C_7  and  C_9 
REMARK    3  A    between atoms: C_9  and  C_10 
REMARK    4  A    between atoms: C_10  and  C_11 
REMARK    5  A    between atoms: C_11  and  C_12 
REMARK    6  A    between atoms: C_12  and  C_13 
REMARK    7  A    between atoms: C_13  and  N_14 
REMARK       I    between atoms: N_14  and  C_15 
REMARK       I    between atoms: C_15  and  N_17 
ROOT
ATOM      1  C   UNK d   0       2.824  -1.477  -9.688  0.00  0.00     0.013 C 
ATOM      2  H   UNK d   0       3.634  -1.444 -10.417  0.00  0.00     0.046 H 
ATOM      3  H   UNK d   0       2.238  -2.383  -9.839  0.00  0.00     0.046 H 
ENDROOT
BRANCH   1   4
ATOM      4  C   UNK d   0       1.924  -0.252  -9.869  0.00  0.00    -0.037 C 
ATOM      5  H   UNK d   0       1.810  -0.040 -10.932  0.00  0.00     0.028 H 
ATOM      6  H   UNK d   0       0.946  -0.453  -9.432  0.00  0.00     0.028 H 
BRANCH   4   7
ATOM      7  C   UNK d   0       2.557   0.954  -9.173  0.00  0.00    -0.051 C 
ATOM      8  H   UNK d   0       1.782   1.681  -8.929  0.00  0.00     0.027 H 
ATOM      9  H   UNK d   0       3.049   0.627  -8.256  0.00  0.00     0.027 H 
BRANCH   7  10
ATOM     10  C   UNK d   0       3.587   1.597 -10.103  0.00  0.00    -0.045 C 
ATOM     11  H   UNK d   0       4.026   0.832 -10.744  0.00  0.00     0.027 H 
ATOM     12  H   UNK d   0       3.098   2.352 -10.720  0.00  0.00     0.027 H 
BRANCH  10  13
ATOM     13  C   UNK d   0       4.687   2.256  -9.267  0.00  0.00     0.024 C 
ATOM     14  H   UNK d   0       5.180   3.027  -9.860  0.00  0.00     0.036 H 
ATOM     15  H   UNK d   0       4.246   2.707  -8.378  0.00  0.00     0.036 H 
BRANCH  13  16
ATOM     16  C   UNK d   0       5.695   1.216  -8.855  0.00  0.00     0.213 C 
ATOM     17  N   ALA d   1       6.428   1.393  -7.738  0.00  0.00    -0.308 N 
ATOM     18  CA  ALA d   1       7.409   0.382  -7.336  0.00  0.00     0.060 C 
ATOM     19  H   ALA d   1       6.306   2.191  -7.199  0.00  0.00     0.149 HD
ATOM     20  HA  ALA d   1       7.035  -0.609  -7.594  0.00  0.00     0.056 H 
ATOM     21  C   ALA d   1       7.634   0.463  -5.848  0.00  0.00     0.062 C 
ATOM     22  O   ALA d   1       7.036   1.282  -5.191  0.00  0.00    -0.548 OA
ATOM     23  OXT ALA d   1       8.498  -0.375  -5.254  0.00  0.00    -0.548 OA
ATOM     24  O   UNK d   0       5.848   0.218  -9.528  0.00  0.00    -0.276 OA
BRANCH  18  25
ATOM     25  CB  ALA d   1       8.729   0.634  -8.066  0.00  0.00    -0.041 C 
ATOM     26  HB1 ALA d   1       9.300   1.395  -7.533  0.00  0.00     0.025 H 
ATOM     27  HB2 ALA d   1       9.305  -0.290  -8.106  0.00  0.00     0.025 H 
ATOM     28  HB3 ALA d   1       8.524   0.978  -9.080  0.00  0.00     0.025 H 
ENDBRANCH  18  25
ENDBRANCH  13  16
ENDBRANCH  10  13
ENDBRANCH   7  10
ENDBRANCH   4   7
ENDBRANCH   1   4
BRANCH   1  29
ATOM     29  N   UNK d   0       3.384  -1.477  -8.335  0.00  0.00    -0.299 N 
ATOM     30  C   UNK d   0       4.282  -2.417  -7.977  0.00  0.00     0.309 C 
ATOM     31  O   UNK d   0       4.627  -3.265  -8.777  0.00  0.00    -0.252 OA
ATOM     32  N   UNK d   0       4.798  -2.417  -6.732  0.00  0.00    -0.224 N 
ATOM     33  C   UNK d   0       4.486  -1.506  -5.733  0.00  0.00     0.207 A 
ATOM     34  C   UNK d   0       5.774  -3.382  -6.216  0.00  0.00     0.042 A 
ATOM     35  N   UNK d   0       5.165  -1.760  -4.582  0.00  0.00    -0.310 N 
ATOM     36  N   UNK d   0       3.716  -0.449  -5.557  0.00  0.00    -0.214 NA
ATOM     37  C   UNK d   0       6.027  -2.936  -4.766  0.00  0.00     0.043 A 
ATOM     38  C   UNK d   0       4.792  -0.806  -3.649  0.00  0.00     0.070 A 
ATOM     39  H   UNK d   0       7.074  -2.666  -4.626  0.00  0.00     0.051 H 
ATOM     40  H   UNK d   0       5.743  -3.727  -4.072  0.00  0.00     0.051 H 
ATOM     41  C   UNK d   0       3.862   0.024  -4.295  0.00  0.00     0.091 A 
ATOM     42  C   UNK d   0       5.143  -0.563  -2.330  0.00  0.00    -0.036 A 
ATOM     43  C   UNK d   0       3.298   1.095  -3.597  0.00  0.00    -0.034 A 
ATOM     44  C   UNK d   0       3.658   1.323  -2.287  0.00  0.00    -0.060 A 
ATOM     45  H   UNK d   0       2.581   1.741  -4.082  0.00  0.00     0.064 H 
ATOM     46  C   UNK d   0       4.577   0.499  -1.655  0.00  0.00    -0.060 A 
ATOM     47  H   UNK d   0       3.221   2.151  -1.747  0.00  0.00     0.062 H 
ATOM     48  H   UNK d   0       4.851   0.689  -0.628  0.00  0.00     0.062 H 
ATOM     49  H   UNK d   0       5.859  -1.201  -1.833  0.00  0.00     0.064 H 
ATOM     50  H   UNK d   0       5.360  -4.390  -6.239  0.00  0.00     0.049 H 
ATOM     51  H   UNK d   0       6.697  -3.335  -6.793  0.00  0.00     0.049 H 
ATOM     52  H   UNK d   0       3.107  -0.802  -7.695  0.00  0.00     0.150 HD
ENDBRANCH   1  29
TORSDOF 9
ENDMDL
MODEL 2
REMARK VINA RESULT:      -6.8      1.762      3.634
REMARK  7 active torsions:
REMARK  status: ('A' for Active; 'I' for Inactive)
REMARK    1  A    between atoms: CB_1  and  CA_2 
REMARK       I    between atoms: CA_2  and  C_4 
REMARK       I    between atoms: CA_2  and  N_6 
REMARK       I    between atoms: N_6  and  C_7 
REMARK    2  A    between atoms: C_7  and  C_9 
REMARK    3  A    between atoms: C_9  and  C_10 
REMARK    4  A    between atoms: C_10  and  C_11 
REMARK    5  A    between atoms: C_11  and  C_12 
REMARK    6  A    between atoms: C_12  and  C_13 
REMARK    7  A    between atoms: C_13  and  N_14 
REMARK       I    between atoms: N_14  and  C_15 
REMARK       I    between atoms: C_15  and  N_17 
ROOT
ATOM      1  C   UNK d   0       5.413   2.395  -9.299  0.00  0.00     0.013 C 
ATOM      2  H   UNK d   0       6.011   3.296  -9.166  0.00  0.00     0.046 H 
ATOM      3  H   UNK d   0       5.744   1.870 -10.195  0.00  0.00     0.046 H 
ENDROOT
BRANCH   1   4
ATOM      4  C   UNK d   0       3.939   2.778  -9.448  0.00  0.00    -0.037 C 
ATOM      5  H   UNK d   0       3.811   3.831  -9.194  0.00  0.00     0.028 H 
ATOM      6  H   UNK d   0       3.624   2.613 -10.478  0.00  0.00     0.028 H 
BRANCH   4   7
ATOM      7  C   UNK d   0       3.090   1.919  -8.510  0.00  0.00    -0.051 C 
ATOM      8  H   UNK d   0       3.692   1.611  -7.655  0.00  0.00     0.027 H 
ATOM      9  H   UNK d   0       2.235   2.499  -8.161  0.00  0.00     0.027 H 
BRANCH   7  10
ATOM     10  C   UNK d   0       2.596   0.681  -9.259  0.00  0.00    -0.045 C 
ATOM     11  H   UNK d   0       1.689   0.929  -9.812  0.00  0.00     0.027 H 
ATOM     12  H   UNK d   0       3.365   0.346  -9.956  0.00  0.00     0.027 H 
BRANCH  10  13
ATOM     13  C   UNK d   0       2.294  -0.435  -8.257  0.00  0.00     0.024 C 
ATOM     14  H   UNK d   0       2.529  -0.092  -7.250  0.00  0.00     0.036 H 
ATOM     15  H   UNK d   0       1.238  -0.699  -8.315  0.00  0.00     0.036 H 
BRANCH  13  16
ATOM     16  C   UNK d   0       3.132  -1.644  -8.585  0.00  0.00     0.213 C 
ATOM     17  N   ALA d   1       3.778  -2.302  -7.603  0.00  0.00    -0.308 N 
ATOM     18  CA  ALA d   1       4.593  -3.478  -7.922  0.00  0.00     0.060 C 
ATOM     19  H   ALA d   1       3.702  -1.999  -6.685  0.00  0.00     0.149 HD
ATOM     20  HA  ALA d   1       4.130  -4.030  -8.739  0.00  0.00     0.056 H 
ATOM     21  C   ALA d   1       4.691  -4.365  -6.707  0.00  0.00     0.062 C 
ATOM     22  O   ALA d   1       4.138  -4.048  -5.681  0.00  0.00    -0.548 OA
ATOM     23  OXT ALA d   1       5.394  -5.507  -6.766  0.00  0.00    -0.548 OA
ATOM     24  O   UNK d   0       3.226  -2.023  -9.734  0.00  0.00    -0.276 OA
BRANCH  18  25
ATOM     25  CB  ALA d   1       5.993  -3.027  -8.339  0.00  0.00    -0.041 C 
ATOM     26  HB1 ALA d   1       6.457  -3.801  -8.951  0.00  0.00     0.025 H 
ATOM     27  HB2 ALA d   1       5.922  -2.104  -8.914  0.00  0.00     0.025 H 
ATOM     28  HB3 ALA d   1       6.601  -2.855  -7.450  0.00  0.00     0.025 H 
ENDBRANCH  18  25
ENDBRANCH  13  16
ENDBRANCH  10  13
ENDBRANCH   7  10
ENDBRANCH   4   7
ENDBRANCH   1   4
BRANCH   1  29
ATOM     29  N   UNK d   0       5.576   1.523  -8.134  0.00  0.00    -0.299 N 
ATOM     30  C   UNK d   0       6.757   0.913  -7.908  0.00  0.00     0.309 C 
ATOM     31  O   UNK d   0       7.687   1.087  -8.672  0.00  0.00    -0.252 OA
ATOM     32  N   UNK d   0       6.907   0.111  -6.835  0.00  0.00    -0.224 N 
ATOM     33  C   UNK d   0       5.926  -0.165  -5.895  0.00  0.00     0.207 A 
ATOM     34  C   UNK d   0       8.133  -0.613  -6.480  0.00  0.00     0.042 A 
ATOM     35  N   UNK d   0       6.372  -1.009  -4.926  0.00  0.00    -0.310 N 
ATOM     36  N   UNK d   0       4.667   0.148  -5.651  0.00  0.00    -0.214 NA
ATOM     37  C   UNK d   0       7.774  -1.365  -5.187  0.00  0.00     0.043 A 
ATOM     38  C   UNK d   0       5.331  -1.226  -4.038  0.00  0.00     0.070 A 
ATOM     39  H   UNK d   0       8.410  -1.038  -4.365  0.00  0.00     0.051 H 
ATOM     40  H   UNK d   0       7.871  -2.440  -5.336  0.00  0.00     0.051 H 
ATOM     41  C   UNK d   0       4.247  -0.475  -4.522  0.00  0.00     0.091 A 
ATOM     42  C   UNK d   0       5.194  -1.978  -2.882  0.00  0.00    -0.036 A 
ATOM     43  C   UNK d   0       3.036  -0.493  -3.826  0.00  0.00    -0.034 A 
ATOM     44  C   UNK d   0       2.917  -1.245  -2.678  0.00  0.00    -0.060 A 
ATOM     45  H   UNK d   0       2.195   0.080  -4.187  0.00  0.00     0.064 H 
ATOM     46  C   UNK d   0       3.991  -1.985  -2.206  0.00  0.00    -0.060 A 
ATOM     47  H   UNK d   0       1.980  -1.259  -2.141  0.00  0.00     0.062 H 
ATOM     48  H   UNK d   0       3.885  -2.570  -1.305  0.00  0.00     0.062 H 
ATOM     49  H   UNK d   0       6.028  -2.556  -2.509  0.00  0.00     0.064 H 
ATOM     50  H   UNK d   0       8.401  -1.316  -7.269  0.00  0.00     0.049 H 
ATOM     51  H   UNK d   0       8.948   0.086  -6.298  0.00  0.00     0.049 H 
ATOM     52  H   UNK d   0       4.834   1.382  -7.526  0.00  0.00     0.150 HD
ENDBRANCH   1  29
TORSDOF 9
ENDMDL
MODEL 3
REMARK VINA RESULT:      -6.8      2.084      5.040
REMARK  7 active torsions:
REMARK  status: ('A' for Active; 'I' for Inactive)
REMARK    1  A    between atoms: CB_1  and  CA_2 
REMARK       I    between atoms: CA_2  and  C_4 
REMARK       I    between atoms: CA_2  and  N_6 
REMARK       I    between atoms: N_6  and  C_7 
REMARK    2  A    between atoms: C_7  and  C_9 
REMARK    3  A    between atoms: C_9  and  C_10 
REMARK    4  A    between atoms: C_10  and  C_11 
REMARK    5  A    between atoms: C_11  and  C_12 
REMARK    6  A    between atoms: C_12  and  C_13 
REMARK    7  A    between atoms: C_13  and  N_14 
REMARK       I    between atoms: N_14  and  C_15 
REMARK       I    between atoms: C_15  and  N_17 
ROOT
ATOM      1  C   UNK d   0       3.794  -2.279  -3.063  0.00  0.00     0.013 C 
ATOM      2  H   UNK d   0       2.997  -3.015  -2.958  0.00  0.00     0.046 H 
ATOM      3  H   UNK d   0       4.710  -2.671  -2.624  0.00  0.00     0.046 H 
ENDROOT
BRANCH   1   4
ATOM      4  C   UNK d   0       3.394  -0.990  -2.341  0.00  0.00    -0.037 C 
ATOM      5  H   UNK d   0       2.492  -1.167  -1.755  0.00  0.00     0.028 H 
ATOM      6  H   UNK d   0       4.202  -0.680  -1.678  0.00  0.00     0.028 H 
BRANCH   4   7
ATOM      7  C   UNK d   0       3.127   0.111  -3.369  0.00  0.00    -0.051 C 
ATOM      8  H   UNK d   0       3.406  -0.244  -4.362  0.00  0.00     0.027 H 
ATOM      9  H   UNK d   0       2.068   0.367  -3.360  0.00  0.00     0.027 H 
BRANCH   7  10
ATOM     10  C   UNK d   0       3.955   1.348  -3.018  0.00  0.00    -0.045 C 
ATOM     11  H   UNK d   0       4.242   1.865  -3.934  0.00  0.00     0.027 H 
ATOM     12  H   UNK d   0       3.362   2.017  -2.394  0.00  0.00     0.027 H 
BRANCH  10  13
ATOM     13  C   UNK d   0       5.213   0.921  -2.257  0.00  0.00     0.024 C 
ATOM     14  H   UNK d   0       5.551   1.743  -1.625  0.00  0.00     0.036 H 
ATOM     15  H   UNK d   0       4.984   0.055  -1.636  0.00  0.00     0.036 H 
BRANCH  13  16
ATOM     16  C   UNK d   0       6.296   0.562  -3.240  0.00  0.00     0.213 C 
ATOM     17  N   ALA d   1       6.861   1.521  -4.000  0.00  0.00    -0.308 N 
ATOM     18  CA  ALA d   1       7.915   1.173  -4.956  0.00  0.00     0.060 C 
ATOM     19  H   ALA d   1       6.571   2.443  -3.912  0.00  0.00     0.149 HD
ATOM     20  HA  ALA d   1       8.525   0.368  -4.547  0.00  0.00     0.056 H 
ATOM     21  C   ALA d   1       8.781   2.380  -5.212  0.00  0.00     0.062 C 
ATOM     22  O   ALA d   1       8.542   3.424  -4.652  0.00  0.00    -0.548 OA
ATOM     23  OXT ALA d   1       9.817   2.295  -6.061  0.00  0.00    -0.548 OA
ATOM     24  O   UNK d   0       6.659  -0.590  -3.350  0.00  0.00    -0.276 OA
BRANCH  18  25
ATOM     25  CB  ALA d   1       7.279   0.715  -6.269  0.00  0.00    -0.041 C 
ATOM     26  HB1 ALA d   1       7.016  -0.340  -6.198  0.00  0.00     0.025 H 
ATOM     27  HB2 ALA d   1       6.380   1.301  -6.461  0.00  0.00     0.025 H 
ATOM     28  HB3 ALA d   1       7.987   0.858  -7.086  0.00  0.00     0.025 H 
ENDBRANCH  18  25
ENDBRANCH  13  16
ENDBRANCH  10  13
ENDBRANCH   7  10
ENDBRANCH   4   7
ENDBRANCH   1   4
BRANCH   1  29
ATOM     29  N   UNK d   0       4.013  -1.995  -4.483  0.00  0.00    -0.299 N 
ATOM     30  C   UNK d   0       4.651  -2.895  -5.259  0.00  0.00     0.309 C 
ATOM     31  O   UNK d   0       5.043  -3.941  -4.780  0.00  0.00    -0.252 OA
ATOM     32  N   UNK d   0       4.853  -2.634  -6.566  0.00  0.00    -0.224 N 
ATOM     33  C   UNK d   0       4.455  -1.481  -7.227  0.00  0.00     0.207 A 
ATOM     34  C   UNK d   0       5.535  -3.522  -7.514  0.00  0.00     0.042 A 
ATOM     35  N   UNK d   0       4.798  -1.504  -8.542  0.00  0.00    -0.310 N 
ATOM     36  N   UNK d   0       3.832  -0.349  -6.960  0.00  0.00    -0.214 NA
ATOM     37  C   UNK d   0       5.493  -2.762  -8.851  0.00  0.00     0.043 A 
ATOM     38  C   UNK d   0       4.363  -0.320  -9.116  0.00  0.00     0.070 A 
ATOM     39  H   UNK d   0       4.938  -3.330  -9.597  0.00  0.00     0.051 H 
ATOM     40  H   UNK d   0       6.504  -2.560  -9.203  0.00  0.00     0.051 H 
ATOM     41  C   UNK d   0       3.746   0.406  -8.084  0.00  0.00     0.091 A 
ATOM     42  C   UNK d   0       4.428   0.209 -10.395  0.00  0.00    -0.036 A 
ATOM     43  C   UNK d   0       3.200   1.661  -8.362  0.00  0.00    -0.034 A 
ATOM     44  C   UNK d   0       3.272   2.172  -9.638  0.00  0.00    -0.060 A 
ATOM     45  H   UNK d   0       2.722   2.230  -7.576  0.00  0.00     0.064 H 
ATOM     46  C   UNK d   0       3.883   1.450 -10.653  0.00  0.00    -0.060 A 
ATOM     47  H   UNK d   0       2.850   3.144  -9.852  0.00  0.00     0.062 H 
ATOM     48  H   UNK d   0       3.933   1.862 -11.650  0.00  0.00     0.062 H 
ATOM     49  H   UNK d   0       4.902  -0.349 -11.190  0.00  0.00     0.064 H 
ATOM     50  H   UNK d   0       6.566  -3.691  -7.203  0.00  0.00     0.049 H 
ATOM     51  H   UNK d   0       5.002  -4.468  -7.600  0.00  0.00     0.049 H 
ATOM     52  H   UNK d   0       3.703  -1.159  -4.865  0.00  0.00     0.150 HD
ENDBRANCH   1  29
TORSDOF 9
ENDMDL
MODEL 4
REMARK VINA RESULT:      -6.7      2.067      5.251
REMARK  7 active torsions:
REMARK  status: ('A' for Active; 'I' for Inactive)
REMARK    1  A    between atoms: CB_1  and  CA_2 
REMARK       I    between atoms: CA_2  and  C_4 
REMARK       I    between atoms: CA_2  and  N_6 
REMARK       I    between atoms: N_6  and  C_7 
REMARK    2  A    between atoms: C_7  and  C_9 
REMARK    3  A    between atoms: C_9  and  C_10 
REMARK    4  A    between atoms: C_10  and  C_11 
REMARK    5  A    between atoms: C_11  and  C_12 
REMARK    6  A    between atoms: C_12  and  C_13 
REMARK    7  A    between atoms: C_13  and  N_14 
REMARK       I    between atoms: N_14  and  C_15 
REMARK       I    between atoms: C_15  and  N_17 
ROOT
ATOM      1  C   UNK d   0       4.035  -2.610  -3.374  0.00  0.00     0.013 C 
ATOM      2  H   UNK d   0       3.464  -3.533  -3.271  0.00  0.00     0.046 H 
ATOM      3  H   UNK d   0       5.022  -2.743  -2.933  0.00  0.00     0.046 H 
ENDROOT
BRANCH   1   4
ATOM      4  C   UNK d   0       3.304  -1.475  -2.653  0.00  0.00    -0.037 C 
ATOM      5  H   UNK d   0       2.853  -0.808  -3.389  0.00  0.00     0.028 H 
ATOM      6  H   UNK d   0       2.524  -1.893  -2.017  0.00  0.00     0.028 H 
BRANCH   4   7
ATOM      7  C   UNK d   0       4.297  -0.691  -1.795  0.00  0.00    -0.051 C 
ATOM      8  H   UNK d   0       3.970  -0.706  -0.755  0.00  0.00     0.027 H 
ATOM      9  H   UNK d   0       5.284  -1.149  -1.871  0.00  0.00     0.027 H 
BRANCH   7  10
ATOM     10  C   UNK d   0       4.367   0.756  -2.287  0.00  0.00    -0.045 C 
ATOM     11  H   UNK d   0       3.767   0.861  -3.192  0.00  0.00     0.027 H 
ATOM     12  H   UNK d   0       3.980   1.422  -1.516  0.00  0.00     0.027 H 
BRANCH  10  13
ATOM     13  C   UNK d   0       5.821   1.121  -2.594  0.00  0.00     0.024 C 
ATOM     14  H   UNK d   0       5.888   2.184  -2.825  0.00  0.00     0.036 H 
ATOM     15  H   UNK d   0       6.441   0.898  -1.726  0.00  0.00     0.036 H 
BRANCH  13  16
ATOM     16  C   UNK d   0       6.302   0.317  -3.774  0.00  0.00     0.213 C 
ATOM     17  N   ALA d   1       7.235  -0.639  -3.602  0.00  0.00    -0.308 N 
ATOM     18  CA  ALA d   1       7.704  -1.421  -4.750  0.00  0.00     0.060 C 
ATOM     19  H   ALA d   1       7.596  -0.812  -2.718  0.00  0.00     0.149 HD
ATOM     20  HA  ALA d   1       6.877  -1.580  -5.442  0.00  0.00     0.056 H 
ATOM     21  C   ALA d   1       8.223  -2.753  -4.272  0.00  0.00     0.062 C 
ATOM     22  O   ALA d   1       8.203  -3.022  -3.095  0.00  0.00    -0.548 OA
ATOM     23  OXT ALA d   1       8.706  -3.640  -5.156  0.00  0.00    -0.548 OA
ATOM     24  O   UNK d   0       5.850   0.532  -4.879  0.00  0.00    -0.276 OA
BRANCH  18  25
ATOM     25  CB  ALA d   1       8.825  -0.662  -5.460  0.00  0.00    -0.041 C 
ATOM     26  HB1 ALA d   1       8.484   0.344  -5.707  0.00  0.00     0.025 H 
ATOM     27  HB2 ALA d   1       9.693  -0.599  -4.803  0.00  0.00     0.025 H 
ATOM     28  HB3 ALA d   1       9.099  -1.187  -6.375  0.00  0.00     0.025 H 
ENDBRANCH  18  25
ENDBRANCH  13  16
ENDBRANCH  10  13
ENDBRANCH   7  10
ENDBRANCH   4   7
ENDBRANCH   1   4
BRANCH   1  29
ATOM     29  N   UNK d   0       4.174  -2.277  -4.793  0.00  0.00    -0.299 N 
ATOM     30  C   UNK d   0       4.710  -3.174  -5.646  0.00  0.00     0.309 C 
ATOM     31  O   UNK d   0       5.077  -4.258  -5.237  0.00  0.00    -0.252 OA
ATOM     32  N   UNK d   0       4.839  -2.868  -6.953  0.00  0.00    -0.224 N 
ATOM     33  C   UNK d   0       4.459  -1.669  -7.539  0.00  0.00     0.207 A 
ATOM     34  C   UNK d   0       5.407  -3.747  -7.980  0.00  0.00     0.042 A 
ATOM     35  N   UNK d   0       4.713  -1.653  -8.875  0.00  0.00    -0.310 N 
ATOM     36  N   UNK d   0       3.917  -0.519  -7.186  0.00  0.00    -0.214 NA
ATOM     37  C   UNK d   0       5.317  -2.930  -9.279  0.00  0.00     0.043 A 
ATOM     38  C   UNK d   0       4.304  -0.425  -9.370  0.00  0.00     0.070 A 
ATOM     39  H   UNK d   0       4.684  -3.437 -10.008  0.00  0.00     0.051 H 
ATOM     40  H   UNK d   0       6.312  -2.765  -9.692  0.00  0.00     0.051 H 
ATOM     41  C   UNK d   0       3.797   0.287  -8.271  0.00  0.00     0.091 A 
ATOM     42  C   UNK d   0       4.312   0.154 -10.629  0.00  0.00    -0.036 A 
ATOM     43  C   UNK d   0       3.301   1.579  -8.460  0.00  0.00    -0.034 A 
ATOM     44  C   UNK d   0       3.316   2.140  -9.718  0.00  0.00    -0.060 A 
ATOM     45  H   UNK d   0       2.909   2.137  -7.623  0.00  0.00     0.064 H 
ATOM     46  C   UNK d   0       3.818   1.432 -10.800  0.00  0.00    -0.060 A 
ATOM     47  H   UNK d   0       2.933   3.140  -9.864  0.00  0.00     0.062 H 
ATOM     48  H   UNK d   0       3.824   1.883 -11.781  0.00  0.00     0.062 H 
ATOM     49  H   UNK d   0       4.702  -0.393 -11.475  0.00  0.00     0.064 H 
ATOM     50  H   UNK d   0       6.446  -3.982  -7.747  0.00  0.00     0.049 H 
ATOM     51  H   UNK d   0       4.820  -4.661  -8.066  0.00  0.00     0.049 H 
ATOM     52  H   UNK d   0       3.885  -1.411  -5.120  0.00  0.00     0.150 HD
ENDBRANCH   1  29
TORSDOF 9
ENDMDL
MODEL 5
REMARK VINA RESULT:      -6.3      2.222      5.789
REMARK  7 active torsions:
REMARK  status: ('A' for Active; 'I' for Inactive)
REMARK    1  A    between atoms: CB_1  and  CA_2 
REMARK       I    between atoms: CA_2  and  C_4 
REMARK       I    between atoms: CA_2  and  N_6 
REMARK       I    between atoms: N_6  and  C_7 
REMARK    2  A    between atoms: C_7  and  C_9 
REMARK    3  A    between atoms: C_9  and  C_10 
REMARK    4  A    between atoms: C_10  and  C_11 
REMARK    5  A    between atoms: C_11  and  C_12 
REMARK    6  A    between atoms: C_12  and  C_13 
REMARK    7  A    between atoms: C_13  and  N_14 
REMARK       I    between atoms: N_14  and  C_15 
REMARK       I    between atoms: C_15  and  N_17 
ROOT
ATOM      1  C   UNK d   0       5.363   1.179  -2.522  0.00  0.00     0.013 C 
ATOM      2  H   UNK d   0       5.457   0.955  -1.460  0.00  0.00     0.046 H 
ATOM      3  H   UNK d   0       5.926   2.083  -2.753  0.00  0.00     0.046 H 
ENDROOT
BRANCH   1   4
ATOM      4  C   UNK d   0       3.888   1.396  -2.869  0.00  0.00    -0.037 C 
ATOM      5  H   UNK d   0       3.502   2.241  -2.298  0.00  0.00     0.028 H 
ATOM      6  H   UNK d   0       3.793   1.604  -3.935  0.00  0.00     0.028 H 
BRANCH   4   7
ATOM      7  C   UNK d   0       3.091   0.137  -2.521  0.00  0.00    -0.051 C 
ATOM      8  H   UNK d   0       3.735  -0.566  -1.991  0.00  0.00     0.027 H 
ATOM      9  H   UNK d   0       2.247   0.406  -1.885  0.00  0.00     0.027 H 
BRANCH   7  10
ATOM     10  C   UNK d   0       2.575  -0.511  -3.807  0.00  0.00    -0.045 C 
ATOM     11  H   UNK d   0       3.245  -1.319  -4.100  0.00  0.00     0.027 H 
ATOM     12  H   UNK d   0       1.576  -0.913  -3.636  0.00  0.00     0.027 H 
BRANCH  10  13
ATOM     13  C   UNK d   0       2.519   0.538  -4.920  0.00  0.00     0.024 C 
ATOM     14  H   UNK d   0       1.484   0.691  -5.222  0.00  0.00     0.036 H 
ATOM     15  H   UNK d   0       2.935   1.477  -4.555  0.00  0.00     0.036 H 
BRANCH  13  16
ATOM     16  C   UNK d   0       3.323   0.058  -6.100  0.00  0.00     0.213 C 
ATOM     17  N   ALA d   1       2.702  -0.513  -7.151  0.00  0.00    -0.308 N 
ATOM     18  CA  ALA d   1       3.483  -0.979  -8.300  0.00  0.00     0.060 C 
ATOM     19  H   ALA d   1       1.737  -0.613  -7.148  0.00  0.00     0.149 HD
ATOM     20  HA  ALA d   1       4.328  -0.310  -8.461  0.00  0.00     0.056 H 
ATOM     21  C   ALA d   1       2.611  -0.992  -9.529  0.00  0.00     0.062 C 
ATOM     22  O   ALA d   1       1.456  -0.647  -9.453  0.00  0.00    -0.548 OA
ATOM     23  OXT ALA d   1       3.118  -1.387 -10.707  0.00  0.00    -0.548 OA
ATOM     24  O   UNK d   0       4.530   0.185  -6.105  0.00  0.00    -0.276 OA
BRANCH  18  25
ATOM     25  CB  ALA d   1       3.998  -2.393  -8.025  0.00  0.00    -0.041 C 
ATOM     26  HB1 ALA d   1       4.804  -2.351  -7.293  0.00  0.00     0.025 H 
ATOM     27  HB2 ALA d   1       3.185  -3.006  -7.635  0.00  0.00     0.025 H 
ATOM     28  HB3 ALA d   1       4.371  -2.831  -8.951  0.00  0.00     0.025 H 
ENDBRANCH  18  25
ENDBRANCH  13  16
ENDBRANCH  10  13
ENDBRANCH   7  10
ENDBRANCH   4   7
ENDBRANCH   1   4
BRANCH   1  29
ATOM     29  N   UNK d   0       5.890   0.061  -3.307  0.00  0.00    -0.299 N 
ATOM     30  C   UNK d   0       7.121   0.141  -3.851  0.00  0.00     0.309 C 
ATOM     31  O   UNK d   0       7.793   1.142  -3.691  0.00  0.00    -0.252 OA
ATOM     32  N   UNK d   0       7.606  -0.888  -4.574  0.00  0.00    -0.224 N 
ATOM     33  C   UNK d   0       6.940  -2.078  -4.827  0.00  0.00     0.207 A 
ATOM     34  C   UNK d   0       8.922  -0.926  -5.222  0.00  0.00     0.042 A 
ATOM     35  N   UNK d   0       7.683  -2.927  -5.585  0.00  0.00    -0.310 N 
ATOM     36  N   UNK d   0       5.781  -2.646  -4.549  0.00  0.00    -0.214 NA
ATOM     37  C   UNK d   0       8.977  -2.306  -5.900  0.00  0.00     0.043 A 
ATOM     38  C   UNK d   0       6.941  -4.080  -5.784  0.00  0.00     0.070 A 
ATOM     39  H   UNK d   0       9.794  -2.900  -5.493  0.00  0.00     0.051 H 
ATOM     40  H   UNK d   0       9.091  -2.192  -6.978  0.00  0.00     0.051 H 
ATOM     41  C   UNK d   0       5.724  -3.878  -5.112  0.00  0.00     0.091 A 
ATOM     42  C   UNK d   0       7.171  -5.267  -6.463  0.00  0.00    -0.036 A 
ATOM     43  C   UNK d   0       4.755  -4.884  -5.133  0.00  0.00    -0.034 A 
ATOM     44  C   UNK d   0       5.000  -6.057  -5.812  0.00  0.00    -0.060 A 
ATOM     45  H   UNK d   0       3.815  -4.741  -4.620  0.00  0.00     0.064 H 
ATOM     46  C   UNK d   0       6.203  -6.250  -6.473  0.00  0.00    -0.060 A 
ATOM     47  H   UNK d   0       4.249  -6.834  -5.828  0.00  0.00     0.062 H 
ATOM     48  H   UNK d   0       6.383  -7.175  -7.001  0.00  0.00     0.062 H 
ATOM     49  H   UNK d   0       8.107  -5.423  -6.980  0.00  0.00     0.064 H 
ATOM     50  H   UNK d   0       9.003  -0.132  -5.964  0.00  0.00     0.049 H 
ATOM     51  H   UNK d   0       9.714  -0.837  -4.479  0.00  0.00     0.049 H 
ATOM     52  H   UNK d   0       5.353  -0.736  -3.438  0.00  0.00     0.150 HD
ENDBRANCH   1  29
TORSDOF 9
ENDMDL
MODEL 6
REMARK VINA RESULT:      -6.3      5.179      7.112
REMARK  7 active torsions:
REMARK  status: ('A' for Active; 'I' for Inactive)
REMARK    1  A    between atoms: CB_1  and  CA_2 
REMARK       I    between atoms: CA_2  and  C_4 
REMARK       I    between atoms: CA_2  and  N_6 
REMARK       I    between atoms: N_6  and  C_7 
REMARK    2  A    between atoms: C_7  and  C_9 
REMARK    3  A    between atoms: C_9  and  C_10 
REMARK    4  A    between atoms: C_10  and  C_11 
REMARK    5  A    between atoms: C_11  and  C_12 
REMARK    6  A    between atoms: C_12  and  C_13 
REMARK    7  A    between atoms: C_13  and  N_14 
REMARK       I    between atoms: N_14  and  C_15 
REMARK       I    between atoms: C_15  and  N_17 
ROOT
ATOM      1  C   UNK d   0      11.115   0.386  -4.957  0.00  0.00     0.013 C 
ATOM      2  H   UNK d   0      11.825  -0.177  -4.351  0.00  0.00     0.046 H 
ATOM      3  H   UNK d   0      11.359   0.260  -6.011  0.00  0.00     0.046 H 
ENDROOT
BRANCH   1   4
ATOM      4  C   UNK d   0      11.196   1.869  -4.589  0.00  0.00    -0.037 C 
ATOM      5  H   UNK d   0      11.540   1.969  -3.559  0.00  0.00     0.028 H 
ATOM      6  H   UNK d   0      11.897   2.371  -5.256  0.00  0.00     0.028 H 
BRANCH   4   7
ATOM      7  C   UNK d   0       9.813   2.507  -4.730  0.00  0.00    -0.051 C 
ATOM      8  H   UNK d   0       9.779   3.105  -5.641  0.00  0.00     0.027 H 
ATOM      9  H   UNK d   0       9.055   1.724  -4.782  0.00  0.00     0.027 H 
BRANCH   7  10
ATOM     10  C   UNK d   0       9.539   3.403  -3.521  0.00  0.00    -0.045 C 
ATOM     11  H   UNK d   0       9.466   4.441  -3.846  0.00  0.00     0.027 H 
ATOM     12  H   UNK d   0       8.601   3.104  -3.051  0.00  0.00     0.027 H 
BRANCH  10  13
ATOM     13  C   UNK d   0      10.681   3.262  -2.512  0.00  0.00     0.024 C 
ATOM     14  H   UNK d   0      10.348   2.658  -1.669  0.00  0.00     0.036 H 
ATOM     15  H   UNK d   0      11.532   2.779  -2.993  0.00  0.00     0.036 H 
BRANCH  13  16
ATOM     16  C   UNK d   0      11.090   4.628  -2.024  0.00  0.00     0.213 C 
ATOM     17  N   ALA d   1      10.686   5.059  -0.813  0.00  0.00    -0.308 N 
ATOM     18  CA  ALA d   1      11.082   6.387  -0.337  0.00  0.00     0.060 C 
ATOM     19  H   ALA d   1      10.133   4.489  -0.255  0.00  0.00     0.149 HD
ATOM     20  HA  ALA d   1      12.088   6.614  -0.692  0.00  0.00     0.056 H 
ATOM     21  C   ALA d   1      11.065   6.407   1.170  0.00  0.00     0.062 C 
ATOM     22  O   ALA d   1      10.752   5.414   1.783  0.00  0.00    -0.548 OA
ATOM     23  OXT ALA d   1      11.395   7.528   1.830  0.00  0.00    -0.548 OA
ATOM     24  O   UNK d   0      11.782   5.340  -2.721  0.00  0.00    -0.276 OA
BRANCH  18  25
ATOM     25  CB  ALA d   1      10.104   7.433  -0.873  0.00  0.00    -0.041 C 
ATOM     26  HB1 ALA d   1       9.377   6.950  -1.527  0.00  0.00     0.025 H 
ATOM     27  HB2 ALA d   1       9.584   7.905  -0.039  0.00  0.00     0.025 H 
ATOM     28  HB3 ALA d   1      10.651   8.190  -1.435  0.00  0.00     0.025 H 
ENDBRANCH  18  25
ENDBRANCH  13  16
ENDBRANCH  10  13
ENDBRANCH   7  10
ENDBRANCH   4   7
ENDBRANCH   1   4
BRANCH   1  29
ATOM     29  N   UNK d   0       9.759  -0.107  -4.706  0.00  0.00    -0.299 N 
ATOM     30  C   UNK d   0       9.415  -1.354  -5.083  0.00  0.00     0.309 C 
ATOM     31  O   UNK d   0      10.230  -2.070  -5.632  0.00  0.00    -0.252 OA
ATOM     32  N   UNK d   0       8.166  -1.808  -4.853  0.00  0.00    -0.224 N 
ATOM     33  C   UNK d   0       7.151  -1.090  -4.238  0.00  0.00     0.207 A 
ATOM     34  C   UNK d   0       7.664  -3.137  -5.217  0.00  0.00     0.042 A 
ATOM     35  N   UNK d   0       6.002  -1.811  -4.145  0.00  0.00    -0.310 N 
ATOM     36  N   UNK d   0       6.959   0.102  -3.706  0.00  0.00    -0.214 NA
ATOM     37  C   UNK d   0       6.204  -3.142  -4.734  0.00  0.00     0.043 A 
ATOM     38  C   UNK d   0       5.052  -1.018  -3.521  0.00  0.00     0.070 A 
ATOM     39  H   UNK d   0       6.052  -3.918  -3.983  0.00  0.00     0.051 H 
ATOM     40  H   UNK d   0       5.528  -3.292  -5.575  0.00  0.00     0.051 H 
ATOM     41  C   UNK d   0       5.686   0.204  -3.249  0.00  0.00     0.091 A 
ATOM     42  C   UNK d   0       3.727  -1.209  -3.163  0.00  0.00    -0.036 A 
ATOM     43  C   UNK d   0       4.970   1.222  -2.613  0.00  0.00    -0.034 A 
ATOM     44  C   UNK d   0       3.654   1.016  -2.264  0.00  0.00    -0.060 A 
ATOM     45  H   UNK d   0       5.447   2.167  -2.398  0.00  0.00     0.064 H 
ATOM     46  C   UNK d   0       3.033  -0.193  -2.536  0.00  0.00    -0.060 A 
ATOM     47  H   UNK d   0       3.101   1.804  -1.773  0.00  0.00     0.062 H 
ATOM     48  H   UNK d   0       2.001  -0.342  -2.256  0.00  0.00     0.062 H 
ATOM     49  H   UNK d   0       3.238  -2.149  -3.372  0.00  0.00     0.064 H 
ATOM     50  H   UNK d   0       7.710  -3.277  -6.297  0.00  0.00     0.049 H 
ATOM     51  H   UNK d   0       8.235  -3.913  -4.707  0.00  0.00     0.049 H 
ATOM     52  H   UNK d   0       9.107   0.465  -4.271  0.00  0.00     0.150 HD
ENDBRANCH   1  29
TORSDOF 9
ENDMDL
MODEL 7
REMARK VINA RESULT:      -6.3      5.009      6.842
REMARK  7 active torsions:
REMARK  status: ('A' for Active; 'I' for Inactive)
REMARK    1  A    between atoms: CB_1  and  CA_2 
REMARK       I    between atoms: CA_2  and  C_4 
REMARK       I    between atoms: CA_2  and  N_6 
REMARK       I    between atoms: N_6  and  C_7 
REMARK    2  A    between atoms: C_7  and  C_9 
REMARK    3  A    between atoms: C_9  and  C_10 
REMARK    4  A    between atoms: C_10  and  C_11 
REMARK    5  A    between atoms: C_11  and  C_12 
REMARK    6  A    between atoms: C_12  and  C_13 
REMARK    7  A    between atoms: C_13  and  N_14 
REMARK       I    between atoms: N_14  and  C_15 
REMARK       I    between atoms: C_15  and  N_17 
ROOT
ATOM      1  C   UNK d   0       9.684   4.565  -5.072  0.00  0.00     0.013 C 
ATOM      2  H   UNK d   0      10.735   4.388  -5.298  0.00  0.00     0.046 H 
ATOM      3  H   UNK d   0       9.202   5.030  -5.931  0.00  0.00     0.046 H 
ENDROOT
BRANCH   1   4
ATOM      4  C   UNK d   0       9.574   5.495  -3.861  0.00  0.00    -0.037 C 
ATOM      5  H   UNK d   0       8.660   5.269  -3.312  0.00  0.00     0.028 H 
ATOM      6  H   UNK d   0      10.435   5.346  -3.210  0.00  0.00     0.028 H 
BRANCH   4   7
ATOM      7  C   UNK d   0       9.539   6.949  -4.335  0.00  0.00    -0.051 C 
ATOM      8  H   UNK d   0       8.578   7.394  -4.073  0.00  0.00     0.027 H 
ATOM      9  H   UNK d   0      10.341   7.508  -3.852  0.00  0.00     0.027 H 
BRANCH   7  10
ATOM     10  C   UNK d   0       9.727   6.996  -5.853  0.00  0.00    -0.045 C 
ATOM     11  H   UNK d   0      10.784   6.880  -6.091  0.00  0.00     0.027 H 
ATOM     12  H   UNK d   0       9.160   6.187  -6.314  0.00  0.00     0.027 H 
BRANCH  10  13
ATOM     13  C   UNK d   0       9.226   8.339  -6.387  0.00  0.00     0.024 C 
ATOM     14  H   UNK d   0       8.180   8.474  -6.109  0.00  0.00     0.036 H 
ATOM     15  H   UNK d   0       9.822   9.145  -5.960  0.00  0.00     0.036 H 
BRANCH  13  16
ATOM     16  C   UNK d   0       9.354   8.361  -7.888  0.00  0.00     0.213 C 
ATOM     17  N   ALA d   1       9.318   7.208  -8.584  0.00  0.00    -0.308 N 
ATOM     18  CA  ALA d   1       9.444   7.228 -10.044  0.00  0.00     0.060 C 
ATOM     19  H   ALA d   1       9.208   6.364  -8.118  0.00  0.00     0.149 HD
ATOM     20  HA  ALA d   1       8.958   8.120 -10.438  0.00  0.00     0.056 H 
ATOM     21  C   ALA d   1       8.786   6.001 -10.622  0.00  0.00     0.062 C 
ATOM     22  O   ALA d   1       8.266   5.193  -9.889  0.00  0.00    -0.548 OA
ATOM     23  OXT ALA d   1       8.778   5.806 -11.950  0.00  0.00    -0.548 OA
ATOM     24  O   UNK d   0       9.492   9.416  -8.471  0.00  0.00    -0.276 OA
BRANCH  18  25
ATOM     25  CB  ALA d   1      10.924   7.240 -10.427  0.00  0.00    -0.041 C 
ATOM     26  HB1 ALA d   1      11.282   8.269 -10.462  0.00  0.00     0.025 H 
ATOM     27  HB2 ALA d   1      11.496   6.682  -9.686  0.00  0.00     0.025 H 
ATOM     28  HB3 ALA d   1      11.051   6.778 -11.406  0.00  0.00     0.025 H 
ENDBRANCH  18  25
ENDBRANCH  13  16
ENDBRANCH  10  13
ENDBRANCH   7  10
ENDBRANCH   4   7
ENDBRANCH   1   4
BRANCH   1  29
ATOM     29  N   UNK d   0       9.027   3.292  -4.771  0.00  0.00    -0.299 N 
ATOM     30  C   UNK d   0       9.548   2.138  -5.234  0.00  0.00     0.309 C 
ATOM     31  O   UNK d   0      10.564   2.155  -5.902  0.00  0.00    -0.252 OA
ATOM     32  N   UNK d   0       8.943   0.966  -4.958  0.00  0.00    -0.224 N 
ATOM     33  C   UNK d   0       7.784   0.816  -4.211  0.00  0.00     0.207 A 
ATOM     34  C   UNK d   0       9.402  -0.354  -5.405  0.00  0.00     0.042 A 
ATOM     35  N   UNK d   0       7.413  -0.488  -4.102  0.00  0.00    -0.310 N 
ATOM     36  N   UNK d   0       6.917   1.570  -3.561  0.00  0.00    -0.214 NA
ATOM     37  C   UNK d   0       8.373  -1.337  -4.822  0.00  0.00     0.043 A 
ATOM     38  C   UNK d   0       6.254  -0.538  -3.344  0.00  0.00     0.070 A 
ATOM     39  H   UNK d   0       8.854  -2.033  -4.136  0.00  0.00     0.051 H 
ATOM     40  H   UNK d   0       7.872  -1.879  -5.623  0.00  0.00     0.051 H 
ATOM     41  C   UNK d   0       5.953   0.792  -3.008  0.00  0.00     0.091 A 
ATOM     42  C   UNK d   0       5.433  -1.567  -2.911  0.00  0.00    -0.036 A 
ATOM     43  C   UNK d   0       4.822   1.064  -2.234  0.00  0.00    -0.034 A 
ATOM     44  C   UNK d   0       4.017   0.030  -1.812  0.00  0.00    -0.060 A 
ATOM     45  H   UNK d   0       4.580   2.083  -1.969  0.00  0.00     0.064 H 
ATOM     46  C   UNK d   0       4.319  -1.281  -2.148  0.00  0.00    -0.060 A 
ATOM     47  H   UNK d   0       3.142   0.241  -1.214  0.00  0.00     0.062 H 
ATOM     48  H   UNK d   0       3.680  -2.084  -1.810  0.00  0.00     0.062 H 
ATOM     49  H   UNK d   0       5.664  -2.591  -3.170  0.00  0.00     0.064 H 
ATOM     50  H   UNK d   0       9.406  -0.406  -6.493  0.00  0.00     0.049 H 
ATOM     51  H   UNK d   0      10.395  -0.565  -5.008  0.00  0.00     0.049 H 
ATOM     52  H   UNK d   0       8.214   3.278  -4.241  0.00  0.00     0.150 HD
ENDBRANCH   1  29
TORSDOF 9
ENDMDL
MODEL 8
REMARK VINA RESULT:      -6.3      6.865      8.793
REMARK  7 active torsions:
REMARK  status: ('A' for Active; 'I' for Inactive)
REMARK    1  A    between atoms: CB_1  and  CA_2 
REMARK       I    between atoms: CA_2  and  C_4 
REMARK       I    between atoms: CA_2  and  N_6 
REMARK       I    between atoms: N_6  and  C_7 
REMARK    2  A    between atoms: C_7  and  C_9 
REMARK    3  A    between atoms: C_9  and  C_10 
REMARK    4  A    between atoms: C_10  and  C_11 
REMARK    5  A    between atoms: C_11  and  C_12 
REMARK    6  A    between atoms: C_12  and  C_13 
REMARK    7  A    between atoms: C_13  and  N_14 
REMARK       I    between atoms: N_14  and  C_15 
REMARK       I    between atoms: C_15  and  N_17 
ROOT
ATOM      1  C   UNK d   0       9.611   4.575  -5.212  0.00  0.00     0.013 C 
ATOM      2  H   UNK d   0      10.612   4.395  -5.604  0.00  0.00     0.046 H 
ATOM      3  H   UNK d   0       9.018   5.099  -5.960  0.00  0.00     0.046 H 
ENDROOT
BRANCH   1   4
ATOM      4  C   UNK d   0       9.706   5.430  -3.946  0.00  0.00    -0.037 C 
ATOM      5  H   UNK d   0      10.530   6.137  -4.047  0.00  0.00     0.028 H 
ATOM      6  H   UNK d   0       8.773   5.977  -3.808  0.00  0.00     0.028 H 
BRANCH   4   7
ATOM      7  C   UNK d   0       9.952   4.526  -2.737  0.00  0.00    -0.051 C 
ATOM      8  H   UNK d   0       9.010   4.081  -2.417  0.00  0.00     0.027 H 
ATOM      9  H   UNK d   0      10.653   3.736  -3.010  0.00  0.00     0.027 H 
BRANCH   7  10
ATOM     10  C   UNK d   0      10.539   5.355  -1.593  0.00  0.00    -0.045 C 
ATOM     11  H   UNK d   0      10.186   4.960  -0.640  0.00  0.00     0.027 H 
ATOM     12  H   UNK d   0      11.628   5.302  -1.626  0.00  0.00     0.027 H 
BRANCH  10  13
ATOM     13  C   UNK d   0      10.095   6.812  -1.738  0.00  0.00     0.024 C 
ATOM     14  H   UNK d   0      10.616   7.268  -2.580  0.00  0.00     0.036 H 
ATOM     15  H   UNK d   0       9.020   6.848  -1.914  0.00  0.00     0.036 H 
BRANCH  13  16
ATOM     16  C   UNK d   0      10.423   7.565  -0.475  0.00  0.00     0.213 C 
ATOM     17  N   ALA d   1      10.662   8.890  -0.524  0.00  0.00    -0.308 N 
ATOM     18  CA  ALA d   1      10.982   9.624   0.704  0.00  0.00     0.060 C 
ATOM     19  H   ALA d   1      10.622   9.360  -1.372  0.00  0.00     0.149 HD
ATOM     20  HA  ALA d   1      10.421   9.199   1.537  0.00  0.00     0.056 H 
ATOM     21  C   ALA d   1      10.608  11.074   0.535  0.00  0.00     0.062 C 
ATOM     22  O   ALA d   1      10.125  11.456  -0.505  0.00  0.00    -0.548 OA
ATOM     23  OXT ALA d   1      10.813  11.941   1.539  0.00  0.00    -0.548 OA
ATOM     24  O   UNK d   0      10.472   6.979   0.586  0.00  0.00    -0.276 OA
BRANCH  18  25
ATOM     25  CB  ALA d   1      12.480   9.512   0.988  0.00  0.00    -0.041 C 
ATOM     26  HB1 ALA d   1      13.022  10.227   0.369  0.00  0.00     0.025 H 
ATOM     27  HB2 ALA d   1      12.668   9.728   2.040  0.00  0.00     0.025 H 
ATOM     28  HB3 ALA d   1      12.820   8.502   0.758  0.00  0.00     0.025 H 
ENDBRANCH  18  25
ENDBRANCH  13  16
ENDBRANCH  10  13
ENDBRANCH   7  10
ENDBRANCH   4   7
ENDBRANCH   1   4
BRANCH   1  29
ATOM     29  N   UNK d   0       8.975   3.296  -4.892  0.00  0.00    -0.299 N 
ATOM     30  C   UNK d   0       9.487   2.147  -5.378  0.00  0.00     0.309 C 
ATOM     31  O   UNK d   0      10.478   2.174  -6.082  0.00  0.00    -0.252 OA
ATOM     32  N   UNK d   0       8.901   0.970  -5.083  0.00  0.00    -0.224 N 
ATOM     33  C   UNK d   0       7.772   0.809  -4.293  0.00  0.00     0.207 A 
ATOM     34  C   UNK d   0       9.353  -0.345  -5.550  0.00  0.00     0.042 A 
ATOM     35  N   UNK d   0       7.415  -0.498  -4.175  0.00  0.00    -0.310 N 
ATOM     36  N   UNK d   0       6.924   1.554  -3.610  0.00  0.00    -0.214 NA
ATOM     37  C   UNK d   0       8.354  -1.338  -4.933  0.00  0.00     0.043 A 
ATOM     38  C   UNK d   0       6.286  -0.559  -3.375  0.00  0.00     0.070 A 
ATOM     39  H   UNK d   0       8.866  -2.033  -4.267  0.00  0.00     0.051 H 
ATOM     40  H   UNK d   0       7.828  -1.882  -5.717  0.00  0.00     0.051 H 
ATOM     41  C   UNK d   0       5.987   0.767  -3.023  0.00  0.00     0.091 A 
ATOM     42  C   UNK d   0       5.488  -1.596  -2.916  0.00  0.00    -0.036 A 
ATOM     43  C   UNK d   0       4.884   1.028  -2.208  0.00  0.00    -0.034 A 
ATOM     44  C   UNK d   0       4.102  -0.013  -1.759  0.00  0.00    -0.060 A 
ATOM     45  H   UNK d   0       4.644   2.045  -1.930  0.00  0.00     0.064 H 
ATOM     46  C   UNK d   0       4.402  -1.321  -2.110  0.00  0.00    -0.060 A 
ATOM     47  H   UNK d   0       3.249   0.190  -1.129  0.00  0.00     0.062 H 
ATOM     48  H   UNK d   0       3.782  -2.129  -1.752  0.00  0.00     0.062 H 
ATOM     49  H   UNK d   0       5.717  -2.617  -3.186  0.00  0.00     0.064 H 
ATOM     50  H   UNK d   0       9.318  -0.394  -6.639  0.00  0.00     0.049 H 
ATOM     51  H   UNK d   0      10.362  -0.551  -5.192  0.00  0.00     0.049 H 
ATOM     52  H   UNK d   0       8.182   3.274  -4.332  0.00  0.00     0.150 HD
ENDBRANCH   1  29
TORSDOF 9
ENDMDL
MODEL 9
REMARK VINA RESULT:      -6.3      6.403      8.348
REMARK  7 active torsions:
REMARK  status: ('A' for Active; 'I' for Inactive)
REMARK    1  A    between atoms: CB_1  and  CA_2 
REMARK       I    between atoms: CA_2  and  C_4 
REMARK       I    between atoms: CA_2  and  N_6 
REMARK       I    between atoms: N_6  and  C_7 
REMARK    2  A    between atoms: C_7  and  C_9 
REMARK    3  A    between atoms: C_9  and  C_10 
REMARK    4  A    between atoms: C_10  and  C_11 
REMARK    5  A    between atoms: C_11  and  C_12 
REMARK    6  A    between atoms: C_12  and  C_13 
REMARK    7  A    between atoms: C_13  and  N_14 
REMARK       I    between atoms: N_14  and  C_15 
REMARK       I    between atoms: C_15  and  N_17 
ROOT
ATOM      1  C   UNK d   0      10.756   2.927  -2.918  0.00  0.00     0.013 C 
ATOM      2  H   UNK d   0      11.210   2.443  -2.053  0.00  0.00     0.046 H 
ATOM      3  H   UNK d   0      11.483   2.979  -3.728  0.00  0.00     0.046 H 
ENDROOT
BRANCH   1   4
ATOM      4  C   UNK d   0      10.316   4.343  -2.538  0.00  0.00    -0.037 C 
ATOM      5  H   UNK d   0       9.545   4.289  -1.768  0.00  0.00     0.028 H 
ATOM      6  H   UNK d   0      11.172   4.898  -2.155  0.00  0.00     0.028 H 
BRANCH   4   7
ATOM      7  C   UNK d   0       9.757   5.053  -3.771  0.00  0.00    -0.051 C 
ATOM      8  H   UNK d   0      10.467   4.967  -4.594  0.00  0.00     0.027 H 
ATOM      9  H   UNK d   0       8.811   4.592  -4.059  0.00  0.00     0.027 H 
BRANCH   7  10
ATOM     10  C   UNK d   0       9.527   6.531  -3.448  0.00  0.00    -0.045 C 
ATOM     11  H   UNK d   0      10.184   7.144  -4.065  0.00  0.00     0.027 H 
ATOM     12  H   UNK d   0       8.488   6.791  -3.656  0.00  0.00     0.027 H 
BRANCH  10  13
ATOM     13  C   UNK d   0       9.830   6.783  -1.970  0.00  0.00     0.024 C 
ATOM     14  H   UNK d   0       9.320   6.036  -1.362  0.00  0.00     0.036 H 
ATOM     15  H   UNK d   0      10.905   6.714  -1.803  0.00  0.00     0.036 H 
BRANCH  13  16
ATOM     16  C   UNK d   0       9.349   8.158  -1.586  0.00  0.00     0.213 C 
ATOM     17  N   ALA d   1       9.543   9.197  -2.423  0.00  0.00    -0.308 N 
ATOM     18  CA  ALA d   1       9.076  10.535  -2.051  0.00  0.00     0.060 C 
ATOM     19  H   ALA d   1       9.991   9.058  -3.272  0.00  0.00     0.149 HD
ATOM     20  HA  ALA d   1       8.147  10.452  -1.488  0.00  0.00     0.056 H 
ATOM     21  C   ALA d   1       8.837  11.348  -3.297  0.00  0.00     0.062 C 
ATOM     22  O   ALA d   1       9.037  10.861  -4.384  0.00  0.00    -0.548 OA
ATOM     23  OXT ALA d   1       8.403  12.615  -3.198  0.00  0.00    -0.548 OA
ATOM     24  O   UNK d   0       8.789   8.331  -0.525  0.00  0.00    -0.276 OA
BRANCH  18  25
ATOM     25  CB  ALA d   1      10.136  11.222  -1.188  0.00  0.00    -0.041 C 
ATOM     26  HB1 ALA d   1       9.822  11.207  -0.145  0.00  0.00     0.025 H 
ATOM     27  HB2 ALA d   1      11.085  10.695  -1.290  0.00  0.00     0.025 H 
ATOM     28  HB3 ALA d   1      10.257  12.255  -1.515  0.00  0.00     0.025 H 
ENDBRANCH  18  25
ENDBRANCH  13  16
ENDBRANCH  10  13
ENDBRANCH   7  10
ENDBRANCH   4   7
ENDBRANCH   1   4
BRANCH   1  29
ATOM     29  N   UNK d   0       9.591   2.154  -3.355  0.00  0.00    -0.299 N 
ATOM     30  C   UNK d   0       9.671   1.381  -4.457  0.00  0.00     0.309 C 
ATOM     31  O   UNK d   0      10.709   1.325  -5.087  0.00  0.00    -0.252 OA
ATOM     32  N   UNK d   0       8.599   0.669  -4.860  0.00  0.00    -0.224 N 
ATOM     33  C   UNK d   0       7.364   0.649  -4.228  0.00  0.00     0.207 A 
ATOM     34  C   UNK d   0       8.551  -0.203  -6.038  0.00  0.00     0.042 A 
ATOM     35  N   UNK d   0       6.479  -0.161  -4.867  0.00  0.00    -0.310 N 
ATOM     36  N   UNK d   0       6.777   1.189  -3.177  0.00  0.00    -0.214 NA
ATOM     37  C   UNK d   0       7.122  -0.769  -6.040  0.00  0.00     0.043 A 
ATOM     38  C   UNK d   0       5.282  -0.118  -4.169  0.00  0.00     0.070 A 
ATOM     39  H   UNK d   0       7.140  -1.855  -5.945  0.00  0.00     0.051 H 
ATOM     40  H   UNK d   0       6.601  -0.477  -6.952  0.00  0.00     0.051 H 
ATOM     41  C   UNK d   0       5.495   0.754  -3.089  0.00  0.00     0.091 A 
ATOM     42  C   UNK d   0       4.047  -0.723  -4.340  0.00  0.00    -0.036 A 
ATOM     43  C   UNK d   0       4.454   1.003  -2.193  0.00  0.00    -0.034 A 
ATOM     44  C   UNK d   0       3.232   0.393  -2.377  0.00  0.00    -0.060 A 
ATOM     45  H   UNK d   0       4.605   1.672  -1.358  0.00  0.00     0.064 H 
ATOM     46  C   UNK d   0       3.028  -0.467  -3.445  0.00  0.00    -0.060 A 
ATOM     47  H   UNK d   0       2.426   0.586  -1.683  0.00  0.00     0.062 H 
ATOM     48  H   UNK d   0       2.066  -0.939  -3.579  0.00  0.00     0.062 H 
ATOM     49  H   UNK d   0       3.882  -1.394  -5.171  0.00  0.00     0.064 H 
ATOM     50  H   UNK d   0       8.736   0.374  -6.945  0.00  0.00     0.049 H 
ATOM     51  H   UNK d   0       9.278  -1.009  -5.944  0.00  0.00     0.049 H 
ATOM     52  H   UNK d   0       8.762   2.201  -2.855  0.00  0.00     0.150 HD
ENDBRANCH   1  29
TORSDOF 9
ENDMDL
