MODEL 1
REMARK VINA RESULT:      -4.8      0.000      0.000
REMARK  17 active torsions:
REMARK  status: ('A' for Active; 'I' for Inactive)
REMARK    1  A    between atoms: C_1  and  C_2 
REMARK    2  A    between atoms: C_2  and  C_3 
REMARK       I    between atoms: C_3  and  N_5 
REMARK    3  A    between atoms: N_5  and  C_6 
REMARK    4  A    between atoms: N_5  and  C_23 
REMARK    5  A    between atoms: C_6  and  C_7 
REMARK    6  A    between atoms: C_7  and  C_8 
REMARK    7  A    between atoms: C_8  and  C_10 
REMARK    8  A    between atoms: C_8  and  C_20 
REMARK    9  A    between atoms: C_13  and  O_16 
REMARK   10  A    between atoms: O_16  and  C_17 
REMARK   11  A    between atoms: C_17  and  C_18 
REMARK   12  A    between atoms: C_17  and  C_19 
REMARK   13  A    between atoms: C_20  and  C_21 
REMARK   14  A    between atoms: C_20  and  C_22 
REMARK   15  A    between atoms: C_23  and  C_24 
REMARK   16  A    between atoms: C_27  and  O_30 
REMARK   17  A    between atoms: O_30  and  C_31 
ROOT
ATOM      1  C   LIG d   1       3.562  -0.652  -5.017  0.00  0.00    -0.030 C 
ATOM      2  H   LIG d   1       2.663  -0.922  -4.463  0.00  0.00     0.029 H 
ATOM      3  H   LIG d   1       3.845  -1.473  -5.676  0.00  0.00     0.029 H 
ENDROOT
BRANCH   1   4
ATOM      4  C   LIG d   1       3.287   0.601  -5.852  0.00  0.00     0.016 C 
ATOM      5  H   LIG d   1       4.030   1.364  -5.618  0.00  0.00     0.046 H 
ATOM      6  H   LIG d   1       2.292   0.981  -5.620  0.00  0.00     0.046 H 
BRANCH   4   7
ATOM      7  N   LIG d   1       3.362   0.265  -7.276  0.00  0.00    -0.297 N 
ATOM      8  C   LIG d   1       3.012   1.179  -8.203  0.00  0.00     0.216 C 
ATOM      9  O   LIG d   1       2.723   2.307  -7.864  0.00  0.00    -0.276 OA
BRANCH   8  10
ATOM     10  C   LIG d   1       2.978   0.798  -9.661  0.00  0.00     0.021 C 
ATOM     11  H   LIG d   1       3.203  -0.264  -9.764  0.00  0.00     0.036 H 
ATOM     12  H   LIG d   1       1.986   0.999 -10.066  0.00  0.00     0.036 H 
BRANCH  10  13
ATOM     13  C   LIG d   1       4.018   1.617 -10.426  0.00  0.00    -0.057 C 
ATOM     14  H   LIG d   1       4.256   2.520  -9.863  0.00  0.00     0.023 H 
ATOM     15  H   LIG d   1       4.922   1.023 -10.560  0.00  0.00     0.023 H 
ATOM     16  H   LIG d   1       3.617   1.894 -11.401  0.00  0.00     0.023 H 
ENDBRANCH  10  13
ENDBRANCH   8  10
BRANCH   7  17
ATOM     17  C   LIG d   1       3.818  -1.064  -7.691  0.00  0.00     0.040 C 
ATOM     18  H   LIG d   1       3.383  -1.311  -8.660  0.00  0.00     0.051 H 
ATOM     19  H   LIG d   1       3.503  -1.801  -6.953  0.00  0.00     0.051 H 
BRANCH  17  20
ATOM     20  C   LIG d   1       5.321  -1.068  -7.798  0.00  0.00    -0.030 A 
ATOM     21  C   LIG d   1       5.992  -2.249  -8.052  0.00  0.00    -0.054 A 
ATOM     22  C   LIG d   1       7.369  -2.255  -8.149  0.00  0.00    -0.020 A 
ATOM     23  H   LIG d   1       5.437  -3.168  -8.176  0.00  0.00     0.062 H 
ATOM     24  C   LIG d   1       8.081  -1.074  -7.990  0.00  0.00     0.120 A 
ATOM     25  H   LIG d   1       7.893  -3.179  -8.348  0.00  0.00     0.065 H 
ATOM     26  C   LIG d   1       7.405   0.109  -7.734  0.00  0.00    -0.020 A 
ATOM     27  C   LIG d   1       6.027   0.111  -7.639  0.00  0.00    -0.054 A 
ATOM     28  H   LIG d   1       7.956   1.031  -7.614  0.00  0.00     0.065 H 
ATOM     29  H   LIG d   1       5.500   1.032  -7.439  0.00  0.00     0.062 H 
BRANCH  24  30
ATOM     30  O   LIG d   1       9.436  -1.078  -8.085  0.00  0.00    -0.495 OA
BRANCH  30  31
ATOM     31  C   LIG d   1      10.156  -0.312  -7.116  0.00  0.00     0.079 C 
ATOM     32  H   LIG d   1      10.996  -0.897  -6.742  0.00  0.00     0.066 H 
ATOM     33  H   LIG d   1      10.526   0.603  -7.577  0.00  0.00     0.066 H 
ATOM     34  H   LIG d   1       9.492  -0.060  -6.288  0.00  0.00     0.066 H 
ENDBRANCH  30  31
ENDBRANCH  24  30
ENDBRANCH  17  20
ENDBRANCH   7  17
ENDBRANCH   4   7
ENDBRANCH   1   4
BRANCH   1  35
ATOM     35  C   LIG d   1       4.700  -0.370  -4.035  0.00  0.00    -0.012 C 
ATOM     36  H   LIG d   1       5.099   0.629  -4.216  0.00  0.00     0.035 H 
BRANCH  35  37
ATOM     37  C   LIG d   1       5.795  -1.388  -4.227  0.00  0.00    -0.044 A 
ATOM     38  C   LIG d   1       5.473  -2.714  -4.451  0.00  0.00    -0.055 A 
ATOM     39  C   LIG d   1       6.474  -3.649  -4.627  0.00  0.00    -0.020 A 
ATOM     40  H   LIG d   1       4.438  -3.019  -4.487  0.00  0.00     0.062 H 
ATOM     41  C   LIG d   1       7.804  -3.257  -4.579  0.00  0.00     0.121 A 
ATOM     42  H   LIG d   1       6.222  -4.684  -4.803  0.00  0.00     0.065 H 
ATOM     43  C   LIG d   1       8.125  -1.926  -4.354  0.00  0.00    -0.020 A 
ATOM     44  C   LIG d   1       7.119  -0.993  -4.185  0.00  0.00    -0.055 A 
ATOM     45  H   LIG d   1       9.160  -1.618  -4.316  0.00  0.00     0.065 H 
ATOM     46  H   LIG d   1       7.369   0.044  -4.015  0.00  0.00     0.062 H 
BRANCH  41  47
ATOM     47  O   LIG d   1       8.791  -4.174  -4.754  0.00  0.00    -0.489 OA
BRANCH  47  48
ATOM     48  C   LIG d   1       9.151  -4.966  -3.619  0.00  0.00     0.095 C 
ATOM     49  H   LIG d   1       8.408  -4.831  -2.834  0.00  0.00     0.073 H 
BRANCH  48  50
ATOM     50  C   LIG d   1       9.205  -6.440  -4.023  0.00  0.00    -0.028 C 
ATOM     51  H   LIG d   1       8.908  -7.059  -3.178  0.00  0.00     0.026 H 
ATOM     52  H   LIG d   1       8.525  -6.613  -4.858  0.00  0.00     0.026 H 
ATOM     53  H   LIG d   1      10.221  -6.698  -4.324  0.00  0.00     0.026 H 
ENDBRANCH  48  50
BRANCH  48  54
ATOM     54  C   LIG d   1      10.523  -4.526  -3.105  0.00  0.00    -0.028 C 
ATOM     55  H   LIG d   1      11.223  -4.471  -3.940  0.00  0.00     0.026 H 
ATOM     56  H   LIG d   1      10.438  -3.545  -2.637  0.00  0.00     0.026 H 
ATOM     57  H   LIG d   1      10.885  -5.248  -2.374  0.00  0.00     0.026 H 
ENDBRANCH  48  54
ENDBRANCH  47  48
ENDBRANCH  41  47
ENDBRANCH  35  37
BRANCH  35  58
ATOM     58  C   LIG d   1       4.171  -0.455  -2.602  0.00  0.00    -0.040 C 
ATOM     59  H   LIG d   1       4.763  -1.176  -2.038  0.00  0.00     0.030 H 
BRANCH  58  60
ATOM     60  C   LIG d   1       4.273   0.919  -1.937  0.00  0.00    -0.062 C 
ATOM     61  H   LIG d   1       4.636   1.647  -2.662  0.00  0.00     0.023 H 
ATOM     62  H   LIG d   1       3.290   1.224  -1.578  0.00  0.00     0.023 H 
ATOM     63  H   LIG d   1       4.967   0.866  -1.098  0.00  0.00     0.023 H 
ENDBRANCH  58  60
BRANCH  58  64
ATOM     64  C   LIG d   1       2.708  -0.902  -2.625  0.00  0.00    -0.062 C 
ATOM     65  H   LIG d   1       2.400  -1.086  -3.654  0.00  0.00     0.023 H 
ATOM     66  H   LIG d   1       2.599  -1.819  -2.045  0.00  0.00     0.023 H 
ATOM     67  H   LIG d   1       2.083  -0.122  -2.192  0.00  0.00     0.023 H 
ENDBRANCH  58  64
ENDBRANCH  35  58
ENDBRANCH   1  35
TORSDOF 17
ENDMDL
MODEL 2
REMARK VINA RESULT:      -4.8      2.402      6.658
REMARK  17 active torsions:
REMARK  status: ('A' for Active; 'I' for Inactive)
REMARK    1  A    between atoms: C_1  and  C_2 
REMARK    2  A    between atoms: C_2  and  C_3 
REMARK       I    between atoms: C_3  and  N_5 
REMARK    3  A    between atoms: N_5  and  C_6 
REMARK    4  A    between atoms: N_5  and  C_23 
REMARK    5  A    between atoms: C_6  and  C_7 
REMARK    6  A    between atoms: C_7  and  C_8 
REMARK    7  A    between atoms: C_8  and  C_10 
REMARK    8  A    between atoms: C_8  and  C_20 
REMARK    9  A    between atoms: C_13  and  O_16 
REMARK   10  A    between atoms: O_16  and  C_17 
REMARK   11  A    between atoms: C_17  and  C_18 
REMARK   12  A    between atoms: C_17  and  C_19 
REMARK   13  A    between atoms: C_20  and  C_21 
REMARK   14  A    between atoms: C_20  and  C_22 
REMARK   15  A    between atoms: C_23  and  C_24 
REMARK   16  A    between atoms: C_27  and  O_30 
REMARK   17  A    between atoms: O_30  and  C_31 
ROOT
ATOM      1  C   LIG d   1       6.452  -1.065  -3.820  0.00  0.00    -0.030 C 
ATOM      2  H   LIG d   1       7.062  -0.502  -3.115  0.00  0.00     0.029 H 
ATOM      3  H   LIG d   1       6.895  -1.007  -4.815  0.00  0.00     0.029 H 
ENDROOT
BRANCH   1   4
ATOM      4  C   LIG d   1       6.383  -2.529  -3.377  0.00  0.00     0.016 C 
ATOM      5  H   LIG d   1       5.450  -2.702  -2.840  0.00  0.00     0.046 H 
ATOM      6  H   LIG d   1       7.226  -2.749  -2.722  0.00  0.00     0.046 H 
BRANCH   4   7
ATOM      7  N   LIG d   1       6.438  -3.399  -4.555  0.00  0.00    -0.297 N 
ATOM      8  C   LIG d   1       5.326  -4.035  -4.974  0.00  0.00     0.216 C 
ATOM      9  O   LIG d   1       4.262  -3.816  -4.434  0.00  0.00    -0.276 OA
BRANCH   8  10
ATOM     10  C   LIG d   1       5.406  -5.019  -6.114  0.00  0.00     0.021 C 
ATOM     11  H   LIG d   1       4.760  -4.685  -6.926  0.00  0.00     0.036 H 
ATOM     12  H   LIG d   1       6.434  -5.080  -6.469  0.00  0.00     0.036 H 
BRANCH  10  13
ATOM     13  C   LIG d   1       4.949  -6.396  -5.631  0.00  0.00    -0.057 C 
ATOM     14  H   LIG d   1       5.587  -6.723  -4.809  0.00  0.00     0.023 H 
ATOM     15  H   LIG d   1       3.916  -6.337  -5.287  0.00  0.00     0.023 H 
ATOM     16  H   LIG d   1       5.019  -7.110  -6.450  0.00  0.00     0.023 H 
ENDBRANCH  10  13
ENDBRANCH   8  10
BRANCH   7  17
ATOM     17  C   LIG d   1       7.701  -3.576  -5.275  0.00  0.00     0.040 C 
ATOM     18  H   LIG d   1       8.158  -2.603  -5.453  0.00  0.00     0.051 H 
ATOM     19  H   LIG d   1       7.508  -4.066  -6.230  0.00  0.00     0.051 H 
BRANCH  17  20
ATOM     20  C   LIG d   1       8.633  -4.428  -4.452  0.00  0.00    -0.030 A 
ATOM     21  C   LIG d   1       8.613  -5.803  -4.590  0.00  0.00    -0.054 A 
ATOM     22  C   LIG d   1       9.465  -6.586  -3.836  0.00  0.00    -0.020 A 
ATOM     23  H   LIG d   1       7.931  -6.266  -5.288  0.00  0.00     0.062 H 
ATOM     24  C   LIG d   1      10.341  -5.991  -2.939  0.00  0.00     0.120 A 
ATOM     25  H   LIG d   1       9.450  -7.660  -3.944  0.00  0.00     0.065 H 
ATOM     26  C   LIG d   1      10.358  -4.611  -2.802  0.00  0.00    -0.020 A 
ATOM     27  C   LIG d   1       9.504  -3.832  -3.559  0.00  0.00    -0.054 A 
ATOM     28  H   LIG d   1      11.043  -4.145  -2.108  0.00  0.00     0.065 H 
ATOM     29  H   LIG d   1       9.517  -2.757  -3.453  0.00  0.00     0.062 H 
BRANCH  24  30
ATOM     30  O   LIG d   1      11.181  -6.759  -2.196  0.00  0.00    -0.495 OA
BRANCH  30  31
ATOM     31  C   LIG d   1      10.656  -7.308  -0.985  0.00  0.00     0.079 C 
ATOM     32  H   LIG d   1      11.344  -8.061  -0.600  0.00  0.00     0.066 H 
ATOM     33  H   LIG d   1      10.535  -6.514  -0.248  0.00  0.00     0.066 H 
ATOM     34  H   LIG d   1       9.688  -7.769  -1.186  0.00  0.00     0.066 H 
ENDBRANCH  30  31
ENDBRANCH  24  30
ENDBRANCH  17  20
ENDBRANCH   7  17
ENDBRANCH   4   7
ENDBRANCH   1   4
BRANCH   1  35
ATOM     35  C   LIG d   1       5.040  -0.477  -3.856  0.00  0.00    -0.012 C 
ATOM     36  H   LIG d   1       4.353  -1.146  -3.337  0.00  0.00     0.035 H 
BRANCH  35  37
ATOM     37  C   LIG d   1       4.597  -0.317  -5.288  0.00  0.00    -0.044 A 
ATOM     38  C   LIG d   1       3.280  -0.012  -5.574  0.00  0.00    -0.055 A 
ATOM     39  C   LIG d   1       2.872   0.134  -6.886  0.00  0.00    -0.020 A 
ATOM     40  H   LIG d   1       2.568   0.111  -4.771  0.00  0.00     0.062 H 
ATOM     41  C   LIG d   1       3.787  -0.025  -7.917  0.00  0.00     0.121 A 
ATOM     42  H   LIG d   1       1.843   0.373  -7.108  0.00  0.00     0.065 H 
ATOM     43  C   LIG d   1       5.109  -0.331  -7.628  0.00  0.00    -0.020 A 
ATOM     44  C   LIG d   1       5.513  -0.470  -6.313  0.00  0.00    -0.055 A 
ATOM     45  H   LIG d   1       5.822  -0.456  -8.429  0.00  0.00     0.065 H 
ATOM     46  H   LIG d   1       6.543  -0.704  -6.088  0.00  0.00     0.062 H 
BRANCH  41  47
ATOM     47  O   LIG d   1       3.389   0.121  -9.208  0.00  0.00    -0.489 OA
BRANCH  47  48
ATOM     48  C   LIG d   1       4.141   1.024 -10.021  0.00  0.00     0.095 C 
ATOM     49  H   LIG d   1       5.193   0.971  -9.744  0.00  0.00     0.073 H 
BRANCH  48  50
ATOM     50  C   LIG d   1       3.980   0.639 -11.493  0.00  0.00    -0.028 C 
ATOM     51  H   LIG d   1       3.909   1.541 -12.099  0.00  0.00     0.026 H 
ATOM     52  H   LIG d   1       4.843   0.054 -11.811  0.00  0.00     0.026 H 
ATOM     53  H   LIG d   1       3.074   0.045 -11.616  0.00  0.00     0.026 H 
ENDBRANCH  48  50
BRANCH  48  54
ATOM     54  C   LIG d   1       3.629   2.450  -9.808  0.00  0.00    -0.028 C 
ATOM     55  H   LIG d   1       3.574   2.660  -8.739  0.00  0.00     0.026 H 
ATOM     56  H   LIG d   1       4.312   3.156 -10.282  0.00  0.00     0.026 H 
ATOM     57  H   LIG d   1       2.638   2.550 -10.250  0.00  0.00     0.026 H 
ENDBRANCH  48  54
ENDBRANCH  47  48
ENDBRANCH  41  47
ENDBRANCH  35  37
BRANCH  35  58
ATOM     58  C   LIG d   1       5.039   0.889  -3.166  0.00  0.00    -0.040 C 
ATOM     59  H   LIG d   1       4.347   1.555  -3.681  0.00  0.00     0.030 H 
BRANCH  58  60
ATOM     60  C   LIG d   1       4.600   0.725  -1.710  0.00  0.00    -0.062 C 
ATOM     61  H   LIG d   1       5.309   1.234  -1.058  0.00  0.00     0.023 H 
ATOM     62  H   LIG d   1       3.609   1.159  -1.578  0.00  0.00     0.023 H 
ATOM     63  H   LIG d   1       4.569  -0.335  -1.456  0.00  0.00     0.023 H 
ENDBRANCH  58  60
BRANCH  58  64
ATOM     64  C   LIG d   1       6.448   1.483  -3.210  0.00  0.00    -0.062 C 
ATOM     65  H   LIG d   1       6.871   1.342  -4.204  0.00  0.00     0.023 H 
ATOM     66  H   LIG d   1       6.401   2.548  -2.983  0.00  0.00     0.023 H 
ATOM     67  H   LIG d   1       7.076   0.982  -2.474  0.00  0.00     0.023 H 
ENDBRANCH  58  64
ENDBRANCH  35  58
ENDBRANCH   1  35
TORSDOF 17
ENDMDL
MODEL 3
REMARK VINA RESULT:      -4.8      3.613      6.982
REMARK  17 active torsions:
REMARK  status: ('A' for Active; 'I' for Inactive)
REMARK    1  A    between atoms: C_1  and  C_2 
REMARK    2  A    between atoms: C_2  and  C_3 
REMARK       I    between atoms: C_3  and  N_5 
REMARK    3  A    between atoms: N_5  and  C_6 
REMARK    4  A    between atoms: N_5  and  C_23 
REMARK    5  A    between atoms: C_6  and  C_7 
REMARK    6  A    between atoms: C_7  and  C_8 
REMARK    7  A    between atoms: C_8  and  C_10 
REMARK    8  A    between atoms: C_8  and  C_20 
REMARK    9  A    between atoms: C_13  and  O_16 
REMARK   10  A    between atoms: O_16  and  C_17 
REMARK   11  A    between atoms: C_17  and  C_18 
REMARK   12  A    between atoms: C_17  and  C_19 
REMARK   13  A    between atoms: C_20  and  C_21 
REMARK   14  A    between atoms: C_20  and  C_22 
REMARK   15  A    between atoms: C_23  and  C_24 
REMARK   16  A    between atoms: C_27  and  O_30 
REMARK   17  A    between atoms: O_30  and  C_31 
ROOT
ATOM      1  C   LIG d   1       3.883  -0.464  -7.343  0.00  0.00    -0.030 C 
ATOM      2  H   LIG d   1       4.890  -0.147  -7.613  0.00  0.00     0.029 H 
ATOM      3  H   LIG d   1       3.829  -1.553  -7.351  0.00  0.00     0.029 H 
ENDROOT
BRANCH   1   4
ATOM      4  C   LIG d   1       3.545   0.053  -5.942  0.00  0.00     0.016 C 
ATOM      5  H   LIG d   1       2.465   0.031  -5.798  0.00  0.00     0.046 H 
ATOM      6  H   LIG d   1       3.906   1.076  -5.837  0.00  0.00     0.046 H 
BRANCH   4   7
ATOM      7  N   LIG d   1       4.190  -0.798  -4.939  0.00  0.00    -0.297 N 
ATOM      8  C   LIG d   1       3.516  -1.158  -3.829  0.00  0.00     0.216 C 
ATOM      9  O   LIG d   1       2.348  -0.856  -3.703  0.00  0.00    -0.276 OA
BRANCH   8  10
ATOM     10  C   LIG d   1       4.215  -1.936  -2.743  0.00  0.00     0.021 C 
ATOM     11  H   LIG d   1       3.571  -2.750  -2.409  0.00  0.00     0.036 H 
ATOM     12  H   LIG d   1       5.147  -2.347  -3.132  0.00  0.00     0.036 H 
BRANCH  10  13
ATOM     13  C   LIG d   1       4.518  -1.009  -1.566  0.00  0.00    -0.057 C 
ATOM     14  H   LIG d   1       5.270  -0.278  -1.862  0.00  0.00     0.023 H 
ATOM     15  H   LIG d   1       3.606  -0.491  -1.266  0.00  0.00     0.023 H 
ATOM     16  H   LIG d   1       4.894  -1.596  -0.728  0.00  0.00     0.023 H 
ENDBRANCH  10  13
ENDBRANCH   8  10
BRANCH   7  17
ATOM     17  C   LIG d   1       5.566  -1.257  -5.144  0.00  0.00     0.040 C 
ATOM     18  H   LIG d   1       5.656  -1.708  -6.132  0.00  0.00     0.051 H 
ATOM     19  H   LIG d   1       5.818  -1.996  -4.383  0.00  0.00     0.051 H 
BRANCH  17  20
ATOM     20  C   LIG d   1       6.507  -0.084  -5.038  0.00  0.00    -0.030 A 
ATOM     21  C   LIG d   1       7.227   0.325  -6.144  0.00  0.00    -0.054 A 
ATOM     22  C   LIG d   1       8.090   1.398  -6.049  0.00  0.00    -0.020 A 
ATOM     23  H   LIG d   1       7.113  -0.195  -7.084  0.00  0.00     0.062 H 
ATOM     24  C   LIG d   1       8.236   2.066  -4.841  0.00  0.00     0.120 A 
ATOM     25  H   LIG d   1       8.653   1.718  -6.914  0.00  0.00     0.065 H 
ATOM     26  C   LIG d   1       7.513   1.653  -3.732  0.00  0.00    -0.020 A 
ATOM     27  C   LIG d   1       6.650   0.579  -3.833  0.00  0.00    -0.054 A 
ATOM     28  H   LIG d   1       7.620   2.174  -2.792  0.00  0.00     0.065 H 
ATOM     29  H   LIG d   1       6.086   0.256  -2.970  0.00  0.00     0.062 H 
BRANCH  24  30
ATOM     30  O   LIG d   1       9.085   3.123  -4.745  0.00  0.00    -0.495 OA
BRANCH  30  31
ATOM     31  C   LIG d   1       9.625   3.405  -3.452  0.00  0.00     0.079 C 
ATOM     32  H   LIG d   1       9.491   4.462  -3.225  0.00  0.00     0.066 H 
ATOM     33  H   LIG d   1       9.109   2.804  -2.704  0.00  0.00     0.066 H 
ATOM     34  H   LIG d   1      10.688   3.163  -3.443  0.00  0.00     0.066 H 
ENDBRANCH  30  31
ENDBRANCH  24  30
ENDBRANCH  17  20
ENDBRANCH   7  17
ENDBRANCH   4   7
ENDBRANCH   1   4
BRANCH   1  35
ATOM     35  C   LIG d   1       2.882   0.104  -8.351  0.00  0.00    -0.012 C 
ATOM     36  H   LIG d   1       2.041   0.549  -7.818  0.00  0.00     0.035 H 
BRANCH  35  37
ATOM     37  C   LIG d   1       2.382  -1.003  -9.242  0.00  0.00    -0.044 A 
ATOM     38  C   LIG d   1       1.464  -0.727 -10.239  0.00  0.00    -0.055 A 
ATOM     39  C   LIG d   1       1.004  -1.741 -11.056  0.00  0.00    -0.020 A 
ATOM     40  H   LIG d   1       1.106   0.282 -10.377  0.00  0.00     0.062 H 
ATOM     41  C   LIG d   1       1.464  -3.038 -10.877  0.00  0.00     0.121 A 
ATOM     42  H   LIG d   1       0.288  -1.524 -11.835  0.00  0.00     0.065 H 
ATOM     43  C   LIG d   1       2.385  -3.313  -9.876  0.00  0.00    -0.020 A 
ATOM     44  C   LIG d   1       2.846  -2.294  -9.065  0.00  0.00    -0.055 A 
ATOM     45  H   LIG d   1       2.743  -4.322  -9.734  0.00  0.00     0.065 H 
ATOM     46  H   LIG d   1       3.567  -2.507  -8.289  0.00  0.00     0.062 H 
BRANCH  41  47
ATOM     47  O   LIG d   1       1.014  -4.037 -11.681  0.00  0.00    -0.489 OA
BRANCH  47  48
ATOM     48  C   LIG d   1       0.484  -5.199 -11.039  0.00  0.00     0.095 C 
ATOM     49  H   LIG d   1       1.123  -5.472 -10.199  0.00  0.00     0.073 H 
BRANCH  48  50
ATOM     50  C   LIG d   1      -0.927  -4.900 -10.530  0.00  0.00    -0.028 C 
ATOM     51  H   LIG d   1      -1.004  -3.845 -10.270  0.00  0.00     0.026 H 
ATOM     52  H   LIG d   1      -1.651  -5.136 -11.310  0.00  0.00     0.026 H 
ATOM     53  H   LIG d   1      -1.132  -5.508  -9.649  0.00  0.00     0.026 H 
ENDBRANCH  48  50
BRANCH  48  54
ATOM     54  C   LIG d   1       0.433  -6.355 -12.039  0.00  0.00    -0.028 C 
ATOM     55  H   LIG d   1       0.075  -7.254 -11.536  0.00  0.00     0.026 H 
ATOM     56  H   LIG d   1      -0.246  -6.100 -12.853  0.00  0.00     0.026 H 
ATOM     57  H   LIG d   1       1.430  -6.534 -12.439  0.00  0.00     0.026 H 
ENDBRANCH  48  54
ENDBRANCH  47  48
ENDBRANCH  41  47
ENDBRANCH  35  37
BRANCH  35  58
ATOM     58  C   LIG d   1       3.569   1.174  -9.203  0.00  0.00    -0.040 C 
ATOM     59  H   LIG d   1       3.287   1.042 -10.248  0.00  0.00     0.030 H 
BRANCH  58  60
ATOM     60  C   LIG d   1       3.132   2.562  -8.730  0.00  0.00    -0.062 C 
ATOM     61  H   LIG d   1       2.059   2.560  -8.543  0.00  0.00     0.023 H 
ATOM     62  H   LIG d   1       3.661   2.816  -7.811  0.00  0.00     0.023 H 
ATOM     63  H   LIG d   1       3.365   3.299  -9.499  0.00  0.00     0.023 H 
ENDBRANCH  58  60
BRANCH  58  64
ATOM     64  C   LIG d   1       5.086   1.042  -9.063  0.00  0.00    -0.062 C 
ATOM     65  H   LIG d   1       5.427   1.643  -8.220  0.00  0.00     0.023 H 
ATOM     66  H   LIG d   1       5.346  -0.003  -8.893  0.00  0.00     0.023 H 
ATOM     67  H   LIG d   1       5.567   1.392  -9.976  0.00  0.00     0.023 H 
ENDBRANCH  58  64
ENDBRANCH  35  58
ENDBRANCH   1  35
TORSDOF 17
ENDMDL
MODEL 4
REMARK VINA RESULT:      -4.8      2.777      5.625
REMARK  17 active torsions:
REMARK  status: ('A' for Active; 'I' for Inactive)
REMARK    1  A    between atoms: C_1  and  C_2 
REMARK    2  A    between atoms: C_2  and  C_3 
REMARK       I    between atoms: C_3  and  N_5 
REMARK    3  A    between atoms: N_5  and  C_6 
REMARK    4  A    between atoms: N_5  and  C_23 
REMARK    5  A    between atoms: C_6  and  C_7 
REMARK    6  A    between atoms: C_7  and  C_8 
REMARK    7  A    between atoms: C_8  and  C_10 
REMARK    8  A    between atoms: C_8  and  C_20 
REMARK    9  A    between atoms: C_13  and  O_16 
REMARK   10  A    between atoms: O_16  and  C_17 
REMARK   11  A    between atoms: C_17  and  C_18 
REMARK   12  A    between atoms: C_17  and  C_19 
REMARK   13  A    between atoms: C_20  and  C_21 
REMARK   14  A    between atoms: C_20  and  C_22 
REMARK   15  A    between atoms: C_23  and  C_24 
REMARK   16  A    between atoms: C_27  and  O_30 
REMARK   17  A    between atoms: O_30  and  C_31 
ROOT
ATOM      1  C   LIG d   1       5.153   0.165  -6.444  0.00  0.00    -0.030 C 
ATOM      2  H   LIG d   1       4.877   0.640  -7.385  0.00  0.00     0.029 H 
ATOM      3  H   LIG d   1       5.146   0.905  -5.645  0.00  0.00     0.029 H 
ENDROOT
BRANCH   1   4
ATOM      4  C   LIG d   1       4.148  -0.944  -6.121  0.00  0.00     0.016 C 
ATOM      5  H   LIG d   1       4.554  -1.905  -6.438  0.00  0.00     0.046 H 
ATOM      6  H   LIG d   1       3.214  -0.752  -6.650  0.00  0.00     0.046 H 
BRANCH   4   7
ATOM      7  N   LIG d   1       3.896  -0.970  -4.678  0.00  0.00    -0.297 N 
ATOM      8  C   LIG d   1       3.482   0.146  -4.048  0.00  0.00     0.216 C 
ATOM      9  O   LIG d   1       3.228   1.146  -4.686  0.00  0.00    -0.276 OA
BRANCH   8  10
ATOM     10  C   LIG d   1       3.334   0.153  -2.547  0.00  0.00     0.021 C 
ATOM     11  H   LIG d   1       2.379   0.604  -2.279  0.00  0.00     0.036 H 
ATOM     12  H   LIG d   1       3.370  -0.871  -2.174  0.00  0.00     0.036 H 
BRANCH  10  13
ATOM     13  C   LIG d   1       4.474   0.963  -1.927  0.00  0.00    -0.057 C 
ATOM     14  H   LIG d   1       4.745   0.530  -0.964  0.00  0.00     0.023 H 
ATOM     15  H   LIG d   1       5.338   0.943  -2.591  0.00  0.00     0.023 H 
ATOM     16  H   LIG d   1       4.150   1.993  -1.782  0.00  0.00     0.023 H 
ENDBRANCH  10  13
ENDBRANCH   8  10
BRANCH   7  17
ATOM     17  C   LIG d   1       4.096  -2.209  -3.922  0.00  0.00     0.040 C 
ATOM     18  H   LIG d   1       3.478  -2.998  -4.348  0.00  0.00     0.051 H 
ATOM     19  H   LIG d   1       3.814  -2.048  -2.882  0.00  0.00     0.051 H 
BRANCH  17  20
ATOM     20  C   LIG d   1       5.547  -2.612  -3.994  0.00  0.00    -0.030 A 
ATOM     21  C   LIG d   1       6.479  -1.975  -3.198  0.00  0.00    -0.054 A 
ATOM     22  C   LIG d   1       7.810  -2.341  -3.263  0.00  0.00    -0.020 A 
ATOM     23  H   LIG d   1       6.168  -1.189  -2.524  0.00  0.00     0.062 H 
ATOM     24  C   LIG d   1       8.209  -3.350  -4.128  0.00  0.00     0.120 A 
ATOM     25  H   LIG d   1       8.538  -1.843  -2.640  0.00  0.00     0.065 H 
ATOM     26  C   LIG d   1       7.271  -3.987  -4.926  0.00  0.00    -0.020 A 
ATOM     27  C   LIG d   1       5.942  -3.617  -4.857  0.00  0.00    -0.054 A 
ATOM     28  H   LIG d   1       7.579  -4.776  -5.597  0.00  0.00     0.065 H 
ATOM     29  H   LIG d   1       5.211  -4.113  -5.478  0.00  0.00     0.062 H 
BRANCH  24  30
ATOM     30  O   LIG d   1       9.518  -3.712  -4.193  0.00  0.00    -0.495 OA
BRANCH  30  31
ATOM     31  C   LIG d   1      10.310  -3.101  -5.214  0.00  0.00     0.079 C 
ATOM     32  H   LIG d   1      10.658  -2.128  -4.869  0.00  0.00     0.066 H 
ATOM     33  H   LIG d   1      11.166  -3.736  -5.438  0.00  0.00     0.066 H 
ATOM     34  H   LIG d   1       9.706  -2.974  -6.113  0.00  0.00     0.066 H 
ENDBRANCH  30  31
ENDBRANCH  24  30
ENDBRANCH  17  20
ENDBRANCH   7  17
ENDBRANCH   4   7
ENDBRANCH   1   4
BRANCH   1  35
ATOM     35  C   LIG d   1       6.554  -0.438  -6.570  0.00  0.00    -0.012 C 
ATOM     36  H   LIG d   1       6.531  -1.481  -6.251  0.00  0.00     0.035 H 
BRANCH  35  37
ATOM     37  C   LIG d   1       7.512   0.332  -5.698  0.00  0.00    -0.044 A 
ATOM     38  C   LIG d   1       7.033   1.085  -4.643  0.00  0.00    -0.055 A 
ATOM     39  C   LIG d   1       7.910   1.792  -3.843  0.00  0.00    -0.020 A 
ATOM     40  H   LIG d   1       5.973   1.123  -4.444  0.00  0.00     0.062 H 
ATOM     41  C   LIG d   1       9.273   1.745  -4.099  0.00  0.00     0.121 A 
ATOM     42  H   LIG d   1       7.535   2.380  -3.018  0.00  0.00     0.065 H 
ATOM     43  C   LIG d   1       9.752   0.988  -5.159  0.00  0.00    -0.020 A 
ATOM     44  C   LIG d   1       8.870   0.278  -5.952  0.00  0.00    -0.055 A 
ATOM     45  H   LIG d   1      10.812   0.951  -5.361  0.00  0.00     0.065 H 
ATOM     46  H   LIG d   1       9.243  -0.315  -6.774  0.00  0.00     0.062 H 
BRANCH  41  47
ATOM     47  O   LIG d   1      10.138   2.438  -3.313  0.00  0.00    -0.489 OA
BRANCH  47  48
ATOM     48  C   LIG d   1       9.850   3.821  -3.092  0.00  0.00     0.095 C 
ATOM     49  H   LIG d   1       8.822   3.926  -2.746  0.00  0.00     0.073 H 
BRANCH  48  50
ATOM     50  C   LIG d   1      10.805   4.377  -2.035  0.00  0.00    -0.028 C 
ATOM     51  H   LIG d   1      11.756   4.630  -2.501  0.00  0.00     0.026 H 
ATOM     52  H   LIG d   1      10.369   5.271  -1.587  0.00  0.00     0.026 H 
ATOM     53  H   LIG d   1      10.967   3.626  -1.260  0.00  0.00     0.026 H 
ENDBRANCH  48  50
BRANCH  48  54
ATOM     54  C   LIG d   1      10.029   4.594  -4.400  0.00  0.00    -0.028 C 
ATOM     55  H   LIG d   1      11.089   4.802  -4.556  0.00  0.00     0.026 H 
ATOM     56  H   LIG d   1       9.651   3.996  -5.230  0.00  0.00     0.026 H 
ATOM     57  H   LIG d   1       9.478   5.532  -4.347  0.00  0.00     0.026 H 
ENDBRANCH  48  54
ENDBRANCH  47  48
ENDBRANCH  41  47
ENDBRANCH  35  37
BRANCH  35  58
ATOM     58  C   LIG d   1       7.014  -0.360  -8.026  0.00  0.00    -0.040 C 
ATOM     59  H   LIG d   1       8.087  -0.172  -8.059  0.00  0.00     0.030 H 
BRANCH  58  60
ATOM     60  C   LIG d   1       6.708  -1.684  -8.730  0.00  0.00    -0.062 C 
ATOM     61  H   LIG d   1       5.760  -2.078  -8.365  0.00  0.00     0.023 H 
ATOM     62  H   LIG d   1       6.643  -1.518  -9.805  0.00  0.00     0.023 H 
ATOM     63  H   LIG d   1       7.503  -2.400  -8.521  0.00  0.00     0.023 H 
ENDBRANCH  58  60
BRANCH  58  64
ATOM     64  C   LIG d   1       6.275   0.776  -8.735  0.00  0.00    -0.062 C 
ATOM     65  H   LIG d   1       6.074   1.578  -8.024  0.00  0.00     0.023 H 
ATOM     66  H   LIG d   1       6.890   1.159  -9.549  0.00  0.00     0.023 H 
ATOM     67  H   LIG d   1       5.333   0.403  -9.135  0.00  0.00     0.023 H 
ENDBRANCH  58  64
ENDBRANCH  35  58
ENDBRANCH   1  35
TORSDOF 17
ENDMDL
MODEL 5
REMARK VINA RESULT:      -4.8      3.191      6.417
REMARK  17 active torsions:
REMARK  status: ('A' for Active; 'I' for Inactive)
REMARK    1  A    between atoms: C_1  and  C_2 
REMARK    2  A    between atoms: C_2  and  C_3 
REMARK       I    between atoms: C_3  and  N_5 
REMARK    3  A    between atoms: N_5  and  C_6 
REMARK    4  A    between atoms: N_5  and  C_23 
REMARK    5  A    between atoms: C_6  and  C_7 
REMARK    6  A    between atoms: C_7  and  C_8 
REMARK    7  A    between atoms: C_8  and  C_10 
REMARK    8  A    between atoms: C_8  and  C_20 
REMARK    9  A    between atoms: C_13  and  O_16 
REMARK   10  A    between atoms: O_16  and  C_17 
REMARK   11  A    between atoms: C_17  and  C_18 
REMARK   12  A    between atoms: C_17  and  C_19 
REMARK   13  A    between atoms: C_20  and  C_21 
REMARK   14  A    between atoms: C_20  and  C_22 
REMARK   15  A    between atoms: C_23  and  C_24 
REMARK   16  A    between atoms: C_27  and  O_30 
REMARK   17  A    between atoms: O_30  and  C_31 
ROOT
ATOM      1  C   LIG d   1       5.967   0.279  -3.765  0.00  0.00    -0.030 C 
ATOM      2  H   LIG d   1       5.727   0.808  -2.843  0.00  0.00     0.029 H 
ATOM      3  H   LIG d   1       5.942   0.976  -4.603  0.00  0.00     0.029 H 
ENDROOT
BRANCH   1   4
ATOM      4  C   LIG d   1       7.365  -0.333  -3.651  0.00  0.00     0.016 C 
ATOM      5  H   LIG d   1       7.285  -1.354  -3.279  0.00  0.00     0.046 H 
ATOM      6  H   LIG d   1       7.966   0.260  -2.961  0.00  0.00     0.046 H 
BRANCH   4   7
ATOM      7  N   LIG d   1       8.003  -0.342  -4.971  0.00  0.00    -0.297 N 
ATOM      8  C   LIG d   1       8.309  -1.513  -5.562  0.00  0.00     0.216 C 
ATOM      9  O   LIG d   1       7.975  -2.559  -5.047  0.00  0.00    -0.276 OA
BRANCH   8  10
ATOM     10  C   LIG d   1       9.068  -1.523  -6.865  0.00  0.00     0.021 C 
ATOM     11  H   LIG d   1       9.433  -0.518  -7.080  0.00  0.00     0.036 H 
ATOM     12  H   LIG d   1       9.913  -2.208  -6.788  0.00  0.00     0.036 H 
BRANCH  10  13
ATOM     13  C   LIG d   1       8.141  -1.981  -7.991  0.00  0.00    -0.057 C 
ATOM     14  H   LIG d   1       8.146  -3.070  -8.046  0.00  0.00     0.023 H 
ATOM     15  H   LIG d   1       7.128  -1.631  -7.793  0.00  0.00     0.023 H 
ATOM     16  H   LIG d   1       8.489  -1.570  -8.938  0.00  0.00     0.023 H 
ENDBRANCH  10  13
ENDBRANCH   8  10
BRANCH   7  17
ATOM     17  C   LIG d   1       8.306   0.923  -5.645  0.00  0.00     0.040 C 
ATOM     18  H   LIG d   1       7.379   1.458  -5.848  0.00  0.00     0.051 H 
ATOM     19  H   LIG d   1       8.821   0.718  -6.584  0.00  0.00     0.051 H 
BRANCH  17  20
ATOM     20  C   LIG d   1       9.190   1.764  -4.760  0.00  0.00    -0.030 A 
ATOM     21  C   LIG d   1      10.479   1.353  -4.482  0.00  0.00    -0.054 A 
ATOM     22  C   LIG d   1      11.291   2.121  -3.670  0.00  0.00    -0.020 A 
ATOM     23  H   LIG d   1      10.853   0.429  -4.900  0.00  0.00     0.062 H 
ATOM     24  C   LIG d   1      10.810   3.307  -3.134  0.00  0.00     0.120 A 
ATOM     25  H   LIG d   1      12.299   1.799  -3.454  0.00  0.00     0.065 H 
ATOM     26  C   LIG d   1       9.516   3.717  -3.414  0.00  0.00    -0.020 A 
ATOM     27  C   LIG d   1       8.708   2.945  -4.226  0.00  0.00    -0.054 A 
ATOM     28  H   LIG d   1       9.140   4.642  -3.001  0.00  0.00     0.065 H 
ATOM     29  H   LIG d   1       7.699   3.264  -4.445  0.00  0.00     0.062 H 
BRANCH  24  30
ATOM     30  O   LIG d   1      11.607   4.065  -2.335  0.00  0.00    -0.495 OA
BRANCH  30  31
ATOM     31  C   LIG d   1      10.974   5.111  -1.593  0.00  0.00     0.079 C 
ATOM     32  H   LIG d   1      10.426   5.759  -2.275  0.00  0.00     0.066 H 
ATOM     33  H   LIG d   1      10.284   4.677  -0.870  0.00  0.00     0.066 H 
ATOM     34  H   LIG d   1      11.732   5.693  -1.068  0.00  0.00     0.066 H 
ENDBRANCH  30  31
ENDBRANCH  24  30
ENDBRANCH  17  20
ENDBRANCH   7  17
ENDBRANCH   4   7
ENDBRANCH   1   4
BRANCH   1  35
ATOM     35  C   LIG d   1       4.941  -0.833  -3.996  0.00  0.00    -0.012 C 
ATOM     36  H   LIG d   1       5.442  -1.801  -3.973  0.00  0.00     0.035 H 
BRANCH  35  37
ATOM     37  C   LIG d   1       4.285  -0.641  -5.339  0.00  0.00    -0.044 A 
ATOM     38  C   LIG d   1       4.765  -1.316  -6.446  0.00  0.00    -0.055 A 
ATOM     39  C   LIG d   1       4.166  -1.141  -7.677  0.00  0.00    -0.020 A 
ATOM     40  H   LIG d   1       5.611  -1.980  -6.347  0.00  0.00     0.062 H 
ATOM     41  C   LIG d   1       3.080  -0.286  -7.804  0.00  0.00     0.121 A 
ATOM     42  H   LIG d   1       4.541  -1.669  -8.541  0.00  0.00     0.065 H 
ATOM     43  C   LIG d   1       2.599   0.391  -6.692  0.00  0.00    -0.020 A 
ATOM     44  C   LIG d   1       3.199   0.208  -5.461  0.00  0.00    -0.055 A 
ATOM     45  H   LIG d   1       1.755   1.057  -6.789  0.00  0.00     0.065 H 
ATOM     46  H   LIG d   1       2.823   0.730  -4.594  0.00  0.00     0.062 H 
BRANCH  41  47
ATOM     47  O   LIG d   1       2.487  -0.114  -9.014  0.00  0.00    -0.489 OA
BRANCH  47  48
ATOM     48  C   LIG d   1       3.349   0.022 -10.147  0.00  0.00     0.095 C 
ATOM     49  H   LIG d   1       4.265  -0.543  -9.974  0.00  0.00     0.073 H 
BRANCH  48  50
ATOM     50  C   LIG d   1       2.643  -0.518 -11.392  0.00  0.00    -0.028 C 
ATOM     51  H   LIG d   1       2.150   0.301 -11.913  0.00  0.00     0.026 H 
ATOM     52  H   LIG d   1       3.376  -0.981 -12.052  0.00  0.00     0.026 H 
ATOM     53  H   LIG d   1       1.901  -1.261 -11.096  0.00  0.00     0.026 H 
ENDBRANCH  48  50
BRANCH  48  54
ATOM     54  C   LIG d   1       3.691   1.498 -10.353  0.00  0.00    -0.028 C 
ATOM     55  H   LIG d   1       3.359   1.813 -11.343  0.00  0.00     0.026 H 
ATOM     56  H   LIG d   1       3.187   2.098  -9.594  0.00  0.00     0.026 H 
ATOM     57  H   LIG d   1       4.768   1.638 -10.270  0.00  0.00     0.026 H 
ENDBRANCH  48  54
ENDBRANCH  47  48
ENDBRANCH  41  47
ENDBRANCH  35  37
BRANCH  35  58
ATOM     58  C   LIG d   1       3.878  -0.782  -2.897  0.00  0.00    -0.040 C 
ATOM     59  H   LIG d   1       2.918  -0.506  -3.333  0.00  0.00     0.030 H 
BRANCH  58  60
ATOM     60  C   LIG d   1       3.761  -2.157  -2.237  0.00  0.00    -0.062 C 
ATOM     61  H   LIG d   1       3.270  -2.848  -2.921  0.00  0.00     0.023 H 
ATOM     62  H   LIG d   1       4.756  -2.531  -1.994  0.00  0.00     0.023 H 
ATOM     63  H   LIG d   1       3.172  -2.073  -1.323  0.00  0.00     0.023 H 
ENDBRANCH  58  60
BRANCH  58  64
ATOM     64  C   LIG d   1       4.279   0.255  -1.847  0.00  0.00    -0.062 C 
ATOM     65  H   LIG d   1       4.902  -0.218  -1.088  0.00  0.00     0.023 H 
ATOM     66  H   LIG d   1       4.837   1.060  -2.325  0.00  0.00     0.023 H 
ATOM     67  H   LIG d   1       3.383   0.662  -1.378  0.00  0.00     0.023 H 
ENDBRANCH  58  64
ENDBRANCH  35  58
ENDBRANCH   1  35
TORSDOF 17
ENDMDL
MODEL 6
REMARK VINA RESULT:      -4.8      3.065      5.620
REMARK  17 active torsions:
REMARK  status: ('A' for Active; 'I' for Inactive)
REMARK    1  A    between atoms: C_1  and  C_2 
REMARK    2  A    between atoms: C_2  and  C_3 
REMARK       I    between atoms: C_3  and  N_5 
REMARK    3  A    between atoms: N_5  and  C_6 
REMARK    4  A    between atoms: N_5  and  C_23 
REMARK    5  A    between atoms: C_6  and  C_7 
REMARK    6  A    between atoms: C_7  and  C_8 
REMARK    7  A    between atoms: C_8  and  C_10 
REMARK    8  A    between atoms: C_8  and  C_20 
REMARK    9  A    between atoms: C_13  and  O_16 
REMARK   10  A    between atoms: O_16  and  C_17 
REMARK   11  A    between atoms: C_17  and  C_18 
REMARK   12  A    between atoms: C_17  and  C_19 
REMARK   13  A    between atoms: C_20  and  C_21 
REMARK   14  A    between atoms: C_20  and  C_22 
REMARK   15  A    between atoms: C_23  and  C_24 
REMARK   16  A    between atoms: C_27  and  O_30 
REMARK   17  A    between atoms: O_30  and  C_31 
ROOT
ATOM      1  C   LIG d   1       5.274  -5.119  -7.363  0.00  0.00    -0.030 C 
ATOM      2  H   LIG d   1       5.734  -5.863  -8.013  0.00  0.00     0.029 H 
ATOM      3  H   LIG d   1       5.739  -4.148  -7.534  0.00  0.00     0.029 H 
ENDROOT
BRANCH   1   4
ATOM      4  C   LIG d   1       3.777  -5.029  -7.672  0.00  0.00     0.016 C 
ATOM      5  H   LIG d   1       3.282  -4.443  -6.898  0.00  0.00     0.046 H 
ATOM      6  H   LIG d   1       3.352  -6.033  -7.697  0.00  0.00     0.046 H 
BRANCH   4   7
ATOM      7  N   LIG d   1       3.585  -4.384  -8.973  0.00  0.00    -0.297 N 
ATOM      8  C   LIG d   1       2.659  -4.858  -9.829  0.00  0.00     0.216 C 
ATOM      9  O   LIG d   1       1.922  -5.759  -9.488  0.00  0.00    -0.276 OA
BRANCH   8  10
ATOM     10  C   LIG d   1       2.539  -4.268 -11.212  0.00  0.00     0.021 C 
ATOM     11  H   LIG d   1       3.344  -3.551 -11.371  0.00  0.00     0.036 H 
ATOM     12  H   LIG d   1       2.610  -5.064 -11.953  0.00  0.00     0.036 H 
BRANCH  10  13
ATOM     13  C   LIG d   1       1.191  -3.561 -11.349  0.00  0.00    -0.057 C 
ATOM     14  H   LIG d   1       0.663  -3.595 -10.395  0.00  0.00     0.023 H 
ATOM     15  H   LIG d   1       1.352  -2.523 -11.639  0.00  0.00     0.023 H 
ATOM     16  H   LIG d   1       0.593  -4.062 -12.110  0.00  0.00     0.023 H 
ENDBRANCH  10  13
ENDBRANCH   8  10
BRANCH   7  17
ATOM     17  C   LIG d   1       4.400  -3.223  -9.342  0.00  0.00     0.040 C 
ATOM     18  H   LIG d   1       4.248  -2.993 -10.396  0.00  0.00     0.051 H 
ATOM     19  H   LIG d   1       5.452  -3.449  -9.168  0.00  0.00     0.051 H 
BRANCH  17  20
ATOM     20  C   LIG d   1       3.994  -2.039  -8.503  0.00  0.00    -0.030 A 
ATOM     21  C   LIG d   1       4.794  -1.631  -7.453  0.00  0.00    -0.054 A 
ATOM     22  C   LIG d   1       4.424  -0.547  -6.682  0.00  0.00    -0.020 A 
ATOM     23  H   LIG d   1       5.710  -2.161  -7.234  0.00  0.00     0.062 H 
ATOM     24  C   LIG d   1       3.247   0.134  -6.962  0.00  0.00     0.120 A 
ATOM     25  H   LIG d   1       5.049  -0.228  -5.861  0.00  0.00     0.065 H 
ATOM     26  C   LIG d   1       2.446  -0.278  -8.017  0.00  0.00    -0.020 A 
ATOM     27  C   LIG d   1       2.821  -1.363  -8.785  0.00  0.00    -0.054 A 
ATOM     28  H   LIG d   1       1.532   0.253  -8.241  0.00  0.00     0.065 H 
ATOM     29  H   LIG d   1       2.198  -1.684  -9.607  0.00  0.00     0.062 H 
BRANCH  24  30
ATOM     30  O   LIG d   1       2.881   1.202  -6.206  0.00  0.00    -0.495 OA
BRANCH  30  31
ATOM     31  C   LIG d   1       2.429   0.930  -4.877  0.00  0.00     0.079 C 
ATOM     32  H   LIG d   1       1.344   1.020  -4.837  0.00  0.00     0.066 H 
ATOM     33  H   LIG d   1       2.721  -0.081  -4.593  0.00  0.00     0.066 H 
ATOM     34  H   LIG d   1       2.879   1.645  -4.188  0.00  0.00     0.066 H 
ENDBRANCH  30  31
ENDBRANCH  24  30
ENDBRANCH  17  20
ENDBRANCH   7  17
ENDBRANCH   4   7
ENDBRANCH   1   4
BRANCH   1  35
ATOM     35  C   LIG d   1       5.470  -5.529  -5.902  0.00  0.00    -0.012 C 
ATOM     36  H   LIG d   1       4.580  -6.051  -5.548  0.00  0.00     0.035 H 
BRANCH  35  37
ATOM     37  C   LIG d   1       5.698  -4.299  -5.061  0.00  0.00    -0.044 A 
ATOM     38  C   LIG d   1       6.971  -3.778  -4.930  0.00  0.00    -0.055 A 
ATOM     39  C   LIG d   1       7.182  -2.652  -4.159  0.00  0.00    -0.020 A 
ATOM     40  H   LIG d   1       7.802  -4.253  -5.429  0.00  0.00     0.062 H 
ATOM     41  C   LIG d   1       6.114  -2.042  -3.516  0.00  0.00     0.121 A 
ATOM     42  H   LIG d   1       8.177  -2.245  -4.057  0.00  0.00     0.065 H 
ATOM     43  C   LIG d   1       4.836  -2.566  -3.649  0.00  0.00    -0.020 A 
ATOM     44  C   LIG d   1       4.630  -3.691  -4.426  0.00  0.00    -0.055 A 
ATOM     45  H   LIG d   1       4.004  -2.094  -3.149  0.00  0.00     0.065 H 
ATOM     46  H   LIG d   1       3.635  -4.096  -4.534  0.00  0.00     0.062 H 
BRANCH  41  47
ATOM     47  O   LIG d   1       6.319  -0.933  -2.759  0.00  0.00    -0.489 OA
BRANCH  47  48
ATOM     48  C   LIG d   1       5.673   0.270  -3.182  0.00  0.00     0.095 C 
ATOM     49  H   LIG d   1       5.021   0.053  -4.027  0.00  0.00     0.073 H 
BRANCH  48  50
ATOM     50  C   LIG d   1       4.843   0.835  -2.028  0.00  0.00    -0.028 C 
ATOM     51  H   LIG d   1       3.924   0.260  -1.926  0.00  0.00     0.026 H 
ATOM     52  H   LIG d   1       5.416   0.771  -1.103  0.00  0.00     0.026 H 
ATOM     53  H   LIG d   1       4.599   1.878  -2.233  0.00  0.00     0.026 H 
ENDBRANCH  48  50
BRANCH  48  54
ATOM     54  C   LIG d   1       6.728   1.295  -3.601  0.00  0.00    -0.028 C 
ATOM     55  H   LIG d   1       6.249   2.106  -4.150  0.00  0.00     0.026 H 
ATOM     56  H   LIG d   1       7.217   1.697  -2.713  0.00  0.00     0.026 H 
ATOM     57  H   LIG d   1       7.470   0.814  -4.238  0.00  0.00     0.026 H 
ENDBRANCH  48  54
ENDBRANCH  47  48
ENDBRANCH  41  47
ENDBRANCH  35  37
BRANCH  35  58
ATOM     58  C   LIG d   1       6.682  -6.455  -5.790  0.00  0.00    -0.040 C 
ATOM     59  H   LIG d   1       7.439  -5.988  -5.160  0.00  0.00     0.030 H 
BRANCH  58  60
ATOM     60  C   LIG d   1       6.253  -7.786  -5.169  0.00  0.00    -0.062 C 
ATOM     61  H   LIG d   1       5.226  -8.006  -5.458  0.00  0.00     0.023 H 
ATOM     62  H   LIG d   1       6.909  -8.581  -5.522  0.00  0.00     0.023 H 
ATOM     63  H   LIG d   1       6.317  -7.717  -4.083  0.00  0.00     0.023 H 
ENDBRANCH  58  60
BRANCH  58  64
ATOM     64  C   LIG d   1       7.263  -6.706  -7.183  0.00  0.00    -0.062 C 
ATOM     65  H   LIG d   1       7.073  -5.841  -7.818  0.00  0.00     0.023 H 
ATOM     66  H   LIG d   1       8.337  -6.870  -7.105  0.00  0.00     0.023 H 
ATOM     67  H   LIG d   1       6.791  -7.587  -7.619  0.00  0.00     0.023 H 
ENDBRANCH  58  64
ENDBRANCH  35  58
ENDBRANCH   1  35
TORSDOF 17
ENDMDL
MODEL 7
REMARK VINA RESULT:      -4.8      5.092      7.846
REMARK  17 active torsions:
REMARK  status: ('A' for Active; 'I' for Inactive)
REMARK    1  A    between atoms: C_1  and  C_2 
REMARK    2  A    between atoms: C_2  and  C_3 
REMARK       I    between atoms: C_3  and  N_5 
REMARK    3  A    between atoms: N_5  and  C_6 
REMARK    4  A    between atoms: N_5  and  C_23 
REMARK    5  A    between atoms: C_6  and  C_7 
REMARK    6  A    between atoms: C_7  and  C_8 
REMARK    7  A    between atoms: C_8  and  C_10 
REMARK    8  A    between atoms: C_8  and  C_20 
REMARK    9  A    between atoms: C_13  and  O_16 
REMARK   10  A    between atoms: O_16  and  C_17 
REMARK   11  A    between atoms: C_17  and  C_18 
REMARK   12  A    between atoms: C_17  and  C_19 
REMARK   13  A    between atoms: C_20  and  C_21 
REMARK   14  A    between atoms: C_20  and  C_22 
REMARK   15  A    between atoms: C_23  and  C_24 
REMARK   16  A    between atoms: C_27  and  O_30 
REMARK   17  A    between atoms: O_30  and  C_31 
ROOT
ATOM      1  C   LIG d   1       7.861   2.243  -4.695  0.00  0.00    -0.030 C 
ATOM      2  H   LIG d   1       7.580   1.714  -5.605  0.00  0.00     0.029 H 
ATOM      3  H   LIG d   1       7.262   3.150  -4.601  0.00  0.00     0.029 H 
ENDROOT
BRANCH   1   4
ATOM      4  C   LIG d   1       7.614   1.340  -3.484  0.00  0.00     0.016 C 
ATOM      5  H   LIG d   1       7.403   1.956  -2.610  0.00  0.00     0.046 H 
ATOM      6  H   LIG d   1       8.501   0.735  -3.297  0.00  0.00     0.046 H 
BRANCH   4   7
ATOM      7  N   LIG d   1       6.471   0.464  -3.753  0.00  0.00    -0.297 N 
ATOM      8  C   LIG d   1       5.396   0.491  -2.941  0.00  0.00     0.216 C 
ATOM      9  O   LIG d   1       5.334   1.304  -2.044  0.00  0.00    -0.276 OA
BRANCH   8  10
ATOM     10  C   LIG d   1       4.270  -0.490  -3.149  0.00  0.00     0.021 C 
ATOM     11  H   LIG d   1       3.318   0.039  -3.121  0.00  0.00     0.036 H 
ATOM     12  H   LIG d   1       4.387  -0.978  -4.117  0.00  0.00     0.036 H 
BRANCH  10  13
ATOM     13  C   LIG d   1       4.301  -1.543  -2.041  0.00  0.00    -0.057 C 
ATOM     14  H   LIG d   1       4.517  -1.061  -1.087  0.00  0.00     0.023 H 
ATOM     15  H   LIG d   1       3.334  -2.042  -1.985  0.00  0.00     0.023 H 
ATOM     16  H   LIG d   1       5.077  -2.277  -2.258  0.00  0.00     0.023 H 
ENDBRANCH  10  13
ENDBRANCH   8  10
BRANCH   7  17
ATOM     17  C   LIG d   1       6.499  -0.441  -4.905  0.00  0.00     0.040 C 
ATOM     18  H   LIG d   1       6.654   0.135  -5.817  0.00  0.00     0.051 H 
ATOM     19  H   LIG d   1       5.550  -0.974  -4.970  0.00  0.00     0.051 H 
BRANCH  17  20
ATOM     20  C   LIG d   1       7.622  -1.432  -4.738  0.00  0.00    -0.030 A 
ATOM     21  C   LIG d   1       8.761  -1.321  -5.512  0.00  0.00    -0.054 A 
ATOM     22  C   LIG d   1       9.791  -2.229  -5.361  0.00  0.00    -0.020 A 
ATOM     23  H   LIG d   1       8.846  -0.523  -6.236  0.00  0.00     0.062 H 
ATOM     24  C   LIG d   1       9.682  -3.253  -4.432  0.00  0.00     0.120 A 
ATOM     25  H   LIG d   1      10.681  -2.141  -5.967  0.00  0.00     0.065 H 
ATOM     26  C   LIG d   1       8.537  -3.363  -3.657  0.00  0.00    -0.020 A 
ATOM     27  C   LIG d   1       7.510  -2.452  -3.811  0.00  0.00    -0.054 A 
ATOM     28  H   LIG d   1       8.451  -4.156  -2.929  0.00  0.00     0.065 H 
ATOM     29  H   LIG d   1       6.618  -2.537  -3.208  0.00  0.00     0.062 H 
BRANCH  24  30
ATOM     30  O   LIG d   1      10.694  -4.147  -4.282  0.00  0.00    -0.495 OA
BRANCH  30  31
ATOM     31  C   LIG d   1      10.851  -4.738  -2.989  0.00  0.00     0.079 C 
ATOM     32  H   LIG d   1      11.818  -4.455  -2.576  0.00  0.00     0.066 H 
ATOM     33  H   LIG d   1      10.057  -4.387  -2.331  0.00  0.00     0.066 H 
ATOM     34  H   LIG d   1      10.797  -5.823  -3.078  0.00  0.00     0.066 H 
ENDBRANCH  30  31
ENDBRANCH  24  30
ENDBRANCH  17  20
ENDBRANCH   7  17
ENDBRANCH   4   7
ENDBRANCH   1   4
BRANCH   1  35
ATOM     35  C   LIG d   1       9.344   2.615  -4.760  0.00  0.00    -0.012 C 
ATOM     36  H   LIG d   1       9.931   1.860  -4.236  0.00  0.00     0.035 H 
BRANCH  35  37
ATOM     37  C   LIG d   1       9.555   3.957  -4.106  0.00  0.00    -0.044 A 
ATOM     38  C   LIG d   1       9.240   5.116  -4.791  0.00  0.00    -0.055 A 
ATOM     39  C   LIG d   1       9.433   6.346  -4.195  0.00  0.00    -0.020 A 
ATOM     40  H   LIG d   1       8.844   5.059  -5.794  0.00  0.00     0.062 H 
ATOM     41  C   LIG d   1       9.943   6.419  -2.906  0.00  0.00     0.121 A 
ATOM     42  H   LIG d   1       9.186   7.251  -4.730  0.00  0.00     0.065 H 
ATOM     43  C   LIG d   1      10.258   5.255  -2.220  0.00  0.00    -0.020 A 
ATOM     44  C   LIG d   1      10.058   4.026  -2.820  0.00  0.00    -0.055 A 
ATOM     45  H   LIG d   1      10.656   5.309  -1.218  0.00  0.00     0.065 H 
ATOM     46  H   LIG d   1      10.298   3.119  -2.285  0.00  0.00     0.062 H 
BRANCH  41  47
ATOM     47  O   LIG d   1      10.132   7.628  -2.316  0.00  0.00    -0.489 OA
BRANCH  47  48
ATOM     48  C   LIG d   1       9.681   7.770  -0.967  0.00  0.00     0.095 C 
ATOM     49  H   LIG d   1       9.191   6.850  -0.651  0.00  0.00     0.073 H 
BRANCH  48  50
ATOM     50  C   LIG d   1      10.878   8.051  -0.057  0.00  0.00    -0.028 C 
ATOM     51  H   LIG d   1      10.648   8.890   0.598  0.00  0.00     0.026 H 
ATOM     52  H   LIG d   1      11.090   7.167   0.545  0.00  0.00     0.026 H 
ATOM     53  H   LIG d   1      11.750   8.293  -0.667  0.00  0.00     0.026 H 
ENDBRANCH  48  50
BRANCH  48  54
ATOM     54  C   LIG d   1       8.690   8.932  -0.880  0.00  0.00    -0.028 C 
ATOM     55  H   LIG d   1       9.218   9.873  -1.046  0.00  0.00     0.026 H 
ATOM     56  H   LIG d   1       7.919   8.810  -1.642  0.00  0.00     0.026 H 
ATOM     57  H   LIG d   1       8.228   8.944   0.106  0.00  0.00     0.026 H 
ENDBRANCH  48  54
ENDBRANCH  47  48
ENDBRANCH  41  47
ENDBRANCH  35  37
BRANCH  35  58
ATOM     58  C   LIG d   1       9.788   2.684  -6.222  0.00  0.00    -0.040 C 
ATOM     59  H   LIG d   1       9.996   3.720  -6.490  0.00  0.00     0.030 H 
BRANCH  58  60
ATOM     60  C   LIG d   1      11.055   1.847  -6.410  0.00  0.00    -0.062 C 
ATOM     61  H   LIG d   1      11.405   1.943  -7.438  0.00  0.00     0.023 H 
ATOM     62  H   LIG d   1      11.829   2.199  -5.728  0.00  0.00     0.023 H 
ATOM     63  H   LIG d   1      10.834   0.800  -6.200  0.00  0.00     0.023 H 
ENDBRANCH  58  60
BRANCH  58  64
ATOM     64  C   LIG d   1       8.678   2.137  -7.120  0.00  0.00    -0.062 C 
ATOM     65  H   LIG d   1       9.106   1.453  -7.852  0.00  0.00     0.023 H 
ATOM     66  H   LIG d   1       7.946   1.606  -6.511  0.00  0.00     0.023 H 
ATOM     67  H   LIG d   1       8.190   2.963  -7.638  0.00  0.00     0.023 H 
ENDBRANCH  58  64
ENDBRANCH  35  58
ENDBRANCH   1  35
TORSDOF 17
ENDMDL
MODEL 8
REMARK VINA RESULT:      -4.7      3.224      5.762
REMARK  17 active torsions:
REMARK  status: ('A' for Active; 'I' for Inactive)
REMARK    1  A    between atoms: C_1  and  C_2 
REMARK    2  A    between atoms: C_2  and  C_3 
REMARK       I    between atoms: C_3  and  N_5 
REMARK    3  A    between atoms: N_5  and  C_6 
REMARK    4  A    between atoms: N_5  and  C_23 
REMARK    5  A    between atoms: C_6  and  C_7 
REMARK    6  A    between atoms: C_7  and  C_8 
REMARK    7  A    between atoms: C_8  and  C_10 
REMARK    8  A    between atoms: C_8  and  C_20 
REMARK    9  A    between atoms: C_13  and  O_16 
REMARK   10  A    between atoms: O_16  and  C_17 
REMARK   11  A    between atoms: C_17  and  C_18 
REMARK   12  A    between atoms: C_17  and  C_19 
REMARK   13  A    between atoms: C_20  and  C_21 
REMARK   14  A    between atoms: C_20  and  C_22 
REMARK   15  A    between atoms: C_23  and  C_24 
REMARK   16  A    between atoms: C_27  and  O_30 
REMARK   17  A    between atoms: O_30  and  C_31 
ROOT
ATOM      1  C   LIG d   1       6.127  -3.275  -4.687  0.00  0.00    -0.030 C 
ATOM      2  H   LIG d   1       6.741  -2.376  -4.723  0.00  0.00     0.029 H 
ATOM      3  H   LIG d   1       6.414  -3.880  -3.827  0.00  0.00     0.029 H 
ENDROOT
BRANCH   1   4
ATOM      4  C   LIG d   1       4.653  -2.880  -4.564  0.00  0.00     0.016 C 
ATOM      5  H   LIG d   1       4.181  -3.479  -3.785  0.00  0.00     0.046 H 
ATOM      6  H   LIG d   1       4.150  -3.058  -5.514  0.00  0.00     0.046 H 
BRANCH   4   7
ATOM      7  N   LIG d   1       4.556  -1.460  -4.218  0.00  0.00    -0.297 N 
ATOM      8  C   LIG d   1       3.870  -1.081  -3.122  0.00  0.00     0.216 C 
ATOM      9  O   LIG d   1       3.412  -1.917  -2.372  0.00  0.00    -0.276 OA
BRANCH   8  10
ATOM     10  C   LIG d   1       3.671   0.385  -2.828  0.00  0.00     0.021 C 
ATOM     11  H   LIG d   1       3.927   0.970  -3.711  0.00  0.00     0.036 H 
ATOM     12  H   LIG d   1       2.629   0.564  -2.562  0.00  0.00     0.036 H 
BRANCH  10  13
ATOM     13  C   LIG d   1       4.573   0.798  -1.664  0.00  0.00    -0.057 C 
ATOM     14  H   LIG d   1       4.237   0.307  -0.751  0.00  0.00     0.023 H 
ATOM     15  H   LIG d   1       5.601   0.503  -1.878  0.00  0.00     0.023 H 
ATOM     16  H   LIG d   1       4.525   1.879  -1.533  0.00  0.00     0.023 H 
ENDBRANCH  10  13
ENDBRANCH   8  10
BRANCH   7  17
ATOM     17  C   LIG d   1       5.204  -0.454  -5.063  0.00  0.00     0.040 C 
ATOM     18  H   LIG d   1       6.262  -0.693  -5.165  0.00  0.00     0.051 H 
ATOM     19  H   LIG d   1       5.097   0.528  -4.604  0.00  0.00     0.051 H 
BRANCH  17  20
ATOM     20  C   LIG d   1       4.555  -0.448  -6.423  0.00  0.00    -0.030 A 
ATOM     21  C   LIG d   1       5.276  -0.842  -7.533  0.00  0.00    -0.054 A 
ATOM     22  C   LIG d   1       4.684  -0.836  -8.781  0.00  0.00    -0.020 A 
ATOM     23  H   LIG d   1       6.305  -1.156  -7.426  0.00  0.00     0.062 H 
ATOM     24  C   LIG d   1       3.363  -0.434  -8.919  0.00  0.00     0.120 A 
ATOM     25  H   LIG d   1       5.249  -1.144  -9.649  0.00  0.00     0.065 H 
ATOM     26  C   LIG d   1       2.642  -0.038  -7.803  0.00  0.00    -0.020 A 
ATOM     27  C   LIG d   1       3.239  -0.046  -6.558  0.00  0.00    -0.054 A 
ATOM     28  H   LIG d   1       1.612   0.272  -7.907  0.00  0.00     0.065 H 
ATOM     29  H   LIG d   1       2.678   0.262  -5.687  0.00  0.00     0.062 H 
BRANCH  24  30
ATOM     30  O   LIG d   1       2.778  -0.427 -10.146  0.00  0.00    -0.495 OA
BRANCH  30  31
ATOM     31  C   LIG d   1       1.411  -0.840 -10.214  0.00  0.00     0.079 C 
ATOM     32  H   LIG d   1       1.238  -1.368 -11.152  0.00  0.00     0.066 H 
ATOM     33  H   LIG d   1       1.189  -1.502  -9.378  0.00  0.00     0.066 H 
ATOM     34  H   LIG d   1       0.765   0.037 -10.166  0.00  0.00     0.066 H 
ENDBRANCH  30  31
ENDBRANCH  24  30
ENDBRANCH  17  20
ENDBRANCH   7  17
ENDBRANCH   4   7
ENDBRANCH   1   4
BRANCH   1  35
ATOM     35  C   LIG d   1       6.332  -4.084  -5.970  0.00  0.00    -0.012 C 
ATOM     36  H   LIG d   1       5.574  -3.804  -6.702  0.00  0.00     0.035 H 
BRANCH  35  37
ATOM     37  C   LIG d   1       6.215  -5.555  -5.662  0.00  0.00    -0.044 A 
ATOM     38  C   LIG d   1       7.338  -6.278  -5.308  0.00  0.00    -0.055 A 
ATOM     39  C   LIG d   1       7.232  -7.626  -5.026  0.00  0.00    -0.020 A 
ATOM     40  H   LIG d   1       8.299  -5.789  -5.253  0.00  0.00     0.062 H 
ATOM     41  C   LIG d   1       5.997  -8.254  -5.098  0.00  0.00     0.121 A 
ATOM     42  H   LIG d   1       8.110  -8.190  -4.749  0.00  0.00     0.065 H 
ATOM     43  C   LIG d   1       4.871  -7.526  -5.454  0.00  0.00    -0.020 A 
ATOM     44  C   LIG d   1       4.981  -6.176  -5.729  0.00  0.00    -0.055 A 
ATOM     45  H   LIG d   1       3.909  -8.013  -5.511  0.00  0.00     0.065 H 
ATOM     46  H   LIG d   1       4.104  -5.608  -6.001  0.00  0.00     0.062 H 
BRANCH  41  47
ATOM     47  O   LIG d   1       5.890  -9.580  -4.819  0.00  0.00    -0.489 OA
BRANCH  47  48
ATOM     48  C   LIG d   1       4.650 -10.029  -4.269  0.00  0.00     0.095 C 
ATOM     49  H   LIG d   1       3.910  -9.234  -4.347  0.00  0.00     0.073 H 
BRANCH  48  50
ATOM     50  C   LIG d   1       4.165 -11.256  -5.043  0.00  0.00    -0.028 C 
ATOM     51  H   LIG d   1       3.465 -11.820  -4.428  0.00  0.00     0.026 H 
ATOM     52  H   LIG d   1       3.668 -10.934  -5.958  0.00  0.00     0.026 H 
ATOM     53  H   LIG d   1       5.018 -11.887  -5.296  0.00  0.00     0.026 H 
ENDBRANCH  48  50
BRANCH  48  54
ATOM     54  C   LIG d   1       4.849 -10.400  -2.798  0.00  0.00    -0.028 C 
ATOM     55  H   LIG d   1       5.912 -10.369  -2.557  0.00  0.00     0.026 H 
ATOM     56  H   LIG d   1       4.313  -9.688  -2.169  0.00  0.00     0.026 H 
ATOM     57  H   LIG d   1       4.465 -11.404  -2.621  0.00  0.00     0.026 H 
ENDBRANCH  48  54
ENDBRANCH  47  48
ENDBRANCH  41  47
ENDBRANCH  35  37
BRANCH  35  58
ATOM     58  C   LIG d   1       7.722  -3.791  -6.540  0.00  0.00    -0.040 C 
ATOM     59  H   LIG d   1       8.402  -4.600  -6.271  0.00  0.00     0.030 H 
BRANCH  58  60
ATOM     60  C   LIG d   1       7.637  -3.684  -8.063  0.00  0.00    -0.062 C 
ATOM     61  H   LIG d   1       8.615  -3.891  -8.497  0.00  0.00     0.023 H 
ATOM     62  H   LIG d   1       6.912  -4.405  -8.439  0.00  0.00     0.023 H 
ATOM     63  H   LIG d   1       7.324  -2.676  -8.340  0.00  0.00     0.023 H 
ENDBRANCH  58  60
BRANCH  58  64
ATOM     64  C   LIG d   1       8.243  -2.473  -5.964  0.00  0.00    -0.062 C 
ATOM     65  H   LIG d   1       7.402  -1.866  -5.628  0.00  0.00     0.023 H 
ATOM     66  H   LIG d   1       8.901  -2.679  -5.120  0.00  0.00     0.023 H 
ATOM     67  H   LIG d   1       8.795  -1.934  -6.733  0.00  0.00     0.023 H 
ENDBRANCH  58  64
ENDBRANCH  35  58
ENDBRANCH   1  35
TORSDOF 17
ENDMDL
MODEL 9
REMARK VINA RESULT:      -4.7      2.179      5.813
REMARK  17 active torsions:
REMARK  status: ('A' for Active; 'I' for Inactive)
REMARK    1  A    between atoms: C_1  and  C_2 
REMARK    2  A    between atoms: C_2  and  C_3 
REMARK       I    between atoms: C_3  and  N_5 
REMARK    3  A    between atoms: N_5  and  C_6 
REMARK    4  A    between atoms: N_5  and  C_23 
REMARK    5  A    between atoms: C_6  and  C_7 
REMARK    6  A    between atoms: C_7  and  C_8 
REMARK    7  A    between atoms: C_8  and  C_10 
REMARK    8  A    between atoms: C_8  and  C_20 
REMARK    9  A    between atoms: C_13  and  O_16 
REMARK   10  A    between atoms: O_16  and  C_17 
REMARK   11  A    between atoms: C_17  and  C_18 
REMARK   12  A    between atoms: C_17  and  C_19 
REMARK   13  A    between atoms: C_20  and  C_21 
REMARK   14  A    between atoms: C_20  and  C_22 
REMARK   15  A    between atoms: C_23  and  C_24 
REMARK   16  A    between atoms: C_27  and  O_30 
REMARK   17  A    between atoms: O_30  and  C_31 
ROOT
ATOM      1  C   LIG d   1       5.904   0.332  -3.777  0.00  0.00    -0.030 C 
ATOM      2  H   LIG d   1       5.590   0.900  -2.902  0.00  0.00     0.029 H 
ATOM      3  H   LIG d   1       5.974   0.997  -4.638  0.00  0.00     0.029 H 
ENDROOT
BRANCH   1   4
ATOM      4  C   LIG d   1       7.272  -0.301  -3.510  0.00  0.00     0.016 C 
ATOM      5  H   LIG d   1       7.135  -1.294  -3.081  0.00  0.00     0.046 H 
ATOM      6  H   LIG d   1       7.830   0.323  -2.812  0.00  0.00     0.046 H 
BRANCH   4   7
ATOM      7  N   LIG d   1       8.014  -0.410  -4.768  0.00  0.00    -0.297 N 
ATOM      8  C   LIG d   1       8.021   0.621  -5.636  0.00  0.00     0.216 C 
ATOM      9  O   LIG d   1       7.493   1.670  -5.337  0.00  0.00    -0.276 OA
BRANCH   8  10
ATOM     10  C   LIG d   1       8.687   0.468  -6.981  0.00  0.00     0.021 C 
ATOM     11  H   LIG d   1       9.529   1.157  -7.049  0.00  0.00     0.036 H 
ATOM     12  H   LIG d   1       9.044  -0.555  -7.096  0.00  0.00     0.036 H 
BRANCH  10  13
ATOM     13  C   LIG d   1       7.679   0.784  -8.087  0.00  0.00    -0.057 C 
ATOM     14  H   LIG d   1       7.338   1.814  -7.985  0.00  0.00     0.023 H 
ATOM     15  H   LIG d   1       8.153   0.652  -9.060  0.00  0.00     0.023 H 
ATOM     16  H   LIG d   1       6.826   0.110  -8.004  0.00  0.00     0.023 H 
ENDBRANCH  10  13
ENDBRANCH   8  10
BRANCH   7  17
ATOM     17  C   LIG d   1       8.747  -1.639  -5.082  0.00  0.00     0.040 C 
ATOM     18  H   LIG d   1       9.244  -2.005  -4.184  0.00  0.00     0.051 H 
ATOM     19  H   LIG d   1       9.492  -1.430  -5.849  0.00  0.00     0.051 H 
BRANCH  17  20
ATOM     20  C   LIG d   1       7.784  -2.683  -5.586  0.00  0.00    -0.030 A 
ATOM     21  C   LIG d   1       7.684  -2.931  -6.941  0.00  0.00    -0.054 A 
ATOM     22  C   LIG d   1       6.801  -3.886  -7.406  0.00  0.00    -0.020 A 
ATOM     23  H   LIG d   1       8.297  -2.378  -7.639  0.00  0.00     0.062 H 
ATOM     24  C   LIG d   1       6.014  -4.597  -6.511  0.00  0.00     0.120 A 
ATOM     25  H   LIG d   1       6.723  -4.080  -8.466  0.00  0.00     0.065 H 
ATOM     26  C   LIG d   1       6.116  -4.345  -5.151  0.00  0.00    -0.020 A 
ATOM     27  C   LIG d   1       7.001  -3.389  -4.691  0.00  0.00    -0.054 A 
ATOM     28  H   LIG d   1       5.509  -4.900  -4.451  0.00  0.00     0.065 H 
ATOM     29  H   LIG d   1       7.082  -3.192  -3.632  0.00  0.00     0.062 H 
BRANCH  24  30
ATOM     30  O   LIG d   1       5.145  -5.538  -6.966  0.00  0.00    -0.495 OA
BRANCH  30  31
ATOM     31  C   LIG d   1       3.839  -5.088  -7.336  0.00  0.00     0.079 C 
ATOM     32  H   LIG d   1       3.664  -4.097  -6.919  0.00  0.00     0.066 H 
ATOM     33  H   LIG d   1       3.765  -5.044  -8.423  0.00  0.00     0.066 H 
ATOM     34  H   LIG d   1       3.094  -5.783  -6.949  0.00  0.00     0.066 H 
ENDBRANCH  30  31
ENDBRANCH  24  30
ENDBRANCH  17  20
ENDBRANCH   7  17
ENDBRANCH   4   7
ENDBRANCH   1   4
BRANCH   1  35
ATOM     35  C   LIG d   1       4.881  -0.769  -4.065  0.00  0.00    -0.012 C 
ATOM     36  H   LIG d   1       5.384  -1.736  -4.090  0.00  0.00     0.035 H 
BRANCH  35  37
ATOM     37  C   LIG d   1       4.224  -0.510  -5.397  0.00  0.00    -0.044 A 
ATOM     38  C   LIG d   1       4.781  -1.024  -6.553  0.00  0.00    -0.055 A 
ATOM     39  C   LIG d   1       4.181  -0.788  -7.774  0.00  0.00    -0.020 A 
ATOM     40  H   LIG d   1       5.687  -1.610  -6.501  0.00  0.00     0.062 H 
ATOM     41  C   LIG d   1       3.019  -0.034  -7.840  0.00  0.00     0.121 A 
ATOM     42  H   LIG d   1       4.616  -1.191  -8.676  0.00  0.00     0.065 H 
ATOM     43  C   LIG d   1       2.461   0.481  -6.679  0.00  0.00    -0.020 A 
ATOM     44  C   LIG d   1       3.062   0.237  -5.459  0.00  0.00    -0.055 A 
ATOM     45  H   LIG d   1       1.557   1.069  -6.728  0.00  0.00     0.065 H 
ATOM     46  H   LIG d   1       2.626   0.634  -4.554  0.00  0.00     0.062 H 
BRANCH  41  47
ATOM     47  O   LIG d   1       2.425   0.198  -9.041  0.00  0.00    -0.489 OA
BRANCH  47  48
ATOM     48  C   LIG d   1       3.230   0.017 -10.208  0.00  0.00     0.095 C 
ATOM     49  H   LIG d   1       4.067  -0.640  -9.973  0.00  0.00     0.073 H 
BRANCH  48  50
ATOM     50  C   LIG d   1       2.383  -0.612 -11.317  0.00  0.00    -0.028 C 
ATOM     51  H   LIG d   1       1.597   0.082 -11.610  0.00  0.00     0.026 H 
ATOM     52  H   LIG d   1       3.016  -0.829 -12.177  0.00  0.00     0.026 H 
ATOM     53  H   LIG d   1       1.936  -1.537 -10.952  0.00  0.00     0.026 H 
ENDBRANCH  48  50
BRANCH  48  54
ATOM     54  C   LIG d   1       3.761   1.372 -10.677  0.00  0.00    -0.028 C 
ATOM     55  H   LIG d   1       3.662   1.446 -11.761  0.00  0.00     0.026 H 
ATOM     56  H   LIG d   1       3.188   2.170 -10.205  0.00  0.00     0.026 H 
ATOM     57  H   LIG d   1       4.811   1.467 -10.401  0.00  0.00     0.026 H 
ENDBRANCH  48  54
ENDBRANCH  47  48
ENDBRANCH  41  47
ENDBRANCH  35  37
BRANCH  35  58
ATOM     58  C   LIG d   1       3.818  -0.776  -2.965  0.00  0.00    -0.040 C 
ATOM     59  H   LIG d   1       2.842  -0.562  -3.401  0.00  0.00     0.030 H 
BRANCH  58  60
ATOM     60  C   LIG d   1       3.785  -2.151  -2.294  0.00  0.00    -0.062 C 
ATOM     61  H   LIG d   1       3.226  -2.846  -2.920  0.00  0.00     0.023 H 
ATOM     62  H   LIG d   1       4.804  -2.516  -2.165  0.00  0.00     0.023 H 
ATOM     63  H   LIG d   1       3.302  -2.069  -1.320  0.00  0.00     0.023 H 
ENDBRANCH  58  60
BRANCH  58  64
ATOM     64  C   LIG d   1       4.155   0.291  -1.922  0.00  0.00    -0.062 C 
ATOM     65  H   LIG d   1       5.210   0.555  -2.000  0.00  0.00     0.023 H 
ATOM     66  H   LIG d   1       3.546   1.178  -2.098  0.00  0.00     0.023 H 
ATOM     67  H   LIG d   1       3.951  -0.098  -0.925  0.00  0.00     0.023 H 
ENDBRANCH  58  64
ENDBRANCH  35  58
ENDBRANCH   1  35
TORSDOF 17
ENDMDL
MODEL 10
REMARK VINA RESULT:      -4.7      2.542      7.112
REMARK  17 active torsions:
REMARK  status: ('A' for Active; 'I' for Inactive)
REMARK    1  A    between atoms: C_1  and  C_2 
REMARK    2  A    between atoms: C_2  and  C_3 
REMARK       I    between atoms: C_3  and  N_5 
REMARK    3  A    between atoms: N_5  and  C_6 
REMARK    4  A    between atoms: N_5  and  C_23 
REMARK    5  A    between atoms: C_6  and  C_7 
REMARK    6  A    between atoms: C_7  and  C_8 
REMARK    7  A    between atoms: C_8  and  C_10 
REMARK    8  A    between atoms: C_8  and  C_20 
REMARK    9  A    between atoms: C_13  and  O_16 
REMARK   10  A    between atoms: O_16  and  C_17 
REMARK   11  A    between atoms: C_17  and  C_18 
REMARK   12  A    between atoms: C_17  and  C_19 
REMARK   13  A    between atoms: C_20  and  C_21 
REMARK   14  A    between atoms: C_20  and  C_22 
REMARK   15  A    between atoms: C_23  and  C_24 
REMARK   16  A    between atoms: C_27  and  O_30 
REMARK   17  A    between atoms: O_30  and  C_31 
ROOT
ATOM      1  C   LIG d   1       6.680  -1.241  -4.088  0.00  0.00    -0.030 C 
ATOM      2  H   LIG d   1       7.160  -0.345  -3.695  0.00  0.00     0.029 H 
ATOM      3  H   LIG d   1       7.012  -1.415  -5.111  0.00  0.00     0.029 H 
ENDROOT
BRANCH   1   4
ATOM      4  C   LIG d   1       7.057  -2.444  -3.218  0.00  0.00     0.016 C 
ATOM      5  H   LIG d   1       6.160  -3.017  -2.983  0.00  0.00     0.046 H 
ATOM      6  H   LIG d   1       7.517  -2.092  -2.294  0.00  0.00     0.046 H 
BRANCH   4   7
ATOM      7  N   LIG d   1       8.005  -3.293  -3.944  0.00  0.00    -0.297 N 
ATOM      8  C   LIG d   1       9.100  -3.766  -3.318  0.00  0.00     0.216 C 
ATOM      9  O   LIG d   1       9.255  -3.566  -2.132  0.00  0.00    -0.276 OA
BRANCH   8  10
ATOM     10  C   LIG d   1      10.134  -4.543  -4.093  0.00  0.00     0.021 C 
ATOM     11  H   LIG d   1      10.311  -5.500  -3.603  0.00  0.00     0.036 H 
ATOM     12  H   LIG d   1       9.774  -4.715  -5.108  0.00  0.00     0.036 H 
BRANCH  10  13
ATOM     13  C   LIG d   1      11.438  -3.746  -4.143  0.00  0.00    -0.057 C 
ATOM     14  H   LIG d   1      11.306  -2.871  -4.781  0.00  0.00     0.023 H 
ATOM     15  H   LIG d   1      11.707  -3.425  -3.137  0.00  0.00     0.023 H 
ATOM     16  H   LIG d   1      12.232  -4.373  -4.549  0.00  0.00     0.023 H 
ENDBRANCH  10  13
ENDBRANCH   8  10
BRANCH   7  17
ATOM     17  C   LIG d   1       7.760  -3.627  -5.349  0.00  0.00     0.040 C 
ATOM     18  H   LIG d   1       8.705  -3.870  -5.834  0.00  0.00     0.051 H 
ATOM     19  H   LIG d   1       7.303  -2.774  -5.850  0.00  0.00     0.051 H 
BRANCH  17  20
ATOM     20  C   LIG d   1       6.833  -4.813  -5.428  0.00  0.00    -0.030 A 
ATOM     21  C   LIG d   1       7.351  -6.093  -5.457  0.00  0.00    -0.054 A 
ATOM     22  C   LIG d   1       6.504  -7.181  -5.531  0.00  0.00    -0.020 A 
ATOM     23  H   LIG d   1       8.421  -6.243  -5.420  0.00  0.00     0.062 H 
ATOM     24  C   LIG d   1       5.131  -6.989  -5.577  0.00  0.00     0.120 A 
ATOM     25  H   LIG d   1       6.910  -8.182  -5.552  0.00  0.00     0.065 H 
ATOM     26  C   LIG d   1       4.613  -5.702  -5.550  0.00  0.00    -0.020 A 
ATOM     27  C   LIG d   1       5.465  -4.617  -5.475  0.00  0.00    -0.054 A 
ATOM     28  H   LIG d   1       3.544  -5.549  -5.581  0.00  0.00     0.065 H 
ATOM     29  H   LIG d   1       5.063  -3.615  -5.454  0.00  0.00     0.062 H 
BRANCH  24  30
ATOM     30  O   LIG d   1       4.295  -8.058  -5.650  0.00  0.00    -0.495 OA
BRANCH  30  31
ATOM     31  C   LIG d   1       4.665  -9.221  -4.907  0.00  0.00     0.079 C 
ATOM     32  H   LIG d   1       5.544  -9.002  -4.302  0.00  0.00     0.066 H 
ATOM     33  H   LIG d   1       3.841  -9.515  -4.257  0.00  0.00     0.066 H 
ATOM     34  H   LIG d   1       4.891 -10.035  -5.596  0.00  0.00     0.066 H 
ENDBRANCH  30  31
ENDBRANCH  24  30
ENDBRANCH  17  20
ENDBRANCH   7  17
ENDBRANCH   4   7
ENDBRANCH   1   4
BRANCH   1  35
ATOM     35  C   LIG d   1       5.161  -1.056  -4.069  0.00  0.00    -0.012 C 
ATOM     36  H   LIG d   1       4.687  -1.969  -3.709  0.00  0.00     0.035 H 
BRANCH  35  37
ATOM     37  C   LIG d   1       4.674  -0.754  -5.464  0.00  0.00    -0.044 A 
ATOM     38  C   LIG d   1       3.440  -0.160  -5.651  0.00  0.00    -0.055 A 
ATOM     39  C   LIG d   1       2.992   0.117  -6.927  0.00  0.00    -0.020 A 
ATOM     40  H   LIG d   1       2.825   0.087  -4.798  0.00  0.00     0.062 H 
ATOM     41  C   LIG d   1       3.782  -0.201  -8.023  0.00  0.00     0.121 A 
ATOM     42  H   LIG d   1       2.028   0.582  -7.073  0.00  0.00     0.065 H 
ATOM     43  C   LIG d   1       5.020  -0.797  -7.833  0.00  0.00    -0.020 A 
ATOM     44  C   LIG d   1       5.466  -1.067  -6.553  0.00  0.00    -0.055 A 
ATOM     45  H   LIG d   1       5.636  -1.047  -8.684  0.00  0.00     0.065 H 
ATOM     46  H   LIG d   1       6.432  -1.526  -6.404  0.00  0.00     0.062 H 
BRANCH  41  47
ATOM     47  O   LIG d   1       3.344   0.072  -9.280  0.00  0.00    -0.489 OA
BRANCH  47  48
ATOM     48  C   LIG d   1       4.138   0.965 -10.065  0.00  0.00     0.095 C 
ATOM     49  H   LIG d   1       5.180   0.891  -9.753  0.00  0.00     0.073 H 
BRANCH  48  50
ATOM     50  C   LIG d   1       4.020   0.586 -11.542  0.00  0.00    -0.028 C 
ATOM     51  H   LIG d   1       2.968   0.505 -11.813  0.00  0.00     0.026 H 
ATOM     52  H   LIG d   1       4.494   1.355 -12.152  0.00  0.00     0.026 H 
ATOM     53  H   LIG d   1       4.515  -0.370 -11.713  0.00  0.00     0.026 H 
ENDBRANCH  48  50
BRANCH  48  54
ATOM     54  C   LIG d   1       3.645   2.398  -9.863  0.00  0.00    -0.028 C 
ATOM     55  H   LIG d   1       2.824   2.600 -10.552  0.00  0.00     0.026 H 
ATOM     56  H   LIG d   1       3.296   2.521  -8.837  0.00  0.00     0.026 H 
ATOM     57  H   LIG d   1       4.460   3.094 -10.056  0.00  0.00     0.026 H 
ENDBRANCH  48  54
ENDBRANCH  47  48
ENDBRANCH  41  47
ENDBRANCH  35  37
BRANCH  35  58
ATOM     58  C   LIG d   1       4.801   0.106  -3.141  0.00  0.00    -0.040 C 
ATOM     59  H   LIG d   1       3.942   0.641  -3.545  0.00  0.00     0.030 H 
BRANCH  58  60
ATOM     60  C   LIG d   1       4.454  -0.439  -1.754  0.00  0.00    -0.062 C 
ATOM     61  H   LIG d   1       3.431  -0.814  -1.756  0.00  0.00     0.023 H 
ATOM     62  H   LIG d   1       5.137  -1.248  -1.499  0.00  0.00     0.023 H 
ATOM     63  H   LIG d   1       4.545   0.360  -1.016  0.00  0.00     0.023 H 
ENDBRANCH  58  60
BRANCH  58  64
ATOM     64  C   LIG d   1       5.991   1.059  -3.031  0.00  0.00    -0.062 C 
ATOM     65  H   LIG d   1       6.845   0.638  -3.562  0.00  0.00     0.023 H 
ATOM     66  H   LIG d   1       5.729   2.021  -3.470  0.00  0.00     0.023 H 
ATOM     67  H   LIG d   1       6.250   1.198  -1.981  0.00  0.00     0.023 H 
ENDBRANCH  58  64
ENDBRANCH  35  58
ENDBRANCH   1  35
TORSDOF 17
ENDMDL
