MODEL 1
REMARK VINA RESULT:      -6.8      0.000      0.000
REMARK  14 active torsions:
REMARK  status: ('A' for Active; 'I' for Inactive)
REMARK    1  A    between atoms: C_1  and  C_2 
REMARK    2  A    between atoms: C_2  and  O_3 
REMARK    3  A    between atoms: O_3  and  C_4 
REMARK    4  A    between atoms: C_4  and  C_6 
REMARK    5  A    between atoms: C_7  and  C_33 
REMARK    6  A    between atoms: C_12  and  O_15 
REMARK    7  A    between atoms: O_15  and  C_16 
REMARK    8  A    between atoms: C_16  and  C_17 
REMARK       I    between atoms: C_17  and  N_19 
REMARK    9  A    between atoms: N_19  and  N_20 
REMARK       I    between atoms: N_20  and  C_21 
REMARK   10  A    between atoms: C_21  and  C_23 
REMARK   11  A    between atoms: C_26  and  O_31 
REMARK   12  A    between atoms: C_27  and  O_29 
REMARK   13  A    between atoms: O_29  and  C_30 
REMARK   14  A    between atoms: O_31  and  C_32 
ROOT
ATOM      1  C   LIG d   1      10.103   2.666  -3.413  0.00  0.00     0.167 C 
ATOM      2  H   LIG d   1       9.815   2.113  -2.519  0.00  0.00     0.080 H 
ATOM      3  H   LIG d   1      11.126   2.408  -3.686  0.00  0.00     0.080 H 
ENDROOT
BRANCH   1   4
ATOM      4  O   LIG d   1       9.224   2.325  -4.487  0.00  0.00    -0.483 OA
BRANCH   4   5
ATOM      5  C   LIG d   1       8.474   1.200  -4.337  0.00  0.00     0.122 A 
ATOM      6  C   LIG d   1       7.306   1.242  -3.598  0.00  0.00    -0.008 A 
ATOM      7  C   LIG d   1       6.545   0.087  -3.451  0.00  0.00     0.038 A 
ATOM      8  H   LIG d   1       6.986   2.165  -3.137  0.00  0.00     0.066 H 
ATOM      9  C   LIG d   1       5.281  -0.232  -2.755  0.00  0.00     0.107 A 
ATOM     10  C   LIG d   1       6.957  -1.114  -4.047  0.00  0.00     0.136 A 
ATOM     11  C   LIG d   1       5.057  -1.555  -2.989  0.00  0.00     0.117 A 
ATOM     12  O   LIG d   1       6.040  -2.057  -3.743  0.00  0.00    -0.459 OA
ATOM     13  C   LIG d   1       8.133  -1.138  -4.786  0.00  0.00    -0.015 A 
ATOM     14  C   LIG d   1       8.884   0.009  -4.928  0.00  0.00    -0.016 A 
ATOM     15  H   LIG d   1       8.461  -2.057  -5.250  0.00  0.00     0.066 H 
ATOM     16  H   LIG d   1       9.794  -0.015  -5.508  0.00  0.00     0.066 H 
BRANCH   9  17
ATOM     17  C   LIG d   1       4.443   0.686  -1.973  0.00  0.00     0.343 C 
ATOM     18  O   LIG d   1       4.871   1.173  -0.945  0.00  0.00    -0.245 OA
BRANCH  17  19
ATOM     19  O   LIG d   1       3.198   0.988  -2.395  0.00  0.00    -0.461 OA
BRANCH  19  20
ATOM     20  C   LIG d   1       3.058   1.430  -3.770  0.00  0.00     0.090 C 
ATOM     21  H   LIG d   1       2.490   2.361  -3.797  0.00  0.00     0.070 H 
ATOM     22  H   LIG d   1       4.045   1.595  -4.202  0.00  0.00     0.070 H 
BRANCH  20  23
ATOM     23  C   LIG d   1       2.320   0.360  -4.577  0.00  0.00    -0.031 C 
ATOM     24  H   LIG d   1       2.774   0.272  -5.565  0.00  0.00     0.026 H 
ATOM     25  H   LIG d   1       2.390  -0.598  -4.060  0.00  0.00     0.026 H 
ATOM     26  H   LIG d   1       1.272   0.641  -4.682  0.00  0.00     0.026 H 
ENDBRANCH  20  23
ENDBRANCH  19  20
ENDBRANCH  17  19
ENDBRANCH   9  17
BRANCH  11  27
ATOM     27  C   LIG d   1       3.875  -2.336  -2.475  0.00  0.00    -0.005 C 
ATOM     28  H   LIG d   1       3.167  -1.654  -2.003  0.00  0.00     0.031 H 
ATOM     29  H   LIG d   1       3.389  -2.848  -3.305  0.00  0.00     0.031 H 
ATOM     30  H   LIG d   1       4.215  -3.070  -1.744  0.00  0.00     0.031 H 
ENDBRANCH  11  27
ENDBRANCH   4   5
ENDBRANCH   1   4
BRANCH   1  31
ATOM     31  C   LIG d   1      10.013   4.145  -3.140  0.00  0.00     0.267 C 
ATOM     32  O   LIG d   1       9.609   4.897  -4.002  0.00  0.00    -0.271 OA
ATOM     33  N   LIG d   1      10.382   4.633  -1.939  0.00  0.00    -0.231 N 
ATOM     34  H   LIG d   1      10.705   4.031  -1.251  0.00  0.00     0.173 HD
BRANCH  33  35
ATOM     35  N   LIG d   1      10.299   6.007  -1.685  0.00  0.00    -0.230 N 
ATOM     36  C   LIG d   1      10.446   6.472  -0.429  0.00  0.00     0.260 C 
ATOM     37  O   LIG d   1      10.653   5.696   0.485  0.00  0.00    -0.269 OA
ATOM     38  H   LIG d   1      10.134   6.626  -2.414  0.00  0.00     0.173 HD
BRANCH  36  39
ATOM     39  C   LIG d   1      10.359   7.921  -0.161  0.00  0.00     0.042 A 
ATOM     40  C   LIG d   1      11.277   8.531   0.696  0.00  0.00    -0.004 A 
ATOM     41  C   LIG d   1      11.191   9.888   0.942  0.00  0.00     0.162 A 
ATOM     42  H   LIG d   1      12.053   7.944   1.164  0.00  0.00     0.066 H 
ATOM     43  C   LIG d   1      10.189  10.644   0.337  0.00  0.00     0.162 A 
ATOM     44  C   LIG d   1       9.276  10.037  -0.515  0.00  0.00    -0.016 A 
ATOM     45  C   LIG d   1       9.360   8.684  -0.770  0.00  0.00    -0.046 A 
ATOM     46  H   LIG d   1       8.502  10.626  -0.983  0.00  0.00     0.066 H 
ATOM     47  H   LIG d   1       8.651   8.217  -1.437  0.00  0.00     0.063 H 
BRANCH  41  48
ATOM     48  O   LIG d   1      12.083  10.485   1.778  0.00  0.00    -0.491 OA
BRANCH  48  49
ATOM     49  C   LIG d   1      12.363   9.820   3.011  0.00  0.00     0.079 C 
ATOM     50  H   LIG d   1      13.314   9.296   2.934  0.00  0.00     0.066 H 
ATOM     51  H   LIG d   1      12.416  10.553   3.815  0.00  0.00     0.066 H 
ATOM     52  H   LIG d   1      11.569   9.104   3.224  0.00  0.00     0.066 H 
ENDBRANCH  48  49
ENDBRANCH  41  48
BRANCH  43  53
ATOM     53  O   LIG d   1      10.105  11.977   0.580  0.00  0.00    -0.491 OA
BRANCH  53  54
ATOM     54  C   LIG d   1      10.690  12.851  -0.386  0.00  0.00     0.079 C 
ATOM     55  H   LIG d   1       9.927  13.525  -0.776  0.00  0.00     0.066 H 
ATOM     56  H   LIG d   1      11.484  13.431   0.082  0.00  0.00     0.066 H 
ATOM     57  H   LIG d   1      11.105  12.262  -1.205  0.00  0.00     0.066 H 
ENDBRANCH  53  54
ENDBRANCH  43  53
ENDBRANCH  36  39
ENDBRANCH  33  35
ENDBRANCH   1  31
TORSDOF 14
ENDMDL
MODEL 2
REMARK VINA RESULT:      -6.8      1.520      2.466
REMARK  14 active torsions:
REMARK  status: ('A' for Active; 'I' for Inactive)
REMARK    1  A    between atoms: C_1  and  C_2 
REMARK    2  A    between atoms: C_2  and  O_3 
REMARK    3  A    between atoms: O_3  and  C_4 
REMARK    4  A    between atoms: C_4  and  C_6 
REMARK    5  A    between atoms: C_7  and  C_33 
REMARK    6  A    between atoms: C_12  and  O_15 
REMARK    7  A    between atoms: O_15  and  C_16 
REMARK    8  A    between atoms: C_16  and  C_17 
REMARK       I    between atoms: C_17  and  N_19 
REMARK    9  A    between atoms: N_19  and  N_20 
REMARK       I    between atoms: N_20  and  C_21 
REMARK   10  A    between atoms: C_21  and  C_23 
REMARK   11  A    between atoms: C_26  and  O_31 
REMARK   12  A    between atoms: C_27  and  O_29 
REMARK   13  A    between atoms: O_29  and  C_30 
REMARK   14  A    between atoms: O_31  and  C_32 
ROOT
ATOM      1  C   LIG d   1      11.244   1.061  -4.723  0.00  0.00     0.167 C 
ATOM      2  H   LIG d   1      11.337   0.144  -4.141  0.00  0.00     0.080 H 
ATOM      3  H   LIG d   1      11.975   1.056  -5.530  0.00  0.00     0.080 H 
ENDROOT
BRANCH   1   4
ATOM      4  O   LIG d   1       9.928   1.144  -5.273  0.00  0.00    -0.483 OA
BRANCH   4   5
ATOM      5  C   LIG d   1       9.037   0.191  -4.889  0.00  0.00     0.122 A 
ATOM      6  C   LIG d   1       7.861   0.558  -4.260  0.00  0.00    -0.008 A 
ATOM      7  C   LIG d   1       6.955  -0.424  -3.871  0.00  0.00     0.038 A 
ATOM      8  H   LIG d   1       7.647   1.600  -4.070  0.00  0.00     0.066 H 
ATOM      9  C   LIG d   1       5.640  -0.403  -3.198  0.00  0.00     0.107 A 
ATOM     10  C   LIG d   1       7.229  -1.777  -4.115  0.00  0.00     0.136 A 
ATOM     11  C   LIG d   1       5.257  -1.706  -3.100  0.00  0.00     0.117 A 
ATOM     12  O   LIG d   1       6.191  -2.496  -3.639  0.00  0.00    -0.459 OA
ATOM     13  C   LIG d   1       8.415  -2.128  -4.748  0.00  0.00    -0.015 A 
ATOM     14  C   LIG d   1       9.309  -1.151  -5.130  0.00  0.00    -0.016 A 
ATOM     15  H   LIG d   1       8.637  -3.167  -4.941  0.00  0.00     0.066 H 
ATOM     16  H   LIG d   1      10.227  -1.430  -5.626  0.00  0.00     0.066 H 
BRANCH   9  17
ATOM     17  C   LIG d   1       4.902   0.777  -2.730  0.00  0.00     0.343 C 
ATOM     18  O   LIG d   1       4.970   1.113  -1.563  0.00  0.00    -0.245 OA
BRANCH  17  19
ATOM     19  O   LIG d   1       4.148   1.488  -3.593  0.00  0.00    -0.461 OA
BRANCH  19  20
ATOM     20  C   LIG d   1       2.836   0.955  -3.914  0.00  0.00     0.090 C 
ATOM     21  H   LIG d   1       2.574   0.177  -3.198  0.00  0.00     0.070 H 
ATOM     22  H   LIG d   1       2.097   1.756  -3.867  0.00  0.00     0.070 H 
BRANCH  20  23
ATOM     23  C   LIG d   1       2.858   0.364  -5.326  0.00  0.00    -0.031 C 
ATOM     24  H   LIG d   1       2.009  -0.308  -5.451  0.00  0.00     0.026 H 
ATOM     25  H   LIG d   1       2.795   1.169  -6.058  0.00  0.00     0.026 H 
ATOM     26  H   LIG d   1       3.786  -0.190  -5.473  0.00  0.00     0.026 H 
ENDBRANCH  20  23
ENDBRANCH  19  20
ENDBRANCH  17  19
ENDBRANCH   9  17
BRANCH  11  27
ATOM     27  C   LIG d   1       3.970  -2.185  -2.479  0.00  0.00    -0.005 C 
ATOM     28  H   LIG d   1       4.158  -3.097  -1.912  0.00  0.00     0.031 H 
ATOM     29  H   LIG d   1       3.580  -1.416  -1.812  0.00  0.00     0.031 H 
ATOM     30  H   LIG d   1       3.241  -2.388  -3.264  0.00  0.00     0.031 H 
ENDBRANCH  11  27
ENDBRANCH   4   5
ENDBRANCH   1   4
BRANCH   1  31
ATOM     31  C   LIG d   1      11.489   2.249  -3.828  0.00  0.00     0.267 C 
ATOM     32  O   LIG d   1      12.387   3.024  -4.081  0.00  0.00    -0.271 OA
ATOM     33  N   LIG d   1      10.712   2.449  -2.745  0.00  0.00    -0.231 N 
ATOM     34  H   LIG d   1       9.995   1.829  -2.543  0.00  0.00     0.173 HD
BRANCH  33  35
ATOM     35  N   LIG d   1      10.940   3.552  -1.913  0.00  0.00    -0.230 N 
ATOM     36  C   LIG d   1      10.282   4.708  -2.129  0.00  0.00     0.260 C 
ATOM     37  O   LIG d   1       9.489   4.793  -3.048  0.00  0.00    -0.269 OA
ATOM     38  H   LIG d   1      11.573   3.484  -1.181  0.00  0.00     0.173 HD
BRANCH  36  39
ATOM     39  C   LIG d   1      10.522   5.871  -1.252  0.00  0.00     0.042 A 
ATOM     40  C   LIG d   1       9.784   7.043  -1.426  0.00  0.00    -0.004 A 
ATOM     41  C   LIG d   1      10.012   8.128  -0.602  0.00  0.00     0.162 A 
ATOM     42  H   LIG d   1       9.036   7.102  -2.203  0.00  0.00     0.066 H 
ATOM     43  C   LIG d   1      10.978   8.052   0.401  0.00  0.00     0.162 A 
ATOM     44  C   LIG d   1      11.711   6.885   0.574  0.00  0.00    -0.016 A 
ATOM     45  C   LIG d   1      11.484   5.797  -0.242  0.00  0.00    -0.046 A 
ATOM     46  H   LIG d   1      12.457   6.829   1.352  0.00  0.00     0.066 H 
ATOM     47  H   LIG d   1      12.053   4.890  -0.101  0.00  0.00     0.063 H 
BRANCH  41  48
ATOM     48  O   LIG d   1       9.296   9.273  -0.770  0.00  0.00    -0.491 OA
BRANCH  48  49
ATOM     49  C   LIG d   1       9.664  10.113  -1.865  0.00  0.00     0.079 C 
ATOM     50  H   LIG d   1      10.640   9.810  -2.244  0.00  0.00     0.066 H 
ATOM     51  H   LIG d   1       8.923  10.022  -2.659  0.00  0.00     0.066 H 
ATOM     52  H   LIG d   1       9.710  11.149  -1.528  0.00  0.00     0.066 H 
ENDBRANCH  48  49
ENDBRANCH  41  48
BRANCH  43  53
ATOM     53  O   LIG d   1      11.201   9.118   1.210  0.00  0.00    -0.491 OA
BRANCH  53  54
ATOM     54  C   LIG d   1      12.466   9.770   1.089  0.00  0.00     0.079 C 
ATOM     55  H   LIG d   1      13.078   9.243   0.356  0.00  0.00     0.066 H 
ATOM     56  H   LIG d   1      12.315  10.799   0.764  0.00  0.00     0.066 H 
ATOM     57  H   LIG d   1      12.972   9.764   2.055  0.00  0.00     0.066 H 
ENDBRANCH  53  54
ENDBRANCH  43  53
ENDBRANCH  36  39
ENDBRANCH  33  35
ENDBRANCH   1  31
TORSDOF 14
ENDMDL
MODEL 3
REMARK VINA RESULT:      -6.5      8.160     12.123
REMARK  14 active torsions:
REMARK  status: ('A' for Active; 'I' for Inactive)
REMARK    1  A    between atoms: C_1  and  C_2 
REMARK    2  A    between atoms: C_2  and  O_3 
REMARK    3  A    between atoms: O_3  and  C_4 
REMARK    4  A    between atoms: C_4  and  C_6 
REMARK    5  A    between atoms: C_7  and  C_33 
REMARK    6  A    between atoms: C_12  and  O_15 
REMARK    7  A    between atoms: O_15  and  C_16 
REMARK    8  A    between atoms: C_16  and  C_17 
REMARK       I    between atoms: C_17  and  N_19 
REMARK    9  A    between atoms: N_19  and  N_20 
REMARK       I    between atoms: N_20  and  C_21 
REMARK   10  A    between atoms: C_21  and  C_23 
REMARK   11  A    between atoms: C_26  and  O_31 
REMARK   12  A    between atoms: C_27  and  O_29 
REMARK   13  A    between atoms: O_29  and  C_30 
REMARK   14  A    between atoms: O_31  and  C_32 
ROOT
ATOM      1  C   LIG d   1       5.056  -8.353  -6.839  0.00  0.00     0.167 C 
ATOM      2  H   LIG d   1       6.108  -8.399  -6.559  0.00  0.00     0.080 H 
ATOM      3  H   LIG d   1       4.950  -8.586  -7.898  0.00  0.00     0.080 H 
ENDROOT
BRANCH   1   4
ATOM      4  O   LIG d   1       4.315  -9.300  -6.067  0.00  0.00    -0.483 OA
BRANCH   4   5
ATOM      5  C   LIG d   1       4.817  -9.629  -4.847  0.00  0.00     0.122 A 
ATOM      6  C   LIG d   1       6.141  -9.361  -4.549  0.00  0.00    -0.008 A 
ATOM      7  C   LIG d   1       6.645  -9.700  -3.298  0.00  0.00     0.038 A 
ATOM      8  H   LIG d   1       6.780  -8.892  -5.283  0.00  0.00     0.066 H 
ATOM      9  C   LIG d   1       7.967  -9.568  -2.650  0.00  0.00     0.107 A 
ATOM     10  C   LIG d   1       5.819 -10.309  -2.342  0.00  0.00     0.136 A 
ATOM     11  C   LIG d   1       7.819 -10.095  -1.403  0.00  0.00     0.117 A 
ATOM     12  O   LIG d   1       6.563 -10.523  -1.236  0.00  0.00    -0.459 OA
ATOM     13  C   LIG d   1       4.492 -10.571  -2.658  0.00  0.00    -0.015 A 
ATOM     14  C   LIG d   1       3.998 -10.234  -3.899  0.00  0.00    -0.016 A 
ATOM     15  H   LIG d   1       3.847 -11.041  -1.930  0.00  0.00     0.066 H 
ATOM     16  H   LIG d   1       2.964 -10.436  -4.137  0.00  0.00     0.066 H 
BRANCH   9  17
ATOM     17  C   LIG d   1       9.185  -8.990  -3.231  0.00  0.00     0.343 C 
ATOM     18  O   LIG d   1      10.050  -9.719  -3.678  0.00  0.00    -0.245 OA
BRANCH  17  19
ATOM     19  O   LIG d   1       9.347  -7.651  -3.267  0.00  0.00    -0.461 OA
BRANCH  19  20
ATOM     20  C   LIG d   1       9.647  -6.990  -2.010  0.00  0.00     0.090 C 
ATOM     21  H   LIG d   1       8.855  -7.198  -1.291  0.00  0.00     0.070 H 
ATOM     22  H   LIG d   1      10.597  -7.359  -1.622  0.00  0.00     0.070 H 
BRANCH  20  23
ATOM     23  C   LIG d   1       9.743  -5.480  -2.240  0.00  0.00    -0.031 C 
ATOM     24  H   LIG d   1      10.382  -5.036  -1.475  0.00  0.00     0.026 H 
ATOM     25  H   LIG d   1      10.170  -5.288  -3.224  0.00  0.00     0.026 H 
ATOM     26  H   LIG d   1       8.748  -5.040  -2.183  0.00  0.00     0.026 H 
ENDBRANCH  20  23
ENDBRANCH  19  20
ENDBRANCH  17  19
ENDBRANCH   9  17
BRANCH  11  27
ATOM     27  C   LIG d   1       8.908 -10.181  -0.366  0.00  0.00    -0.005 C 
ATOM     28  H   LIG d   1       9.676  -9.438  -0.583  0.00  0.00     0.031 H 
ATOM     29  H   LIG d   1       8.487  -9.990   0.622  0.00  0.00     0.031 H 
ATOM     30  H   LIG d   1       9.351 -11.177  -0.385  0.00  0.00     0.031 H 
ENDBRANCH  11  27
ENDBRANCH   4   5
ENDBRANCH   1   4
BRANCH   1  31
ATOM     31  C   LIG d   1       4.527  -6.966  -6.574  0.00  0.00     0.267 C 
ATOM     32  O   LIG d   1       3.823  -6.418  -7.394  0.00  0.00    -0.271 OA
ATOM     33  N   LIG d   1       4.838  -6.336  -5.424  0.00  0.00    -0.231 N 
ATOM     34  H   LIG d   1       5.401  -6.775  -4.767  0.00  0.00     0.173 HD
BRANCH  33  35
ATOM     35  N   LIG d   1       4.347  -5.047  -5.176  0.00  0.00    -0.230 N 
ATOM     36  C   LIG d   1       5.203  -4.029  -4.961  0.00  0.00     0.260 C 
ATOM     37  O   LIG d   1       6.403  -4.229  -4.982  0.00  0.00    -0.269 OA
ATOM     38  H   LIG d   1       3.390  -4.889  -5.159  0.00  0.00     0.173 HD
BRANCH  36  39
ATOM     39  C   LIG d   1       4.685  -2.671  -4.700  0.00  0.00     0.042 A 
ATOM     40  C   LIG d   1       4.552  -1.760  -5.750  0.00  0.00    -0.004 A 
ATOM     41  C   LIG d   1       4.067  -0.491  -5.501  0.00  0.00     0.162 A 
ATOM     42  H   LIG d   1       4.828  -2.046  -6.754  0.00  0.00     0.066 H 
ATOM     43  C   LIG d   1       3.712  -0.122  -4.204  0.00  0.00     0.162 A 
ATOM     44  C   LIG d   1       3.844  -1.029  -3.161  0.00  0.00    -0.016 A 
ATOM     45  C   LIG d   1       4.322  -2.299  -3.404  0.00  0.00    -0.046 A 
ATOM     46  H   LIG d   1       3.567  -0.740  -2.158  0.00  0.00     0.066 H 
ATOM     47  H   LIG d   1       4.420  -3.003  -2.591  0.00  0.00     0.063 H 
BRANCH  41  48
ATOM     48  O   LIG d   1       3.937   0.401  -6.521  0.00  0.00    -0.491 OA
BRANCH  48  49
ATOM     49  C   LIG d   1       2.921   0.135  -7.489  0.00  0.00     0.079 C 
ATOM     50  H   LIG d   1       1.948   0.119  -7.000  0.00  0.00     0.066 H 
ATOM     51  H   LIG d   1       2.932   0.914  -8.251  0.00  0.00     0.066 H 
ATOM     52  H   LIG d   1       3.110  -0.832  -7.956  0.00  0.00     0.066 H 
ENDBRANCH  48  49
ENDBRANCH  41  48
BRANCH  43  53
ATOM     53  O   LIG d   1       3.235   1.126  -3.960  0.00  0.00    -0.491 OA
BRANCH  53  54
ATOM     54  C   LIG d   1       3.581   1.719  -2.708  0.00  0.00     0.079 C 
ATOM     55  H   LIG d   1       2.680   2.101  -2.226  0.00  0.00     0.066 H 
ATOM     56  H   LIG d   1       4.047   0.971  -2.068  0.00  0.00     0.066 H 
ATOM     57  H   LIG d   1       4.279   2.541  -2.876  0.00  0.00     0.066 H 
ENDBRANCH  53  54
ENDBRANCH  43  53
ENDBRANCH  36  39
ENDBRANCH  33  35
ENDBRANCH   1  31
TORSDOF 14
ENDMDL
MODEL 4
REMARK VINA RESULT:      -6.4      2.047      3.170
REMARK  14 active torsions:
REMARK  status: ('A' for Active; 'I' for Inactive)
REMARK    1  A    between atoms: C_1  and  C_2 
REMARK    2  A    between atoms: C_2  and  O_3 
REMARK    3  A    between atoms: O_3  and  C_4 
REMARK    4  A    between atoms: C_4  and  C_6 
REMARK    5  A    between atoms: C_7  and  C_33 
REMARK    6  A    between atoms: C_12  and  O_15 
REMARK    7  A    between atoms: O_15  and  C_16 
REMARK    8  A    between atoms: C_16  and  C_17 
REMARK       I    between atoms: C_17  and  N_19 
REMARK    9  A    between atoms: N_19  and  N_20 
REMARK       I    between atoms: N_20  and  C_21 
REMARK   10  A    between atoms: C_21  and  C_23 
REMARK   11  A    between atoms: C_26  and  O_31 
REMARK   12  A    between atoms: C_27  and  O_29 
REMARK   13  A    between atoms: O_29  and  C_30 
REMARK   14  A    between atoms: O_31  and  C_32 
ROOT
ATOM      1  C   LIG d   1      12.298   0.194  -4.788  0.00  0.00     0.167 C 
ATOM      2  H   LIG d   1      12.265  -0.592  -4.034  0.00  0.00     0.080 H 
ATOM      3  H   LIG d   1      13.211   0.098  -5.375  0.00  0.00     0.080 H 
ENDROOT
BRANCH   1   4
ATOM      4  O   LIG d   1      11.164   0.075  -5.649  0.00  0.00    -0.483 OA
BRANCH   4   5
ATOM      5  C   LIG d   1      10.193  -0.800  -5.273  0.00  0.00     0.122 A 
ATOM      6  C   LIG d   1       8.891  -0.360  -5.113  0.00  0.00    -0.008 A 
ATOM      7  C   LIG d   1       7.904  -1.262  -4.728  0.00  0.00     0.038 A 
ATOM      8  H   LIG d   1       8.642   0.677  -5.284  0.00  0.00     0.066 H 
ATOM      9  C   LIG d   1       6.454  -1.152  -4.469  0.00  0.00     0.107 A 
ATOM     10  C   LIG d   1       8.223  -2.608  -4.504  0.00  0.00     0.136 A 
ATOM     11  C   LIG d   1       6.047  -2.404  -4.123  0.00  0.00     0.117 A 
ATOM     12  O   LIG d   1       7.087  -3.244  -4.147  0.00  0.00    -0.459 OA
ATOM     13  C   LIG d   1       9.535  -3.034  -4.670  0.00  0.00    -0.015 A 
ATOM     14  C   LIG d   1      10.510  -2.136  -5.050  0.00  0.00    -0.016 A 
ATOM     15  H   LIG d   1       9.793  -4.069  -4.500  0.00  0.00     0.066 H 
ATOM     16  H   LIG d   1      11.527  -2.474  -5.182  0.00  0.00     0.066 H 
BRANCH   9  17
ATOM     17  C   LIG d   1       5.625   0.057  -4.564  0.00  0.00     0.343 C 
ATOM     18  O   LIG d   1       4.849   0.189  -5.490  0.00  0.00    -0.245 OA
BRANCH  17  19
ATOM     19  O   LIG d   1       5.724   1.019  -3.625  0.00  0.00    -0.461 OA
BRANCH  19  20
ATOM     20  C   LIG d   1       5.151   0.732  -2.323  0.00  0.00     0.090 C 
ATOM     21  H   LIG d   1       5.187  -0.342  -2.138  0.00  0.00     0.070 H 
ATOM     22  H   LIG d   1       5.719   1.252  -1.552  0.00  0.00     0.070 H 
BRANCH  20  23
ATOM     23  C   LIG d   1       3.696   1.205  -2.291  0.00  0.00    -0.031 C 
ATOM     24  H   LIG d   1       3.289   1.064  -1.290  0.00  0.00     0.026 H 
ATOM     25  H   LIG d   1       3.652   2.262  -2.554  0.00  0.00     0.026 H 
ATOM     26  H   LIG d   1       3.110   0.627  -3.006  0.00  0.00     0.026 H 
ENDBRANCH  20  23
ENDBRANCH  19  20
ENDBRANCH  17  19
ENDBRANCH   9  17
BRANCH  11  27
ATOM     27  C   LIG d   1       4.633  -2.786  -3.766  0.00  0.00    -0.005 C 
ATOM     28  H   LIG d   1       4.134  -1.937  -3.300  0.00  0.00     0.031 H 
ATOM     29  H   LIG d   1       4.095  -3.073  -4.670  0.00  0.00     0.031 H 
ATOM     30  H   LIG d   1       4.648  -3.626  -3.070  0.00  0.00     0.031 H 
ENDBRANCH  11  27
ENDBRANCH   4   5
ENDBRANCH   1   4
BRANCH   1  31
ATOM     31  C   LIG d   1      12.274   1.541  -4.112  0.00  0.00     0.267 C 
ATOM     32  O   LIG d   1      13.038   2.412  -4.467  0.00  0.00    -0.271 OA
ATOM     33  N   LIG d   1      11.404   1.775  -3.109  0.00  0.00    -0.231 N 
ATOM     34  H   LIG d   1      10.793   1.078  -2.825  0.00  0.00     0.173 HD
BRANCH  33  35
ATOM     35  N   LIG d   1      11.381   3.026  -2.479  0.00  0.00    -0.230 N 
ATOM     36  C   LIG d   1      10.331   3.851  -2.655  0.00  0.00     0.260 C 
ATOM     37  O   LIG d   1       9.401   3.509  -3.361  0.00  0.00    -0.269 OA
ATOM     38  H   LIG d   1      12.123   3.298  -1.917  0.00  0.00     0.173 HD
BRANCH  36  39
ATOM     39  C   LIG d   1      10.307   5.169  -1.991  0.00  0.00     0.042 A 
ATOM     40  C   LIG d   1      10.887   5.328  -0.730  0.00  0.00    -0.004 A 
ATOM     41  C   LIG d   1      10.862   6.564  -0.113  0.00  0.00     0.162 A 
ATOM     42  H   LIG d   1      11.354   4.487  -0.239  0.00  0.00     0.066 H 
ATOM     43  C   LIG d   1      10.259   7.649  -0.747  0.00  0.00     0.162 A 
ATOM     44  C   LIG d   1       9.683   7.490  -2.001  0.00  0.00    -0.016 A 
ATOM     45  C   LIG d   1       9.709   6.260  -2.625  0.00  0.00    -0.046 A 
ATOM     46  H   LIG d   1       9.218   8.332  -2.490  0.00  0.00     0.066 H 
ATOM     47  H   LIG d   1       9.264   6.142  -3.601  0.00  0.00     0.063 H 
BRANCH  41  48
ATOM     48  O   LIG d   1      11.425   6.722   1.116  0.00  0.00    -0.491 OA
BRANCH  48  49
ATOM     49  C   LIG d   1      10.952   5.869   2.160  0.00  0.00     0.079 C 
ATOM     50  H   LIG d   1      11.717   5.133   2.404  0.00  0.00     0.066 H 
ATOM     51  H   LIG d   1      10.728   6.467   3.044  0.00  0.00     0.066 H 
ATOM     52  H   LIG d   1      10.048   5.358   1.829  0.00  0.00     0.066 H 
ENDBRANCH  48  49
ENDBRANCH  41  48
BRANCH  43  53
ATOM     53  O   LIG d   1      10.235   8.862  -0.140  0.00  0.00    -0.491 OA
BRANCH  53  54
ATOM     54  C   LIG d   1       9.142   9.725  -0.457  0.00  0.00     0.079 C 
ATOM     55  H   LIG d   1       8.292   9.482   0.181  0.00  0.00     0.066 H 
ATOM     56  H   LIG d   1       9.437  10.761  -0.292  0.00  0.00     0.066 H 
ATOM     57  H   LIG d   1       8.863   9.589  -1.503  0.00  0.00     0.066 H 
ENDBRANCH  53  54
ENDBRANCH  43  53
ENDBRANCH  36  39
ENDBRANCH  33  35
ENDBRANCH   1  31
TORSDOF 14
ENDMDL
MODEL 5
REMARK VINA RESULT:      -6.4      1.265      2.019
REMARK  14 active torsions:
REMARK  status: ('A' for Active; 'I' for Inactive)
REMARK    1  A    between atoms: C_1  and  C_2 
REMARK    2  A    between atoms: C_2  and  O_3 
REMARK    3  A    between atoms: O_3  and  C_4 
REMARK    4  A    between atoms: C_4  and  C_6 
REMARK    5  A    between atoms: C_7  and  C_33 
REMARK    6  A    between atoms: C_12  and  O_15 
REMARK    7  A    between atoms: O_15  and  C_16 
REMARK    8  A    between atoms: C_16  and  C_17 
REMARK       I    between atoms: C_17  and  N_19 
REMARK    9  A    between atoms: N_19  and  N_20 
REMARK       I    between atoms: N_20  and  C_21 
REMARK   10  A    between atoms: C_21  and  C_23 
REMARK   11  A    between atoms: C_26  and  O_31 
REMARK   12  A    between atoms: C_27  and  O_29 
REMARK   13  A    between atoms: O_29  and  C_30 
REMARK   14  A    between atoms: O_31  and  C_32 
ROOT
ATOM      1  C   LIG d   1       9.846   2.967  -3.337  0.00  0.00     0.167 C 
ATOM      2  H   LIG d   1      10.389   2.357  -2.615  0.00  0.00     0.080 H 
ATOM      3  H   LIG d   1      10.259   2.805  -4.332  0.00  0.00     0.080 H 
ENDROOT
BRANCH   1   4
ATOM      4  O   LIG d   1       8.466   2.598  -3.328  0.00  0.00    -0.483 OA
BRANCH   4   5
ATOM      5  C   LIG d   1       8.149   1.379  -3.842  0.00  0.00     0.122 A 
ATOM      6  C   LIG d   1       6.997   0.734  -3.430  0.00  0.00    -0.008 A 
ATOM      7  C   LIG d   1       6.681  -0.512  -3.960  0.00  0.00     0.038 A 
ATOM      8  H   LIG d   1       6.346   1.194  -2.700  0.00  0.00     0.066 H 
ATOM      9  C   LIG d   1       5.568  -1.464  -3.761  0.00  0.00     0.107 A 
ATOM     10  C   LIG d   1       7.522  -1.113  -4.907  0.00  0.00     0.136 A 
ATOM     11  C   LIG d   1       5.835  -2.518  -4.581  0.00  0.00     0.117 A 
ATOM     12  O   LIG d   1       6.976  -2.301  -5.244  0.00  0.00    -0.459 OA
ATOM     13  C   LIG d   1       8.675  -0.452  -5.310  0.00  0.00    -0.015 A 
ATOM     14  C   LIG d   1       8.985   0.783  -4.780  0.00  0.00    -0.016 A 
ATOM     15  H   LIG d   1       9.332  -0.905  -6.038  0.00  0.00     0.066 H 
ATOM     16  H   LIG d   1       9.880   1.294  -5.101  0.00  0.00     0.066 H 
BRANCH   9  17
ATOM     17  C   LIG d   1       4.415  -1.306  -2.866  0.00  0.00     0.343 C 
ATOM     18  O   LIG d   1       4.512  -1.608  -1.692  0.00  0.00    -0.245 OA
BRANCH  17  19
ATOM     19  O   LIG d   1       3.249  -0.828  -3.344  0.00  0.00    -0.461 OA
BRANCH  19  20
ATOM     20  C   LIG d   1       3.225   0.566  -3.748  0.00  0.00     0.090 C 
ATOM     21  H   LIG d   1       3.972   0.734  -4.523  0.00  0.00     0.070 H 
ATOM     22  H   LIG d   1       2.237   0.816  -4.136  0.00  0.00     0.070 H 
BRANCH  20  23
ATOM     23  C   LIG d   1       3.536   1.452  -2.539  0.00  0.00    -0.031 C 
ATOM     24  H   LIG d   1       4.368   1.024  -1.980  0.00  0.00     0.026 H 
ATOM     25  H   LIG d   1       3.804   2.452  -2.880  0.00  0.00     0.026 H 
ATOM     26  H   LIG d   1       2.657   1.510  -1.896  0.00  0.00     0.026 H 
ENDBRANCH  20  23
ENDBRANCH  19  20
ENDBRANCH  17  19
ENDBRANCH   9  17
BRANCH  11  27
ATOM     27  C   LIG d   1       4.972  -3.745  -4.721  0.00  0.00    -0.005 C 
ATOM     28  H   LIG d   1       4.580  -3.800  -5.737  0.00  0.00     0.031 H 
ATOM     29  H   LIG d   1       5.567  -4.634  -4.513  0.00  0.00     0.031 H 
ATOM     30  H   LIG d   1       4.144  -3.690  -4.015  0.00  0.00     0.031 H 
ENDBRANCH  11  27
ENDBRANCH   4   5
ENDBRANCH   1   4
BRANCH   1  31
ATOM     31  C   LIG d   1       9.979   4.421  -2.966  0.00  0.00     0.267 C 
ATOM     32  O   LIG d   1       9.743   5.281  -3.787  0.00  0.00    -0.271 OA
ATOM     33  N   LIG d   1      10.363   4.767  -1.720  0.00  0.00    -0.231 N 
ATOM     34  H   LIG d   1      10.552   4.078  -1.063  0.00  0.00     0.173 HD
BRANCH  33  35
ATOM     35  N   LIG d   1      10.487   6.118  -1.375  0.00  0.00    -0.230 N 
ATOM     36  C   LIG d   1      10.673   6.471  -0.088  0.00  0.00     0.260 C 
ATOM     37  O   LIG d   1      10.733   5.615   0.775  0.00  0.00    -0.269 OA
ATOM     38  H   LIG d   1      10.439   6.800  -2.063  0.00  0.00     0.173 HD
BRANCH  36  39
ATOM     39  C   LIG d   1      10.804   7.896   0.276  0.00  0.00     0.042 A 
ATOM     40  C   LIG d   1      10.200   8.878  -0.512  0.00  0.00    -0.004 A 
ATOM     41  C   LIG d   1      10.326  10.210  -0.167  0.00  0.00     0.162 A 
ATOM     42  H   LIG d   1       9.636   8.597  -1.389  0.00  0.00     0.066 H 
ATOM     43  C   LIG d   1      11.055  10.571   0.965  0.00  0.00     0.162 A 
ATOM     44  C   LIG d   1      11.655   9.594   1.749  0.00  0.00    -0.016 A 
ATOM     45  C   LIG d   1      11.529   8.263   1.412  0.00  0.00    -0.046 A 
ATOM     46  H   LIG d   1      12.218   9.877   2.625  0.00  0.00     0.066 H 
ATOM     47  H   LIG d   1      11.993   7.506   2.026  0.00  0.00     0.063 H 
BRANCH  41  48
ATOM     48  O   LIG d   1       9.740  11.169  -0.933  0.00  0.00    -0.491 OA
BRANCH  48  49
ATOM     49  C   LIG d   1       9.635  10.906  -2.333  0.00  0.00     0.079 C 
ATOM     50  H   LIG d   1      10.246  10.041  -2.588  0.00  0.00     0.066 H 
ATOM     51  H   LIG d   1       8.595  10.704  -2.588  0.00  0.00     0.066 H 
ATOM     52  H   LIG d   1       9.983  11.775  -2.892  0.00  0.00     0.066 H 
ENDBRANCH  48  49
ENDBRANCH  41  48
BRANCH  43  53
ATOM     53  O   LIG d   1      11.178  11.880   1.304  0.00  0.00    -0.491 OA
BRANCH  53  54
ATOM     54  C   LIG d   1      12.439  12.500   1.050  0.00  0.00     0.079 C 
ATOM     55  H   LIG d   1      12.929  11.997   0.216  0.00  0.00     0.066 H 
ATOM     56  H   LIG d   1      12.285  13.549   0.802  0.00  0.00     0.066 H 
ATOM     57  H   LIG d   1      13.067  12.425   1.939  0.00  0.00     0.066 H 
ENDBRANCH  53  54
ENDBRANCH  43  53
ENDBRANCH  36  39
ENDBRANCH  33  35
ENDBRANCH   1  31
TORSDOF 14
ENDMDL
MODEL 6
REMARK VINA RESULT:      -6.3      6.511     13.253
REMARK  14 active torsions:
REMARK  status: ('A' for Active; 'I' for Inactive)
REMARK    1  A    between atoms: C_1  and  C_2 
REMARK    2  A    between atoms: C_2  and  O_3 
REMARK    3  A    between atoms: O_3  and  C_4 
REMARK    4  A    between atoms: C_4  and  C_6 
REMARK    5  A    between atoms: C_7  and  C_33 
REMARK    6  A    between atoms: C_12  and  O_15 
REMARK    7  A    between atoms: O_15  and  C_16 
REMARK    8  A    between atoms: C_16  and  C_17 
REMARK       I    between atoms: C_17  and  N_19 
REMARK    9  A    between atoms: N_19  and  N_20 
REMARK       I    between atoms: N_20  and  C_21 
REMARK   10  A    between atoms: C_21  and  C_23 
REMARK   11  A    between atoms: C_26  and  O_31 
REMARK   12  A    between atoms: C_27  and  O_29 
REMARK   13  A    between atoms: O_29  and  C_30 
REMARK   14  A    between atoms: O_31  and  C_32 
ROOT
ATOM      1  C   LIG d   1       4.981  -4.420  -5.101  0.00  0.00     0.167 C 
ATOM      2  H   LIG d   1       5.892  -3.877  -5.354  0.00  0.00     0.080 H 
ATOM      3  H   LIG d   1       5.235  -5.437  -4.803  0.00  0.00     0.080 H 
ENDROOT
BRANCH   1   4
ATOM      4  O   LIG d   1       4.318  -3.759  -4.022  0.00  0.00    -0.483 OA
BRANCH   4   5
ATOM      5  C   LIG d   1       4.771  -2.522  -3.683  0.00  0.00     0.122 A 
ATOM      6  C   LIG d   1       5.872  -1.989  -4.329  0.00  0.00    -0.008 A 
ATOM      7  C   LIG d   1       6.329  -0.724  -3.976  0.00  0.00     0.038 A 
ATOM      8  H   LIG d   1       6.376  -2.552  -5.101  0.00  0.00     0.066 H 
ATOM      9  C   LIG d   1       7.440   0.136  -4.437  0.00  0.00     0.107 A 
ATOM     10  C   LIG d   1       5.679   0.010  -2.974  0.00  0.00     0.136 A 
ATOM     11  C   LIG d   1       7.358   1.272  -3.691  0.00  0.00     0.117 A 
ATOM     12  O   LIG d   1       6.328   1.187  -2.843  0.00  0.00    -0.459 OA
ATOM     13  C   LIG d   1       4.575  -0.540  -2.336  0.00  0.00    -0.015 A 
ATOM     14  C   LIG d   1       4.127  -1.794  -2.688  0.00  0.00    -0.016 A 
ATOM     15  H   LIG d   1       4.066   0.016  -1.561  0.00  0.00     0.066 H 
ATOM     16  H   LIG d   1       3.265  -2.214  -2.191  0.00  0.00     0.066 H 
BRANCH   9  17
ATOM     17  C   LIG d   1       8.426  -0.173  -5.480  0.00  0.00     0.343 C 
ATOM     18  O   LIG d   1       9.567  -0.455  -5.172  0.00  0.00    -0.245 OA
BRANCH  17  19
ATOM     19  O   LIG d   1       8.066  -0.141  -6.780  0.00  0.00    -0.461 OA
BRANCH  19  20
ATOM     20  C   LIG d   1       7.631   1.137  -7.312  0.00  0.00     0.090 C 
ATOM     21  H   LIG d   1       7.433   1.825  -6.490  0.00  0.00     0.070 H 
ATOM     22  H   LIG d   1       8.412   1.549  -7.952  0.00  0.00     0.070 H 
BRANCH  20  23
ATOM     23  C   LIG d   1       6.353   0.939  -8.131  0.00  0.00    -0.031 C 
ATOM     24  H   LIG d   1       5.979  -0.074  -7.982  0.00  0.00     0.026 H 
ATOM     25  H   LIG d   1       5.599   1.656  -7.806  0.00  0.00     0.026 H 
ATOM     26  H   LIG d   1       6.571   1.095  -9.188  0.00  0.00     0.026 H 
ENDBRANCH  20  23
ENDBRANCH  19  20
ENDBRANCH  17  19
ENDBRANCH   9  17
BRANCH  11  27
ATOM     27  C   LIG d   1       8.290   2.451  -3.806  0.00  0.00    -0.005 C 
ATOM     28  H   LIG d   1       7.807   3.241  -4.381  0.00  0.00     0.031 H 
ATOM     29  H   LIG d   1       8.532   2.822  -2.810  0.00  0.00     0.031 H 
ATOM     30  H   LIG d   1       9.206   2.142  -4.311  0.00  0.00     0.031 H 
ENDBRANCH  11  27
ENDBRANCH   4   5
ENDBRANCH   1   4
BRANCH   1  31
ATOM     31  C   LIG d   1       4.070  -4.459  -6.301  0.00  0.00     0.267 C 
ATOM     32  O   LIG d   1       3.342  -5.411  -6.479  0.00  0.00    -0.271 OA
ATOM     33  N   LIG d   1       4.068  -3.435  -7.178  0.00  0.00    -0.231 N 
ATOM     34  H   LIG d   1       4.651  -2.674  -7.036  0.00  0.00     0.173 HD
BRANCH  33  35
ATOM     35  N   LIG d   1       3.222  -3.471  -8.294  0.00  0.00    -0.230 N 
ATOM     36  C   LIG d   1       2.966  -2.342  -8.984  0.00  0.00     0.260 C 
ATOM     37  O   LIG d   1       3.471  -1.291  -8.637  0.00  0.00    -0.269 OA
ATOM     38  H   LIG d   1       2.819  -4.309  -8.570  0.00  0.00     0.173 HD
BRANCH  36  39
ATOM     39  C   LIG d   1       2.075  -2.380 -10.160  0.00  0.00     0.042 A 
ATOM     40  C   LIG d   1       1.344  -3.535 -10.447  0.00  0.00    -0.004 A 
ATOM     41  C   LIG d   1       0.512  -3.565 -11.549  0.00  0.00     0.162 A 
ATOM     42  H   LIG d   1       1.430  -4.402  -9.809  0.00  0.00     0.066 H 
ATOM     43  C   LIG d   1       0.402  -2.445 -12.371  0.00  0.00     0.162 A 
ATOM     44  C   LIG d   1       1.129  -1.297 -12.085  0.00  0.00    -0.016 A 
ATOM     45  C   LIG d   1       1.958  -1.258 -10.984  0.00  0.00    -0.046 A 
ATOM     46  H   LIG d   1       1.041  -0.431 -12.723  0.00  0.00     0.066 H 
ATOM     47  H   LIG d   1       2.518  -0.362 -10.762  0.00  0.00     0.063 H 
BRANCH  41  48
ATOM     48  O   LIG d   1      -0.201  -4.689 -11.832  0.00  0.00    -0.491 OA
BRANCH  48  49
ATOM     49  C   LIG d   1      -1.284  -5.008 -10.957  0.00  0.00     0.079 C 
ATOM     50  H   LIG d   1      -0.963  -5.763 -10.241  0.00  0.00     0.066 H 
ATOM     51  H   LIG d   1      -1.596  -4.111 -10.423  0.00  0.00     0.066 H 
ATOM     52  H   LIG d   1      -2.121  -5.392 -11.541  0.00  0.00     0.066 H 
ENDBRANCH  48  49
ENDBRANCH  41  48
BRANCH  43  53
ATOM     53  O   LIG d   1      -0.417  -2.475 -13.454  0.00  0.00    -0.491 OA
BRANCH  53  54
ATOM     54  C   LIG d   1      -1.632  -1.730 -13.369  0.00  0.00     0.079 C 
ATOM     55  H   LIG d   1      -2.466  -2.362 -13.676  0.00  0.00     0.066 H 
ATOM     56  H   LIG d   1      -1.784  -1.399 -12.343  0.00  0.00     0.066 H 
ATOM     57  H   LIG d   1      -1.573  -0.862 -14.027  0.00  0.00     0.066 H 
ENDBRANCH  53  54
ENDBRANCH  43  53
ENDBRANCH  36  39
ENDBRANCH  33  35
ENDBRANCH   1  31
TORSDOF 14
ENDMDL
MODEL 7
REMARK VINA RESULT:      -6.3      8.328     11.861
REMARK  14 active torsions:
REMARK  status: ('A' for Active; 'I' for Inactive)
REMARK    1  A    between atoms: C_1  and  C_2 
REMARK    2  A    between atoms: C_2  and  O_3 
REMARK    3  A    between atoms: O_3  and  C_4 
REMARK    4  A    between atoms: C_4  and  C_6 
REMARK    5  A    between atoms: C_7  and  C_33 
REMARK    6  A    between atoms: C_12  and  O_15 
REMARK    7  A    between atoms: O_15  and  C_16 
REMARK    8  A    between atoms: C_16  and  C_17 
REMARK       I    between atoms: C_17  and  N_19 
REMARK    9  A    between atoms: N_19  and  N_20 
REMARK       I    between atoms: N_20  and  C_21 
REMARK   10  A    between atoms: C_21  and  C_23 
REMARK   11  A    between atoms: C_26  and  O_31 
REMARK   12  A    between atoms: C_27  and  O_29 
REMARK   13  A    between atoms: O_29  and  C_30 
REMARK   14  A    between atoms: O_31  and  C_32 
ROOT
ATOM      1  C   LIG d   1      10.473  -6.646  -2.608  0.00  0.00     0.167 C 
ATOM      2  H   LIG d   1      11.061  -6.554  -3.521  0.00  0.00     0.080 H 
ATOM      3  H   LIG d   1       9.755  -7.459  -2.717  0.00  0.00     0.080 H 
ENDROOT
BRANCH   1   4
ATOM      4  O   LIG d   1      11.342  -6.924  -1.508  0.00  0.00    -0.483 OA
BRANCH   4   5
ATOM      5  C   LIG d   1      11.072  -8.036  -0.774  0.00  0.00     0.122 A 
ATOM      6  C   LIG d   1      11.501  -8.118   0.539  0.00  0.00    -0.008 A 
ATOM      7  C   LIG d   1      11.220  -9.259   1.283  0.00  0.00     0.038 A 
ATOM      8  H   LIG d   1      12.051  -7.301   0.984  0.00  0.00     0.066 H 
ATOM      9  C   LIG d   1      11.511  -9.682   2.668  0.00  0.00     0.107 A 
ATOM     10  C   LIG d   1      10.507 -10.321   0.709  0.00  0.00     0.136 A 
ATOM     11  C   LIG d   1      10.964 -10.922   2.796  0.00  0.00     0.117 A 
ATOM     12  O   LIG d   1      10.381 -11.283   1.648  0.00  0.00    -0.459 OA
ATOM     13  C   LIG d   1      10.084 -10.223  -0.611  0.00  0.00    -0.015 A 
ATOM     14  C   LIG d   1      10.365  -9.090  -1.344  0.00  0.00    -0.016 A 
ATOM     15  H   LIG d   1       9.534 -11.035  -1.064  0.00  0.00     0.066 H 
ATOM     16  H   LIG d   1      10.030  -9.018  -2.367  0.00  0.00     0.066 H 
BRANCH   9  17
ATOM     17  C   LIG d   1      12.239  -8.924   3.693  0.00  0.00     0.343 C 
ATOM     18  O   LIG d   1      11.738  -7.932   4.185  0.00  0.00    -0.245 OA
BRANCH  17  19
ATOM     19  O   LIG d   1      13.464  -9.327   4.088  0.00  0.00    -0.461 OA
BRANCH  19  20
ATOM     20  C   LIG d   1      14.472  -9.481   3.055  0.00  0.00     0.090 C 
ATOM     21  H   LIG d   1      15.122 -10.320   3.303  0.00  0.00     0.070 H 
ATOM     22  H   LIG d   1      13.986  -9.669   2.097  0.00  0.00     0.070 H 
BRANCH  20  23
ATOM     23  C   LIG d   1      15.304  -8.200   2.960  0.00  0.00    -0.031 C 
ATOM     24  H   LIG d   1      15.477  -7.804   3.961  0.00  0.00     0.026 H 
ATOM     25  H   LIG d   1      16.262  -8.423   2.488  0.00  0.00     0.026 H 
ATOM     26  H   LIG d   1      14.768  -7.461   2.364  0.00  0.00     0.026 H 
ENDBRANCH  20  23
ENDBRANCH  19  20
ENDBRANCH  17  19
ENDBRANCH   9  17
BRANCH  11  27
ATOM     27  C   LIG d   1      11.007 -11.763   4.046  0.00  0.00    -0.005 C 
ATOM     28  H   LIG d   1      10.952 -11.115   4.921  0.00  0.00     0.031 H 
ATOM     29  H   LIG d   1      10.162 -12.452   4.051  0.00  0.00     0.031 H 
ATOM     30  H   LIG d   1      11.938 -12.329   4.072  0.00  0.00     0.031 H 
ENDBRANCH  11  27
ENDBRANCH   4   5
ENDBRANCH   1   4
BRANCH   1  31
ATOM     31  C   LIG d   1       9.737  -5.355  -2.352  0.00  0.00     0.267 C 
ATOM     32  O   LIG d   1       9.396  -5.064  -1.226  0.00  0.00    -0.271 OA
ATOM     33  N   LIG d   1       9.456  -4.526  -3.377  0.00  0.00    -0.231 N 
ATOM     34  H   LIG d   1       9.729  -4.759  -4.278  0.00  0.00     0.173 HD
BRANCH  33  35
ATOM     35  N   LIG d   1       8.772  -3.327  -3.141  0.00  0.00    -0.230 N 
ATOM     36  C   LIG d   1       7.660  -3.034  -3.843  0.00  0.00     0.260 C 
ATOM     37  O   LIG d   1       7.250  -3.812  -4.683  0.00  0.00    -0.269 OA
ATOM     38  H   LIG d   1       9.100  -2.706  -2.471  0.00  0.00     0.173 HD
BRANCH  36  39
ATOM     39  C   LIG d   1       6.940  -1.770  -3.594  0.00  0.00     0.042 A 
ATOM     40  C   LIG d   1       7.462  -0.563  -4.063  0.00  0.00    -0.004 A 
ATOM     41  C   LIG d   1       6.782   0.617  -3.827  0.00  0.00     0.162 A 
ATOM     42  H   LIG d   1       8.393  -0.551  -4.609  0.00  0.00     0.066 H 
ATOM     43  C   LIG d   1       5.580   0.601  -3.121  0.00  0.00     0.162 A 
ATOM     44  C   LIG d   1       5.062  -0.600  -2.655  0.00  0.00    -0.016 A 
ATOM     45  C   LIG d   1       5.732  -1.782  -2.893  0.00  0.00    -0.046 A 
ATOM     46  H   LIG d   1       4.130  -0.609  -2.110  0.00  0.00     0.066 H 
ATOM     47  H   LIG d   1       5.323  -2.714  -2.532  0.00  0.00     0.063 H 
BRANCH  41  48
ATOM     48  O   LIG d   1       7.289   1.796  -4.281  0.00  0.00    -0.491 OA
BRANCH  48  49
ATOM     49  C   LIG d   1       8.574   2.181  -3.791  0.00  0.00     0.079 C 
ATOM     50  H   LIG d   1       8.623   3.266  -3.712  0.00  0.00     0.066 H 
ATOM     51  H   LIG d   1       8.736   1.738  -2.809  0.00  0.00     0.066 H 
ATOM     52  H   LIG d   1       9.344   1.831  -4.479  0.00  0.00     0.066 H 
ENDBRANCH  48  49
ENDBRANCH  41  48
BRANCH  43  53
ATOM     53  O   LIG d   1       4.914   1.761  -2.890  0.00  0.00    -0.491 OA
BRANCH  53  54
ATOM     54  C   LIG d   1       3.487   1.705  -2.912  0.00  0.00     0.079 C 
ATOM     55  H   LIG d   1       3.168   0.720  -3.255  0.00  0.00     0.066 H 
ATOM     56  H   LIG d   1       3.101   1.884  -1.909  0.00  0.00     0.066 H 
ATOM     57  H   LIG d   1       3.103   2.467  -3.591  0.00  0.00     0.066 H 
ENDBRANCH  53  54
ENDBRANCH  43  53
ENDBRANCH  36  39
ENDBRANCH  33  35
ENDBRANCH   1  31
TORSDOF 14
ENDMDL
MODEL 8
REMARK VINA RESULT:      -6.2      1.955     11.098
REMARK  14 active torsions:
REMARK  status: ('A' for Active; 'I' for Inactive)
REMARK    1  A    between atoms: C_1  and  C_2 
REMARK    2  A    between atoms: C_2  and  O_3 
REMARK    3  A    between atoms: O_3  and  C_4 
REMARK    4  A    between atoms: C_4  and  C_6 
REMARK    5  A    between atoms: C_7  and  C_33 
REMARK    6  A    between atoms: C_12  and  O_15 
REMARK    7  A    between atoms: O_15  and  C_16 
REMARK    8  A    between atoms: C_16  and  C_17 
REMARK       I    between atoms: C_17  and  N_19 
REMARK    9  A    between atoms: N_19  and  N_20 
REMARK       I    between atoms: N_20  and  C_21 
REMARK   10  A    between atoms: C_21  and  C_23 
REMARK   11  A    between atoms: C_26  and  O_31 
REMARK   12  A    between atoms: C_27  and  O_29 
REMARK   13  A    between atoms: O_29  and  C_30 
REMARK   14  A    between atoms: O_31  and  C_32 
ROOT
ATOM      1  C   LIG d   1      10.443   4.068  -4.332  0.00  0.00     0.167 C 
ATOM      2  H   LIG d   1      10.629   4.563  -5.285  0.00  0.00     0.080 H 
ATOM      3  H   LIG d   1      11.391   3.858  -3.839  0.00  0.00     0.080 H 
ENDROOT
BRANCH   1   4
ATOM      4  O   LIG d   1       9.651   4.919  -3.500  0.00  0.00    -0.483 OA
BRANCH   4   5
ATOM      5  C   LIG d   1      10.252   5.432  -2.394  0.00  0.00     0.122 A 
ATOM      6  C   LIG d   1      10.020   6.746  -2.028  0.00  0.00    -0.008 A 
ATOM      7  C   LIG d   1      10.639   7.263  -0.894  0.00  0.00     0.038 A 
ATOM      8  H   LIG d   1       9.363   7.367  -2.619  0.00  0.00     0.066 H 
ATOM      9  C   LIG d   1      10.624   8.579  -0.223  0.00  0.00     0.107 A 
ATOM     10  C   LIG d   1      11.493   6.459  -0.125  0.00  0.00     0.136 A 
ATOM     11  C   LIG d   1      11.447   8.450   0.855  0.00  0.00     0.117 A 
ATOM     12  O   LIG d   1      11.946   7.211   0.901  0.00  0.00    -0.459 OA
ATOM     13  C   LIG d   1      11.715   5.142  -0.506  0.00  0.00    -0.015 A 
ATOM     14  C   LIG d   1      11.100   4.635  -1.631  0.00  0.00    -0.016 A 
ATOM     15  H   LIG d   1      12.371   4.514   0.078  0.00  0.00     0.066 H 
ATOM     16  H   LIG d   1      11.274   3.610  -1.919  0.00  0.00     0.066 H 
BRANCH   9  17
ATOM     17  C   LIG d   1       9.880   9.776  -0.634  0.00  0.00     0.343 C 
ATOM     18  O   LIG d   1       8.788  10.007  -0.152  0.00  0.00    -0.245 OA
BRANCH  17  19
ATOM     19  O   LIG d   1      10.406  10.619  -1.546  0.00  0.00    -0.461 OA
BRANCH  19  20
ATOM     20  C   LIG d   1      10.786  11.940  -1.080  0.00  0.00     0.090 C 
ATOM     21  H   LIG d   1      10.544  12.036  -0.021  0.00  0.00     0.070 H 
ATOM     22  H   LIG d   1      11.858  12.081  -1.222  0.00  0.00     0.070 H 
BRANCH  20  23
ATOM     23  C   LIG d   1      10.022  13.000  -1.875  0.00  0.00    -0.031 C 
ATOM     24  H   LIG d   1       9.358  12.511  -2.589  0.00  0.00     0.026 H 
ATOM     25  H   LIG d   1       9.432  13.612  -1.193  0.00  0.00     0.026 H 
ATOM     26  H   LIG d   1      10.730  13.632  -2.412  0.00  0.00     0.026 H 
ENDBRANCH  20  23
ENDBRANCH  19  20
ENDBRANCH  17  19
ENDBRANCH   9  17
BRANCH  11  27
ATOM     27  C   LIG d   1      11.747   9.543   1.848  0.00  0.00    -0.005 C 
ATOM     28  H   LIG d   1      11.810   9.116   2.849  0.00  0.00     0.031 H 
ATOM     29  H   LIG d   1      12.697  10.014   1.594  0.00  0.00     0.031 H 
ATOM     30  H   LIG d   1      10.953  10.288   1.821  0.00  0.00     0.031 H 
ENDBRANCH  11  27
ENDBRANCH   4   5
ENDBRANCH   1   4
BRANCH   1  31
ATOM     31  C   LIG d   1       9.705   2.776  -4.574  0.00  0.00     0.267 C 
ATOM     32  O   LIG d   1       9.474   2.411  -5.707  0.00  0.00    -0.271 OA
ATOM     33  N   LIG d   1       9.299   2.026  -3.530  0.00  0.00    -0.231 N 
ATOM     34  H   LIG d   1       9.483   2.318  -2.623  0.00  0.00     0.173 HD
BRANCH  33  35
ATOM     35  N   LIG d   1       8.613   0.826  -3.753  0.00  0.00    -0.230 N 
ATOM     36  C   LIG d   1       7.276   0.772  -3.589  0.00  0.00     0.260 C 
ATOM     37  O   LIG d   1       6.665   1.767  -3.247  0.00  0.00    -0.269 OA
ATOM     38  H   LIG d   1       9.101   0.033  -4.026  0.00  0.00     0.173 HD
BRANCH  36  39
ATOM     39  C   LIG d   1       6.554  -0.493  -3.825  0.00  0.00     0.042 A 
ATOM     40  C   LIG d   1       5.200  -0.598  -3.495  0.00  0.00    -0.004 A 
ATOM     41  C   LIG d   1       4.529  -1.785  -3.718  0.00  0.00     0.162 A 
ATOM     42  H   LIG d   1       4.680   0.246  -3.067  0.00  0.00     0.066 H 
ATOM     43  C   LIG d   1       5.201  -2.874  -4.271  0.00  0.00     0.162 A 
ATOM     44  C   LIG d   1       6.546  -2.768  -4.599  0.00  0.00    -0.016 A 
ATOM     45  C   LIG d   1       7.221  -1.586  -4.384  0.00  0.00    -0.046 A 
ATOM     46  H   LIG d   1       7.063  -3.613  -5.028  0.00  0.00     0.066 H 
ATOM     47  H   LIG d   1       8.266  -1.506  -4.644  0.00  0.00     0.063 H 
BRANCH  41  48
ATOM     48  O   LIG d   1       3.211  -1.891  -3.397  0.00  0.00    -0.491 OA
BRANCH  48  49
ATOM     49  C   LIG d   1       2.493  -0.673  -3.195  0.00  0.00     0.079 C 
ATOM     50  H   LIG d   1       1.427  -0.886  -3.116  0.00  0.00     0.066 H 
ATOM     51  H   LIG d   1       2.836  -0.196  -2.277  0.00  0.00     0.066 H 
ATOM     52  H   LIG d   1       2.668  -0.004  -4.038  0.00  0.00     0.066 H 
ENDBRANCH  48  49
ENDBRANCH  41  48
BRANCH  43  53
ATOM     53  O   LIG d   1       4.540  -4.039  -4.490  0.00  0.00    -0.491 OA
BRANCH  53  54
ATOM     54  C   LIG d   1       4.715  -4.654  -5.767  0.00  0.00     0.079 C 
ATOM     55  H   LIG d   1       4.647  -5.737  -5.660  0.00  0.00     0.066 H 
ATOM     56  H   LIG d   1       3.940  -4.306  -6.448  0.00  0.00     0.066 H 
ATOM     57  H   LIG d   1       5.695  -4.390  -6.166  0.00  0.00     0.066 H 
ENDBRANCH  53  54
ENDBRANCH  43  53
ENDBRANCH  36  39
ENDBRANCH  33  35
ENDBRANCH   1  31
TORSDOF 14
ENDMDL
MODEL 9
REMARK VINA RESULT:      -6.1      1.780      2.391
REMARK  14 active torsions:
REMARK  status: ('A' for Active; 'I' for Inactive)
REMARK    1  A    between atoms: C_1  and  C_2 
REMARK    2  A    between atoms: C_2  and  O_3 
REMARK    3  A    between atoms: O_3  and  C_4 
REMARK    4  A    between atoms: C_4  and  C_6 
REMARK    5  A    between atoms: C_7  and  C_33 
REMARK    6  A    between atoms: C_12  and  O_15 
REMARK    7  A    between atoms: O_15  and  C_16 
REMARK    8  A    between atoms: C_16  and  C_17 
REMARK       I    between atoms: C_17  and  N_19 
REMARK    9  A    between atoms: N_19  and  N_20 
REMARK       I    between atoms: N_20  and  C_21 
REMARK   10  A    between atoms: C_21  and  C_23 
REMARK   11  A    between atoms: C_26  and  O_31 
REMARK   12  A    between atoms: C_27  and  O_29 
REMARK   13  A    between atoms: O_29  and  C_30 
REMARK   14  A    between atoms: O_31  and  C_32 
ROOT
ATOM      1  C   LIG d   1      10.767   3.169  -2.929  0.00  0.00     0.167 C 
ATOM      2  H   LIG d   1      11.092   2.284  -2.381  0.00  0.00     0.080 H 
ATOM      3  H   LIG d   1      11.190   3.150  -3.933  0.00  0.00     0.080 H 
ENDROOT
BRANCH   1   4
ATOM      4  O   LIG d   1       9.340   3.179  -3.013  0.00  0.00    -0.483 OA
BRANCH   4   5
ATOM      5  C   LIG d   1       8.777   2.470  -4.028  0.00  0.00     0.122 A 
ATOM      6  C   LIG d   1       7.870   1.465  -3.748  0.00  0.00    -0.008 A 
ATOM      7  C   LIG d   1       7.298   0.745  -4.793  0.00  0.00     0.038 A 
ATOM      8  H   LIG d   1       7.606   1.238  -2.725  0.00  0.00     0.066 H 
ATOM      9  C   LIG d   1       6.323  -0.362  -4.868  0.00  0.00     0.107 A 
ATOM     10  C   LIG d   1       7.638   1.035  -6.122  0.00  0.00     0.136 A 
ATOM     11  C   LIG d   1       6.170  -0.628  -6.194  0.00  0.00     0.117 A 
ATOM     12  O   LIG d   1       6.942   0.193  -6.915  0.00  0.00    -0.459 OA
ATOM     13  C   LIG d   1       8.551   2.048  -6.385  0.00  0.00    -0.015 A 
ATOM     14  C   LIG d   1       9.115   2.758  -5.347  0.00  0.00    -0.016 A 
ATOM     15  H   LIG d   1       8.821   2.281  -7.405  0.00  0.00     0.066 H 
ATOM     16  H   LIG d   1       9.821   3.547  -5.558  0.00  0.00     0.066 H 
BRANCH   9  17
ATOM     17  C   LIG d   1       5.657  -1.035  -3.745  0.00  0.00     0.343 C 
ATOM     18  O   LIG d   1       6.266  -1.847  -3.077  0.00  0.00    -0.245 OA
BRANCH  17  19
ATOM     19  O   LIG d   1       4.370  -0.754  -3.457  0.00  0.00    -0.461 OA
BRANCH  19  20
ATOM     20  C   LIG d   1       4.049   0.629  -3.157  0.00  0.00     0.090 C 
ATOM     21  H   LIG d   1       4.543   1.282  -3.878  0.00  0.00     0.070 H 
ATOM     22  H   LIG d   1       2.970   0.774  -3.216  0.00  0.00     0.070 H 
BRANCH  20  23
ATOM     23  C   LIG d   1       4.533   0.971  -1.746  0.00  0.00    -0.031 C 
ATOM     24  H   LIG d   1       4.502   0.075  -1.125  0.00  0.00     0.026 H 
ATOM     25  H   LIG d   1       5.556   1.345  -1.793  0.00  0.00     0.026 H 
ATOM     26  H   LIG d   1       3.885   1.735  -1.315  0.00  0.00     0.026 H 
ENDBRANCH  20  23
ENDBRANCH  19  20
ENDBRANCH  17  19
ENDBRANCH   9  17
BRANCH  11  27
ATOM     27  C   LIG d   1       5.266  -1.690  -6.765  0.00  0.00    -0.005 C 
ATOM     28  H   LIG d   1       4.716  -2.172  -5.957  0.00  0.00     0.031 H 
ATOM     29  H   LIG d   1       4.562  -1.232  -7.461  0.00  0.00     0.031 H 
ATOM     30  H   LIG d   1       5.865  -2.433  -7.292  0.00  0.00     0.031 H 
ENDBRANCH  11  27
ENDBRANCH   4   5
ENDBRANCH   1   4
BRANCH   1  31
ATOM     31  C   LIG d   1      11.235   4.407  -2.208  0.00  0.00     0.267 C 
ATOM     32  O   LIG d   1      12.349   4.841  -2.409  0.00  0.00    -0.271 OA
ATOM     33  N   LIG d   1      10.416   5.029  -1.337  0.00  0.00    -0.231 N 
ATOM     34  H   LIG d   1       9.525   4.681  -1.176  0.00  0.00     0.173 HD
BRANCH  33  35
ATOM     35  N   LIG d   1      10.851   6.179  -0.666  0.00  0.00    -0.230 N 
ATOM     36  C   LIG d   1      10.110   7.304  -0.705  0.00  0.00     0.260 C 
ATOM     37  O   LIG d   1       9.063   7.321  -1.324  0.00  0.00    -0.269 OA
ATOM     38  H   LIG d   1      11.686   6.166  -0.173  0.00  0.00     0.173 HD
BRANCH  36  39
ATOM     39  C   LIG d   1      10.568   8.516   0.002  0.00  0.00     0.042 A 
ATOM     40  C   LIG d   1      11.716   8.471   0.796  0.00  0.00    -0.004 A 
ATOM     41  C   LIG d   1      12.141   9.608   1.456  0.00  0.00     0.162 A 
ATOM     42  H   LIG d   1      12.271   7.550   0.894  0.00  0.00     0.066 H 
ATOM     43  C   LIG d   1      11.423  10.797   1.329  0.00  0.00     0.162 A 
ATOM     44  C   LIG d   1      10.282  10.841   0.540  0.00  0.00    -0.016 A 
ATOM     45  C   LIG d   1       9.856   9.711  -0.126  0.00  0.00    -0.046 A 
ATOM     46  H   LIG d   1       9.730  11.763   0.443  0.00  0.00     0.066 H 
ATOM     47  H   LIG d   1       8.971   9.750  -0.742  0.00  0.00     0.063 H 
BRANCH  41  48
ATOM     48  O   LIG d   1      13.258   9.567   2.231  0.00  0.00    -0.491 OA
BRANCH  48  49
ATOM     49  C   LIG d   1      14.504   9.841   1.588  0.00  0.00     0.079 C 
ATOM     50  H   LIG d   1      14.384  10.682   0.905  0.00  0.00     0.066 H 
ATOM     51  H   LIG d   1      15.254  10.088   2.339  0.00  0.00     0.066 H 
ATOM     52  H   LIG d   1      14.824   8.962   1.029  0.00  0.00     0.066 H 
ENDBRANCH  48  49
ENDBRANCH  41  48
BRANCH  43  53
ATOM     53  O   LIG d   1      11.841  11.913   1.978  0.00  0.00    -0.491 OA
BRANCH  53  54
ATOM     54  C   LIG d   1      12.123  13.062   1.177  0.00  0.00     0.079 C 
ATOM     55  H   LIG d   1      13.074  13.496   1.488  0.00  0.00     0.066 H 
ATOM     56  H   LIG d   1      12.182  12.769   0.130  0.00  0.00     0.066 H 
ATOM     57  H   LIG d   1      11.329  13.798   1.305  0.00  0.00     0.066 H 
ENDBRANCH  53  54
ENDBRANCH  43  53
ENDBRANCH  36  39
ENDBRANCH  33  35
ENDBRANCH   1  31
TORSDOF 14
ENDMDL
MODEL 10
REMARK VINA RESULT:      -6.0      2.866     10.817
REMARK  14 active torsions:
REMARK  status: ('A' for Active; 'I' for Inactive)
REMARK    1  A    between atoms: C_1  and  C_2 
REMARK    2  A    between atoms: C_2  and  O_3 
REMARK    3  A    between atoms: O_3  and  C_4 
REMARK    4  A    between atoms: C_4  and  C_6 
REMARK    5  A    between atoms: C_7  and  C_33 
REMARK    6  A    between atoms: C_12  and  O_15 
REMARK    7  A    between atoms: O_15  and  C_16 
REMARK    8  A    between atoms: C_16  and  C_17 
REMARK       I    between atoms: C_17  and  N_19 
REMARK    9  A    between atoms: N_19  and  N_20 
REMARK       I    between atoms: N_20  and  C_21 
REMARK   10  A    between atoms: C_21  and  C_23 
REMARK   11  A    between atoms: C_26  and  O_31 
REMARK   12  A    between atoms: C_27  and  O_29 
REMARK   13  A    between atoms: O_29  and  C_30 
REMARK   14  A    between atoms: O_31  and  C_32 
ROOT
ATOM      1  C   LIG d   1      11.244   3.581  -3.403  0.00  0.00     0.167 C 
ATOM      2  H   LIG d   1      10.992   4.280  -4.200  0.00  0.00     0.080 H 
ATOM      3  H   LIG d   1      12.323   3.424  -3.385  0.00  0.00     0.080 H 
ENDROOT
BRANCH   1   4
ATOM      4  O   LIG d   1      10.820   4.116  -2.148  0.00  0.00    -0.483 OA
BRANCH   4   5
ATOM      5  C   LIG d   1      10.588   5.455  -2.095  0.00  0.00     0.122 A 
ATOM      6  C   LIG d   1      10.537   6.194  -3.263  0.00  0.00    -0.008 A 
ATOM      7  C   LIG d   1      10.299   7.563  -3.199  0.00  0.00     0.038 A 
ATOM      8  H   LIG d   1      10.682   5.713  -4.219  0.00  0.00     0.066 H 
ATOM      9  C   LIG d   1      10.180   8.636  -4.208  0.00  0.00     0.107 A 
ATOM     10  C   LIG d   1      10.110   8.192  -1.960  0.00  0.00     0.136 A 
ATOM     11  C   LIG d   1       9.940   9.777  -3.505  0.00  0.00     0.117 A 
ATOM     12  O   LIG d   1       9.901   9.505  -2.196  0.00  0.00    -0.459 OA
ATOM     13  C   LIG d   1      10.164   7.435  -0.797  0.00  0.00    -0.015 A 
ATOM     14  C   LIG d   1      10.402   6.079  -0.866  0.00  0.00    -0.016 A 
ATOM     15  H   LIG d   1      10.021   7.909   0.163  0.00  0.00     0.066 H 
ATOM     16  H   LIG d   1      10.438   5.495   0.042  0.00  0.00     0.066 H 
BRANCH   9  17
ATOM     17  C   LIG d   1      10.299   8.500  -5.665  0.00  0.00     0.343 C 
ATOM     18  O   LIG d   1      11.306   8.878  -6.231  0.00  0.00    -0.245 OA
BRANCH  17  19
ATOM     19  O   LIG d   1       9.290   7.957  -6.377  0.00  0.00    -0.461 OA
BRANCH  19  20
ATOM     20  C   LIG d   1       9.655   7.060  -7.459  0.00  0.00     0.090 C 
ATOM     21  H   LIG d   1       8.834   6.999  -8.173  0.00  0.00     0.070 H 
ATOM     22  H   LIG d   1      10.546   7.439  -7.960  0.00  0.00     0.070 H 
BRANCH  20  23
ATOM     23  C   LIG d   1       9.942   5.668  -6.892  0.00  0.00    -0.031 C 
ATOM     24  H   LIG d   1      10.720   5.739  -6.131  0.00  0.00     0.026 H 
ATOM     25  H   LIG d   1       9.034   5.263  -6.445  0.00  0.00     0.026 H 
ATOM     26  H   LIG d   1      10.277   5.011  -7.694  0.00  0.00     0.026 H 
ENDBRANCH  20  23
ENDBRANCH  19  20
ENDBRANCH  17  19
ENDBRANCH   9  17
BRANCH  11  27
ATOM     27  C   LIG d   1       9.745  11.142  -4.112  0.00  0.00    -0.005 C 
ATOM     28  H   LIG d   1       9.901  11.905  -3.349  0.00  0.00     0.031 H 
ATOM     29  H   LIG d   1      10.461  11.286  -4.922  0.00  0.00     0.031 H 
ATOM     30  H   LIG d   1       8.731  11.224  -4.505  0.00  0.00     0.031 H 
ENDBRANCH  11  27
ENDBRANCH   4   5
ENDBRANCH   1   4
BRANCH   1  31
ATOM     31  C   LIG d   1      10.548   2.267  -3.650  0.00  0.00     0.267 C 
ATOM     32  O   LIG d   1      11.193   1.286  -3.956  0.00  0.00    -0.271 OA
ATOM     33  N   LIG d   1       9.208   2.182  -3.531  0.00  0.00    -0.231 N 
ATOM     34  H   LIG d   1       8.693   2.966  -3.287  0.00  0.00     0.173 HD
BRANCH  33  35
ATOM     35  N   LIG d   1       8.561   0.961  -3.760  0.00  0.00    -0.230 N 
ATOM     36  C   LIG d   1       7.224   0.869  -3.617  0.00  0.00     0.260 C 
ATOM     37  O   LIG d   1       6.579   1.848  -3.289  0.00  0.00    -0.269 OA
ATOM     38  H   LIG d   1       9.075   0.181  -4.022  0.00  0.00     0.173 HD
BRANCH  36  39
ATOM     39  C   LIG d   1       6.541  -0.417  -3.859  0.00  0.00     0.042 A 
ATOM     40  C   LIG d   1       5.203  -0.579  -3.491  0.00  0.00    -0.004 A 
ATOM     41  C   LIG d   1       4.570  -1.785  -3.720  0.00  0.00     0.162 A 
ATOM     42  H   LIG d   1       4.666   0.236  -3.030  0.00  0.00     0.066 H 
ATOM     43  C   LIG d   1       5.264  -2.837  -4.316  0.00  0.00     0.162 A 
ATOM     44  C   LIG d   1       6.595  -2.674  -4.681  0.00  0.00    -0.016 A 
ATOM     45  C   LIG d   1       7.231  -1.472  -4.460  0.00  0.00    -0.046 A 
ATOM     46  H   LIG d   1       7.129  -3.490  -5.143  0.00  0.00     0.066 H 
ATOM     47  H   LIG d   1       8.264  -1.348  -4.750  0.00  0.00     0.063 H 
BRANCH  41  48
ATOM     48  O   LIG d   1       3.267  -1.947  -3.362  0.00  0.00    -0.491 OA
BRANCH  48  49
ATOM     49  C   LIG d   1       2.495  -0.760  -3.170  0.00  0.00     0.079 C 
ATOM     50  H   LIG d   1       3.144   0.112  -3.240  0.00  0.00     0.066 H 
ATOM     51  H   LIG d   1       1.723  -0.700  -3.936  0.00  0.00     0.066 H 
ATOM     52  H   LIG d   1       2.027  -0.788  -2.185  0.00  0.00     0.066 H 
ENDBRANCH  48  49
ENDBRANCH  41  48
BRANCH  43  53
ATOM     53  O   LIG d   1       4.640  -4.021  -4.540  0.00  0.00    -0.491 OA
BRANCH  53  54
ATOM     54  C   LIG d   1       4.615  -4.496  -5.887  0.00  0.00     0.079 C 
ATOM     55  H   LIG d   1       4.983  -3.716  -6.554  0.00  0.00     0.066 H 
ATOM     56  H   LIG d   1       5.248  -5.378  -5.974  0.00  0.00     0.066 H 
ATOM     57  H   LIG d   1       3.591  -4.755  -6.162  0.00  0.00     0.066 H 
ENDBRANCH  53  54
ENDBRANCH  43  53
ENDBRANCH  36  39
ENDBRANCH  33  35
ENDBRANCH   1  31
TORSDOF 14
ENDMDL
