MODEL 1
REMARK VINA RESULT:      -7.1      0.000      0.000
REMARK  4 active torsions:
REMARK  status: ('A' for Active; 'I' for Inactive)
REMARK    1  A    between atoms: C_4  and  C_7 
REMARK    2  A    between atoms: C_7  and  C_9 
REMARK    3  A    between atoms: C_9  and  N_10 
REMARK    4  A    between atoms: C_15  and  C_16 
ROOT
ATOM      1  N   LIG d   1       3.344   0.715  -7.391  0.00  0.00    -0.188 N 
ATOM      2  C   LIG d   1       2.829   1.687  -8.115  0.00  0.00     0.172 A 
ATOM      3  C   LIG d   1       3.562   2.285  -9.125  0.00  0.00     0.002 A 
ATOM      4  C   LIG d   1       4.857   1.851  -9.374  0.00  0.00    -0.050 A 
ATOM      5  C   LIG d   1       5.371   0.828  -8.597  0.00  0.00     0.012 A 
ATOM      6  C   LIG d   1       4.577   0.271  -7.597  0.00  0.00     0.234 A 
ATOM      7  H   LIG d   1       1.822   2.021  -7.919  0.00  0.00     0.138 H 
ATOM      8  H   LIG d   1       3.131   3.081  -9.713  0.00  0.00     0.068 H 
ATOM      9  H   LIG d   1       5.448   2.302 -10.157  0.00  0.00     0.062 H 
ATOM     10  H   LIG d   1       6.374   0.463  -8.766  0.00  0.00     0.068 H 
ENDROOT
BRANCH   1  11
ATOM     11  C   LIG d   1       2.534   0.108  -6.331  0.00  0.00     0.213 C 
ATOM     12  H   LIG d   1       1.571   0.117  -6.601  0.00  0.00     0.112 H 
ATOM     13  H   LIG d   1       2.857  -0.919  -6.170  0.00  0.00     0.112 H 
BRANCH  11  14
ATOM     14  C   LIG d   1       2.706   0.894  -5.056  0.00  0.00     0.228 C 
ATOM     15  O   LIG d   1       2.356   2.054  -5.007  0.00  0.00    -0.285 OA
BRANCH  14  16
ATOM     16  C   LIG d   1       3.299   0.254  -3.871  0.00  0.00     0.024 A 
ATOM     17  C   LIG d   1       4.055   1.008  -2.969  0.00  0.00    -0.051 A 
ATOM     18  C   LIG d   1       4.608   0.401  -1.861  0.00  0.00    -0.061 A 
ATOM     19  H   LIG d   1       4.205   2.064  -3.139  0.00  0.00     0.062 H 
ATOM     20  C   LIG d   1       4.416  -0.953  -1.641  0.00  0.00    -0.062 A 
ATOM     21  H   LIG d   1       5.191   0.982  -1.163  0.00  0.00     0.062 H 
ATOM     22  C   LIG d   1       3.669  -1.706  -2.531  0.00  0.00    -0.061 A 
ATOM     23  H   LIG d   1       4.853  -1.423  -0.773  0.00  0.00     0.062 H 
ATOM     24  C   LIG d   1       3.105  -1.112  -3.640  0.00  0.00    -0.051 A 
ATOM     25  H   LIG d   1       3.524  -2.762  -2.353  0.00  0.00     0.062 H 
ATOM     26  H   LIG d   1       2.519  -1.700  -4.330  0.00  0.00     0.062 H 
ENDBRANCH  14  16
ENDBRANCH  11  14
ENDBRANCH   1  11
BRANCH   6  27
ATOM     27  C   LIG d   1       5.114  -0.826  -6.756  0.00  0.00     0.135 A 
ATOM     28  N   LIG d   1       4.642  -2.058  -6.902  0.00  0.00    -0.249 NA
ATOM     29  C   LIG d   1       5.094  -3.061  -6.178  0.00  0.00     0.029 A 
ATOM     30  C   LIG d   1       6.078  -2.862  -5.225  0.00  0.00    -0.043 A 
ATOM     31  H   LIG d   1       4.689  -4.051  -6.327  0.00  0.00     0.083 H 
ATOM     32  C   LIG d   1       6.596  -1.589  -5.038  0.00  0.00    -0.058 A 
ATOM     33  H   LIG d   1       6.440  -3.691  -4.635  0.00  0.00     0.063 H 
ATOM     34  C   LIG d   1       6.105  -0.555  -5.816  0.00  0.00    -0.030 A 
ATOM     35  H   LIG d   1       7.364  -1.409  -4.301  0.00  0.00     0.062 H 
ATOM     36  H   LIG d   1       6.485   0.449  -5.697  0.00  0.00     0.064 H 
ENDBRANCH   6  27
TORSDOF 4
ENDMDL
MODEL 2
REMARK VINA RESULT:      -6.8      0.608      1.042
REMARK  4 active torsions:
REMARK  status: ('A' for Active; 'I' for Inactive)
REMARK    1  A    between atoms: C_4  and  C_7 
REMARK    2  A    between atoms: C_7  and  C_9 
REMARK    3  A    between atoms: C_9  and  N_10 
REMARK    4  A    between atoms: C_15  and  C_16 
ROOT
ATOM      1  N   LIG d   1       3.336   0.692  -7.364  0.00  0.00    -0.188 N 
ATOM      2  C   LIG d   1       2.764   1.663  -8.047  0.00  0.00     0.172 A 
ATOM      3  C   LIG d   1       3.453   2.330  -9.044  0.00  0.00     0.002 A 
ATOM      4  C   LIG d   1       4.763   1.969  -9.325  0.00  0.00    -0.050 A 
ATOM      5  C   LIG d   1       5.338   0.945  -8.592  0.00  0.00     0.012 A 
ATOM      6  C   LIG d   1       4.586   0.316  -7.602  0.00  0.00     0.234 A 
ATOM      7  H   LIG d   1       1.745   1.940  -7.826  0.00  0.00     0.138 H 
ATOM      8  H   LIG d   1       2.975   3.124  -9.598  0.00  0.00     0.068 H 
ATOM      9  H   LIG d   1       5.320   2.475 -10.099  0.00  0.00     0.062 H 
ATOM     10  H   LIG d   1       6.354   0.636  -8.787  0.00  0.00     0.068 H 
ENDROOT
BRANCH   1  11
ATOM     11  C   LIG d   1       2.572   0.010  -6.316  0.00  0.00     0.213 C 
ATOM     12  H   LIG d   1       1.614  -0.063  -6.595  0.00  0.00     0.112 H 
ATOM     13  H   LIG d   1       2.982  -0.987  -6.158  0.00  0.00     0.112 H 
BRANCH  11  14
ATOM     14  C   LIG d   1       2.663   0.799  -5.035  0.00  0.00     0.228 C 
ATOM     15  O   LIG d   1       2.218   1.925  -4.983  0.00  0.00    -0.285 OA
BRANCH  14  16
ATOM     16  C   LIG d   1       3.293   0.201  -3.846  0.00  0.00     0.024 A 
ATOM     17  C   LIG d   1       4.046   0.995  -2.976  0.00  0.00    -0.051 A 
ATOM     18  C   LIG d   1       4.634   0.428  -1.865  0.00  0.00    -0.061 A 
ATOM     19  H   LIG d   1       4.168   2.050  -3.174  0.00  0.00     0.062 H 
ATOM     20  C   LIG d   1       4.479  -0.924  -1.609  0.00  0.00    -0.062 A 
ATOM     21  H   LIG d   1       5.215   1.039  -1.192  0.00  0.00     0.062 H 
ATOM     22  C   LIG d   1       3.734  -1.716  -2.466  0.00  0.00    -0.061 A 
ATOM     23  H   LIG d   1       4.942  -1.362  -0.738  0.00  0.00     0.062 H 
ATOM     24  C   LIG d   1       3.136  -1.163  -3.579  0.00  0.00    -0.051 A 
ATOM     25  H   LIG d   1       3.617  -2.770  -2.261  0.00  0.00     0.062 H 
ATOM     26  H   LIG d   1       2.551  -1.781  -4.244  0.00  0.00     0.062 H 
ENDBRANCH  14  16
ENDBRANCH  11  14
ENDBRANCH   1  11
BRANCH   6  27
ATOM     27  C   LIG d   1       5.188  -0.782  -6.808  0.00  0.00     0.135 A 
ATOM     28  N   LIG d   1       6.026  -0.497  -5.820  0.00  0.00    -0.249 NA
ATOM     29  C   LIG d   1       6.578  -1.443  -5.088  0.00  0.00     0.029 A 
ATOM     30  C   LIG d   1       6.310  -2.778  -5.332  0.00  0.00    -0.043 A 
ATOM     31  H   LIG d   1       7.252  -1.173  -4.289  0.00  0.00     0.083 H 
ATOM     32  C   LIG d   1       5.442  -3.120  -6.359  0.00  0.00    -0.058 A 
ATOM     33  H   LIG d   1       6.770  -3.546  -4.729  0.00  0.00     0.063 H 
ATOM     34  C   LIG d   1       4.873  -2.105  -7.109  0.00  0.00    -0.030 A 
ATOM     35  H   LIG d   1       5.217  -4.155  -6.569  0.00  0.00     0.062 H 
ATOM     36  H   LIG d   1       4.193  -2.336  -7.916  0.00  0.00     0.064 H 
ENDBRANCH   6  27
TORSDOF 4
ENDMDL
MODEL 3
REMARK VINA RESULT:      -6.4      1.868      5.120
REMARK  4 active torsions:
REMARK  status: ('A' for Active; 'I' for Inactive)
REMARK    1  A    between atoms: C_4  and  C_7 
REMARK    2  A    between atoms: C_7  and  C_9 
REMARK    3  A    between atoms: C_9  and  N_10 
REMARK    4  A    between atoms: C_15  and  C_16 
ROOT
ATOM      1  N   LIG d   1       4.615  -0.958  -4.783  0.00  0.00    -0.188 N 
ATOM      2  C   LIG d   1       3.575  -0.178  -4.570  0.00  0.00     0.172 A 
ATOM      3  C   LIG d   1       2.777  -0.349  -3.453  0.00  0.00     0.002 A 
ATOM      4  C   LIG d   1       3.080  -1.356  -2.548  0.00  0.00    -0.050 A 
ATOM      5  C   LIG d   1       4.179  -2.159  -2.797  0.00  0.00     0.012 A 
ATOM      6  C   LIG d   1       4.939  -1.932  -3.942  0.00  0.00     0.234 A 
ATOM      7  H   LIG d   1       3.343   0.605  -5.276  0.00  0.00     0.138 H 
ATOM      8  H   LIG d   1       1.926   0.296  -3.288  0.00  0.00     0.068 H 
ATOM      9  H   LIG d   1       2.472  -1.508  -1.669  0.00  0.00     0.062 H 
ATOM     10  H   LIG d   1       4.446  -2.950  -2.112  0.00  0.00     0.068 H 
ENDROOT
BRANCH   1  11
ATOM     11  C   LIG d   1       5.436  -0.744  -5.978  0.00  0.00     0.213 C 
ATOM     12  H   LIG d   1       5.860   0.161  -5.934  0.00  0.00     0.112 H 
ATOM     13  H   LIG d   1       6.211  -1.507  -6.028  0.00  0.00     0.112 H 
BRANCH  11  14
ATOM     14  C   LIG d   1       4.566  -0.831  -7.206  0.00  0.00     0.228 C 
ATOM     15  O   LIG d   1       4.104  -1.898  -7.548  0.00  0.00    -0.285 OA
BRANCH  14  16
ATOM     16  C   LIG d   1       4.277   0.381  -7.990  0.00  0.00     0.024 A 
ATOM     17  C   LIG d   1       5.320   1.097  -8.586  0.00  0.00    -0.051 A 
ATOM     18  C   LIG d   1       5.042   2.232  -9.319  0.00  0.00    -0.061 A 
ATOM     19  H   LIG d   1       6.341   0.762  -8.474  0.00  0.00     0.062 H 
ATOM     20  C   LIG d   1       3.734   2.663  -9.464  0.00  0.00    -0.062 A 
ATOM     21  H   LIG d   1       5.846   2.785  -9.780  0.00  0.00     0.062 H 
ATOM     22  C   LIG d   1       2.697   1.960  -8.877  0.00  0.00    -0.061 A 
ATOM     23  H   LIG d   1       3.523   3.553 -10.038  0.00  0.00     0.062 H 
ATOM     24  C   LIG d   1       2.958   0.819  -8.146  0.00  0.00    -0.051 A 
ATOM     25  H   LIG d   1       1.680   2.302  -8.995  0.00  0.00     0.062 H 
ATOM     26  H   LIG d   1       2.148   0.269  -7.692  0.00  0.00     0.062 H 
ENDBRANCH  14  16
ENDBRANCH  11  14
ENDBRANCH   1  11
BRANCH   6  27
ATOM     27  C   LIG d   1       6.120  -2.784  -4.223  0.00  0.00     0.135 A 
ATOM     28  N   LIG d   1       5.995  -3.840  -5.017  0.00  0.00    -0.249 NA
ATOM     29  C   LIG d   1       7.020  -4.619  -5.295  0.00  0.00     0.029 A 
ATOM     30  C   LIG d   1       8.269  -4.369  -4.757  0.00  0.00    -0.043 A 
ATOM     31  H   LIG d   1       6.882  -5.467  -5.950  0.00  0.00     0.083 H 
ATOM     32  C   LIG d   1       8.442  -3.278  -3.918  0.00  0.00    -0.058 A 
ATOM     33  H   LIG d   1       9.102  -5.016  -4.988  0.00  0.00     0.063 H 
ATOM     34  C   LIG d   1       7.349  -2.473  -3.646  0.00  0.00    -0.030 A 
ATOM     35  H   LIG d   1       9.408  -3.062  -3.485  0.00  0.00     0.062 H 
ATOM     36  H   LIG d   1       7.448  -1.616  -2.997  0.00  0.00     0.064 H 
ENDBRANCH   6  27
TORSDOF 4
ENDMDL
MODEL 4
REMARK VINA RESULT:      -6.0      2.298      4.424
REMARK  4 active torsions:
REMARK  status: ('A' for Active; 'I' for Inactive)
REMARK    1  A    between atoms: C_4  and  C_7 
REMARK    2  A    between atoms: C_7  and  C_9 
REMARK    3  A    between atoms: C_9  and  N_10 
REMARK    4  A    between atoms: C_15  and  C_16 
ROOT
ATOM      1  N   LIG d   1       4.507  -2.211  -7.926  0.00  0.00    -0.188 N 
ATOM      2  C   LIG d   1       4.497  -3.519  -7.772  0.00  0.00     0.172 A 
ATOM      3  C   LIG d   1       3.628  -4.313  -8.499  0.00  0.00     0.002 A 
ATOM      4  C   LIG d   1       2.757  -3.719  -9.402  0.00  0.00    -0.050 A 
ATOM      5  C   LIG d   1       2.790  -2.343  -9.544  0.00  0.00     0.012 A 
ATOM      6  C   LIG d   1       3.691  -1.604  -8.780  0.00  0.00     0.234 A 
ATOM      7  H   LIG d   1       5.176  -3.977  -7.069  0.00  0.00     0.138 H 
ATOM      8  H   LIG d   1       3.628  -5.385  -8.365  0.00  0.00     0.068 H 
ATOM      9  H   LIG d   1       2.071  -4.318  -9.981  0.00  0.00     0.062 H 
ATOM     10  H   LIG d   1       2.129  -1.848 -10.240  0.00  0.00     0.068 H 
ENDROOT
BRANCH   1  11
ATOM     11  C   LIG d   1       5.442  -1.405  -7.137  0.00  0.00     0.213 C 
ATOM     12  H   LIG d   1       6.345  -1.426  -7.568  0.00  0.00     0.112 H 
ATOM     13  H   LIG d   1       5.086  -0.377  -7.090  0.00  0.00     0.112 H 
BRANCH  11  14
ATOM     14  C   LIG d   1       5.538  -1.969  -5.743  0.00  0.00     0.228 C 
ATOM     15  O   LIG d   1       6.418  -2.754  -5.465  0.00  0.00    -0.285 OA
BRANCH  14  16
ATOM     16  C   LIG d   1       4.561  -1.566  -4.718  0.00  0.00     0.024 A 
ATOM     17  C   LIG d   1       4.475  -2.270  -3.513  0.00  0.00    -0.051 A 
ATOM     18  C   LIG d   1       3.557  -1.887  -2.558  0.00  0.00    -0.061 A 
ATOM     19  H   LIG d   1       5.127  -3.112  -3.331  0.00  0.00     0.062 H 
ATOM     20  C   LIG d   1       2.721  -0.808  -2.790  0.00  0.00    -0.062 A 
ATOM     21  H   LIG d   1       3.491  -2.429  -1.627  0.00  0.00     0.062 H 
ATOM     22  C   LIG d   1       2.800  -0.106  -3.981  0.00  0.00    -0.061 A 
ATOM     23  H   LIG d   1       2.004  -0.514  -2.039  0.00  0.00     0.062 H 
ATOM     24  C   LIG d   1       3.717  -0.474  -4.944  0.00  0.00    -0.051 A 
ATOM     25  H   LIG d   1       2.144   0.734  -4.155  0.00  0.00     0.062 H 
ATOM     26  H   LIG d   1       3.780   0.078  -5.870  0.00  0.00     0.062 H 
ENDBRANCH  14  16
ENDBRANCH  11  14
ENDBRANCH   1  11
BRANCH   6  27
ATOM     27  C   LIG d   1       3.739  -0.129  -8.920  0.00  0.00     0.135 A 
ATOM     28  N   LIG d   1       4.687   0.431  -9.660  0.00  0.00    -0.249 NA
ATOM     29  C   LIG d   1       4.762   1.737  -9.814  0.00  0.00     0.029 A 
ATOM     30  C   LIG d   1       3.854   2.578  -9.195  0.00  0.00    -0.043 A 
ATOM     31  H   LIG d   1       5.545   2.157 -10.428  0.00  0.00     0.083 H 
ATOM     32  C   LIG d   1       2.849   2.035  -8.408  0.00  0.00    -0.058 A 
ATOM     33  H   LIG d   1       3.926   3.648  -9.325  0.00  0.00     0.063 H 
ATOM     34  C   LIG d   1       2.792   0.658  -8.268  0.00  0.00    -0.030 A 
ATOM     35  H   LIG d   1       2.130   2.670  -7.915  0.00  0.00     0.062 H 
ATOM     36  H   LIG d   1       2.023   0.201  -7.663  0.00  0.00     0.064 H 
ENDBRANCH   6  27
TORSDOF 4
ENDMDL
MODEL 5
REMARK VINA RESULT:      -6.0      2.536      5.054
REMARK  4 active torsions:
REMARK  status: ('A' for Active; 'I' for Inactive)
REMARK    1  A    between atoms: C_4  and  C_7 
REMARK    2  A    between atoms: C_7  and  C_9 
REMARK    3  A    between atoms: C_9  and  N_10 
REMARK    4  A    between atoms: C_15  and  C_16 
ROOT
ATOM      1  N   LIG d   1       4.608  -1.556  -6.238  0.00  0.00    -0.188 N 
ATOM      2  C   LIG d   1       4.408  -2.052  -7.442  0.00  0.00     0.172 A 
ATOM      3  C   LIG d   1       3.496  -1.473  -8.306  0.00  0.00     0.002 A 
ATOM      4  C   LIG d   1       2.784  -0.354  -7.895  0.00  0.00    -0.050 A 
ATOM      5  C   LIG d   1       3.015   0.145  -6.625  0.00  0.00     0.012 A 
ATOM      6  C   LIG d   1       3.948  -0.488  -5.807  0.00  0.00     0.234 A 
ATOM      7  H   LIG d   1       4.964  -2.921  -7.758  0.00  0.00     0.138 H 
ATOM      8  H   LIG d   1       3.340  -1.887  -9.291  0.00  0.00     0.068 H 
ATOM      9  H   LIG d   1       2.067   0.115  -8.551  0.00  0.00     0.062 H 
ATOM     10  H   LIG d   1       2.481   1.016  -6.273  0.00  0.00     0.068 H 
ENDROOT
BRANCH   1  11
ATOM     11  C   LIG d   1       5.583  -2.198  -5.353  0.00  0.00     0.213 C 
ATOM     12  H   LIG d   1       6.411  -2.416  -5.871  0.00  0.00     0.112 H 
ATOM     13  H   LIG d   1       5.832  -1.523  -4.536  0.00  0.00     0.112 H 
BRANCH  11  14
ATOM     14  C   LIG d   1       4.993  -3.468  -4.794  0.00  0.00     0.228 C 
ATOM     15  O   LIG d   1       4.145  -3.414  -3.930  0.00  0.00    -0.285 OA
BRANCH  14  16
ATOM     16  C   LIG d   1       5.447  -4.774  -5.299  0.00  0.00     0.024 A 
ATOM     17  C   LIG d   1       6.809  -5.015  -5.501  0.00  0.00    -0.051 A 
ATOM     18  C   LIG d   1       7.227  -6.241  -5.975  0.00  0.00    -0.061 A 
ATOM     19  H   LIG d   1       7.533  -4.243  -5.285  0.00  0.00     0.062 H 
ATOM     20  C   LIG d   1       6.300  -7.232  -6.252  0.00  0.00    -0.062 A 
ATOM     21  H   LIG d   1       8.278  -6.429  -6.130  0.00  0.00     0.062 H 
ATOM     22  C   LIG d   1       4.949  -7.000  -6.056  0.00  0.00    -0.061 A 
ATOM     23  H   LIG d   1       6.633  -8.189  -6.624  0.00  0.00     0.062 H 
ATOM     24  C   LIG d   1       4.517  -5.781  -5.577  0.00  0.00    -0.051 A 
ATOM     25  H   LIG d   1       4.232  -7.778  -6.274  0.00  0.00     0.062 H 
ATOM     26  H   LIG d   1       3.463  -5.604  -5.419  0.00  0.00     0.062 H 
ENDBRANCH  14  16
ENDBRANCH  11  14
ENDBRANCH   1  11
BRANCH   6  27
ATOM     27  C   LIG d   1       4.207   0.035  -4.443  0.00  0.00     0.135 A 
ATOM     28  N   LIG d   1       5.380   0.587  -4.162  0.00  0.00    -0.249 NA
ATOM     29  C   LIG d   1       5.648   1.067  -2.965  0.00  0.00     0.029 A 
ATOM     30  C   LIG d   1       4.713   1.003  -1.948  0.00  0.00    -0.043 A 
ATOM     31  H   LIG d   1       6.612   1.515  -2.775  0.00  0.00     0.083 H 
ATOM     32  C   LIG d   1       3.475   0.429  -2.198  0.00  0.00    -0.058 A 
ATOM     33  H   LIG d   1       4.944   1.396  -0.969  0.00  0.00     0.063 H 
ATOM     34  C   LIG d   1       3.219  -0.064  -3.467  0.00  0.00    -0.030 A 
ATOM     35  H   LIG d   1       2.728   0.366  -1.420  0.00  0.00     0.062 H 
ATOM     36  H   LIG d   1       2.266  -0.517  -3.696  0.00  0.00     0.064 H 
ENDBRANCH   6  27
TORSDOF 4
ENDMDL
MODEL 6
REMARK VINA RESULT:      -6.0      2.101      3.434
REMARK  4 active torsions:
REMARK  status: ('A' for Active; 'I' for Inactive)
REMARK    1  A    between atoms: C_4  and  C_7 
REMARK    2  A    between atoms: C_7  and  C_9 
REMARK    3  A    between atoms: C_9  and  N_10 
REMARK    4  A    between atoms: C_15  and  C_16 
ROOT
ATOM      1  N   LIG d   1       5.213  -0.235  -7.567  0.00  0.00    -0.188 N 
ATOM      2  C   LIG d   1       6.286   0.326  -7.049  0.00  0.00     0.172 A 
ATOM      3  C   LIG d   1       7.118   1.117  -7.821  0.00  0.00     0.002 A 
ATOM      4  C   LIG d   1       6.813   1.319  -9.160  0.00  0.00    -0.050 A 
ATOM      5  C   LIG d   1       5.679   0.719  -9.678  0.00  0.00     0.012 A 
ATOM      6  C   LIG d   1       4.886  -0.065  -8.842  0.00  0.00     0.234 A 
ATOM      7  H   LIG d   1       6.520   0.167  -6.007  0.00  0.00     0.138 H 
ATOM      8  H   LIG d   1       7.996   1.572  -7.387  0.00  0.00     0.068 H 
ATOM      9  H   LIG d   1       7.447   1.933  -9.783  0.00  0.00     0.062 H 
ATOM     10  H   LIG d   1       5.410   0.858 -10.714  0.00  0.00     0.068 H 
ENDROOT
BRANCH   1  11
ATOM     11  C   LIG d   1       4.358  -1.065  -6.715  0.00  0.00     0.213 C 
ATOM     12  H   LIG d   1       3.652  -1.501  -7.275  0.00  0.00     0.112 H 
ATOM     13  H   LIG d   1       4.962  -1.830  -6.230  0.00  0.00     0.112 H 
BRANCH  11  14
ATOM     14  C   LIG d   1       3.705  -0.201  -5.666  0.00  0.00     0.228 C 
ATOM     15  O   LIG d   1       2.965   0.701  -5.998  0.00  0.00    -0.285 OA
BRANCH  14  16
ATOM     16  C   LIG d   1       3.964  -0.453  -4.240  0.00  0.00     0.024 A 
ATOM     17  C   LIG d   1       3.842  -1.746  -3.721  0.00  0.00    -0.051 A 
ATOM     18  C   LIG d   1       4.086  -1.974  -2.383  0.00  0.00    -0.061 A 
ATOM     19  H   LIG d   1       3.557  -2.563  -4.366  0.00  0.00     0.062 H 
ATOM     20  C   LIG d   1       4.451  -0.927  -1.554  0.00  0.00    -0.062 A 
ATOM     21  H   LIG d   1       3.992  -2.971  -1.981  0.00  0.00     0.062 H 
ATOM     22  C   LIG d   1       4.574   0.355  -2.060  0.00  0.00    -0.061 A 
ATOM     23  H   LIG d   1       4.640  -1.112  -0.507  0.00  0.00     0.062 H 
ATOM     24  C   LIG d   1       4.339   0.599  -3.397  0.00  0.00    -0.051 A 
ATOM     25  H   LIG d   1       4.859   1.167  -1.407  0.00  0.00     0.062 H 
ATOM     26  H   LIG d   1       4.440   1.599  -3.792  0.00  0.00     0.062 H 
ENDBRANCH  14  16
ENDBRANCH  11  14
ENDBRANCH   1  11
BRANCH   6  27
ATOM     27  C   LIG d   1       3.668  -0.716  -9.382  0.00  0.00     0.135 A 
ATOM     28  N   LIG d   1       3.721  -1.977  -9.791  0.00  0.00    -0.249 NA
ATOM     29  C   LIG d   1       2.661  -2.592 -10.272  0.00  0.00     0.029 A 
ATOM     30  C   LIG d   1       1.447  -1.937 -10.378  0.00  0.00    -0.043 A 
ATOM     31  H   LIG d   1       2.741  -3.621 -10.591  0.00  0.00     0.083 H 
ATOM     32  C   LIG d   1       1.348  -0.616  -9.966  0.00  0.00    -0.058 A 
ATOM     33  H   LIG d   1       0.584  -2.450 -10.777  0.00  0.00     0.063 H 
ATOM     34  C   LIG d   1       2.478   0.004  -9.461  0.00  0.00    -0.030 A 
ATOM     35  H   LIG d   1       0.412  -0.084 -10.040  0.00  0.00     0.062 H 
ATOM     36  H   LIG d   1       2.437   1.031  -9.131  0.00  0.00     0.064 H 
ENDBRANCH   6  27
TORSDOF 4
ENDMDL
MODEL 7
REMARK VINA RESULT:      -5.9      2.405      5.062
REMARK  4 active torsions:
REMARK  status: ('A' for Active; 'I' for Inactive)
REMARK    1  A    between atoms: C_4  and  C_7 
REMARK    2  A    between atoms: C_7  and  C_9 
REMARK    3  A    between atoms: C_9  and  N_10 
REMARK    4  A    between atoms: C_15  and  C_16 
ROOT
ATOM      1  N   LIG d   1       4.492  -0.444  -4.472  0.00  0.00    -0.188 N 
ATOM      2  C   LIG d   1       3.379   0.194  -4.174  0.00  0.00     0.172 A 
ATOM      3  C   LIG d   1       3.312   1.031  -3.074  0.00  0.00     0.002 A 
ATOM      4  C   LIG d   1       4.436   1.197  -2.276  0.00  0.00    -0.050 A 
ATOM      5  C   LIG d   1       5.591   0.514  -2.613  0.00  0.00     0.012 A 
ATOM      6  C   LIG d   1       5.588  -0.312  -3.735  0.00  0.00     0.234 A 
ATOM      7  H   LIG d   1       2.507   0.063  -4.797  0.00  0.00     0.138 H 
ATOM      8  H   LIG d   1       2.394   1.549  -2.839  0.00  0.00     0.068 H 
ATOM      9  H   LIG d   1       4.408   1.845  -1.413  0.00  0.00     0.062 H 
ATOM     10  H   LIG d   1       6.485   0.623  -2.017  0.00  0.00     0.068 H 
ENDROOT
BRANCH   1  11
ATOM     11  C   LIG d   1       4.522  -1.321  -5.645  0.00  0.00     0.213 C 
ATOM     12  H   LIG d   1       5.388  -1.820  -5.666  0.00  0.00     0.112 H 
ATOM     13  H   LIG d   1       3.695  -2.028  -5.591  0.00  0.00     0.112 H 
BRANCH  11  14
ATOM     14  C   LIG d   1       4.391  -0.489  -6.896  0.00  0.00     0.228 C 
ATOM     15  O   LIG d   1       5.039   0.528  -7.018  0.00  0.00    -0.285 OA
BRANCH  14  16
ATOM     16  C   LIG d   1       3.476  -0.913  -7.969  0.00  0.00     0.024 A 
ATOM     17  C   LIG d   1       2.522  -0.023  -8.470  0.00  0.00    -0.051 A 
ATOM     18  C   LIG d   1       1.668  -0.428  -9.475  0.00  0.00    -0.061 A 
ATOM     19  H   LIG d   1       2.453   0.978  -8.072  0.00  0.00     0.062 H 
ATOM     20  C   LIG d   1       1.754  -1.712  -9.986  0.00  0.00    -0.062 A 
ATOM     21  H   LIG d   1       0.931   0.258  -9.864  0.00  0.00     0.062 H 
ATOM     22  C   LIG d   1       2.697  -2.598  -9.494  0.00  0.00    -0.061 A 
ATOM     23  H   LIG d   1       1.082  -2.023 -10.772  0.00  0.00     0.062 H 
ATOM     24  C   LIG d   1       3.561  -2.207  -8.494  0.00  0.00    -0.051 A 
ATOM     25  H   LIG d   1       2.758  -3.598  -9.898  0.00  0.00     0.062 H 
ATOM     26  H   LIG d   1       4.299  -2.898  -8.114  0.00  0.00     0.062 H 
ENDBRANCH  14  16
ENDBRANCH  11  14
ENDBRANCH   1  11
BRANCH   6  27
ATOM     27  C   LIG d   1       6.819  -1.050  -4.109  0.00  0.00     0.135 A 
ATOM     28  N   LIG d   1       7.670  -0.514  -4.975  0.00  0.00    -0.249 NA
ATOM     29  C   LIG d   1       8.776  -1.134  -5.330  0.00  0.00     0.029 A 
ATOM     30  C   LIG d   1       9.086  -2.382  -4.818  0.00  0.00    -0.043 A 
ATOM     31  H   LIG d   1       9.448  -0.665  -6.033  0.00  0.00     0.083 H 
ATOM     32  C   LIG d   1       8.221  -2.980  -3.914  0.00  0.00    -0.058 A 
ATOM     33  H   LIG d   1       9.994  -2.884  -5.119  0.00  0.00     0.063 H 
ATOM     34  C   LIG d   1       7.068  -2.303  -3.555  0.00  0.00    -0.030 A 
ATOM     35  H   LIG d   1       8.441  -3.953  -3.501  0.00  0.00     0.062 H 
ATOM     36  H   LIG d   1       6.373  -2.739  -2.854  0.00  0.00     0.064 H 
ENDBRANCH   6  27
TORSDOF 4
ENDMDL
MODEL 8
REMARK VINA RESULT:      -5.8      2.506      3.173
REMARK  4 active torsions:
REMARK  status: ('A' for Active; 'I' for Inactive)
REMARK    1  A    between atoms: C_4  and  C_7 
REMARK    2  A    between atoms: C_7  and  C_9 
REMARK    3  A    between atoms: C_9  and  N_10 
REMARK    4  A    between atoms: C_15  and  C_16 
ROOT
ATOM      1  N   LIG d   1       3.128   0.538  -8.396  0.00  0.00    -0.188 N 
ATOM      2  C   LIG d   1       3.282   1.843  -8.303  0.00  0.00     0.172 A 
ATOM      3  C   LIG d   1       3.602   2.601  -9.415  0.00  0.00     0.002 A 
ATOM      4  C   LIG d   1       3.764   1.975 -10.643  0.00  0.00    -0.050 A 
ATOM      5  C   LIG d   1       3.596   0.603 -10.711  0.00  0.00     0.012 A 
ATOM      6  C   LIG d   1       3.273  -0.099  -9.552  0.00  0.00     0.234 A 
ATOM      7  H   LIG d   1       3.155   2.327  -7.347  0.00  0.00     0.138 H 
ATOM      8  H   LIG d   1       3.727   3.671  -9.328  0.00  0.00     0.068 H 
ATOM      9  H   LIG d   1       4.013   2.546 -11.525  0.00  0.00     0.062 H 
ATOM     10  H   LIG d   1       3.710   0.083 -11.651  0.00  0.00     0.068 H 
ENDROOT
BRANCH   1  11
ATOM     11  C   LIG d   1       2.788  -0.229  -7.195  0.00  0.00     0.213 C 
ATOM     12  H   LIG d   1       2.040   0.225  -6.710  0.00  0.00     0.112 H 
ATOM     13  H   LIG d   1       2.479  -1.233  -7.481  0.00  0.00     0.112 H 
BRANCH  11  14
ATOM     14  C   LIG d   1       3.994  -0.311  -6.295  0.00  0.00     0.228 C 
ATOM     15  O   LIG d   1       5.071   0.087  -6.685  0.00  0.00    -0.285 OA
BRANCH  14  16
ATOM     16  C   LIG d   1       3.864  -0.874  -4.941  0.00  0.00     0.024 A 
ATOM     17  C   LIG d   1       2.980  -0.299  -4.023  0.00  0.00    -0.051 A 
ATOM     18  C   LIG d   1       2.864  -0.831  -2.756  0.00  0.00    -0.061 A 
ATOM     19  H   LIG d   1       2.390   0.560  -4.305  0.00  0.00     0.062 H 
ATOM     20  C   LIG d   1       3.620  -1.933  -2.392  0.00  0.00    -0.062 A 
ATOM     21  H   LIG d   1       2.182  -0.389  -2.047  0.00  0.00     0.062 H 
ATOM     22  C   LIG d   1       4.497  -2.508  -3.296  0.00  0.00    -0.061 A 
ATOM     23  H   LIG d   1       3.526  -2.345  -1.399  0.00  0.00     0.062 H 
ATOM     24  C   LIG d   1       4.621  -1.990  -4.569  0.00  0.00    -0.051 A 
ATOM     25  H   LIG d   1       5.084  -3.367  -3.005  0.00  0.00     0.062 H 
ATOM     26  H   LIG d   1       5.301  -2.442  -5.274  0.00  0.00     0.062 H 
ENDBRANCH  14  16
ENDBRANCH  11  14
ENDBRANCH   1  11
BRANCH   6  27
ATOM     27  C   LIG d   1       3.089  -1.569  -9.608  0.00  0.00     0.135 A 
ATOM     28  N   LIG d   1       4.070  -2.371  -9.213  0.00  0.00    -0.249 NA
ATOM     29  C   LIG d   1       3.946  -3.682  -9.243  0.00  0.00     0.029 A 
ATOM     30  C   LIG d   1       2.783  -4.274  -9.702  0.00  0.00    -0.043 A 
ATOM     31  H   LIG d   1       4.764  -4.302  -8.909  0.00  0.00     0.083 H 
ATOM     32  C   LIG d   1       1.734  -3.473 -10.130  0.00  0.00    -0.058 A 
ATOM     33  H   LIG d   1       2.692  -5.350  -9.726  0.00  0.00     0.063 H 
ATOM     34  C   LIG d   1       1.891  -2.098 -10.082  0.00  0.00    -0.030 A 
ATOM     35  H   LIG d   1       0.817  -3.912 -10.492  0.00  0.00     0.062 H 
ATOM     36  H   LIG d   1       1.095  -1.445 -10.407  0.00  0.00     0.064 H 
ENDBRANCH   6  27
TORSDOF 4
ENDMDL
MODEL 9
REMARK VINA RESULT:      -5.8      1.958      2.661
REMARK  4 active torsions:
REMARK  status: ('A' for Active; 'I' for Inactive)
REMARK    1  A    between atoms: C_4  and  C_7 
REMARK    2  A    between atoms: C_7  and  C_9 
REMARK    3  A    between atoms: C_9  and  N_10 
REMARK    4  A    between atoms: C_15  and  C_16 
ROOT
ATOM      1  N   LIG d   1       3.737  -1.071  -8.028  0.00  0.00    -0.188 N 
ATOM      2  C   LIG d   1       2.849  -0.514  -8.826  0.00  0.00     0.172 A 
ATOM      3  C   LIG d   1       2.109  -1.280  -9.709  0.00  0.00     0.002 A 
ATOM      4  C   LIG d   1       2.308  -2.653  -9.750  0.00  0.00    -0.050 A 
ATOM      5  C   LIG d   1       3.246  -3.211  -8.900  0.00  0.00     0.012 A 
ATOM      6  C   LIG d   1       3.956  -2.380  -8.036  0.00  0.00     0.234 A 
ATOM      7  H   LIG d   1       2.698   0.554  -8.791  0.00  0.00     0.138 H 
ATOM      8  H   LIG d   1       1.384  -0.814 -10.360  0.00  0.00     0.068 H 
ATOM      9  H   LIG d   1       1.742  -3.272 -10.430  0.00  0.00     0.062 H 
ATOM     10  H   LIG d   1       3.424  -4.276  -8.902  0.00  0.00     0.068 H 
ENDROOT
BRANCH   1  11
ATOM     11  C   LIG d   1       4.500  -0.224  -7.107  0.00  0.00     0.213 C 
ATOM     12  H   LIG d   1       5.332  -0.704  -6.825  0.00  0.00     0.112 H 
ATOM     13  H   LIG d   1       4.770   0.705  -7.607  0.00  0.00     0.112 H 
BRANCH  11  14
ATOM     14  C   LIG d   1       3.660   0.082  -5.894  0.00  0.00     0.228 C 
ATOM     15  O   LIG d   1       2.709   0.828  -5.987  0.00  0.00    -0.285 OA
BRANCH  14  16
ATOM     16  C   LIG d   1       3.995  -0.525  -4.596  0.00  0.00     0.024 A 
ATOM     17  C   LIG d   1       2.978  -0.988  -3.754  0.00  0.00    -0.051 A 
ATOM     18  C   LIG d   1       3.299  -1.555  -2.539  0.00  0.00    -0.061 A 
ATOM     19  H   LIG d   1       1.945  -0.901  -4.055  0.00  0.00     0.062 H 
ATOM     20  C   LIG d   1       4.624  -1.667  -2.151  0.00  0.00    -0.062 A 
ATOM     21  H   LIG d   1       2.516  -1.913  -1.888  0.00  0.00     0.062 H 
ATOM     22  C   LIG d   1       5.635  -1.211  -2.979  0.00  0.00    -0.061 A 
ATOM     23  H   LIG d   1       4.868  -2.111  -1.198  0.00  0.00     0.062 H 
ATOM     24  C   LIG d   1       5.331  -0.646  -4.200  0.00  0.00    -0.051 A 
ATOM     25  H   LIG d   1       6.666  -1.301  -2.670  0.00  0.00     0.062 H 
ATOM     26  H   LIG d   1       6.121  -0.296  -4.847  0.00  0.00     0.062 H 
ENDBRANCH  14  16
ENDBRANCH  11  14
ENDBRANCH   1  11
BRANCH   6  27
ATOM     27  C   LIG d   1       4.965  -2.962  -7.118  0.00  0.00     0.135 A 
ATOM     28  N   LIG d   1       6.256  -2.742  -7.334  0.00  0.00    -0.249 NA
ATOM     29  C   LIG d   1       7.183  -3.237  -6.540  0.00  0.00     0.029 A 
ATOM     30  C   LIG d   1       6.842  -4.018  -5.451  0.00  0.00    -0.043 A 
ATOM     31  H   LIG d   1       8.224  -3.032  -6.745  0.00  0.00     0.083 H 
ATOM     32  C   LIG d   1       5.504  -4.277  -5.192  0.00  0.00    -0.058 A 
ATOM     33  H   LIG d   1       7.610  -4.422  -4.808  0.00  0.00     0.063 H 
ATOM     34  C   LIG d   1       4.551  -3.740  -6.040  0.00  0.00    -0.030 A 
ATOM     35  H   LIG d   1       5.213  -4.885  -4.348  0.00  0.00     0.062 H 
ATOM     36  H   LIG d   1       3.501  -3.921  -5.868  0.00  0.00     0.064 H 
ENDBRANCH   6  27
TORSDOF 4
ENDMDL
MODEL 10
REMARK VINA RESULT:      -5.7      1.926      5.456
REMARK  4 active torsions:
REMARK  status: ('A' for Active; 'I' for Inactive)
REMARK    1  A    between atoms: C_4  and  C_7 
REMARK    2  A    between atoms: C_7  and  C_9 
REMARK    3  A    between atoms: C_9  and  N_10 
REMARK    4  A    between atoms: C_15  and  C_16 
ROOT
ATOM      1  N   LIG d   1       5.929  -1.703  -5.650  0.00  0.00    -0.188 N 
ATOM      2  C   LIG d   1       6.398  -2.679  -6.400  0.00  0.00     0.172 A 
ATOM      3  C   LIG d   1       6.050  -3.995  -6.152  0.00  0.00     0.002 A 
ATOM      4  C   LIG d   1       5.195  -4.286  -5.098  0.00  0.00    -0.050 A 
ATOM      5  C   LIG d   1       4.718  -3.241  -4.327  0.00  0.00     0.012 A 
ATOM      6  C   LIG d   1       5.109  -1.940  -4.633  0.00  0.00     0.234 A 
ATOM      7  H   LIG d   1       7.062  -2.449  -7.219  0.00  0.00     0.138 H 
ATOM      8  H   LIG d   1       6.440  -4.788  -6.773  0.00  0.00     0.068 H 
ATOM      9  H   LIG d   1       4.909  -5.305  -4.886  0.00  0.00     0.062 H 
ATOM     10  H   LIG d   1       4.048  -3.431  -3.502  0.00  0.00     0.068 H 
ENDROOT
BRANCH   1  11
ATOM     11  C   LIG d   1       6.321  -0.323  -5.946  0.00  0.00     0.213 C 
ATOM     12  H   LIG d   1       5.713   0.307  -5.461  0.00  0.00     0.112 H 
ATOM     13  H   LIG d   1       7.348  -0.160  -5.621  0.00  0.00     0.112 H 
BRANCH  11  14
ATOM     14  C   LIG d   1       6.217  -0.079  -7.429  0.00  0.00     0.228 C 
ATOM     15  O   LIG d   1       7.175  -0.278  -8.145  0.00  0.00    -0.285 OA
BRANCH  14  16
ATOM     16  C   LIG d   1       4.952   0.401  -8.009  0.00  0.00     0.024 A 
ATOM     17  C   LIG d   1       4.921   1.595  -8.736  0.00  0.00    -0.051 A 
ATOM     18  C   LIG d   1       3.732   2.039  -9.276  0.00  0.00    -0.061 A 
ATOM     19  H   LIG d   1       5.826   2.168  -8.875  0.00  0.00     0.062 H 
ATOM     20  C   LIG d   1       2.571   1.306  -9.098  0.00  0.00    -0.062 A 
ATOM     21  H   LIG d   1       3.706   2.959  -9.838  0.00  0.00     0.062 H 
ATOM     22  C   LIG d   1       2.594   0.123  -8.379  0.00  0.00    -0.061 A 
ATOM     23  H   LIG d   1       1.643   1.659  -9.522  0.00  0.00     0.062 H 
ATOM     24  C   LIG d   1       3.777  -0.337  -7.838  0.00  0.00    -0.051 A 
ATOM     25  H   LIG d   1       1.684  -0.444  -8.245  0.00  0.00     0.062 H 
ATOM     26  H   LIG d   1       3.794  -1.262  -7.282  0.00  0.00     0.062 H 
ENDBRANCH  14  16
ENDBRANCH  11  14
ENDBRANCH   1  11
BRANCH   6  27
ATOM     27  C   LIG d   1       4.605  -0.808  -3.817  0.00  0.00     0.135 A 
ATOM     28  N   LIG d   1       3.647  -0.027  -4.296  0.00  0.00    -0.249 NA
ATOM     29  C   LIG d   1       3.169   0.986  -3.602  0.00  0.00     0.029 A 
ATOM     30  C   LIG d   1       3.662   1.278  -2.343  0.00  0.00    -0.043 A 
ATOM     31  H   LIG d   1       2.385   1.597  -4.022  0.00  0.00     0.083 H 
ATOM     32  C   LIG d   1       4.668   0.489  -1.805  0.00  0.00    -0.058 A 
ATOM     33  H   LIG d   1       3.266   2.112  -1.782  0.00  0.00     0.063 H 
ATOM     34  C   LIG d   1       5.148  -0.571  -2.556  0.00  0.00    -0.030 A 
ATOM     35  H   LIG d   1       5.069   0.697  -0.825  0.00  0.00     0.062 H 
ATOM     36  H   LIG d   1       5.931  -1.206  -2.169  0.00  0.00     0.064 H 
ENDBRANCH   6  27
TORSDOF 4
ENDMDL
