MODEL 1
REMARK VINA RESULT:      -8.4      0.000      0.000
REMARK  3 active torsions:
REMARK  status: ('A' for Active; 'I' for Inactive)
REMARK    1  A    between atoms: C_4  and  C_7 
REMARK    2  A    between atoms: C_7  and  C_9 
REMARK    3  A    between atoms: C_11  and  C_34 
REMARK       I    between atoms: C_34  and  N_36 
ROOT
ATOM      1  C   LIG d   1       5.278  -1.635  -6.271  0.00  0.00     0.069 C 
ATOM      2  H   LIG d   1       4.304  -1.460  -6.131  0.00  0.00     0.042 H 
ATOM      3  C   LIG d   1       5.536  -3.141  -6.556  0.00  0.00     0.111 C 
ATOM      4  H   LIG d   1       4.744  -3.755  -6.128  0.00  0.00     0.060 H 
ATOM      5  N   LIG d   1       6.814  -3.404  -5.882  0.00  0.00    -0.309 NA
ATOM      6  C   LIG d   1       7.170  -4.708  -5.629  0.00  0.00     0.038 A 
ATOM      7  C   LIG d   1       6.592  -5.795  -6.255  0.00  0.00    -0.040 A 
ATOM      8  C   LIG d   1       7.002  -7.075  -5.929  0.00  0.00    -0.060 A 
ATOM      9  C   LIG d   1       7.988  -7.277  -4.979  0.00  0.00    -0.061 A 
ATOM     10  C   LIG d   1       8.578  -6.202  -4.344  0.00  0.00    -0.053 A 
ATOM     11  C   LIG d   1       8.179  -4.911  -4.662  0.00  0.00    -0.004 A 
ATOM     12  C   LIG d   1       8.788  -3.727  -4.012  0.00  0.00    -0.055 C 
ATOM     13  C   LIG d   1       8.056  -2.599  -3.968  0.00  0.00    -0.062 C 
ATOM     14  C   LIG d   1       6.695  -2.672  -4.591  0.00  0.00     0.062 C 
ATOM     15  H   LIG d   1       6.018  -3.207  -3.926  0.00  0.00     0.056 H 
ATOM     16  C   LIG d   1       6.079  -1.339  -4.986  0.00  0.00     0.108 A 
ATOM     17  C   LIG d   1       5.211  -0.765  -3.919  0.00  0.00    -0.008 A 
ATOM     18  C   LIG d   1       4.096  -1.259  -3.277  0.00  0.00    -0.056 A 
ATOM     19  C   LIG d   1       3.514  -0.448  -2.307  0.00  0.00    -0.061 A 
ATOM     20  C   LIG d   1       4.032   0.795  -2.006  0.00  0.00    -0.060 A 
ATOM     21  C   LIG d   1       5.153   1.299  -2.648  0.00  0.00    -0.040 A 
ATOM     22  C   LIG d   1       5.747   0.496  -3.622  0.00  0.00     0.038 A 
ATOM     23  N   LIG d   1       6.859   0.743  -4.409  0.00  0.00    -0.284 N 
ATOM     24  C   LIG d   1       7.128  -0.286  -5.243  0.00  0.00     0.231 A 
ATOM     25  O   LIG d   1       8.037  -0.350  -6.044  0.00  0.00    -0.274 OA
ATOM     26  H   LIG d   1       5.819  -5.645  -6.994  0.00  0.00     0.064 H 
ATOM     27  H   LIG d   1       6.549  -7.924  -6.421  0.00  0.00     0.062 H 
ATOM     28  H   LIG d   1       8.297  -8.282  -4.733  0.00  0.00     0.062 H 
ATOM     29  H   LIG d   1       9.348  -6.365  -3.603  0.00  0.00     0.062 H 
ATOM     30  H   LIG d   1       9.782  -3.767  -3.590  0.00  0.00     0.062 H 
ATOM     31  H   LIG d   1       8.427  -1.693  -3.512  0.00  0.00     0.059 H 
ATOM     32  H   LIG d   1       3.692  -2.232  -3.514  0.00  0.00     0.062 H 
ATOM     33  H   LIG d   1       2.640  -0.799  -1.781  0.00  0.00     0.062 H 
ATOM     34  H   LIG d   1       3.550   1.393  -1.247  0.00  0.00     0.062 H 
ATOM     35  H   LIG d   1       5.550   2.273  -2.404  0.00  0.00     0.064 H 
ATOM     36  H   LIG d   1       7.383   1.557  -4.366  0.00  0.00     0.155 HD
ENDROOT
BRANCH   1  37
ATOM     37  C   LIG d   1       5.781  -0.790  -7.413  0.00  0.00     0.170 C 
ATOM     38  O   LIG d   1       6.875  -1.007  -7.892  0.00  0.00    -0.292 OA
BRANCH  37  39
ATOM     39  C   LIG d   1       4.947   0.298  -7.947  0.00  0.00     0.018 A 
ATOM     40  C   LIG d   1       5.498   1.243  -8.819  0.00  0.00    -0.051 A 
ATOM     41  C   LIG d   1       4.709   2.260  -9.315  0.00  0.00    -0.061 A 
ATOM     42  H   LIG d   1       6.538   1.177  -9.103  0.00  0.00     0.062 H 
ATOM     43  C   LIG d   1       3.375   2.346  -8.953  0.00  0.00    -0.062 A 
ATOM     44  H   LIG d   1       5.132   2.990  -9.988  0.00  0.00     0.062 H 
ATOM     45  C   LIG d   1       2.824   1.414  -8.092  0.00  0.00    -0.061 A 
ATOM     46  H   LIG d   1       2.763   3.144  -9.346  0.00  0.00     0.062 H 
ATOM     47  C   LIG d   1       3.597   0.388  -7.592  0.00  0.00    -0.051 A 
ATOM     48  H   LIG d   1       1.782   1.488  -7.814  0.00  0.00     0.062 H 
ATOM     49  H   LIG d   1       3.164  -0.340  -6.922  0.00  0.00     0.062 H 
ENDBRANCH  37  39
ENDBRANCH   1  37
BRANCH   3  50
ATOM     50  C   LIG d   1       5.657  -3.392  -8.038  0.00  0.00     0.232 C 
ATOM     51  O   LIG d   1       4.666  -3.377  -8.737  0.00  0.00    -0.274 OA
ATOM     52  N   LIG d   1       6.865  -3.632  -8.585  0.00  0.00    -0.328 N 
ATOM     53  H   LIG d   1       7.656  -3.643  -8.024  0.00  0.00     0.145 HD
ATOM     54  H   LIG d   1       6.942  -3.793  -9.538  0.00  0.00     0.145 HD
ENDBRANCH   3  50
TORSDOF 3
ENDMDL
MODEL 2
REMARK VINA RESULT:      -8.3      1.145      1.425
REMARK  3 active torsions:
REMARK  status: ('A' for Active; 'I' for Inactive)
REMARK    1  A    between atoms: C_4  and  C_7 
REMARK    2  A    between atoms: C_7  and  C_9 
REMARK    3  A    between atoms: C_11  and  C_34 
REMARK       I    between atoms: C_34  and  N_36 
ROOT
ATOM      1  C   LIG d   1       4.787  -2.410  -5.950  0.00  0.00     0.069 C 
ATOM      2  H   LIG d   1       3.893  -2.180  -5.565  0.00  0.00     0.042 H 
ATOM      3  C   LIG d   1       4.960  -3.950  -6.068  0.00  0.00     0.111 C 
ATOM      4  H   LIG d   1       4.328  -4.465  -5.345  0.00  0.00     0.060 H 
ATOM      5  N   LIG d   1       6.379  -4.161  -5.756  0.00  0.00    -0.309 NA
ATOM      6  C   LIG d   1       6.800  -5.427  -5.423  0.00  0.00     0.038 A 
ATOM      7  C   LIG d   1       6.072  -6.570  -5.688  0.00  0.00    -0.040 A 
ATOM      8  C   LIG d   1       6.566  -7.805  -5.306  0.00  0.00    -0.060 A 
ATOM      9  C   LIG d   1       7.784  -7.905  -4.658  0.00  0.00    -0.061 A 
ATOM     10  C   LIG d   1       8.527  -6.772  -4.386  0.00  0.00    -0.053 A 
ATOM     11  C   LIG d   1       8.046  -5.527  -4.766  0.00  0.00    -0.004 A 
ATOM     12  C   LIG d   1       8.811  -4.285  -4.501  0.00  0.00    -0.055 C 
ATOM     13  C   LIG d   1       8.116  -3.135  -4.419  0.00  0.00    -0.062 C 
ATOM     14  C   LIG d   1       6.634  -3.246  -4.609  0.00  0.00     0.062 C 
ATOM     15  H   LIG d   1       6.179  -3.654  -3.706  0.00  0.00     0.056 H 
ATOM     16  C   LIG d   1       5.922  -1.962  -5.006  0.00  0.00     0.108 A 
ATOM     17  C   LIG d   1       5.396  -1.208  -3.834  0.00  0.00    -0.008 A 
ATOM     18  C   LIG d   1       4.515  -1.560  -2.833  0.00  0.00    -0.056 A 
ATOM     19  C   LIG d   1       4.234  -0.596  -1.871  0.00  0.00    -0.061 A 
ATOM     20  C   LIG d   1       4.810   0.657  -1.919  0.00  0.00    -0.060 A 
ATOM     21  C   LIG d   1       5.695   1.019  -2.923  0.00  0.00    -0.040 A 
ATOM     22  C   LIG d   1       5.987   0.062  -3.894  0.00  0.00     0.038 A 
ATOM     23  N   LIG d   1       6.825   0.150  -4.993  0.00  0.00    -0.284 N 
ATOM     24  C   LIG d   1       6.847  -0.998  -5.706  0.00  0.00     0.231 A 
ATOM     25  O   LIG d   1       7.488  -1.212  -6.714  0.00  0.00    -0.274 OA
ATOM     26  H   LIG d   1       5.119  -6.501  -6.190  0.00  0.00     0.064 H 
ATOM     27  H   LIG d   1       5.995  -8.698  -5.516  0.00  0.00     0.062 H 
ATOM     28  H   LIG d   1       8.157  -8.875  -4.363  0.00  0.00     0.062 H 
ATOM     29  H   LIG d   1       9.478  -6.855  -3.880  0.00  0.00     0.062 H 
ATOM     30  H   LIG d   1       9.884  -4.301  -4.380  0.00  0.00     0.062 H 
ATOM     31  H   LIG d   1       8.598  -2.188  -4.228  0.00  0.00     0.059 H 
ATOM     32  H   LIG d   1       4.066  -2.541  -2.798  0.00  0.00     0.062 H 
ATOM     33  H   LIG d   1       3.550  -0.834  -1.070  0.00  0.00     0.062 H 
ATOM     34  H   LIG d   1       4.564   1.376  -1.152  0.00  0.00     0.062 H 
ATOM     35  H   LIG d   1       6.140   2.003  -2.950  0.00  0.00     0.064 H 
ATOM     36  H   LIG d   1       7.334   0.942  -5.224  0.00  0.00     0.155 HD
ENDROOT
BRANCH   1  37
ATOM     37  C   LIG d   1       4.935  -1.759  -7.301  0.00  0.00     0.170 C 
ATOM     38  O   LIG d   1       5.654  -2.260  -8.140  0.00  0.00    -0.292 OA
BRANCH  37  39
ATOM     39  C   LIG d   1       4.209  -0.515  -7.603  0.00  0.00     0.018 A 
ATOM     40  C   LIG d   1       3.281  -0.003  -6.690  0.00  0.00    -0.051 A 
ATOM     41  C   LIG d   1       2.605   1.163  -6.980  0.00  0.00    -0.061 A 
ATOM     42  H   LIG d   1       3.095  -0.520  -5.759  0.00  0.00     0.062 H 
ATOM     43  C   LIG d   1       2.843   1.827  -8.172  0.00  0.00    -0.062 A 
ATOM     44  H   LIG d   1       1.889   1.560  -6.277  0.00  0.00     0.062 H 
ATOM     45  C   LIG d   1       3.759   1.327  -9.079  0.00  0.00    -0.061 A 
ATOM     46  H   LIG d   1       2.311   2.740  -8.393  0.00  0.00     0.062 H 
ATOM     47  C   LIG d   1       4.448   0.165  -8.802  0.00  0.00    -0.051 A 
ATOM     48  H   LIG d   1       3.939   1.851 -10.007  0.00  0.00     0.062 H 
ATOM     49  H   LIG d   1       5.166  -0.222  -9.509  0.00  0.00     0.062 H 
ENDBRANCH  37  39
ENDBRANCH   1  37
BRANCH   3  50
ATOM     50  C   LIG d   1       4.650  -4.417  -7.468  0.00  0.00     0.232 C 
ATOM     51  O   LIG d   1       5.542  -4.817  -8.185  0.00  0.00    -0.274 OA
ATOM     52  N   LIG d   1       3.381  -4.388  -7.922  0.00  0.00    -0.328 N 
ATOM     53  H   LIG d   1       2.668  -4.068  -7.347  0.00  0.00     0.145 HD
ATOM     54  H   LIG d   1       3.182  -4.689  -8.822  0.00  0.00     0.145 HD
ENDBRANCH   3  50
TORSDOF 3
ENDMDL
MODEL 3
REMARK VINA RESULT:      -8.1      3.118      5.883
REMARK  3 active torsions:
REMARK  status: ('A' for Active; 'I' for Inactive)
REMARK    1  A    between atoms: C_4  and  C_7 
REMARK    2  A    between atoms: C_7  and  C_9 
REMARK    3  A    between atoms: C_11  and  C_34 
REMARK       I    between atoms: C_34  and  N_36 
ROOT
ATOM      1  C   LIG d   1       5.521  -0.703  -8.171  0.00  0.00     0.069 C 
ATOM      2  H   LIG d   1       5.705  -1.525  -8.710  0.00  0.00     0.042 H 
ATOM      3  C   LIG d   1       5.886  -0.926  -6.677  0.00  0.00     0.111 C 
ATOM      4  H   LIG d   1       5.839  -1.986  -6.423  0.00  0.00     0.060 H 
ATOM      5  N   LIG d   1       4.851  -0.176  -5.954  0.00  0.00    -0.309 NA
ATOM      6  C   LIG d   1       4.656  -0.440  -4.619  0.00  0.00     0.038 A 
ATOM      7  C   LIG d   1       5.575  -1.101  -3.827  0.00  0.00    -0.040 A 
ATOM      8  C   LIG d   1       5.292  -1.336  -2.494  0.00  0.00    -0.060 A 
ATOM      9  C   LIG d   1       4.093  -0.916  -1.945  0.00  0.00    -0.061 A 
ATOM     10  C   LIG d   1       3.163  -0.252  -2.722  0.00  0.00    -0.053 A 
ATOM     11  C   LIG d   1       3.435  -0.006  -4.060  0.00  0.00    -0.004 A 
ATOM     12  C   LIG d   1       2.470   0.708  -4.930  0.00  0.00    -0.055 C 
ATOM     13  C   LIG d   1       2.541   0.477  -6.254  0.00  0.00    -0.062 C 
ATOM     14  C   LIG d   1       3.599  -0.486  -6.699  0.00  0.00     0.062 C 
ATOM     15  H   LIG d   1       3.282  -1.505  -6.478  0.00  0.00     0.056 H 
ATOM     16  C   LIG d   1       4.012  -0.382  -8.159  0.00  0.00     0.108 A 
ATOM     17  C   LIG d   1       3.247  -1.307  -9.042  0.00  0.00    -0.008 A 
ATOM     18  C   LIG d   1       3.098  -2.678  -9.028  0.00  0.00    -0.056 A 
ATOM     19  C   LIG d   1       2.295  -3.236 -10.018  0.00  0.00    -0.061 A 
ATOM     20  C   LIG d   1       1.679  -2.451 -10.971  0.00  0.00    -0.060 A 
ATOM     21  C   LIG d   1       1.826  -1.072 -10.992  0.00  0.00    -0.040 A 
ATOM     22  C   LIG d   1       2.627  -0.499 -10.005  0.00  0.00     0.038 A 
ATOM     23  N   LIG d   1       2.943   0.832  -9.790  0.00  0.00    -0.284 N 
ATOM     24  C   LIG d   1       3.755   0.994  -8.722  0.00  0.00     0.231 A 
ATOM     25  O   LIG d   1       4.194   2.042  -8.298  0.00  0.00    -0.274 OA
ATOM     26  H   LIG d   1       6.511  -1.436  -4.249  0.00  0.00     0.064 H 
ATOM     27  H   LIG d   1       6.013  -1.852  -1.876  0.00  0.00     0.062 H 
ATOM     28  H   LIG d   1       3.884  -1.108  -0.903  0.00  0.00     0.062 H 
ATOM     29  H   LIG d   1       2.229   0.075  -2.289  0.00  0.00     0.062 H 
ATOM     30  H   LIG d   1       1.739   1.389  -4.518  0.00  0.00     0.062 H 
ATOM     31  H   LIG d   1       1.874   0.956  -6.955  0.00  0.00     0.059 H 
ATOM     32  H   LIG d   1       3.580  -3.290  -8.282  0.00  0.00     0.062 H 
ATOM     33  H   LIG d   1       2.152  -4.306 -10.041  0.00  0.00     0.062 H 
ATOM     34  H   LIG d   1       1.065  -2.924 -11.722  0.00  0.00     0.062 H 
ATOM     35  H   LIG d   1       1.339  -0.467 -11.743  0.00  0.00     0.064 H 
ATOM     36  H   LIG d   1       2.620   1.561 -10.341  0.00  0.00     0.155 HD
ENDROOT
BRANCH   1  37
ATOM     37  C   LIG d   1       6.303   0.455  -8.736  0.00  0.00     0.170 C 
ATOM     38  O   LIG d   1       6.198   1.557  -8.240  0.00  0.00    -0.292 OA
BRANCH  37  39
ATOM     39  C   LIG d   1       7.192   0.250  -9.890  0.00  0.00     0.018 A 
ATOM     40  C   LIG d   1       8.448   0.864  -9.928  0.00  0.00    -0.051 A 
ATOM     41  C   LIG d   1       9.276   0.666 -11.012  0.00  0.00    -0.061 A 
ATOM     42  H   LIG d   1       8.769   1.491  -9.109  0.00  0.00     0.062 H 
ATOM     43  C   LIG d   1       8.867  -0.139 -12.062  0.00  0.00    -0.062 A 
ATOM     44  H   LIG d   1      10.246   1.139 -11.043  0.00  0.00     0.062 H 
ATOM     45  C   LIG d   1       7.626  -0.750 -12.032  0.00  0.00    -0.061 A 
ATOM     46  H   LIG d   1       9.520  -0.291 -12.908  0.00  0.00     0.062 H 
ATOM     47  C   LIG d   1       6.789  -0.567 -10.952  0.00  0.00    -0.051 A 
ATOM     48  H   LIG d   1       7.314  -1.376 -12.855  0.00  0.00     0.062 H 
ATOM     49  H   LIG d   1       5.822  -1.048 -10.928  0.00  0.00     0.062 H 
ENDBRANCH  37  39
ENDBRANCH   1  37
BRANCH   3  50
ATOM     50  C   LIG d   1       7.254  -0.370  -6.372  0.00  0.00     0.232 C 
ATOM     51  O   LIG d   1       8.244  -1.018  -6.637  0.00  0.00    -0.274 OA
ATOM     52  N   LIG d   1       7.376   0.846  -5.806  0.00  0.00    -0.328 N 
ATOM     53  H   LIG d   1       6.583   1.364  -5.595  0.00  0.00     0.145 HD
ATOM     54  H   LIG d   1       8.256   1.204  -5.610  0.00  0.00     0.145 HD
ENDBRANCH   3  50
TORSDOF 3
ENDMDL
MODEL 4
REMARK VINA RESULT:      -7.8      2.653      5.239
REMARK  3 active torsions:
REMARK  status: ('A' for Active; 'I' for Inactive)
REMARK    1  A    between atoms: C_4  and  C_7 
REMARK    2  A    between atoms: C_7  and  C_9 
REMARK    3  A    between atoms: C_11  and  C_34 
REMARK       I    between atoms: C_34  and  N_36 
ROOT
ATOM      1  C   LIG d   1       5.348   0.174  -6.883  0.00  0.00     0.069 C 
ATOM      2  H   LIG d   1       5.046   0.893  -6.257  0.00  0.00     0.042 H 
ATOM      3  C   LIG d   1       4.642   0.307  -8.262  0.00  0.00     0.111 C 
ATOM      4  H   LIG d   1       3.688   0.822  -8.157  0.00  0.00     0.060 H 
ATOM      5  N   LIG d   1       4.433  -1.087  -8.676  0.00  0.00    -0.309 NA
ATOM      6  C   LIG d   1       3.525  -1.349  -9.675  0.00  0.00     0.038 A 
ATOM      7  C   LIG d   1       3.050  -0.390 -10.548  0.00  0.00    -0.040 A 
ATOM      8  C   LIG d   1       2.127  -0.739 -11.517  0.00  0.00    -0.060 A 
ATOM      9  C   LIG d   1       1.673  -2.043 -11.618  0.00  0.00    -0.061 A 
ATOM     10  C   LIG d   1       2.138  -3.015 -10.754  0.00  0.00    -0.053 A 
ATOM     11  C   LIG d   1       3.068  -2.680  -9.779  0.00  0.00    -0.004 A 
ATOM     12  C   LIG d   1       3.601  -3.691  -8.834  0.00  0.00    -0.055 C 
ATOM     13  C   LIG d   1       4.067  -3.248  -7.652  0.00  0.00    -0.062 C 
ATOM     14  C   LIG d   1       3.994  -1.769  -7.427  0.00  0.00     0.062 C 
ATOM     15  H   LIG d   1       2.968  -1.485  -7.195  0.00  0.00     0.056 H 
ATOM     16  C   LIG d   1       4.931  -1.217  -6.364  0.00  0.00     0.108 A 
ATOM     17  C   LIG d   1       4.294  -1.133  -5.020  0.00  0.00    -0.008 A 
ATOM     18  C   LIG d   1       3.166  -0.476  -4.577  0.00  0.00    -0.056 A 
ATOM     19  C   LIG d   1       2.845  -0.611  -3.230  0.00  0.00    -0.061 A 
ATOM     20  C   LIG d   1       3.623  -1.367  -2.378  0.00  0.00    -0.060 A 
ATOM     21  C   LIG d   1       4.759  -2.029  -2.816  0.00  0.00    -0.040 A 
ATOM     22  C   LIG d   1       5.093  -1.904  -4.164  0.00  0.00     0.038 A 
ATOM     23  N   LIG d   1       6.157  -2.449  -4.862  0.00  0.00    -0.284 N 
ATOM     24  C   LIG d   1       6.141  -2.097  -6.167  0.00  0.00     0.231 A 
ATOM     25  O   LIG d   1       6.944  -2.424  -7.015  0.00  0.00    -0.274 OA
ATOM     26  H   LIG d   1       3.396   0.630 -10.472  0.00  0.00     0.064 H 
ATOM     27  H   LIG d   1       1.757   0.012 -12.200  0.00  0.00     0.062 H 
ATOM     28  H   LIG d   1       0.950  -2.301 -12.378  0.00  0.00     0.062 H 
ATOM     29  H   LIG d   1       1.782  -4.031 -10.838  0.00  0.00     0.062 H 
ATOM     30  H   LIG d   1       3.615  -4.741  -9.085  0.00  0.00     0.062 H 
ATOM     31  H   LIG d   1       4.471  -3.920  -6.909  0.00  0.00     0.059 H 
ATOM     32  H   LIG d   1       2.558   0.115  -5.245  0.00  0.00     0.062 H 
ATOM     33  H   LIG d   1       1.968  -0.112  -2.844  0.00  0.00     0.062 H 
ATOM     34  H   LIG d   1       3.338  -1.445  -1.339  0.00  0.00     0.062 H 
ATOM     35  H   LIG d   1       5.361  -2.619  -2.140  0.00  0.00     0.064 H 
ATOM     36  H   LIG d   1       6.834  -3.017  -4.463  0.00  0.00     0.155 HD
ENDROOT
BRANCH   1  37
ATOM     37  C   LIG d   1       6.844   0.250  -7.049  0.00  0.00     0.170 C 
ATOM     38  O   LIG d   1       7.390  -0.388  -7.926  0.00  0.00    -0.292 OA
BRANCH  37  39
ATOM     39  C   LIG d   1       7.644   1.095  -6.149  0.00  0.00     0.018 A 
ATOM     40  C   LIG d   1       8.533   2.038  -6.674  0.00  0.00    -0.051 A 
ATOM     41  C   LIG d   1       9.278   2.827  -5.823  0.00  0.00    -0.061 A 
ATOM     42  H   LIG d   1       8.636   2.148  -7.744  0.00  0.00     0.062 H 
ATOM     43  C   LIG d   1       9.146   2.688  -4.451  0.00  0.00    -0.062 A 
ATOM     44  H   LIG d   1       9.965   3.555  -6.227  0.00  0.00     0.062 H 
ATOM     45  C   LIG d   1       8.268   1.758  -3.924  0.00  0.00    -0.061 A 
ATOM     46  H   LIG d   1       9.732   3.310  -3.790  0.00  0.00     0.062 H 
ATOM     47  C   LIG d   1       7.512   0.966  -4.762  0.00  0.00    -0.051 A 
ATOM     48  H   LIG d   1       8.171   1.656  -2.853  0.00  0.00     0.062 H 
ATOM     49  H   LIG d   1       6.824   0.243  -4.349  0.00  0.00     0.062 H 
ENDBRANCH  37  39
ENDBRANCH   1  37
BRANCH   3  50
ATOM     50  C   LIG d   1       5.527   1.026  -9.248  0.00  0.00     0.232 C 
ATOM     51  O   LIG d   1       5.662   2.229  -9.176  0.00  0.00    -0.274 OA
ATOM     52  N   LIG d   1       6.167   0.332 -10.210  0.00  0.00    -0.328 N 
ATOM     53  H   LIG d   1       6.059  -0.630 -10.267  0.00  0.00     0.145 HD
ATOM     54  H   LIG d   1       6.736   0.795 -10.844  0.00  0.00     0.145 HD
ENDBRANCH   3  50
TORSDOF 3
ENDMDL
MODEL 5
REMARK VINA RESULT:      -7.6      2.363      6.091
REMARK  3 active torsions:
REMARK  status: ('A' for Active; 'I' for Inactive)
REMARK    1  A    between atoms: C_4  and  C_7 
REMARK    2  A    between atoms: C_7  and  C_9 
REMARK    3  A    between atoms: C_11  and  C_34 
REMARK       I    between atoms: C_34  and  N_36 
ROOT
ATOM      1  C   LIG d   1       4.495  -1.597  -6.669  0.00  0.00     0.069 C 
ATOM      2  H   LIG d   1       3.760  -2.094  -6.208  0.00  0.00     0.042 H 
ATOM      3  C   LIG d   1       3.967  -0.885  -7.947  0.00  0.00     0.111 C 
ATOM      4  H   LIG d   1       3.082  -1.393  -8.331  0.00  0.00     0.060 H 
ATOM      5  N   LIG d   1       5.084  -1.006  -8.893  0.00  0.00    -0.309 NA
ATOM      6  C   LIG d   1       4.839  -0.802 -10.230  0.00  0.00     0.038 A 
ATOM      7  C   LIG d   1       3.715  -0.162 -10.714  0.00  0.00    -0.040 A 
ATOM      8  C   LIG d   1       3.543  -0.010 -12.078  0.00  0.00    -0.060 A 
ATOM      9  C   LIG d   1       4.489  -0.495 -12.964  0.00  0.00    -0.061 A 
ATOM     10  C   LIG d   1       5.620  -1.136 -12.498  0.00  0.00    -0.053 A 
ATOM     11  C   LIG d   1       5.808  -1.293 -11.132  0.00  0.00    -0.004 A 
ATOM     12  C   LIG d   1       7.009  -1.968 -10.586  0.00  0.00    -0.055 C 
ATOM     13  C   LIG d   1       6.905  -2.527  -9.366  0.00  0.00    -0.062 C 
ATOM     14  C   LIG d   1       5.572  -2.399  -8.695  0.00  0.00     0.062 C 
ATOM     15  H   LIG d   1       4.869  -3.102  -9.142  0.00  0.00     0.056 H 
ATOM     16  C   LIG d   1       5.576  -2.570  -7.184  0.00  0.00     0.108 A 
ATOM     17  C   LIG d   1       5.299  -3.971  -6.760  0.00  0.00    -0.008 A 
ATOM     18  C   LIG d   1       4.232  -4.811  -7.000  0.00  0.00    -0.056 A 
ATOM     19  C   LIG d   1       4.293  -6.085  -6.445  0.00  0.00    -0.061 A 
ATOM     20  C   LIG d   1       5.374  -6.487  -5.687  0.00  0.00    -0.060 A 
ATOM     21  C   LIG d   1       6.450  -5.649  -5.441  0.00  0.00    -0.040 A 
ATOM     22  C   LIG d   1       6.402  -4.368  -5.991  0.00  0.00     0.038 A 
ATOM     23  N   LIG d   1       7.325  -3.339  -5.908  0.00  0.00    -0.284 N 
ATOM     24  C   LIG d   1       6.919  -2.240  -6.582  0.00  0.00     0.231 A 
ATOM     25  O   LIG d   1       7.519  -1.190  -6.684  0.00  0.00    -0.274 OA
ATOM     26  H   LIG d   1       2.971   0.216 -10.029  0.00  0.00     0.064 H 
ATOM     27  H   LIG d   1       2.663   0.492 -12.454  0.00  0.00     0.062 H 
ATOM     28  H   LIG d   1       4.341  -0.371 -14.027  0.00  0.00     0.062 H 
ATOM     29  H   LIG d   1       6.356  -1.512 -13.194  0.00  0.00     0.062 H 
ATOM     30  H   LIG d   1       7.933  -2.009 -11.144  0.00  0.00     0.062 H 
ATOM     31  H   LIG d   1       7.733  -3.039  -8.898  0.00  0.00     0.059 H 
ATOM     32  H   LIG d   1       3.387  -4.494  -7.593  0.00  0.00     0.062 H 
ATOM     33  H   LIG d   1       3.478  -6.773  -6.611  0.00  0.00     0.062 H 
ATOM     34  H   LIG d   1       5.381  -7.485  -5.275  0.00  0.00     0.062 H 
ATOM     35  H   LIG d   1       7.291  -5.974  -4.846  0.00  0.00     0.064 H 
ATOM     36  H   LIG d   1       8.162  -3.400  -5.424  0.00  0.00     0.155 HD
ENDROOT
BRANCH   1  37
ATOM     37  C   LIG d   1       5.096  -0.594  -5.719  0.00  0.00     0.170 C 
ATOM     38  O   LIG d   1       5.812   0.290  -6.143  0.00  0.00    -0.292 OA
BRANCH  37  39
ATOM     39  C   LIG d   1       4.817  -0.685  -4.277  0.00  0.00     0.018 A 
ATOM     40  C   LIG d   1       4.349  -1.882  -3.726  0.00  0.00    -0.051 A 
ATOM     41  C   LIG d   1       4.090  -1.960  -2.374  0.00  0.00    -0.061 A 
ATOM     42  H   LIG d   1       4.191  -2.744  -4.358  0.00  0.00     0.062 H 
ATOM     43  C   LIG d   1       4.293  -0.857  -1.562  0.00  0.00    -0.062 A 
ATOM     44  H   LIG d   1       3.729  -2.884  -1.946  0.00  0.00     0.062 H 
ATOM     45  C   LIG d   1       4.756   0.331  -2.100  0.00  0.00    -0.061 A 
ATOM     46  H   LIG d   1       4.089  -0.924  -0.504  0.00  0.00     0.062 H 
ATOM     47  C   LIG d   1       5.025   0.423  -3.449  0.00  0.00    -0.051 A 
ATOM     48  H   LIG d   1       4.911   1.187  -1.460  0.00  0.00     0.062 H 
ATOM     49  H   LIG d   1       5.390   1.349  -3.867  0.00  0.00     0.062 H 
ENDBRANCH  37  39
ENDBRANCH   1  37
BRANCH   3  50
ATOM     50  C   LIG d   1       3.665   0.564  -7.665  0.00  0.00     0.232 C 
ATOM     51  O   LIG d   1       2.748   0.860  -6.929  0.00  0.00    -0.274 OA
ATOM     52  N   LIG d   1       4.415   1.531  -8.230  0.00  0.00    -0.328 N 
ATOM     53  H   LIG d   1       5.149   1.293  -8.819  0.00  0.00     0.145 HD
ATOM     54  H   LIG d   1       4.220   2.463  -8.049  0.00  0.00     0.145 HD
ENDBRANCH   3  50
TORSDOF 3
ENDMDL
MODEL 6
REMARK VINA RESULT:      -7.5      2.803      5.502
REMARK  3 active torsions:
REMARK  status: ('A' for Active; 'I' for Inactive)
REMARK    1  A    between atoms: C_4  and  C_7 
REMARK    2  A    between atoms: C_7  and  C_9 
REMARK    3  A    between atoms: C_11  and  C_34 
REMARK       I    between atoms: C_34  and  N_36 
ROOT
ATOM      1  C   LIG d   1       5.491  -0.736  -7.958  0.00  0.00     0.069 C 
ATOM      2  H   LIG d   1       5.634  -1.549  -8.523  0.00  0.00     0.042 H 
ATOM      3  C   LIG d   1       6.551   0.356  -8.278  0.00  0.00     0.111 C 
ATOM      4  H   LIG d   1       7.457  -0.095  -8.683  0.00  0.00     0.060 H 
ATOM      5  N   LIG d   1       6.819   0.967  -6.970  0.00  0.00    -0.309 NA
ATOM      6  C   LIG d   1       7.956   1.725  -6.817  0.00  0.00     0.038 A 
ATOM      7  C   LIG d   1       8.683   2.236  -7.874  0.00  0.00    -0.040 A 
ATOM      8  C   LIG d   1       9.825   2.979  -7.629  0.00  0.00    -0.060 A 
ATOM      9  C   LIG d   1      10.246   3.213  -6.332  0.00  0.00    -0.061 A 
ATOM     10  C   LIG d   1       9.530   2.711  -5.262  0.00  0.00    -0.053 A 
ATOM     11  C   LIG d   1       8.381   1.966  -5.493  0.00  0.00    -0.004 A 
ATOM     12  C   LIG d   1       7.578   1.413  -4.376  0.00  0.00    -0.055 C 
ATOM     13  C   LIG d   1       6.821   0.331  -4.635  0.00  0.00    -0.062 C 
ATOM     14  C   LIG d   1       6.878  -0.193  -6.038  0.00  0.00     0.062 C 
ATOM     15  H   LIG d   1       7.811  -0.737  -6.187  0.00  0.00     0.056 H 
ATOM     16  C   LIG d   1       5.704  -1.060  -6.466  0.00  0.00     0.108 A 
ATOM     17  C   LIG d   1       5.953  -2.514  -6.250  0.00  0.00    -0.008 A 
ATOM     18  C   LIG d   1       6.938  -3.358  -6.718  0.00  0.00    -0.056 A 
ATOM     19  C   LIG d   1       6.874  -4.688  -6.315  0.00  0.00    -0.061 A 
ATOM     20  C   LIG d   1       5.868  -5.140  -5.486  0.00  0.00    -0.060 A 
ATOM     21  C   LIG d   1       4.873  -4.298  -5.012  0.00  0.00    -0.040 A 
ATOM     22  C   LIG d   1       4.925  -2.961  -5.408  0.00  0.00     0.038 A 
ATOM     23  N   LIG d   1       4.075  -1.915  -5.090  0.00  0.00    -0.284 N 
ATOM     24  C   LIG d   1       4.459  -0.757  -5.670  0.00  0.00     0.231 A 
ATOM     25  O   LIG d   1       3.908   0.320  -5.572  0.00  0.00    -0.274 OA
ATOM     26  H   LIG d   1       8.363   2.054  -8.889  0.00  0.00     0.064 H 
ATOM     27  H   LIG d   1      10.391   3.379  -8.458  0.00  0.00     0.062 H 
ATOM     28  H   LIG d   1      11.140   3.793  -6.155  0.00  0.00     0.062 H 
ATOM     29  H   LIG d   1       9.863   2.897  -4.252  0.00  0.00     0.062 H 
ATOM     30  H   LIG d   1       7.598   1.861  -3.394  0.00  0.00     0.062 H 
ATOM     31  H   LIG d   1       6.208  -0.133  -3.877  0.00  0.00     0.059 H 
ATOM     32  H   LIG d   1       7.724  -3.002  -7.366  0.00  0.00     0.062 H 
ATOM     33  H   LIG d   1       7.627  -5.380  -6.659  0.00  0.00     0.062 H 
ATOM     34  H   LIG d   1       5.855  -6.180  -5.197  0.00  0.00     0.062 H 
ATOM     35  H   LIG d   1       4.091  -4.662  -4.363  0.00  0.00     0.064 H 
ATOM     36  H   LIG d   1       3.297  -2.004  -4.519  0.00  0.00     0.155 HD
ENDROOT
BRANCH   1  37
ATOM     37  C   LIG d   1       4.100  -0.202  -8.189  0.00  0.00     0.170 C 
ATOM     38  O   LIG d   1       3.778   0.871  -7.724  0.00  0.00    -0.292 OA
BRANCH  37  39
ATOM     39  C   LIG d   1       3.133  -0.982  -8.977  0.00  0.00     0.018 A 
ATOM     40  C   LIG d   1       2.103  -0.336  -9.666  0.00  0.00    -0.051 A 
ATOM     41  C   LIG d   1       1.201  -1.074 -10.403  0.00  0.00    -0.061 A 
ATOM     42  H   LIG d   1       2.013   0.740  -9.621  0.00  0.00     0.062 H 
ATOM     43  C   LIG d   1       1.315  -2.453 -10.463  0.00  0.00    -0.062 A 
ATOM     44  H   LIG d   1       0.404  -0.577 -10.935  0.00  0.00     0.062 H 
ATOM     45  C   LIG d   1       2.333  -3.100  -9.784  0.00  0.00    -0.061 A 
ATOM     46  H   LIG d   1       0.606  -3.026 -11.042  0.00  0.00     0.062 H 
ATOM     47  C   LIG d   1       3.246  -2.375  -9.048  0.00  0.00    -0.051 A 
ATOM     48  H   LIG d   1       2.415  -4.176  -9.836  0.00  0.00     0.062 H 
ATOM     49  H   LIG d   1       4.042  -2.881  -8.522  0.00  0.00     0.062 H 
ENDBRANCH  37  39
ENDBRANCH   1  37
BRANCH   3  50
ATOM     50  C   LIG d   1       5.993   1.377  -9.236  0.00  0.00     0.232 C 
ATOM     51  O   LIG d   1       5.823   1.085 -10.401  0.00  0.00    -0.274 OA
ATOM     52  N   LIG d   1       5.685   2.614  -8.799  0.00  0.00    -0.328 N 
ATOM     53  H   LIG d   1       5.821   2.846  -7.867  0.00  0.00     0.145 HD
ATOM     54  H   LIG d   1       5.326   3.271  -9.415  0.00  0.00     0.145 HD
ENDBRANCH   3  50
TORSDOF 3
ENDMDL
MODEL 7
REMARK VINA RESULT:      -7.3      2.154      6.013
REMARK  3 active torsions:
REMARK  status: ('A' for Active; 'I' for Inactive)
REMARK    1  A    between atoms: C_4  and  C_7 
REMARK    2  A    between atoms: C_7  and  C_9 
REMARK    3  A    between atoms: C_11  and  C_34 
REMARK       I    between atoms: C_34  and  N_36 
ROOT
ATOM      1  C   LIG d   1       6.375  -2.225  -6.412  0.00  0.00     0.069 C 
ATOM      2  H   LIG d   1       7.354  -2.090  -6.564  0.00  0.00     0.042 H 
ATOM      3  C   LIG d   1       5.640  -2.519  -7.750  0.00  0.00     0.111 C 
ATOM      4  H   LIG d   1       6.192  -2.099  -8.592  0.00  0.00     0.060 H 
ATOM      5  N   LIG d   1       4.349  -1.839  -7.590  0.00  0.00    -0.309 NA
ATOM      6  C   LIG d   1       3.590  -1.592  -8.710  0.00  0.00     0.038 A 
ATOM      7  C   LIG d   1       3.782  -2.229  -9.920  0.00  0.00    -0.040 A 
ATOM      8  C   LIG d   1       2.979  -1.910 -11.001  0.00  0.00    -0.060 A 
ATOM      9  C   LIG d   1       1.985  -0.955 -10.880  0.00  0.00    -0.061 A 
ATOM     10  C   LIG d   1       1.778  -0.309  -9.677  0.00  0.00    -0.053 A 
ATOM     11  C   LIG d   1       2.573  -0.621  -8.583  0.00  0.00    -0.004 A 
ATOM     12  C   LIG d   1       2.383   0.041  -7.270  0.00  0.00    -0.055 C 
ATOM     13  C   LIG d   1       3.442   0.088  -6.441  0.00  0.00    -0.062 C 
ATOM     14  C   LIG d   1       4.703  -0.543  -6.947  0.00  0.00     0.062 C 
ATOM     15  H   LIG d   1       5.173   0.114  -7.679  0.00  0.00     0.056 H 
ATOM     16  C   LIG d   1       5.718  -0.933  -5.883  0.00  0.00     0.108 A 
ATOM     17  C   LIG d   1       6.728   0.132  -5.631  0.00  0.00    -0.008 A 
ATOM     18  C   LIG d   1       7.626   0.765  -6.465  0.00  0.00    -0.056 A 
ATOM     19  C   LIG d   1       8.442   1.736  -5.895  0.00  0.00    -0.061 A 
ATOM     20  C   LIG d   1       8.357   2.049  -4.554  0.00  0.00    -0.060 A 
ATOM     21  C   LIG d   1       7.458   1.417  -3.708  0.00  0.00    -0.040 A 
ATOM     22  C   LIG d   1       6.632   0.441  -4.267  0.00  0.00     0.038 A 
ATOM     23  N   LIG d   1       5.658  -0.337  -3.666  0.00  0.00    -0.284 N 
ATOM     24  C   LIG d   1       5.066  -1.176  -4.544  0.00  0.00     0.231 A 
ATOM     25  O   LIG d   1       4.183  -1.972  -4.303  0.00  0.00    -0.274 OA
ATOM     26  H   LIG d   1       4.558  -2.972 -10.023  0.00  0.00     0.064 H 
ATOM     27  H   LIG d   1       3.130  -2.411 -11.946  0.00  0.00     0.062 H 
ATOM     28  H   LIG d   1       1.367  -0.714 -11.732  0.00  0.00     0.062 H 
ATOM     29  H   LIG d   1       1.000   0.435  -9.587  0.00  0.00     0.062 H 
ATOM     30  H   LIG d   1       1.432   0.469  -6.989  0.00  0.00     0.062 H 
ATOM     31  H   LIG d   1       3.387   0.553  -5.468  0.00  0.00     0.059 H 
ATOM     32  H   LIG d   1       7.691   0.518  -7.514  0.00  0.00     0.062 H 
ATOM     33  H   LIG d   1       9.157   2.255  -6.515  0.00  0.00     0.062 H 
ATOM     34  H   LIG d   1       9.009   2.810  -4.151  0.00  0.00     0.062 H 
ATOM     35  H   LIG d   1       7.400   1.670  -2.660  0.00  0.00     0.064 H 
ATOM     36  H   LIG d   1       5.427  -0.285  -2.726  0.00  0.00     0.155 HD
ENDROOT
BRANCH   1  37
ATOM     37  C   LIG d   1       6.169  -3.358  -5.440  0.00  0.00     0.170 C 
ATOM     38  O   LIG d   1       5.052  -3.785  -5.233  0.00  0.00    -0.292 OA
BRANCH  37  39
ATOM     39  C   LIG d   1       7.322  -3.947  -4.741  0.00  0.00     0.018 A 
ATOM     40  C   LIG d   1       7.743  -5.244  -5.048  0.00  0.00    -0.051 A 
ATOM     41  C   LIG d   1       8.825  -5.789  -4.388  0.00  0.00    -0.061 A 
ATOM     42  H   LIG d   1       7.223  -5.819  -5.801  0.00  0.00     0.062 H 
ATOM     43  C   LIG d   1       9.494  -5.054  -3.425  0.00  0.00    -0.062 A 
ATOM     44  H   LIG d   1       9.152  -6.790  -4.624  0.00  0.00     0.062 H 
ATOM     45  C   LIG d   1       9.084  -3.769  -3.115  0.00  0.00    -0.061 A 
ATOM     46  H   LIG d   1      10.341  -5.485  -2.912  0.00  0.00     0.062 H 
ATOM     47  C   LIG d   1       8.007  -3.209  -3.770  0.00  0.00    -0.051 A 
ATOM     48  H   LIG d   1       9.611  -3.202  -2.362  0.00  0.00     0.062 H 
ATOM     49  H   LIG d   1       7.690  -2.204  -3.530  0.00  0.00     0.062 H 
ENDBRANCH  37  39
ENDBRANCH   1  37
BRANCH   3  50
ATOM     50  C   LIG d   1       5.440  -4.001  -7.936  0.00  0.00     0.232 C 
ATOM     51  O   LIG d   1       6.370  -4.700  -8.280  0.00  0.00    -0.274 OA
ATOM     52  N   LIG d   1       4.229  -4.550  -7.719  0.00  0.00    -0.328 N 
ATOM     53  H   LIG d   1       3.486  -3.990  -7.442  0.00  0.00     0.145 HD
ATOM     54  H   LIG d   1       4.100  -5.504  -7.838  0.00  0.00     0.145 HD
ENDBRANCH   3  50
TORSDOF 3
ENDMDL
MODEL 8
REMARK VINA RESULT:      -7.3      2.398      3.699
REMARK  3 active torsions:
REMARK  status: ('A' for Active; 'I' for Inactive)
REMARK    1  A    between atoms: C_4  and  C_7 
REMARK    2  A    between atoms: C_7  and  C_9 
REMARK    3  A    between atoms: C_11  and  C_34 
REMARK       I    between atoms: C_34  and  N_36 
ROOT
ATOM      1  C   LIG d   1       6.145  -0.196  -6.356  0.00  0.00     0.069 C 
ATOM      2  H   LIG d   1       5.724   0.711  -6.366  0.00  0.00     0.042 H 
ATOM      3  C   LIG d   1       5.662  -1.045  -7.566  0.00  0.00     0.111 C 
ATOM      4  H   LIG d   1       4.687  -0.702  -7.912  0.00  0.00     0.060 H 
ATOM      5  N   LIG d   1       5.566  -2.403  -7.016  0.00  0.00    -0.309 NA
ATOM      6  C   LIG d   1       4.836  -3.343  -7.705  0.00  0.00     0.038 A 
ATOM      7  C   LIG d   1       4.475  -3.211  -9.031  0.00  0.00    -0.040 A 
ATOM      8  C   LIG d   1       3.729  -4.201  -9.644  0.00  0.00    -0.060 A 
ATOM      9  C   LIG d   1       3.338  -5.325  -8.937  0.00  0.00    -0.061 A 
ATOM     10  C   LIG d   1       3.691  -5.476  -7.610  0.00  0.00    -0.053 A 
ATOM     11  C   LIG d   1       4.443  -4.491  -6.983  0.00  0.00    -0.004 A 
ATOM     12  C   LIG d   1       4.851  -4.612  -5.563  0.00  0.00    -0.055 C 
ATOM     13  C   LIG d   1       5.110  -3.474  -4.894  0.00  0.00    -0.062 C 
ATOM     14  C   LIG d   1       4.956  -2.203  -5.672  0.00  0.00     0.062 C 
ATOM     15  H   LIG d   1       3.897  -1.967  -5.780  0.00  0.00     0.056 H 
ATOM     16  C   LIG d   1       5.695  -0.995  -5.116  0.00  0.00     0.108 A 
ATOM     17  C   LIG d   1       4.850  -0.170  -4.208  0.00  0.00    -0.008 A 
ATOM     18  C   LIG d   1       3.645   0.472  -4.403  0.00  0.00    -0.056 A 
ATOM     19  C   LIG d   1       3.119   1.171  -3.321  0.00  0.00    -0.061 A 
ATOM     20  C   LIG d   1       3.777   1.219  -2.109  0.00  0.00    -0.060 A 
ATOM     21  C   LIG d   1       4.988   0.577  -1.905  0.00  0.00    -0.040 A 
ATOM     22  C   LIG d   1       5.528  -0.128  -2.981  0.00  0.00     0.038 A 
ATOM     23  N   LIG d   1       6.705  -0.851  -3.058  0.00  0.00    -0.284 N 
ATOM     24  C   LIG d   1       6.885  -1.398  -4.281  0.00  0.00     0.231 A 
ATOM     25  O   LIG d   1       7.822  -2.080  -4.639  0.00  0.00    -0.274 OA
ATOM     26  H   LIG d   1       4.772  -2.335  -9.588  0.00  0.00     0.064 H 
ATOM     27  H   LIG d   1       3.448  -4.096 -10.682  0.00  0.00     0.062 H 
ATOM     28  H   LIG d   1       2.753  -6.090  -9.427  0.00  0.00     0.062 H 
ATOM     29  H   LIG d   1       3.385  -6.355  -7.063  0.00  0.00     0.062 H 
ATOM     30  H   LIG d   1       4.939  -5.576  -5.084  0.00  0.00     0.062 H 
ATOM     31  H   LIG d   1       5.412  -3.475  -3.857  0.00  0.00     0.059 H 
ATOM     32  H   LIG d   1       3.133   0.433  -5.352  0.00  0.00     0.062 H 
ATOM     33  H   LIG d   1       2.177   1.686  -3.433  0.00  0.00     0.062 H 
ATOM     34  H   LIG d   1       3.333   1.773  -1.295  0.00  0.00     0.062 H 
ATOM     35  H   LIG d   1       5.494   0.622  -0.952  0.00  0.00     0.064 H 
ATOM     36  H   LIG d   1       7.328  -0.954  -2.322  0.00  0.00     0.155 HD
ENDROOT
BRANCH   1  37
ATOM     37  C   LIG d   1       7.645  -0.055  -6.378  0.00  0.00     0.170 C 
ATOM     38  O   LIG d   1       8.342  -1.026  -6.585  0.00  0.00    -0.292 OA
BRANCH  37  39
ATOM     39  C   LIG d   1       8.264   1.260  -6.147  0.00  0.00     0.018 A 
ATOM     40  C   LIG d   1       8.933   1.914  -7.186  0.00  0.00    -0.051 A 
ATOM     41  C   LIG d   1       9.510   3.146  -6.961  0.00  0.00    -0.061 A 
ATOM     42  H   LIG d   1       8.997   1.456  -8.162  0.00  0.00     0.062 H 
ATOM     43  C   LIG d   1       9.428   3.736  -5.711  0.00  0.00    -0.062 A 
ATOM     44  H   LIG d   1      10.027   3.653  -7.762  0.00  0.00     0.062 H 
ATOM     45  C   LIG d   1       8.767   3.095  -4.679  0.00  0.00    -0.061 A 
ATOM     46  H   LIG d   1       9.881   4.701  -5.542  0.00  0.00     0.062 H 
ATOM     47  C   LIG d   1       8.180   1.865  -4.888  0.00  0.00    -0.051 A 
ATOM     48  H   LIG d   1       8.707   3.561  -3.706  0.00  0.00     0.062 H 
ATOM     49  H   LIG d   1       7.661   1.368  -4.082  0.00  0.00     0.062 H 
ENDBRANCH  37  39
ENDBRANCH   1  37
BRANCH   3  50
ATOM     50  C   LIG d   1       6.669  -0.997  -8.687  0.00  0.00     0.232 C 
ATOM     51  O   LIG d   1       6.766  -0.001  -9.373  0.00  0.00    -0.274 OA
ATOM     52  N   LIG d   1       7.460  -2.061  -8.928  0.00  0.00    -0.328 N 
ATOM     53  H   LIG d   1       7.382  -2.857  -8.379  0.00  0.00     0.145 HD
ATOM     54  H   LIG d   1       8.108  -2.030  -9.649  0.00  0.00     0.145 HD
ENDBRANCH   3  50
TORSDOF 3
ENDMDL
MODEL 9
REMARK VINA RESULT:      -7.3      2.572      5.348
REMARK  3 active torsions:
REMARK  status: ('A' for Active; 'I' for Inactive)
REMARK    1  A    between atoms: C_4  and  C_7 
REMARK    2  A    between atoms: C_7  and  C_9 
REMARK    3  A    between atoms: C_11  and  C_34 
REMARK       I    between atoms: C_34  and  N_36 
ROOT
ATOM      1  C   LIG d   1       6.355  -0.312  -6.532  0.00  0.00     0.069 C 
ATOM      2  H   LIG d   1       6.315   0.675  -6.377  0.00  0.00     0.042 H 
ATOM      3  C   LIG d   1       7.807  -0.766  -6.850  0.00  0.00     0.111 C 
ATOM      4  H   LIG d   1       8.384   0.058  -7.271  0.00  0.00     0.060 H 
ATOM      5  N   LIG d   1       7.624  -1.829  -7.846  0.00  0.00    -0.309 NA
ATOM      6  C   LIG d   1       8.704  -2.212  -8.608  0.00  0.00     0.038 A 
ATOM      7  C   LIG d   1      10.013  -1.922  -8.280  0.00  0.00    -0.040 A 
ATOM      8  C   LIG d   1      11.039  -2.336  -9.111  0.00  0.00    -0.060 A 
ATOM      9  C   LIG d   1      10.763  -3.039 -10.271  0.00  0.00    -0.061 A 
ATOM     10  C   LIG d   1       9.459  -3.339 -10.614  0.00  0.00    -0.053 A 
ATOM     11  C   LIG d   1       8.420  -2.933  -9.788  0.00  0.00    -0.004 A 
ATOM     12  C   LIG d   1       7.006  -3.239 -10.112  0.00  0.00    -0.055 C 
ATOM     13  C   LIG d   1       6.064  -2.429  -9.595  0.00  0.00    -0.062 C 
ATOM     14  C   LIG d   1       6.559  -1.301  -8.743  0.00  0.00     0.062 C 
ATOM     15  H   LIG d   1       6.969  -0.516  -9.378  0.00  0.00     0.056 H 
ATOM     16  C   LIG d   1       5.542  -0.704  -7.783  0.00  0.00     0.108 A 
ATOM     17  C   LIG d   1       4.823   0.467  -8.359  0.00  0.00    -0.008 A 
ATOM     18  C   LIG d   1       5.276   1.670  -8.859  0.00  0.00    -0.056 A 
ATOM     19  C   LIG d   1       4.317   2.560  -9.329  0.00  0.00    -0.061 A 
ATOM     20  C   LIG d   1       2.972   2.252  -9.294  0.00  0.00    -0.060 A 
ATOM     21  C   LIG d   1       2.509   1.046  -8.792  0.00  0.00    -0.040 A 
ATOM     22  C   LIG d   1       3.460   0.143  -8.317  0.00  0.00     0.038 A 
ATOM     23  N   LIG d   1       3.282  -1.116  -7.770  0.00  0.00    -0.284 N 
ATOM     24  C   LIG d   1       4.457  -1.689  -7.426  0.00  0.00     0.231 A 
ATOM     25  O   LIG d   1       4.610  -2.784  -6.927  0.00  0.00    -0.274 OA
ATOM     26  H   LIG d   1      10.236  -1.371  -7.379  0.00  0.00     0.064 H 
ATOM     27  H   LIG d   1      12.063  -2.109  -8.852  0.00  0.00     0.062 H 
ATOM     28  H   LIG d   1      11.573  -3.354 -10.912  0.00  0.00     0.062 H 
ATOM     29  H   LIG d   1       9.249  -3.889 -11.520  0.00  0.00     0.062 H 
ATOM     30  H   LIG d   1       6.742  -4.079 -10.736  0.00  0.00     0.062 H 
ATOM     31  H   LIG d   1       5.011  -2.582  -9.784  0.00  0.00     0.059 H 
ATOM     32  H   LIG d   1       6.329   1.908  -8.886  0.00  0.00     0.062 H 
ATOM     33  H   LIG d   1       4.631   3.512  -9.730  0.00  0.00     0.062 H 
ATOM     34  H   LIG d   1       2.260   2.972  -9.669  0.00  0.00     0.062 H 
ATOM     35  H   LIG d   1       1.454   0.816  -8.769  0.00  0.00     0.064 H 
ATOM     36  H   LIG d   1       2.417  -1.537  -7.648  0.00  0.00     0.155 HD
ENDROOT
BRANCH   1  37
ATOM     37  C   LIG d   1       5.833  -1.034  -5.316  0.00  0.00     0.170 C 
ATOM     38  O   LIG d   1       5.999  -2.230  -5.203  0.00  0.00    -0.292 OA
BRANCH  37  39
ATOM     39  C   LIG d   1       5.122  -0.288  -4.266  0.00  0.00     0.018 A 
ATOM     40  C   LIG d   1       3.725  -0.268  -4.241  0.00  0.00    -0.051 A 
ATOM     41  C   LIG d   1       3.066   0.434  -3.253  0.00  0.00    -0.061 A 
ATOM     42  H   LIG d   1       3.162  -0.801  -4.993  0.00  0.00     0.062 H 
ATOM     43  C   LIG d   1       3.785   1.116  -2.286  0.00  0.00    -0.062 A 
ATOM     44  H   LIG d   1       1.986   0.450  -3.232  0.00  0.00     0.062 H 
ATOM     45  C   LIG d   1       5.168   1.100  -2.304  0.00  0.00    -0.061 A 
ATOM     46  H   LIG d   1       3.264   1.662  -1.515  0.00  0.00     0.062 H 
ATOM     47  C   LIG d   1       5.842   0.399  -3.282  0.00  0.00    -0.051 A 
ATOM     48  H   LIG d   1       5.723   1.636  -1.547  0.00  0.00     0.062 H 
ATOM     49  H   LIG d   1       6.922   0.385  -3.292  0.00  0.00     0.062 H 
ENDBRANCH  37  39
ENDBRANCH   1  37
BRANCH   3  50
ATOM     50  C   LIG d   1       8.481  -1.307  -5.615  0.00  0.00     0.232 C 
ATOM     51  O   LIG d   1       8.895  -0.544  -4.767  0.00  0.00    -0.274 OA
ATOM     52  N   LIG d   1       8.623  -2.637  -5.452  0.00  0.00    -0.328 N 
ATOM     53  H   LIG d   1       8.291  -3.246  -6.130  0.00  0.00     0.145 HD
ATOM     54  H   LIG d   1       9.056  -2.985  -4.657  0.00  0.00     0.145 HD
ENDBRANCH   3  50
TORSDOF 3
ENDMDL
