MODEL 1
REMARK VINA RESULT:      -7.6      0.000      0.000
REMARK  13 active torsions:
REMARK  status: ('A' for Active; 'I' for Inactive)
REMARK    1  A    between atoms: C_1  and  O_2 
REMARK    2  A    between atoms: O_2  and  C_3 
REMARK    3  A    between atoms: C_6  and  N_9 
REMARK       I    between atoms: N_9  and  C_10 
REMARK    4  A    between atoms: C_10  and  C_12 
REMARK    5  A    between atoms: C_12  and  C_13 
REMARK    6  A    between atoms: C_12  and  O_17 
REMARK    7  A    between atoms: O_17  and  C_18 
REMARK    8  A    between atoms: C_18  and  C_19 
REMARK    9  A    between atoms: C_19  and  C_20 
REMARK   10  A    between atoms: C_19  and  O_24 
REMARK   11  A    between atoms: O_24  and  C_25 
REMARK   12  A    between atoms: C_25  and  C_26 
REMARK   13  A    between atoms: C_26  and  C_27 
ROOT
ATOM      1  C   LIG d   1       4.445  -0.027  -3.435  0.00  0.00     0.387 C 
ATOM      2  F   LIG d   1       3.170  -0.372  -2.975  0.00  0.00    -0.190 F 
ENDROOT
BRANCH   1   3
ATOM      3  C   LIG d   1       5.357  -1.222  -3.329  0.00  0.00     0.292 C 
ATOM      4  N   LIG d   1       6.358  -1.386  -4.216  0.00  0.00    -0.281 N 
ATOM      5  H   LIG d   1       6.546  -0.694  -4.869  0.00  0.00     0.155 HD
ATOM      6  O   LIG d   1       5.189  -2.036  -2.445  0.00  0.00    -0.269 OA
BRANCH   4   7
ATOM      7  C   LIG d   1       7.128  -2.557  -4.194  0.00  0.00     0.034 A 
ATOM      8  C   LIG d   1       6.800  -3.619  -5.026  0.00  0.00    -0.037 A 
ATOM      9  C   LIG d   1       7.560  -4.772  -5.005  0.00  0.00    -0.018 A 
ATOM     10  H   LIG d   1       5.951  -3.544  -5.690  0.00  0.00     0.064 H 
ATOM     11  C   LIG d   1       8.651  -4.868  -4.154  0.00  0.00     0.120 A 
ATOM     12  H   LIG d   1       7.306  -5.598  -5.653  0.00  0.00     0.066 H 
ATOM     13  C   LIG d   1       8.975  -3.809  -3.318  0.00  0.00    -0.018 A 
ATOM     14  C   LIG d   1       8.220  -2.654  -3.342  0.00  0.00    -0.037 A 
ATOM     15  H   LIG d   1       9.822  -3.887  -2.652  0.00  0.00     0.066 H 
ATOM     16  H   LIG d   1       8.476  -1.828  -2.696  0.00  0.00     0.064 H 
BRANCH  11  17
ATOM     17  O   LIG d   1       9.399  -6.004  -4.133  0.00  0.00    -0.495 OA
BRANCH  17  18
ATOM     18  C   LIG d   1       9.589  -6.632  -2.863  0.00  0.00     0.079 C 
ATOM     19  H   LIG d   1       9.263  -7.671  -2.919  0.00  0.00     0.066 H 
ATOM     20  H   LIG d   1      10.645  -6.597  -2.595  0.00  0.00     0.066 H 
ATOM     21  H   LIG d   1       9.004  -6.108  -2.107  0.00  0.00     0.066 H 
ENDBRANCH  17  18
ENDBRANCH  11  17
ENDBRANCH   4   7
ENDBRANCH   1   3
BRANCH   1  22
ATOM     22  C   LIG d   1       5.002   1.116  -2.583  0.00  0.00     0.459 C 
ATOM     23  F   LIG d   1       4.327   2.301  -2.894  0.00  0.00    -0.165 F 
ATOM     24  F   LIG d   1       4.820   0.818  -1.227  0.00  0.00    -0.165 F 
ATOM     25  F   LIG d   1       6.367   1.274  -2.847  0.00  0.00    -0.165 F 
ENDBRANCH   1  22
BRANCH   1  26
ATOM     26  O   LIG d   1       4.363   0.392  -4.799  0.00  0.00    -0.263 OA
BRANCH  26  27
ATOM     27  C   LIG d   1       3.083   0.178  -5.396  0.00  0.00     0.428 C 
ATOM     28  F   LIG d   1       2.466  -0.925  -4.794  0.00  0.00    -0.169 F 
ATOM     29  F   LIG d   1       2.287   1.314  -5.214  0.00  0.00    -0.169 F 
BRANCH  27  30
ATOM     30  C   LIG d   1       3.257  -0.089  -6.892  0.00  0.00     0.401 C 
ATOM     31  F   LIG d   1       2.001  -0.277  -7.482  0.00  0.00    -0.191 F 
BRANCH  30  32
ATOM     32  C   LIG d   1       4.107  -1.346  -7.091  0.00  0.00     0.458 C 
ATOM     33  F   LIG d   1       3.688  -2.015  -8.245  0.00  0.00    -0.165 F 
ATOM     34  F   LIG d   1       5.451  -0.981  -7.225  0.00  0.00    -0.165 F 
ATOM     35  F   LIG d   1       3.960  -2.187  -5.984  0.00  0.00    -0.165 F 
ENDBRANCH  30  32
BRANCH  30  36
ATOM     36  O   LIG d   1       3.906   1.028  -7.504  0.00  0.00    -0.264 OA
BRANCH  36  37
ATOM     37  C   LIG d   1       3.106   1.707  -8.473  0.00  0.00     0.432 C 
ATOM     38  F   LIG d   1       2.021   0.900  -8.830  0.00  0.00    -0.168 F 
ATOM     39  F   LIG d   1       2.636   2.908  -7.931  0.00  0.00    -0.168 F 
BRANCH  37  40
ATOM     40  C   LIG d   1       3.952   2.004  -9.714  0.00  0.00     0.429 C 
ATOM     41  F   LIG d   1       3.287   2.935 -10.519  0.00  0.00    -0.186 F 
ATOM     42  F   LIG d   1       5.189   2.525  -9.321  0.00  0.00    -0.186 F 
BRANCH  40  43
ATOM     43  C   LIG d   1       4.170   0.711 -10.503  0.00  0.00     0.463 C 
ATOM     44  F   LIG d   1       5.341   0.087 -10.063  0.00  0.00    -0.165 F 
ATOM     45  F   LIG d   1       3.081  -0.145 -10.303  0.00  0.00    -0.165 F 
ATOM     46  F   LIG d   1       4.284   1.011 -11.865  0.00  0.00    -0.165 F 
ENDBRANCH  40  43
ENDBRANCH  37  40
ENDBRANCH  36  37
ENDBRANCH  30  36
ENDBRANCH  27  30
ENDBRANCH  26  27
ENDBRANCH   1  26
TORSDOF 13
ENDMDL
MODEL 2
REMARK VINA RESULT:      -7.4      2.605      3.296
REMARK  13 active torsions:
REMARK  status: ('A' for Active; 'I' for Inactive)
REMARK    1  A    between atoms: C_1  and  O_2 
REMARK    2  A    between atoms: O_2  and  C_3 
REMARK    3  A    between atoms: C_6  and  N_9 
REMARK       I    between atoms: N_9  and  C_10 
REMARK    4  A    between atoms: C_10  and  C_12 
REMARK    5  A    between atoms: C_12  and  C_13 
REMARK    6  A    between atoms: C_12  and  O_17 
REMARK    7  A    between atoms: O_17  and  C_18 
REMARK    8  A    between atoms: C_18  and  C_19 
REMARK    9  A    between atoms: C_19  and  C_20 
REMARK   10  A    between atoms: C_19  and  O_24 
REMARK   11  A    between atoms: O_24  and  C_25 
REMARK   12  A    between atoms: C_25  and  C_26 
REMARK   13  A    between atoms: C_26  and  C_27 
ROOT
ATOM      1  C   LIG d   1       4.881   0.192  -3.656  0.00  0.00     0.387 C 
ATOM      2  F   LIG d   1       4.541  -1.147  -3.437  0.00  0.00    -0.190 F 
ENDROOT
BRANCH   1   3
ATOM      3  C   LIG d   1       6.376   0.353  -3.565  0.00  0.00     0.292 C 
ATOM      4  N   LIG d   1       6.978   1.408  -4.147  0.00  0.00    -0.281 N 
ATOM      5  H   LIG d   1       6.443   2.110  -4.550  0.00  0.00     0.155 HD
ATOM      6  O   LIG d   1       7.039  -0.470  -2.968  0.00  0.00    -0.269 OA
BRANCH   4   7
ATOM      7  C   LIG d   1       8.376   1.494  -4.169  0.00  0.00     0.034 A 
ATOM      8  C   LIG d   1       9.027   2.436  -3.383  0.00  0.00    -0.037 A 
ATOM      9  C   LIG d   1      10.405   2.518  -3.404  0.00  0.00    -0.018 A 
ATOM     10  H   LIG d   1       8.455   3.102  -2.754  0.00  0.00     0.064 H 
ATOM     11  C   LIG d   1      11.139   1.661  -4.210  0.00  0.00     0.120 A 
ATOM     12  H   LIG d   1      10.911   3.250  -2.792  0.00  0.00     0.066 H 
ATOM     13  C   LIG d   1      10.489   0.724  -5.000  0.00  0.00    -0.018 A 
ATOM     14  C   LIG d   1       9.112   0.636  -4.976  0.00  0.00    -0.037 A 
ATOM     15  H   LIG d   1      11.062   0.060  -5.632  0.00  0.00     0.066 H 
ATOM     16  H   LIG d   1       8.607  -0.097  -5.587  0.00  0.00     0.064 H 
BRANCH  11  17
ATOM     17  O   LIG d   1      12.496   1.743  -4.231  0.00  0.00    -0.495 OA
BRANCH  17  18
ATOM     18  C   LIG d   1      13.222   0.627  -3.712  0.00  0.00     0.079 C 
ATOM     19  H   LIG d   1      12.527  -0.178  -3.470  0.00  0.00     0.066 H 
ATOM     20  H   LIG d   1      13.936   0.277  -4.458  0.00  0.00     0.066 H 
ATOM     21  H   LIG d   1      13.756   0.927  -2.811  0.00  0.00     0.066 H 
ENDBRANCH  17  18
ENDBRANCH  11  17
ENDBRANCH   4   7
ENDBRANCH   1   3
BRANCH   1  22
ATOM     22  C   LIG d   1       4.209   1.068  -2.596  0.00  0.00     0.459 C 
ATOM     23  F   LIG d   1       3.962   2.337  -3.128  0.00  0.00    -0.165 F 
ATOM     24  F   LIG d   1       2.998   0.482  -2.207  0.00  0.00    -0.165 F 
ATOM     25  F   LIG d   1       5.050   1.183  -1.484  0.00  0.00    -0.165 F 
ENDBRANCH   1  22
BRANCH   1  26
ATOM     26  O   LIG d   1       4.436   0.590  -4.955  0.00  0.00    -0.263 OA
BRANCH  26  27
ATOM     27  C   LIG d   1       3.295  -0.129  -5.424  0.00  0.00     0.428 C 
ATOM     28  F   LIG d   1       3.260  -1.392  -4.822  0.00  0.00    -0.169 F 
ATOM     29  F   LIG d   1       2.131   0.575  -5.096  0.00  0.00    -0.169 F 
BRANCH  27  30
ATOM     30  C   LIG d   1       3.382  -0.290  -6.943  0.00  0.00     0.401 C 
ATOM     31  F   LIG d   1       2.095  -0.440  -7.471  0.00  0.00    -0.191 F 
BRANCH  30  32
ATOM     32  C   LIG d   1       4.218  -1.527  -7.277  0.00  0.00     0.458 C 
ATOM     33  F   LIG d   1       5.316  -1.151  -8.058  0.00  0.00    -0.165 F 
ATOM     34  F   LIG d   1       4.669  -2.118  -6.092  0.00  0.00    -0.165 F 
ATOM     35  F   LIG d   1       3.433  -2.443  -7.986  0.00  0.00    -0.165 F 
ENDBRANCH  30  32
BRANCH  30  36
ATOM     36  O   LIG d   1       3.997   0.869  -7.511  0.00  0.00    -0.264 OA
BRANCH  36  37
ATOM     37  C   LIG d   1       3.159   1.587  -8.417  0.00  0.00     0.432 C 
ATOM     38  F   LIG d   1       2.155   0.739  -8.896  0.00  0.00    -0.168 F 
ATOM     39  F   LIG d   1       2.575   2.671  -7.752  0.00  0.00    -0.168 F 
BRANCH  37  40
ATOM     40  C   LIG d   1       3.998   2.100  -9.590  0.00  0.00     0.429 C 
ATOM     41  F   LIG d   1       3.268   3.058 -10.301  0.00  0.00    -0.186 F 
ATOM     42  F   LIG d   1       5.176   2.676  -9.104  0.00  0.00    -0.186 F 
BRANCH  40  43
ATOM     43  C   LIG d   1       4.345   0.932 -10.516  0.00  0.00     0.463 C 
ATOM     44  F   LIG d   1       4.042   1.277 -11.837  0.00  0.00    -0.165 F 
ATOM     45  F   LIG d   1       5.710   0.644 -10.410  0.00  0.00    -0.165 F 
ATOM     46  F   LIG d   1       3.601  -0.194 -10.146  0.00  0.00    -0.165 F 
ENDBRANCH  40  43
ENDBRANCH  37  40
ENDBRANCH  36  37
ENDBRANCH  30  36
ENDBRANCH  27  30
ENDBRANCH  26  27
ENDBRANCH   1  26
TORSDOF 13
ENDMDL
MODEL 3
REMARK VINA RESULT:      -7.4      3.918      6.993
REMARK  13 active torsions:
REMARK  status: ('A' for Active; 'I' for Inactive)
REMARK    1  A    between atoms: C_1  and  O_2 
REMARK    2  A    between atoms: O_2  and  C_3 
REMARK    3  A    between atoms: C_6  and  N_9 
REMARK       I    between atoms: N_9  and  C_10 
REMARK    4  A    between atoms: C_10  and  C_12 
REMARK    5  A    between atoms: C_12  and  C_13 
REMARK    6  A    between atoms: C_12  and  O_17 
REMARK    7  A    between atoms: O_17  and  C_18 
REMARK    8  A    between atoms: C_18  and  C_19 
REMARK    9  A    between atoms: C_19  and  C_20 
REMARK   10  A    between atoms: C_19  and  O_24 
REMARK   11  A    between atoms: O_24  and  C_25 
REMARK   12  A    between atoms: C_25  and  C_26 
REMARK   13  A    between atoms: C_26  and  C_27 
ROOT
ATOM      1  C   LIG d   1       7.905   0.831  -5.877  0.00  0.00     0.387 C 
ATOM      2  F   LIG d   1       8.060   1.142  -7.232  0.00  0.00    -0.190 F 
ENDROOT
BRANCH   1   3
ATOM      3  C   LIG d   1       8.151   2.065  -5.048  0.00  0.00     0.292 C 
ATOM      4  N   LIG d   1       9.179   2.883  -5.344  0.00  0.00    -0.281 N 
ATOM      5  H   LIG d   1       9.708   2.726  -6.142  0.00  0.00     0.155 HD
ATOM      6  O   LIG d   1       7.422   2.320  -4.111  0.00  0.00    -0.269 OA
BRANCH   4   7
ATOM      7  C   LIG d   1       9.482   3.961  -4.502  0.00  0.00     0.034 A 
ATOM      8  C   LIG d   1      10.027   3.728  -3.246  0.00  0.00    -0.037 A 
ATOM      9  C   LIG d   1      10.327   4.791  -2.417  0.00  0.00    -0.018 A 
ATOM     10  H   LIG d   1      10.216   2.717  -2.918  0.00  0.00     0.064 H 
ATOM     11  C   LIG d   1      10.085   6.090  -2.839  0.00  0.00     0.120 A 
ATOM     12  H   LIG d   1      10.751   4.611  -1.440  0.00  0.00     0.066 H 
ATOM     13  C   LIG d   1       9.536   6.322  -4.092  0.00  0.00    -0.018 A 
ATOM     14  C   LIG d   1       9.240   5.262  -4.924  0.00  0.00    -0.037 A 
ATOM     15  H   LIG d   1       9.343   7.334  -4.418  0.00  0.00     0.066 H 
ATOM     16  H   LIG d   1       8.818   5.443  -5.901  0.00  0.00     0.064 H 
BRANCH  11  17
ATOM     17  O   LIG d   1      10.380   7.136  -2.022  0.00  0.00    -0.495 OA
BRANCH  17  18
ATOM     18  C   LIG d   1       9.305   7.685  -1.256  0.00  0.00     0.079 C 
ATOM     19  H   LIG d   1       8.371   7.573  -1.808  0.00  0.00     0.066 H 
ATOM     20  H   LIG d   1       9.230   7.157  -0.306  0.00  0.00     0.066 H 
ATOM     21  H   LIG d   1       9.493   8.742  -1.071  0.00  0.00     0.066 H 
ENDBRANCH  17  18
ENDBRANCH  11  17
ENDBRANCH   4   7
ENDBRANCH   1   3
BRANCH   1  22
ATOM     22  C   LIG d   1       8.908  -0.255  -5.485  0.00  0.00     0.459 C 
ATOM     23  F   LIG d   1       9.935   0.312  -4.724  0.00  0.00    -0.165 F 
ATOM     24  F   LIG d   1       8.259  -1.240  -4.731  0.00  0.00    -0.165 F 
ATOM     25  F   LIG d   1       9.448  -0.832  -6.640  0.00  0.00    -0.165 F 
ENDBRANCH   1  22
BRANCH   1  26
ATOM     26  O   LIG d   1       6.576   0.358  -5.646  0.00  0.00    -0.263 OA
BRANCH  26  27
ATOM     27  C   LIG d   1       5.889  -0.048  -6.831  0.00  0.00     0.428 C 
ATOM     28  F   LIG d   1       5.942   0.982  -7.777  0.00  0.00    -0.169 F 
ATOM     29  F   LIG d   1       6.499  -1.193  -7.355  0.00  0.00    -0.169 F 
BRANCH  27  30
ATOM     30  C   LIG d   1       4.429  -0.357  -6.494  0.00  0.00     0.401 C 
ATOM     31  F   LIG d   1       4.286  -1.729  -6.255  0.00  0.00    -0.191 F 
BRANCH  30  32
ATOM     32  C   LIG d   1       3.537   0.051  -7.669  0.00  0.00     0.458 C 
ATOM     33  F   LIG d   1       4.045  -0.495  -8.852  0.00  0.00    -0.165 F 
ATOM     34  F   LIG d   1       2.239  -0.424  -7.455  0.00  0.00    -0.165 F 
ATOM     35  F   LIG d   1       3.513   1.446  -7.771  0.00  0.00    -0.165 F 
ENDBRANCH  30  32
BRANCH  30  36
ATOM     36  O   LIG d   1       4.045   0.372  -5.327  0.00  0.00    -0.264 OA
BRANCH  36  37
ATOM     37  C   LIG d   1       3.671  -0.453  -4.222  0.00  0.00     0.432 C 
ATOM     38  F   LIG d   1       2.453  -1.082  -4.500  0.00  0.00    -0.168 F 
ATOM     39  F   LIG d   1       4.658  -1.421  -4.010  0.00  0.00    -0.168 F 
BRANCH  37  40
ATOM     40  C   LIG d   1       3.525   0.411  -2.967  0.00  0.00     0.429 C 
ATOM     41  F   LIG d   1       3.578   1.763  -3.323  0.00  0.00    -0.186 F 
ATOM     42  F   LIG d   1       2.298   0.137  -2.353  0.00  0.00    -0.186 F 
BRANCH  40  43
ATOM     43  C   LIG d   1       4.664   0.094  -1.996  0.00  0.00     0.463 C 
ATOM     44  F   LIG d   1       5.876   0.058  -2.692  0.00  0.00    -0.165 F 
ATOM     45  F   LIG d   1       4.722   1.083  -1.009  0.00  0.00    -0.165 F 
ATOM     46  F   LIG d   1       4.433  -1.149  -1.396  0.00  0.00    -0.165 F 
ENDBRANCH  40  43
ENDBRANCH  37  40
ENDBRANCH  36  37
ENDBRANCH  30  36
ENDBRANCH  27  30
ENDBRANCH  26  27
ENDBRANCH   1  26
TORSDOF 13
ENDMDL
MODEL 4
REMARK VINA RESULT:      -7.4      2.946      6.943
REMARK  13 active torsions:
REMARK  status: ('A' for Active; 'I' for Inactive)
REMARK    1  A    between atoms: C_1  and  O_2 
REMARK    2  A    between atoms: O_2  and  C_3 
REMARK    3  A    between atoms: C_6  and  N_9 
REMARK       I    between atoms: N_9  and  C_10 
REMARK    4  A    between atoms: C_10  and  C_12 
REMARK    5  A    between atoms: C_12  and  C_13 
REMARK    6  A    between atoms: C_12  and  O_17 
REMARK    7  A    between atoms: O_17  and  C_18 
REMARK    8  A    between atoms: C_18  and  C_19 
REMARK    9  A    between atoms: C_19  and  C_20 
REMARK   10  A    between atoms: C_19  and  O_24 
REMARK   11  A    between atoms: O_24  and  C_25 
REMARK   12  A    between atoms: C_25  and  C_26 
REMARK   13  A    between atoms: C_26  and  C_27 
ROOT
ATOM      1  C   LIG d   1       4.903   1.013  -9.021  0.00  0.00     0.387 C 
ATOM      2  F   LIG d   1       6.155   1.198  -9.618  0.00  0.00    -0.190 F 
ENDROOT
BRANCH   1   3
ATOM      3  C   LIG d   1       4.253  -0.221  -9.591  0.00  0.00     0.292 C 
ATOM      4  N   LIG d   1       3.246  -0.820  -8.927  0.00  0.00    -0.281 N 
ATOM      5  H   LIG d   1       2.881  -0.411  -8.127  0.00  0.00     0.155 HD
ATOM      6  O   LIG d   1       4.637  -0.675 -10.649  0.00  0.00    -0.269 OA
BRANCH   4   7
ATOM      7  C   LIG d   1       2.724  -2.034  -9.393  0.00  0.00     0.034 A 
ATOM      8  C   LIG d   1       3.365  -3.228  -9.090  0.00  0.00    -0.037 A 
ATOM      9  C   LIG d   1       2.849  -4.424  -9.548  0.00  0.00    -0.018 A 
ATOM     10  H   LIG d   1       4.267  -3.221  -8.494  0.00  0.00     0.064 H 
ATOM     11  C   LIG d   1       1.691  -4.434 -10.310  0.00  0.00     0.120 A 
ATOM     12  H   LIG d   1       3.347  -5.353  -9.311  0.00  0.00     0.066 H 
ATOM     13  C   LIG d   1       1.053  -3.241 -10.619  0.00  0.00    -0.018 A 
ATOM     14  C   LIG d   1       1.564  -2.044 -10.157  0.00  0.00    -0.037 A 
ATOM     15  H   LIG d   1       0.153  -3.249 -11.217  0.00  0.00     0.066 H 
ATOM     16  H   LIG d   1       1.064  -1.117 -10.392  0.00  0.00     0.064 H 
BRANCH  11  17
ATOM     17  O   LIG d   1       1.183  -5.611 -10.762  0.00  0.00    -0.495 OA
BRANCH  17  18
ATOM     18  C   LIG d   1       1.968  -6.785 -10.535  0.00  0.00     0.079 C 
ATOM     19  H   LIG d   1       2.499  -6.689  -9.588  0.00  0.00     0.066 H 
ATOM     20  H   LIG d   1       1.315  -7.657 -10.498  0.00  0.00     0.066 H 
ATOM     21  H   LIG d   1       2.688  -6.903 -11.344  0.00  0.00     0.066 H 
ENDBRANCH  17  18
ENDBRANCH  11  17
ENDBRANCH   4   7
ENDBRANCH   1   3
BRANCH   1  22
ATOM     22  C   LIG d   1       4.020   2.231  -9.302  0.00  0.00     0.459 C 
ATOM     23  F   LIG d   1       2.957   2.255  -8.392  0.00  0.00    -0.165 F 
ATOM     24  F   LIG d   1       4.779   3.399  -9.164  0.00  0.00    -0.165 F 
ATOM     25  F   LIG d   1       3.516   2.152 -10.605  0.00  0.00    -0.165 F 
ENDBRANCH   1  22
BRANCH   1  26
ATOM     26  O   LIG d   1       5.066   0.857  -7.610  0.00  0.00    -0.263 OA
BRANCH  26  27
ATOM     27  C   LIG d   1       6.352   0.369  -7.224  0.00  0.00     0.428 C 
ATOM     28  F   LIG d   1       6.870  -0.436  -8.244  0.00  0.00    -0.169 F 
ATOM     29  F   LIG d   1       7.214   1.448  -6.999  0.00  0.00    -0.169 F 
BRANCH  27  30
ATOM     30  C   LIG d   1       6.221  -0.455  -5.941  0.00  0.00     0.401 C 
ATOM     31  F   LIG d   1       7.468  -0.540  -5.312  0.00  0.00    -0.191 F 
BRANCH  30  32
ATOM     32  C   LIG d   1       5.726  -1.861  -6.287  0.00  0.00     0.458 C 
ATOM     33  F   LIG d   1       4.330  -1.894  -6.219  0.00  0.00    -0.165 F 
ATOM     34  F   LIG d   1       6.138  -2.194  -7.581  0.00  0.00    -0.165 F 
ATOM     35  F   LIG d   1       6.260  -2.779  -5.376  0.00  0.00    -0.165 F 
ENDBRANCH  30  32
BRANCH  30  36
ATOM     36  O   LIG d   1       5.286   0.177  -5.063  0.00  0.00    -0.264 OA
BRANCH  36  37
ATOM     37  C   LIG d   1       5.750   0.306  -3.718  0.00  0.00     0.432 C 
ATOM     38  F   LIG d   1       6.388  -0.876  -3.328  0.00  0.00    -0.168 F 
ATOM     39  F   LIG d   1       6.652   1.372  -3.636  0.00  0.00    -0.168 F 
BRANCH  37  40
ATOM     40  C   LIG d   1       4.560   0.573  -2.792  0.00  0.00     0.429 C 
ATOM     41  F   LIG d   1       5.012   1.173  -1.613  0.00  0.00    -0.186 F 
ATOM     42  F   LIG d   1       3.654   1.426  -3.432  0.00  0.00    -0.186 F 
BRANCH  40  43
ATOM     43  C   LIG d   1       3.867  -0.750  -2.459  0.00  0.00     0.463 C 
ATOM     44  F   LIG d   1       4.138  -1.685  -3.462  0.00  0.00    -0.165 F 
ATOM     45  F   LIG d   1       4.345  -1.229  -1.234  0.00  0.00    -0.165 F 
ATOM     46  F   LIG d   1       2.486  -0.544  -2.373  0.00  0.00    -0.165 F 
ENDBRANCH  40  43
ENDBRANCH  37  40
ENDBRANCH  36  37
ENDBRANCH  30  36
ENDBRANCH  27  30
ENDBRANCH  26  27
ENDBRANCH   1  26
TORSDOF 13
ENDMDL
MODEL 5
REMARK VINA RESULT:      -7.3      3.144      7.376
REMARK  13 active torsions:
REMARK  status: ('A' for Active; 'I' for Inactive)
REMARK    1  A    between atoms: C_1  and  O_2 
REMARK    2  A    between atoms: O_2  and  C_3 
REMARK    3  A    between atoms: C_6  and  N_9 
REMARK       I    between atoms: N_9  and  C_10 
REMARK    4  A    between atoms: C_10  and  C_12 
REMARK    5  A    between atoms: C_12  and  C_13 
REMARK    6  A    between atoms: C_12  and  O_17 
REMARK    7  A    between atoms: O_17  and  C_18 
REMARK    8  A    between atoms: C_18  and  C_19 
REMARK    9  A    between atoms: C_19  and  C_20 
REMARK   10  A    between atoms: C_19  and  O_24 
REMARK   11  A    between atoms: O_24  and  C_25 
REMARK   12  A    between atoms: C_25  and  C_26 
REMARK   13  A    between atoms: C_26  and  C_27 
ROOT
ATOM      1  C   LIG d   1       4.232   0.865  -8.760  0.00  0.00     0.387 C 
ATOM      2  F   LIG d   1       5.357   0.761  -9.584  0.00  0.00    -0.190 F 
ENDROOT
BRANCH   1   3
ATOM      3  C   LIG d   1       3.224  -0.186  -9.150  0.00  0.00     0.292 C 
ATOM      4  N   LIG d   1       3.392  -0.893 -10.284  0.00  0.00    -0.281 N 
ATOM      5  H   LIG d   1       4.204  -0.788 -10.805  0.00  0.00     0.155 HD
ATOM      6  O   LIG d   1       2.261  -0.394  -8.442  0.00  0.00    -0.269 OA
BRANCH   4   7
ATOM      7  C   LIG d   1       2.396  -1.781 -10.710  0.00  0.00     0.034 A 
ATOM      8  C   LIG d   1       2.323  -3.056 -10.165  0.00  0.00    -0.037 A 
ATOM      9  C   LIG d   1       1.340  -3.930 -10.584  0.00  0.00    -0.018 A 
ATOM     10  H   LIG d   1       3.034  -3.363  -9.411  0.00  0.00     0.064 H 
ATOM     11  C   LIG d   1       0.426  -3.535 -11.550  0.00  0.00     0.120 A 
ATOM     12  H   LIG d   1       1.282  -4.921 -10.159  0.00  0.00     0.066 H 
ATOM     13  C   LIG d   1       0.503  -2.264 -12.100  0.00  0.00    -0.018 A 
ATOM     14  C   LIG d   1       1.481  -1.386 -11.678  0.00  0.00    -0.037 A 
ATOM     15  H   LIG d   1      -0.206  -1.959 -12.856  0.00  0.00     0.066 H 
ATOM     16  H   LIG d   1       1.537  -0.395 -12.102  0.00  0.00     0.064 H 
BRANCH  11  17
ATOM     17  O   LIG d   1      -0.541  -4.397 -11.964  0.00  0.00    -0.495 OA
BRANCH  17  18
ATOM     18  C   LIG d   1      -1.496  -4.817 -10.987  0.00  0.00     0.079 C 
ATOM     19  H   LIG d   1      -2.338  -5.299 -11.485  0.00  0.00     0.066 H 
ATOM     20  H   LIG d   1      -1.029  -5.523 -10.301  0.00  0.00     0.066 H 
ATOM     21  H   LIG d   1      -1.852  -3.951 -10.430  0.00  0.00     0.066 H 
ENDBRANCH  17  18
ENDBRANCH  11  17
ENDBRANCH   4   7
ENDBRANCH   1   3
BRANCH   1  22
ATOM     22  C   LIG d   1       3.608   2.253  -8.921  0.00  0.00     0.459 C 
ATOM     23  F   LIG d   1       4.623   3.213  -9.001  0.00  0.00    -0.165 F 
ATOM     24  F   LIG d   1       2.842   2.287 -10.092  0.00  0.00    -0.165 F 
ATOM     25  F   LIG d   1       2.791   2.529  -7.820  0.00  0.00    -0.165 F 
ENDBRANCH   1  22
BRANCH   1  26
ATOM     26  O   LIG d   1       4.619   0.672  -7.398  0.00  0.00    -0.263 OA
BRANCH  26  27
ATOM     27  C   LIG d   1       5.791  -0.130  -7.235  0.00  0.00     0.428 C 
ATOM     28  F   LIG d   1       5.827  -1.110  -8.233  0.00  0.00    -0.169 F 
ATOM     29  F   LIG d   1       6.928   0.679  -7.335  0.00  0.00    -0.169 F 
BRANCH  27  30
ATOM     30  C   LIG d   1       5.762  -0.801  -5.861  0.00  0.00     0.401 C 
ATOM     31  F   LIG d   1       6.553  -0.070  -4.967  0.00  0.00    -0.191 F 
BRANCH  30  32
ATOM     32  C   LIG d   1       6.309  -2.226  -5.978  0.00  0.00     0.458 C 
ATOM     33  F   LIG d   1       6.784  -2.647  -4.732  0.00  0.00    -0.165 F 
ATOM     34  F   LIG d   1       5.288  -3.083  -6.402  0.00  0.00    -0.165 F 
ATOM     35  F   LIG d   1       7.354  -2.248  -6.908  0.00  0.00    -0.165 F 
ENDBRANCH  30  32
BRANCH  30  36
ATOM     36  O   LIG d   1       4.417  -0.845  -5.380  0.00  0.00    -0.264 OA
BRANCH  36  37
ATOM     37  C   LIG d   1       4.311  -1.017  -3.965  0.00  0.00     0.432 C 
ATOM     38  F   LIG d   1       3.901  -2.324  -3.682  0.00  0.00    -0.168 F 
ATOM     39  F   LIG d   1       5.556  -0.780  -3.373  0.00  0.00    -0.168 F 
BRANCH  37  40
ATOM     40  C   LIG d   1       3.285  -0.027  -3.407  0.00  0.00     0.429 C 
ATOM     41  F   LIG d   1       2.746   0.726  -4.456  0.00  0.00    -0.186 F 
ATOM     42  F   LIG d   1       2.261  -0.731  -2.763  0.00  0.00    -0.186 F 
BRANCH  40  43
ATOM     43  C   LIG d   1       3.969   0.907  -2.408  0.00  0.00     0.463 C 
ATOM     44  F   LIG d   1       4.436   0.165  -1.318  0.00  0.00    -0.165 F 
ATOM     45  F   LIG d   1       5.045   1.548  -3.031  0.00  0.00    -0.165 F 
ATOM     46  F   LIG d   1       3.052   1.864  -1.961  0.00  0.00    -0.165 F 
ENDBRANCH  40  43
ENDBRANCH  37  40
ENDBRANCH  36  37
ENDBRANCH  30  36
ENDBRANCH  27  30
ENDBRANCH  26  27
ENDBRANCH   1  26
TORSDOF 13
ENDMDL
MODEL 6
REMARK VINA RESULT:      -7.1      2.743      4.151
REMARK  13 active torsions:
REMARK  status: ('A' for Active; 'I' for Inactive)
REMARK    1  A    between atoms: C_1  and  O_2 
REMARK    2  A    between atoms: O_2  and  C_3 
REMARK    3  A    between atoms: C_6  and  N_9 
REMARK       I    between atoms: N_9  and  C_10 
REMARK    4  A    between atoms: C_10  and  C_12 
REMARK    5  A    between atoms: C_12  and  C_13 
REMARK    6  A    between atoms: C_12  and  O_17 
REMARK    7  A    between atoms: O_17  and  C_18 
REMARK    8  A    between atoms: C_18  and  C_19 
REMARK    9  A    between atoms: C_19  and  C_20 
REMARK   10  A    between atoms: C_19  and  O_24 
REMARK   11  A    between atoms: O_24  and  C_25 
REMARK   12  A    between atoms: C_25  and  C_26 
REMARK   13  A    between atoms: C_26  and  C_27 
ROOT
ATOM      1  C   LIG d   1       4.791  -2.058  -3.948  0.00  0.00     0.387 C 
ATOM      2  F   LIG d   1       5.164  -3.392  -3.753  0.00  0.00    -0.190 F 
ENDROOT
BRANCH   1   3
ATOM      3  C   LIG d   1       6.020  -1.186  -3.939  0.00  0.00     0.292 C 
ATOM      4  N   LIG d   1       6.023  -0.016  -4.606  0.00  0.00    -0.281 N 
ATOM      5  H   LIG d   1       5.208   0.307  -5.021  0.00  0.00     0.155 HD
ATOM      6  O   LIG d   1       7.009  -1.539  -3.329  0.00  0.00    -0.269 OA
BRANCH   4   7
ATOM      7  C   LIG d   1       7.202   0.735  -4.700  0.00  0.00     0.034 A 
ATOM      8  C   LIG d   1       8.015   0.615  -5.819  0.00  0.00    -0.037 A 
ATOM      9  C   LIG d   1       9.176   1.356  -5.912  0.00  0.00    -0.018 A 
ATOM     10  H   LIG d   1       7.738  -0.058  -6.618  0.00  0.00     0.064 H 
ATOM     11  C   LIG d   1       9.530   2.221  -4.887  0.00  0.00     0.120 A 
ATOM     12  H   LIG d   1       9.808   1.264  -6.783  0.00  0.00     0.066 H 
ATOM     13  C   LIG d   1       8.722   2.337  -3.765  0.00  0.00    -0.018 A 
ATOM     14  C   LIG d   1       7.557   1.601  -3.674  0.00  0.00    -0.037 A 
ATOM     15  H   LIG d   1       9.001   3.007  -2.965  0.00  0.00     0.066 H 
ATOM     16  H   LIG d   1       6.925   1.696  -2.804  0.00  0.00     0.064 H 
BRANCH  11  17
ATOM     17  O   LIG d   1      10.674   2.951  -4.978  0.00  0.00    -0.495 OA
BRANCH  17  18
ATOM     18  C   LIG d   1      10.896   3.659  -6.199  0.00  0.00     0.079 C 
ATOM     19  H   LIG d   1      10.948   2.950  -7.026  0.00  0.00     0.066 H 
ATOM     20  H   LIG d   1      10.076   4.356  -6.370  0.00  0.00     0.066 H 
ATOM     21  H   LIG d   1      11.834   4.210  -6.135  0.00  0.00     0.066 H 
ENDBRANCH  17  18
ENDBRANCH  11  17
ENDBRANCH   4   7
ENDBRANCH   1   3
BRANCH   1  22
ATOM     22  C   LIG d   1       3.849  -1.623  -2.824  0.00  0.00     0.459 C 
ATOM     23  F   LIG d   1       3.503  -2.735  -2.049  0.00  0.00    -0.165 F 
ATOM     24  F   LIG d   1       4.492  -0.675  -2.018  0.00  0.00    -0.165 F 
ATOM     25  F   LIG d   1       2.693  -1.060  -3.374  0.00  0.00    -0.165 F 
ENDBRANCH   1  22
BRANCH   1  26
ATOM     26  O   LIG d   1       4.125  -1.928  -5.206  0.00  0.00    -0.263 OA
BRANCH  26  27
ATOM     27  C   LIG d   1       4.682  -2.735  -6.245  0.00  0.00     0.428 C 
ATOM     28  F   LIG d   1       6.039  -2.957  -5.985  0.00  0.00    -0.169 F 
ATOM     29  F   LIG d   1       4.010  -3.961  -6.296  0.00  0.00    -0.169 F 
BRANCH  27  30
ATOM     30  C   LIG d   1       4.531  -2.014  -7.586  0.00  0.00     0.401 C 
ATOM     31  F   LIG d   1       3.244  -2.232  -8.091  0.00  0.00    -0.191 F 
BRANCH  30  32
ATOM     32  C   LIG d   1       5.565  -2.556  -8.575  0.00  0.00     0.458 C 
ATOM     33  F   LIG d   1       6.745  -1.813  -8.470  0.00  0.00    -0.165 F 
ATOM     34  F   LIG d   1       5.831  -3.898  -8.282  0.00  0.00    -0.165 F 
ATOM     35  F   LIG d   1       5.063  -2.454  -9.877  0.00  0.00    -0.165 F 
ENDBRANCH  30  32
BRANCH  30  36
ATOM     36  O   LIG d   1       4.738  -0.612  -7.400  0.00  0.00    -0.264 OA
BRANCH  36  37
ATOM     37  C   LIG d   1       3.802   0.211  -8.099  0.00  0.00     0.432 C 
ATOM     38  F   LIG d   1       2.902  -0.597  -8.801  0.00  0.00    -0.168 F 
ATOM     39  F   LIG d   1       3.102   1.001  -7.182  0.00  0.00    -0.168 F 
BRANCH  37  40
ATOM     40  C   LIG d   1       4.551   1.113  -9.082  0.00  0.00     0.429 C 
ATOM     41  F   LIG d   1       5.676   1.657  -8.452  0.00  0.00    -0.186 F 
ATOM     42  F   LIG d   1       4.955   0.361 -10.190  0.00  0.00    -0.186 F 
BRANCH  40  43
ATOM     43  C   LIG d   1       3.628   2.244  -9.541  0.00  0.00     0.463 C 
ATOM     44  F   LIG d   1       4.088   3.460  -9.029  0.00  0.00    -0.165 F 
ATOM     45  F   LIG d   1       3.620   2.299 -10.939  0.00  0.00    -0.165 F 
ATOM     46  F   LIG d   1       2.330   2.003  -9.077  0.00  0.00    -0.165 F 
ENDBRANCH  40  43
ENDBRANCH  37  40
ENDBRANCH  36  37
ENDBRANCH  30  36
ENDBRANCH  27  30
ENDBRANCH  26  27
ENDBRANCH   1  26
TORSDOF 13
ENDMDL
MODEL 7
REMARK VINA RESULT:      -7.0      3.049      6.286
REMARK  13 active torsions:
REMARK  status: ('A' for Active; 'I' for Inactive)
REMARK    1  A    between atoms: C_1  and  O_2 
REMARK    2  A    between atoms: O_2  and  C_3 
REMARK    3  A    between atoms: C_6  and  N_9 
REMARK       I    between atoms: N_9  and  C_10 
REMARK    4  A    between atoms: C_10  and  C_12 
REMARK    5  A    between atoms: C_12  and  C_13 
REMARK    6  A    between atoms: C_12  and  O_17 
REMARK    7  A    between atoms: O_17  and  C_18 
REMARK    8  A    between atoms: C_18  and  C_19 
REMARK    9  A    between atoms: C_19  and  C_20 
REMARK   10  A    between atoms: C_19  and  O_24 
REMARK   11  A    between atoms: O_24  and  C_25 
REMARK   12  A    between atoms: C_25  and  C_26 
REMARK   13  A    between atoms: C_26  and  C_27 
ROOT
ATOM      1  C   LIG d   1       3.390   0.203  -7.418  0.00  0.00     0.387 C 
ATOM      2  F   LIG d   1       2.528   1.304  -7.387  0.00  0.00    -0.190 F 
ENDROOT
BRANCH   1   3
ATOM      3  C   LIG d   1       4.801   0.677  -7.654  0.00  0.00     0.292 C 
ATOM      4  N   LIG d   1       5.836   0.019  -7.097  0.00  0.00    -0.281 N 
ATOM      5  H   LIG d   1       5.681  -0.809  -6.616  0.00  0.00     0.155 HD
ATOM      6  O   LIG d   1       5.004   1.653  -8.346  0.00  0.00    -0.269 OA
BRANCH   4   7
ATOM      7  C   LIG d   1       7.135   0.529  -7.214  0.00  0.00     0.034 A 
ATOM      8  C   LIG d   1       7.931   0.162  -8.291  0.00  0.00    -0.037 A 
ATOM      9  C   LIG d   1       9.212   0.666  -8.406  0.00  0.00    -0.018 A 
ATOM     10  H   LIG d   1       7.548  -0.517  -9.039  0.00  0.00     0.064 H 
ATOM     11  C   LIG d   1       9.703   1.539  -7.447  0.00  0.00     0.120 A 
ATOM     12  H   LIG d   1       9.831   0.381  -9.244  0.00  0.00     0.066 H 
ATOM     13  C   LIG d   1       8.910   1.901  -6.367  0.00  0.00    -0.018 A 
ATOM     14  C   LIG d   1       7.628   1.402  -6.253  0.00  0.00    -0.037 A 
ATOM     15  H   LIG d   1       9.295   2.577  -5.617  0.00  0.00     0.066 H 
ATOM     16  H   LIG d   1       7.009   1.689  -5.416  0.00  0.00     0.064 H 
BRANCH  11  17
ATOM     17  O   LIG d   1      10.964   2.034  -7.560  0.00  0.00    -0.495 OA
BRANCH  17  18
ATOM     18  C   LIG d   1      11.340   3.065  -6.644  0.00  0.00     0.079 C 
ATOM     19  H   LIG d   1      12.428   3.119  -6.584  0.00  0.00     0.066 H 
ATOM     20  H   LIG d   1      10.949   4.021  -6.992  0.00  0.00     0.066 H 
ATOM     21  H   LIG d   1      10.933   2.842  -5.658  0.00  0.00     0.066 H 
ENDBRANCH  17  18
ENDBRANCH  11  17
ENDBRANCH   4   7
ENDBRANCH   1   3
BRANCH   1  22
ATOM     22  C   LIG d   1       2.973  -0.739  -8.550  0.00  0.00     0.459 C 
ATOM     23  F   LIG d   1       1.626  -0.527  -8.860  0.00  0.00    -0.165 F 
ATOM     24  F   LIG d   1       3.757  -0.484  -9.681  0.00  0.00    -0.165 F 
ATOM     25  F   LIG d   1       3.156  -2.065  -8.145  0.00  0.00    -0.165 F 
ENDBRANCH   1  22
BRANCH   1  26
ATOM     26  O   LIG d   1       3.323  -0.490  -6.171  0.00  0.00    -0.263 OA
BRANCH  26  27
ATOM     27  C   LIG d   1       2.844   0.308  -5.087  0.00  0.00     0.428 C 
ATOM     28  F   LIG d   1       2.964   1.662  -5.417  0.00  0.00    -0.169 F 
ATOM     29  F   LIG d   1       1.500   0.005  -4.842  0.00  0.00    -0.169 F 
BRANCH  27  30
ATOM     30  C   LIG d   1       3.669   0.013  -3.833  0.00  0.00     0.401 C 
ATOM     31  F   LIG d   1       2.996  -0.923  -3.040  0.00  0.00    -0.191 F 
BRANCH  30  32
ATOM     32  C   LIG d   1       3.868   1.305  -3.038  0.00  0.00     0.458 C 
ATOM     33  F   LIG d   1       5.167   1.782  -3.240  0.00  0.00    -0.165 F 
ATOM     34  F   LIG d   1       2.947   2.265  -3.472  0.00  0.00    -0.165 F 
ATOM     35  F   LIG d   1       3.669   1.050  -1.677  0.00  0.00    -0.165 F 
ENDBRANCH  30  32
BRANCH  30  36
ATOM     36  O   LIG d   1       4.942  -0.513  -4.213  0.00  0.00    -0.264 OA
BRANCH  36  37
ATOM     37  C   LIG d   1       5.378  -1.615  -3.414  0.00  0.00     0.432 C 
ATOM     38  F   LIG d   1       5.268  -1.282  -2.060  0.00  0.00    -0.168 F 
ATOM     39  F   LIG d   1       4.580  -2.731  -3.686  0.00  0.00    -0.168 F 
BRANCH  37  40
ATOM     40  C   LIG d   1       6.837  -1.938  -3.744  0.00  0.00     0.429 C 
ATOM     41  F   LIG d   1       7.537  -0.749  -3.976  0.00  0.00    -0.186 F 
ATOM     42  F   LIG d   1       7.418  -2.620  -2.669  0.00  0.00    -0.186 F 
BRANCH  40  43
ATOM     43  C   LIG d   1       6.894  -2.816  -4.996  0.00  0.00     0.463 C 
ATOM     44  F   LIG d   1       5.721  -2.648  -5.738  0.00  0.00    -0.165 F 
ATOM     45  F   LIG d   1       7.996  -2.445  -5.774  0.00  0.00    -0.165 F 
ATOM     46  F   LIG d   1       7.020  -4.157  -4.619  0.00  0.00    -0.165 F 
ENDBRANCH  40  43
ENDBRANCH  37  40
ENDBRANCH  36  37
ENDBRANCH  30  36
ENDBRANCH  27  30
ENDBRANCH  26  27
ENDBRANCH   1  26
TORSDOF 13
ENDMDL
MODEL 8
REMARK VINA RESULT:      -7.0      2.565      5.869
REMARK  13 active torsions:
REMARK  status: ('A' for Active; 'I' for Inactive)
REMARK    1  A    between atoms: C_1  and  O_2 
REMARK    2  A    between atoms: O_2  and  C_3 
REMARK    3  A    between atoms: C_6  and  N_9 
REMARK       I    between atoms: N_9  and  C_10 
REMARK    4  A    between atoms: C_10  and  C_12 
REMARK    5  A    between atoms: C_12  and  C_13 
REMARK    6  A    between atoms: C_12  and  O_17 
REMARK    7  A    between atoms: O_17  and  C_18 
REMARK    8  A    between atoms: C_18  and  C_19 
REMARK    9  A    between atoms: C_19  and  C_20 
REMARK   10  A    between atoms: C_19  and  O_24 
REMARK   11  A    between atoms: O_24  and  C_25 
REMARK   12  A    between atoms: C_25  and  C_26 
REMARK   13  A    between atoms: C_26  and  C_27 
ROOT
ATOM      1  C   LIG d   1       4.305  -0.375  -7.999  0.00  0.00     0.387 C 
ATOM      2  F   LIG d   1       4.839   0.073  -9.212  0.00  0.00    -0.190 F 
ENDROOT
BRANCH   1   3
ATOM      3  C   LIG d   1       4.477  -1.868  -7.896  0.00  0.00     0.292 C 
ATOM      4  N   LIG d   1       4.330  -2.483  -6.706  0.00  0.00    -0.281 N 
ATOM      5  H   LIG d   1       4.029  -1.979  -5.934  0.00  0.00     0.155 HD
ATOM      6  O   LIG d   1       4.748  -2.517  -8.885  0.00  0.00    -0.269 OA
BRANCH   4   7
ATOM      7  C   LIG d   1       4.609  -3.851  -6.585  0.00  0.00     0.034 A 
ATOM      8  C   LIG d   1       3.800  -4.784  -7.221  0.00  0.00    -0.037 A 
ATOM      9  C   LIG d   1       4.077  -6.132  -7.102  0.00  0.00    -0.018 A 
ATOM     10  H   LIG d   1       2.956  -4.455  -7.810  0.00  0.00     0.064 H 
ATOM     11  C   LIG d   1       5.162  -6.553  -6.348  0.00  0.00     0.120 A 
ATOM     12  H   LIG d   1       3.449  -6.857  -7.598  0.00  0.00     0.066 H 
ATOM     13  C   LIG d   1       5.966  -5.622  -5.708  0.00  0.00    -0.018 A 
ATOM     14  C   LIG d   1       5.695  -4.274  -5.830  0.00  0.00    -0.037 A 
ATOM     15  H   LIG d   1       6.809  -5.952  -5.116  0.00  0.00     0.066 H 
ATOM     16  H   LIG d   1       6.325  -3.549  -5.336  0.00  0.00     0.064 H 
BRANCH  11  17
ATOM     17  O   LIG d   1       5.434  -7.880  -6.231  0.00  0.00    -0.495 OA
BRANCH  17  18
ATOM     18  C   LIG d   1       4.920  -8.548  -5.076  0.00  0.00     0.079 C 
ATOM     19  H   LIG d   1       5.350  -9.548  -5.013  0.00  0.00     0.066 H 
ATOM     20  H   LIG d   1       5.184  -7.983  -4.182  0.00  0.00     0.066 H 
ATOM     21  H   LIG d   1       3.836  -8.623  -5.152  0.00  0.00     0.066 H 
ENDBRANCH  17  18
ENDBRANCH  11  17
ENDBRANCH   4   7
ENDBRANCH   1   3
BRANCH   1  22
ATOM     22  C   LIG d   1       2.816  -0.027  -7.938  0.00  0.00     0.459 C 
ATOM     23  F   LIG d   1       2.600   1.206  -8.562  0.00  0.00    -0.165 F 
ATOM     24  F   LIG d   1       2.079  -1.019  -8.596  0.00  0.00    -0.165 F 
ATOM     25  F   LIG d   1       2.409   0.049  -6.602  0.00  0.00    -0.165 F 
ENDBRANCH   1  22
BRANCH   1  26
ATOM     26  O   LIG d   1       4.988   0.260  -6.916  0.00  0.00    -0.263 OA
BRANCH  26  27
ATOM     27  C   LIG d   1       6.411   0.252  -7.041  0.00  0.00     0.428 C 
ATOM     28  F   LIG d   1       6.793  -0.742  -7.949  0.00  0.00    -0.169 F 
ATOM     29  F   LIG d   1       6.847   1.498  -7.503  0.00  0.00    -0.169 F 
BRANCH  27  30
ATOM     30  C   LIG d   1       7.041  -0.035  -5.676  0.00  0.00     0.401 C 
ATOM     31  F   LIG d   1       7.229   1.169  -4.987  0.00  0.00    -0.191 F 
BRANCH  30  32
ATOM     32  C   LIG d   1       8.393  -0.726  -5.874  0.00  0.00     0.458 C 
ATOM     33  F   LIG d   1       9.003  -0.234  -7.033  0.00  0.00    -0.165 F 
ATOM     34  F   LIG d   1       9.213  -0.468  -4.770  0.00  0.00    -0.165 F 
ATOM     35  F   LIG d   1       8.197  -2.105  -5.998  0.00  0.00    -0.165 F 
ENDBRANCH  30  32
BRANCH  30  36
ATOM     36  O   LIG d   1       6.177  -0.886  -4.921  0.00  0.00    -0.264 OA
BRANCH  36  37
ATOM     37  C   LIG d   1       6.216  -0.652  -3.512  0.00  0.00     0.432 C 
ATOM     38  F   LIG d   1       6.596  -1.826  -2.854  0.00  0.00    -0.168 F 
ATOM     39  F   LIG d   1       7.142   0.359  -3.234  0.00  0.00    -0.168 F 
BRANCH  37  40
ATOM     40  C   LIG d   1       4.830  -0.220  -3.028  0.00  0.00     0.429 C 
ATOM     41  F   LIG d   1       4.966   0.673  -1.960  0.00  0.00    -0.186 F 
ATOM     42  F   LIG d   1       4.144   0.405  -4.075  0.00  0.00    -0.186 F 
BRANCH  40  43
ATOM     43  C   LIG d   1       4.046  -1.451  -2.568  0.00  0.00     0.463 C 
ATOM     44  F   LIG d   1       4.297  -2.517  -3.436  0.00  0.00    -0.165 F 
ATOM     45  F   LIG d   1       4.445  -1.799  -1.273  0.00  0.00    -0.165 F 
ATOM     46  F   LIG d   1       2.677  -1.159  -2.571  0.00  0.00    -0.165 F 
ENDBRANCH  40  43
ENDBRANCH  37  40
ENDBRANCH  36  37
ENDBRANCH  30  36
ENDBRANCH  27  30
ENDBRANCH  26  27
ENDBRANCH   1  26
TORSDOF 13
ENDMDL
MODEL 9
REMARK VINA RESULT:      -7.0      1.322      2.895
REMARK  13 active torsions:
REMARK  status: ('A' for Active; 'I' for Inactive)
REMARK    1  A    between atoms: C_1  and  O_2 
REMARK    2  A    between atoms: O_2  and  C_3 
REMARK    3  A    between atoms: C_6  and  N_9 
REMARK       I    between atoms: N_9  and  C_10 
REMARK    4  A    between atoms: C_10  and  C_12 
REMARK    5  A    between atoms: C_12  and  C_13 
REMARK    6  A    between atoms: C_12  and  O_17 
REMARK    7  A    between atoms: O_17  and  C_18 
REMARK    8  A    between atoms: C_18  and  C_19 
REMARK    9  A    between atoms: C_19  and  C_20 
REMARK   10  A    between atoms: C_19  and  O_24 
REMARK   11  A    between atoms: O_24  and  C_25 
REMARK   12  A    between atoms: C_25  and  C_26 
REMARK   13  A    between atoms: C_26  and  C_27 
ROOT
ATOM      1  C   LIG d   1       3.713  -0.152  -4.383  0.00  0.00     0.387 C 
ATOM      2  F   LIG d   1       2.395  -0.620  -4.418  0.00  0.00    -0.190 F 
ENDROOT
BRANCH   1   3
ATOM      3  C   LIG d   1       4.651  -1.310  -4.158  0.00  0.00     0.292 C 
ATOM      4  N   LIG d   1       5.887  -1.290  -4.694  0.00  0.00    -0.281 N 
ATOM      5  H   LIG d   1       6.205  -0.496  -5.152  0.00  0.00     0.155 HD
ATOM      6  O   LIG d   1       4.293  -2.260  -3.494  0.00  0.00    -0.269 OA
BRANCH   4   7
ATOM      7  C   LIG d   1       6.714  -2.416  -4.589  0.00  0.00     0.034 A 
ATOM      8  C   LIG d   1       7.743  -2.438  -3.657  0.00  0.00    -0.037 A 
ATOM      9  C   LIG d   1       8.557  -3.549  -3.554  0.00  0.00    -0.018 A 
ATOM     10  H   LIG d   1       7.906  -1.587  -3.012  0.00  0.00     0.064 H 
ATOM     11  C   LIG d   1       8.347  -4.643  -4.380  0.00  0.00     0.120 A 
ATOM     12  H   LIG d   1       9.357  -3.566  -2.828  0.00  0.00     0.066 H 
ATOM     13  C   LIG d   1       7.323  -4.619  -5.316  0.00  0.00    -0.018 A 
ATOM     14  C   LIG d   1       6.504  -3.512  -5.417  0.00  0.00    -0.037 A 
ATOM     15  H   LIG d   1       7.163  -5.469  -5.963  0.00  0.00     0.066 H 
ATOM     16  H   LIG d   1       5.704  -3.496  -6.141  0.00  0.00     0.064 H 
BRANCH  11  17
ATOM     17  O   LIG d   1       9.149  -5.736  -4.279  0.00  0.00    -0.495 OA
BRANCH  17  18
ATOM     18  C   LIG d   1       8.578  -6.995  -4.639  0.00  0.00     0.079 C 
ATOM     19  H   LIG d   1       9.059  -7.367  -5.545  0.00  0.00     0.066 H 
ATOM     20  H   LIG d   1       8.729  -7.709  -3.830  0.00  0.00     0.066 H 
ATOM     21  H   LIG d   1       7.510  -6.872  -4.820  0.00  0.00     0.066 H 
ENDBRANCH  17  18
ENDBRANCH  11  17
ENDBRANCH   4   7
ENDBRANCH   1   3
BRANCH   1  22
ATOM     22  C   LIG d   1       3.865   0.856  -3.242  0.00  0.00     0.459 C 
ATOM     23  F   LIG d   1       5.220   1.147  -3.054  0.00  0.00    -0.165 F 
ATOM     24  F   LIG d   1       3.176   2.031  -3.563  0.00  0.00    -0.165 F 
ATOM     25  F   LIG d   1       3.338   0.313  -2.066  0.00  0.00    -0.165 F 
ENDBRANCH   1  22
BRANCH   1  26
ATOM     26  O   LIG d   1       4.027   0.482  -5.624  0.00  0.00    -0.263 OA
BRANCH  26  27
ATOM     27  C   LIG d   1       3.435  -0.145  -6.764  0.00  0.00     0.428 C 
ATOM     28  F   LIG d   1       3.773  -1.503  -6.776  0.00  0.00    -0.169 F 
ATOM     29  F   LIG d   1       2.044  -0.012  -6.700  0.00  0.00    -0.169 F 
BRANCH  27  30
ATOM     30  C   LIG d   1       3.954   0.521  -8.040  0.00  0.00     0.401 C 
ATOM     31  F   LIG d   1       5.283   0.917  -7.853  0.00  0.00    -0.191 F 
BRANCH  30  32
ATOM     32  C   LIG d   1       3.096   1.748  -8.358  0.00  0.00     0.458 C 
ATOM     33  F   LIG d   1       2.056   1.380  -9.218  0.00  0.00    -0.165 F 
ATOM     34  F   LIG d   1       2.561   2.262  -7.172  0.00  0.00    -0.165 F 
ATOM     35  F   LIG d   1       3.888   2.722  -8.974  0.00  0.00    -0.165 F 
ENDBRANCH  30  32
BRANCH  30  36
ATOM     36  O   LIG d   1       3.881  -0.406  -9.125  0.00  0.00    -0.264 OA
BRANCH  36  37
ATOM     37  C   LIG d   1       5.105  -0.552  -9.847  0.00  0.00     0.432 C 
ATOM     38  F   LIG d   1       5.751   0.686  -9.926  0.00  0.00    -0.168 F 
ATOM     39  F   LIG d   1       5.930  -1.467  -9.185  0.00  0.00    -0.168 F 
BRANCH  37  40
ATOM     40  C   LIG d   1       4.806  -1.063 -11.258  0.00  0.00     0.429 C 
ATOM     41  F   LIG d   1       5.998  -1.143 -11.988  0.00  0.00    -0.186 F 
ATOM     42  F   LIG d   1       4.221  -2.331 -11.181  0.00  0.00    -0.186 F 
BRANCH  40  43
ATOM     43  C   LIG d   1       3.845  -0.099 -11.956  0.00  0.00     0.463 C 
ATOM     44  F   LIG d   1       2.527  -0.438 -11.634  0.00  0.00    -0.165 F 
ATOM     45  F   LIG d   1       4.107   1.208 -11.533  0.00  0.00    -0.165 F 
ATOM     46  F   LIG d   1       4.023  -0.185 -13.342  0.00  0.00    -0.165 F 
ENDBRANCH  40  43
ENDBRANCH  37  40
ENDBRANCH  36  37
ENDBRANCH  30  36
ENDBRANCH  27  30
ENDBRANCH  26  27
ENDBRANCH   1  26
TORSDOF 13
ENDMDL
MODEL 10
REMARK VINA RESULT:      -6.9      2.177      3.921
REMARK  13 active torsions:
REMARK  status: ('A' for Active; 'I' for Inactive)
REMARK    1  A    between atoms: C_1  and  O_2 
REMARK    2  A    between atoms: O_2  and  C_3 
REMARK    3  A    between atoms: C_6  and  N_9 
REMARK       I    between atoms: N_9  and  C_10 
REMARK    4  A    between atoms: C_10  and  C_12 
REMARK    5  A    between atoms: C_12  and  C_13 
REMARK    6  A    between atoms: C_12  and  O_17 
REMARK    7  A    between atoms: O_17  and  C_18 
REMARK    8  A    between atoms: C_18  and  C_19 
REMARK    9  A    between atoms: C_19  and  C_20 
REMARK   10  A    between atoms: C_19  and  O_24 
REMARK   11  A    between atoms: O_24  and  C_25 
REMARK   12  A    between atoms: C_25  and  C_26 
REMARK   13  A    between atoms: C_26  and  C_27 
ROOT
ATOM      1  C   LIG d   1       7.356  -0.038  -4.677  0.00  0.00     0.387 C 
ATOM      2  F   LIG d   1       7.936   0.152  -3.418  0.00  0.00    -0.190 F 
ENDROOT
BRANCH   1   3
ATOM      3  C   LIG d   1       7.165  -1.513  -4.924  0.00  0.00     0.292 C 
ATOM      4  N   LIG d   1       6.327  -1.931  -5.891  0.00  0.00    -0.281 N 
ATOM      5  H   LIG d   1       5.912  -1.287  -6.486  0.00  0.00     0.155 HD
ATOM      6  O   LIG d   1       7.766  -2.322  -4.249  0.00  0.00    -0.269 OA
BRANCH   4   7
ATOM      7  C   LIG d   1       6.055  -3.298  -6.040  0.00  0.00     0.034 A 
ATOM      8  C   LIG d   1       6.775  -4.053  -6.956  0.00  0.00    -0.037 A 
ATOM      9  C   LIG d   1       6.508  -5.401  -7.101  0.00  0.00    -0.018 A 
ATOM     10  H   LIG d   1       7.545  -3.588  -7.554  0.00  0.00     0.064 H 
ATOM     11  C   LIG d   1       5.520  -5.998  -6.332  0.00  0.00     0.120 A 
ATOM     12  H   LIG d   1       7.068  -5.988  -7.813  0.00  0.00     0.066 H 
ATOM     13  C   LIG d   1       4.796  -5.242  -5.422  0.00  0.00    -0.018 A 
ATOM     14  C   LIG d   1       5.066  -3.897  -5.271  0.00  0.00    -0.037 A 
ATOM     15  H   LIG d   1       4.024  -5.708  -4.827  0.00  0.00     0.066 H 
ATOM     16  H   LIG d   1       4.507  -3.311  -4.558  0.00  0.00     0.064 H 
BRANCH  11  17
ATOM     17  O   LIG d   1       5.257  -7.325  -6.476  0.00  0.00    -0.495 OA
BRANCH  17  18
ATOM     18  C   LIG d   1       6.267  -8.123  -7.097  0.00  0.00     0.079 C 
ATOM     19  H   LIG d   1       5.800  -8.964  -7.612  0.00  0.00     0.066 H 
ATOM     20  H   LIG d   1       6.818  -7.518  -7.816  0.00  0.00     0.066 H 
ATOM     21  H   LIG d   1       6.951  -8.499  -6.337  0.00  0.00     0.066 H 
ENDBRANCH  17  18
ENDBRANCH  11  17
ENDBRANCH   4   7
ENDBRANCH   1   3
BRANCH   1  22
ATOM     22  C   LIG d   1       8.273   0.544  -5.754  0.00  0.00     0.459 C 
ATOM     23  F   LIG d   1       7.503   0.974  -6.840  0.00  0.00    -0.165 F 
ATOM     24  F   LIG d   1       8.981   1.630  -5.226  0.00  0.00    -0.165 F 
ATOM     25  F   LIG d   1       9.174  -0.437  -6.181  0.00  0.00    -0.165 F 
ENDBRANCH   1  22
BRANCH   1  26
ATOM     26  O   LIG d   1       6.088   0.621  -4.722  0.00  0.00    -0.263 OA
BRANCH  26  27
ATOM     27  C   LIG d   1       5.337   0.520  -3.512  0.00  0.00     0.428 C 
ATOM     28  F   LIG d   1       5.877  -0.493  -2.711  0.00  0.00    -0.169 F 
ATOM     29  F   LIG d   1       5.393   1.737  -2.824  0.00  0.00    -0.169 F 
BRANCH  27  30
ATOM     30  C   LIG d   1       3.880   0.187  -3.841  0.00  0.00     0.401 C 
ATOM     31  F   LIG d   1       3.100   1.344  -3.726  0.00  0.00    -0.191 F 
BRANCH  30  32
ATOM     32  C   LIG d   1       3.366  -0.874  -2.866  0.00  0.00     0.458 C 
ATOM     33  F   LIG d   1       3.903  -0.640  -1.596  0.00  0.00    -0.165 F 
ATOM     34  F   LIG d   1       1.970  -0.809  -2.801  0.00  0.00    -0.165 F 
ATOM     35  F   LIG d   1       3.754  -2.142  -3.311  0.00  0.00    -0.165 F 
ENDBRANCH  30  32
BRANCH  30  36
ATOM     36  O   LIG d   1       3.796  -0.312  -5.178  0.00  0.00    -0.264 OA
BRANCH  36  37
ATOM     37  C   LIG d   1       2.764   0.290  -5.960  0.00  0.00     0.432 C 
ATOM     38  F   LIG d   1       1.515  -0.126  -5.486  0.00  0.00    -0.168 F 
ATOM     39  F   LIG d   1       2.859   1.683  -5.863  0.00  0.00    -0.168 F 
BRANCH  37  40
ATOM     40  C   LIG d   1       2.920  -0.131  -7.423  0.00  0.00     0.429 C 
ATOM     41  F   LIG d   1       3.780  -1.232  -7.501  0.00  0.00    -0.186 F 
ATOM     42  F   LIG d   1       1.670  -0.477  -7.945  0.00  0.00    -0.186 F 
BRANCH  40  43
ATOM     43  C   LIG d   1       3.505   1.031  -8.228  0.00  0.00     0.463 C 
ATOM     44  F   LIG d   1       4.846   1.215  -7.877  0.00  0.00    -0.165 F 
ATOM     45  F   LIG d   1       3.416   0.743  -9.594  0.00  0.00    -0.165 F 
ATOM     46  F   LIG d   1       2.786   2.199  -7.950  0.00  0.00    -0.165 F 
ENDBRANCH  40  43
ENDBRANCH  37  40
ENDBRANCH  36  37
ENDBRANCH  30  36
ENDBRANCH  27  30
ENDBRANCH  26  27
ENDBRANCH   1  26
TORSDOF 13
ENDMDL
