MODEL 1
REMARK VINA RESULT:      -5.4      0.000      0.000
REMARK  7 active torsions:
REMARK  status: ('A' for Active; 'I' for Inactive)
REMARK    1  A    between atoms: C_1  and  C_2 
REMARK    2  A    between atoms: C_2  and  C_4 
REMARK    3  A    between atoms: C_2  and  C_14 
REMARK    4  A    between atoms: C_14  and  C_16 
REMARK    5  A    between atoms: C_14  and  N_33 
REMARK    6  A    between atoms: C_16  and  O_18 
REMARK    7  A    between atoms: O_18  and  C_19 
ROOT
ATOM      1  C   LIG d   1       3.578   0.252  -7.370  0.00  0.00     0.037 C 
ATOM      2  H   LIG d   1       3.263   1.157  -6.850  0.00  0.00     0.041 H 
ENDROOT
BRANCH   1   3
ATOM      3  C   LIG d   1       2.415  -0.291  -8.201  0.00  0.00    -0.053 C 
ATOM      4  H   LIG d   1       1.606   0.440  -8.215  0.00  0.00     0.024 H 
ATOM      5  H   LIG d   1       2.753  -0.475  -9.221  0.00  0.00     0.024 H 
ATOM      6  H   LIG d   1       2.058  -1.222  -7.762  0.00  0.00     0.024 H 
ENDBRANCH   1   3
BRANCH   1   7
ATOM      7  C   LIG d   1       4.002  -0.785  -6.361  0.00  0.00    -0.014 A 
ATOM      8  C   LIG d   1       3.878  -0.686  -4.906  0.00  0.00     0.003 A 
ATOM      9  C   LIG d   1       4.402  -1.885  -4.388  0.00  0.00     0.047 A 
ATOM     10  C   LIG d   1       3.383   0.289  -4.038  0.00  0.00    -0.052 A 
ATOM     11  N   LIG d   1       4.810  -2.646  -5.460  0.00  0.00    -0.360 N 
ATOM     12  C   LIG d   1       4.419  -2.083  -3.011  0.00  0.00    -0.038 A 
ATOM     13  C   LIG d   1       4.564  -1.975  -6.627  0.00  0.00     0.006 A 
ATOM     14  H   LIG d   1       5.213  -3.526  -5.398  0.00  0.00     0.165 HD
ATOM     15  H   LIG d   1       4.789  -2.347  -7.616  0.00  0.00     0.081 H 
ATOM     16  C   LIG d   1       3.931  -1.105  -2.173  0.00  0.00    -0.060 A 
ATOM     17  H   LIG d   1       4.819  -2.999  -2.601  0.00  0.00     0.064 H 
ATOM     18  C   LIG d   1       3.409   0.073  -2.688  0.00  0.00    -0.061 A 
ATOM     19  H   LIG d   1       3.949  -1.258  -1.104  0.00  0.00     0.062 H 
ATOM     20  H   LIG d   1       3.026   0.828  -2.018  0.00  0.00     0.062 H 
ATOM     21  H   LIG d   1       2.980   1.211  -4.431  0.00  0.00     0.062 H 
ENDBRANCH   1   7
BRANCH   1  22
ATOM     22  C   LIG d   1       4.756   0.577  -8.291  0.00  0.00     0.081 C 
ATOM     23  H   LIG d   1       5.007  -0.301  -8.885  0.00  0.00     0.097 H 
BRANCH  22  24
ATOM     24  C   LIG d   1       4.377   1.712  -9.208  0.00  0.00     0.356 C 
ATOM     25  O   LIG d   1       3.928   2.736  -8.749  0.00  0.00    -0.244 OA
BRANCH  24  26
ATOM     26  O   LIG d   1       4.539   1.584 -10.535  0.00  0.00    -0.464 OA
BRANCH  26  27
ATOM     27  C   LIG d   1       4.773   0.245 -11.044  0.00  0.00     0.082 C 
ATOM     28  H   LIG d   1       5.046  -0.415 -10.220  0.00  0.00     0.066 H 
ATOM     29  H   LIG d   1       3.867  -0.127 -11.522  0.00  0.00     0.066 H 
ATOM     30  H   LIG d   1       5.584   0.269 -11.772  0.00  0.00     0.066 H 
ENDBRANCH  26  27
ENDBRANCH  24  26
ENDBRANCH  22  24
BRANCH  22  31
ATOM     31  N   LIG d   1       5.920   0.949  -7.467  0.00  0.00     0.229 N 
ATOM     32  H   LIG d   1       6.700   1.217  -8.065  0.00  0.00     0.200 HD
ATOM     33  H   LIG d   1       5.681   1.726  -6.854  0.00  0.00     0.200 HD
ATOM     34  H   LIG d   1       6.198   0.143  -6.894  0.00  0.00     0.200 HD
ENDBRANCH  22  31
ENDBRANCH   1  22
TORSDOF 7
ENDMDL
MODEL 2
REMARK VINA RESULT:      -5.3      4.486      5.446
REMARK  7 active torsions:
REMARK  status: ('A' for Active; 'I' for Inactive)
REMARK    1  A    between atoms: C_1  and  C_2 
REMARK    2  A    between atoms: C_2  and  C_4 
REMARK    3  A    between atoms: C_2  and  C_14 
REMARK    4  A    between atoms: C_14  and  C_16 
REMARK    5  A    between atoms: C_14  and  N_33 
REMARK    6  A    between atoms: C_16  and  O_18 
REMARK    7  A    between atoms: O_18  and  C_19 
ROOT
ATOM      1  C   LIG d   1       6.141  -3.618  -4.661  0.00  0.00     0.037 C 
ATOM      2  H   LIG d   1       5.688  -4.037  -3.762  0.00  0.00     0.041 H 
ENDROOT
BRANCH   1   3
ATOM      3  C   LIG d   1       7.512  -4.257  -4.888  0.00  0.00    -0.053 C 
ATOM      4  H   LIG d   1       7.977  -3.815  -5.769  0.00  0.00     0.024 H 
ATOM      5  H   LIG d   1       8.144  -4.080  -4.018  0.00  0.00     0.024 H 
ATOM      6  H   LIG d   1       7.392  -5.329  -5.039  0.00  0.00     0.024 H 
ENDBRANCH   1   3
BRANCH   1   7
ATOM      7  C   LIG d   1       6.302  -2.128  -4.494  0.00  0.00    -0.014 A 
ATOM      8  C   LIG d   1       5.643  -1.288  -3.493  0.00  0.00     0.003 A 
ATOM      9  C   LIG d   1       6.099   0.023  -3.724  0.00  0.00     0.047 A 
ATOM     10  C   LIG d   1       4.738  -1.538  -2.460  0.00  0.00    -0.052 A 
ATOM     11  N   LIG d   1       6.969  -0.032  -4.789  0.00  0.00    -0.360 N 
ATOM     12  C   LIG d   1       5.639   1.058  -2.916  0.00  0.00    -0.038 A 
ATOM     13  C   LIG d   1       7.078  -1.321  -5.235  0.00  0.00     0.006 A 
ATOM     14  H   LIG d   1       7.436   0.729  -5.168  0.00  0.00     0.165 HD
ATOM     15  H   LIG d   1       7.696  -1.642  -6.060  0.00  0.00     0.081 H 
ATOM     16  C   LIG d   1       4.741   0.789  -1.905  0.00  0.00    -0.060 A 
ATOM     17  H   LIG d   1       5.981   2.069  -3.082  0.00  0.00     0.064 H 
ATOM     18  C   LIG d   1       4.299  -0.506  -1.677  0.00  0.00    -0.061 A 
ATOM     19  H   LIG d   1       4.381   1.594  -1.281  0.00  0.00     0.062 H 
ATOM     20  H   LIG d   1       3.599  -0.701  -0.878  0.00  0.00     0.062 H 
ATOM     21  H   LIG d   1       4.386  -2.543  -2.279  0.00  0.00     0.062 H 
ENDBRANCH   1   7
BRANCH   1  22
ATOM     22  C   LIG d   1       5.240  -3.900  -5.865  0.00  0.00     0.081 C 
ATOM     23  H   LIG d   1       5.776  -3.664  -6.784  0.00  0.00     0.097 H 
BRANCH  22  24
ATOM     24  C   LIG d   1       4.853  -5.357  -5.871  0.00  0.00     0.356 C 
ATOM     25  O   LIG d   1       4.081  -5.780  -5.042  0.00  0.00    -0.244 OA
BRANCH  24  26
ATOM     26  O   LIG d   1       5.365  -6.184  -6.796  0.00  0.00    -0.464 OA
BRANCH  26  27
ATOM     27  C   LIG d   1       5.992  -7.403  -6.315  0.00  0.00     0.082 C 
ATOM     28  H   LIG d   1       6.118  -8.098  -7.144  0.00  0.00     0.066 H 
ATOM     29  H   LIG d   1       6.967  -7.166  -5.888  0.00  0.00     0.066 H 
ATOM     30  H   LIG d   1       5.362  -7.859  -5.551  0.00  0.00     0.066 H 
ENDBRANCH  26  27
ENDBRANCH  24  26
ENDBRANCH  22  24
BRANCH  22  31
ATOM     31  N   LIG d   1       4.040  -3.049  -5.777  0.00  0.00     0.229 N 
ATOM     32  H   LIG d   1       4.249  -2.205  -5.247  0.00  0.00     0.200 HD
ATOM     33  H   LIG d   1       3.724  -2.795  -6.710  0.00  0.00     0.200 HD
ATOM     34  H   LIG d   1       3.294  -3.569  -5.299  0.00  0.00     0.200 HD
ENDBRANCH  22  31
ENDBRANCH   1  22
TORSDOF 7
ENDMDL
MODEL 3
REMARK VINA RESULT:      -5.1      1.836      2.158
REMARK  7 active torsions:
REMARK  status: ('A' for Active; 'I' for Inactive)
REMARK    1  A    between atoms: C_1  and  C_2 
REMARK    2  A    between atoms: C_2  and  C_4 
REMARK    3  A    between atoms: C_2  and  C_14 
REMARK    4  A    between atoms: C_14  and  C_16 
REMARK    5  A    between atoms: C_14  and  N_33 
REMARK    6  A    between atoms: C_16  and  O_18 
REMARK    7  A    between atoms: O_18  and  C_19 
ROOT
ATOM      1  C   LIG d   1       3.779  -0.862  -7.228  0.00  0.00     0.037 C 
ATOM      2  H   LIG d   1       2.795  -1.109  -6.828  0.00  0.00     0.041 H 
ENDROOT
BRANCH   1   3
ATOM      3  C   LIG d   1       4.367  -2.087  -7.930  0.00  0.00    -0.053 C 
ATOM      4  H   LIG d   1       3.571  -2.632  -8.438  0.00  0.00     0.024 H 
ATOM      5  H   LIG d   1       5.110  -1.766  -8.660  0.00  0.00     0.024 H 
ATOM      6  H   LIG d   1       4.838  -2.736  -7.192  0.00  0.00     0.024 H 
ENDBRANCH   1   3
BRANCH   1   7
ATOM      7  C   LIG d   1       4.688  -0.443  -6.101  0.00  0.00    -0.014 A 
ATOM      8  C   LIG d   1       4.300  -0.213  -4.709  0.00  0.00     0.003 A 
ATOM      9  C   LIG d   1       5.478   0.158  -4.033  0.00  0.00     0.047 A 
ATOM     10  C   LIG d   1       3.093  -0.291  -4.012  0.00  0.00    -0.052 A 
ATOM     11  N   LIG d   1       6.496   0.151  -4.959  0.00  0.00    -0.360 N 
ATOM     12  C   LIG d   1       5.422   0.445  -2.673  0.00  0.00    -0.038 A 
ATOM     13  C   LIG d   1       6.008  -0.209  -6.185  0.00  0.00     0.006 A 
ATOM     14  H   LIG d   1       7.423   0.369  -4.771  0.00  0.00     0.165 HD
ATOM     15  H   LIG d   1       6.596  -0.294  -7.087  0.00  0.00     0.081 H 
ATOM     16  C   LIG d   1       4.218   0.367  -2.006  0.00  0.00    -0.060 A 
ATOM     17  H   LIG d   1       6.318   0.731  -2.142  0.00  0.00     0.064 H 
ATOM     18  C   LIG d   1       3.061  -0.006  -2.675  0.00  0.00    -0.061 A 
ATOM     19  H   LIG d   1       4.176   0.594  -0.951  0.00  0.00     0.062 H 
ATOM     20  H   LIG d   1       2.127  -0.067  -2.137  0.00  0.00     0.062 H 
ATOM     21  H   LIG d   1       2.187  -0.575  -4.527  0.00  0.00     0.062 H 
ENDBRANCH   1   7
BRANCH   1  22
ATOM     22  C   LIG d   1       3.647   0.286  -8.231  0.00  0.00     0.081 C 
ATOM     23  H   LIG d   1       4.633   0.545  -8.619  0.00  0.00     0.097 H 
BRANCH  22  24
ATOM     24  C   LIG d   1       2.755  -0.140  -9.368  0.00  0.00     0.356 C 
ATOM     25  O   LIG d   1       1.642  -0.552  -9.141  0.00  0.00    -0.244 OA
BRANCH  24  26
ATOM     26  O   LIG d   1       3.198  -0.064 -10.634  0.00  0.00    -0.464 OA
BRANCH  26  27
ATOM     27  C   LIG d   1       4.083   1.042 -10.956  0.00  0.00     0.082 C 
ATOM     28  H   LIG d   1       4.623   1.348 -10.060  0.00  0.00     0.066 H 
ATOM     29  H   LIG d   1       4.794   0.728 -11.719  0.00  0.00     0.066 H 
ATOM     30  H   LIG d   1       3.496   1.881 -11.329  0.00  0.00     0.066 H 
ENDBRANCH  26  27
ENDBRANCH  24  26
ENDBRANCH  22  24
BRANCH  22  31
ATOM     31  N   LIG d   1       3.079   1.460  -7.544  0.00  0.00     0.229 N 
ATOM     32  H   LIG d   1       3.036   1.291  -6.541  0.00  0.00     0.200 HD
ATOM     33  H   LIG d   1       3.653   2.282  -7.725  0.00  0.00     0.200 HD
ATOM     34  H   LIG d   1       2.130   1.630  -7.898  0.00  0.00     0.200 HD
ENDBRANCH  22  31
ENDBRANCH   1  22
TORSDOF 7
ENDMDL
MODEL 4
REMARK VINA RESULT:      -4.9      3.492      4.806
REMARK  7 active torsions:
REMARK  status: ('A' for Active; 'I' for Inactive)
REMARK    1  A    between atoms: C_1  and  C_2 
REMARK    2  A    between atoms: C_2  and  C_4 
REMARK    3  A    between atoms: C_2  and  C_14 
REMARK    4  A    between atoms: C_14  and  C_16 
REMARK    5  A    between atoms: C_14  and  N_33 
REMARK    6  A    between atoms: C_16  and  O_18 
REMARK    7  A    between atoms: O_18  and  C_19 
ROOT
ATOM      1  C   LIG d   1       5.120  -3.518  -5.046  0.00  0.00     0.037 C 
ATOM      2  H   LIG d   1       4.623  -4.067  -4.245  0.00  0.00     0.041 H 
ENDROOT
BRANCH   1   3
ATOM      3  C   LIG d   1       6.635  -3.596  -4.855  0.00  0.00    -0.053 C 
ATOM      4  H   LIG d   1       6.985  -4.593  -5.125  0.00  0.00     0.024 H 
ATOM      5  H   LIG d   1       7.120  -2.857  -5.492  0.00  0.00     0.024 H 
ATOM      6  H   LIG d   1       6.881  -3.395  -3.813  0.00  0.00     0.024 H 
ENDBRANCH   1   3
BRANCH   1   7
ATOM      7  C   LIG d   1       4.682  -2.076  -5.012  0.00  0.00    -0.014 A 
ATOM      8  C   LIG d   1       4.516  -1.244  -3.819  0.00  0.00     0.003 A 
ATOM      9  C   LIG d   1       4.098   0.019  -4.280  0.00  0.00     0.047 A 
ATOM     10  C   LIG d   1       4.684  -1.465  -2.450  0.00  0.00    -0.052 A 
ATOM     11  N   LIG d   1       4.019  -0.056  -5.652  0.00  0.00    -0.360 N 
ATOM     12  C   LIG d   1       3.856   1.034  -3.360  0.00  0.00    -0.038 A 
ATOM     13  C   LIG d   1       4.371  -1.311  -6.070  0.00  0.00     0.006 A 
ATOM     14  H   LIG d   1       3.754   0.671  -6.236  0.00  0.00     0.165 HD
ATOM     15  H   LIG d   1       4.395  -1.637  -7.100  0.00  0.00     0.081 H 
ATOM     16  C   LIG d   1       4.023   0.793  -2.014  0.00  0.00    -0.060 A 
ATOM     17  H   LIG d   1       3.535   2.007  -3.701  0.00  0.00     0.064 H 
ATOM     18  C   LIG d   1       4.442  -0.452  -1.565  0.00  0.00    -0.061 A 
ATOM     19  H   LIG d   1       3.830   1.581  -1.301  0.00  0.00     0.062 H 
ATOM     20  H   LIG d   1       4.572  -0.623  -0.506  0.00  0.00     0.062 H 
ATOM     21  H   LIG d   1       5.005  -2.432  -2.093  0.00  0.00     0.062 H 
ENDBRANCH   1   7
BRANCH   1  22
ATOM     22  C   LIG d   1       4.743  -4.133  -6.395  0.00  0.00     0.081 C 
ATOM     23  H   LIG d   1       4.689  -3.348  -7.150  0.00  0.00     0.097 H 
BRANCH  22  24
ATOM     24  C   LIG d   1       5.787  -5.144  -6.795  0.00  0.00     0.356 C 
ATOM     25  O   LIG d   1       5.793  -6.239  -6.285  0.00  0.00    -0.244 OA
BRANCH  24  26
ATOM     26  O   LIG d   1       6.709  -4.827  -7.718  0.00  0.00    -0.464 OA
BRANCH  26  27
ATOM     27  C   LIG d   1       6.340  -3.822  -8.700  0.00  0.00     0.082 C 
ATOM     28  H   LIG d   1       5.474  -4.167  -9.264  0.00  0.00     0.066 H 
ATOM     29  H   LIG d   1       6.095  -2.890  -8.191  0.00  0.00     0.066 H 
ATOM     30  H   LIG d   1       7.174  -3.656  -9.381  0.00  0.00     0.066 H 
ENDBRANCH  26  27
ENDBRANCH  24  26
ENDBRANCH  22  24
BRANCH  22  31
ATOM     31  N   LIG d   1       3.422  -4.776  -6.277  0.00  0.00     0.229 N 
ATOM     32  H   LIG d   1       3.188  -5.254  -7.145  0.00  0.00     0.200 HD
ATOM     33  H   LIG d   1       3.429  -5.448  -5.512  0.00  0.00     0.200 HD
ATOM     34  H   LIG d   1       2.714  -4.058  -6.087  0.00  0.00     0.200 HD
ENDBRANCH  22  31
ENDBRANCH   1  22
TORSDOF 7
ENDMDL
MODEL 5
REMARK VINA RESULT:      -4.9      3.328      4.757
REMARK  7 active torsions:
REMARK  status: ('A' for Active; 'I' for Inactive)
REMARK    1  A    between atoms: C_1  and  C_2 
REMARK    2  A    between atoms: C_2  and  C_4 
REMARK    3  A    between atoms: C_2  and  C_14 
REMARK    4  A    between atoms: C_14  and  C_16 
REMARK    5  A    between atoms: C_14  and  N_33 
REMARK    6  A    between atoms: C_16  and  O_18 
REMARK    7  A    between atoms: O_18  and  C_19 
ROOT
ATOM      1  C   LIG d   1       7.166  -3.226  -4.223  0.00  0.00     0.037 C 
ATOM      2  H   LIG d   1       6.551  -3.738  -3.482  0.00  0.00     0.041 H 
ENDROOT
BRANCH   1   3
ATOM      3  C   LIG d   1       8.629  -3.633  -4.042  0.00  0.00    -0.053 C 
ATOM      4  H   LIG d   1       9.124  -2.923  -3.379  0.00  0.00     0.024 H 
ATOM      5  H   LIG d   1       8.678  -4.631  -3.606  0.00  0.00     0.024 H 
ATOM      6  H   LIG d   1       9.128  -3.635  -5.011  0.00  0.00     0.024 H 
ENDBRANCH   1   3
BRANCH   1   7
ATOM      7  C   LIG d   1       7.032  -1.736  -4.043  0.00  0.00    -0.014 A 
ATOM      8  C   LIG d   1       6.033  -1.043  -3.227  0.00  0.00     0.003 A 
ATOM      9  C   LIG d   1       6.302   0.331  -3.366  0.00  0.00     0.047 A 
ATOM     10  C   LIG d   1       4.974  -1.468  -2.421  0.00  0.00    -0.052 A 
ATOM     11  N   LIG d   1       7.384   0.449  -4.208  0.00  0.00    -0.360 N 
ATOM     12  C   LIG d   1       5.504   1.253  -2.696  0.00  0.00    -0.038 A 
ATOM     13  C   LIG d   1       7.806  -0.791  -4.601  0.00  0.00     0.006 A 
ATOM     14  H   LIG d   1       7.789   1.288  -4.481  0.00  0.00     0.165 HD
ATOM     15  H   LIG d   1       8.639  -0.983  -5.261  0.00  0.00     0.081 H 
ATOM     16  C   LIG d   1       4.461   0.812  -1.911  0.00  0.00    -0.060 A 
ATOM     17  H   LIG d   1       5.699   2.311  -2.795  0.00  0.00     0.064 H 
ATOM     18  C   LIG d   1       4.204  -0.544  -1.771  0.00  0.00    -0.061 A 
ATOM     19  H   LIG d   1       3.839   1.529  -1.395  0.00  0.00     0.062 H 
ATOM     20  H   LIG d   1       3.385  -0.873  -1.148  0.00  0.00     0.062 H 
ATOM     21  H   LIG d   1       4.765  -2.522  -2.312  0.00  0.00     0.062 H 
ENDBRANCH   1   7
BRANCH   1  22
ATOM     22  C   LIG d   1       6.698  -3.614  -5.628  0.00  0.00     0.081 C 
ATOM     23  H   LIG d   1       6.751  -4.696  -5.743  0.00  0.00     0.097 H 
BRANCH  22  24
ATOM     24  C   LIG d   1       5.276  -3.157  -5.827  0.00  0.00     0.356 C 
ATOM     25  O   LIG d   1       4.395  -3.605  -5.130  0.00  0.00    -0.244 OA
BRANCH  24  26
ATOM     26  O   LIG d   1       4.987  -2.254  -6.777  0.00  0.00    -0.464 OA
BRANCH  26  27
ATOM     27  C   LIG d   1       4.246  -1.076  -6.363  0.00  0.00     0.082 C 
ATOM     28  H   LIG d   1       4.703  -0.656  -5.467  0.00  0.00     0.066 H 
ATOM     29  H   LIG d   1       4.266  -0.335  -7.162  0.00  0.00     0.066 H 
ATOM     30  H   LIG d   1       3.214  -1.352  -6.149  0.00  0.00     0.066 H 
ENDBRANCH  26  27
ENDBRANCH  24  26
ENDBRANCH  22  24
BRANCH  22  31
ATOM     31  N   LIG d   1       7.585  -2.981  -6.620  0.00  0.00     0.229 N 
ATOM     32  H   LIG d   1       8.551  -3.015  -6.298  0.00  0.00     0.200 HD
ATOM     33  H   LIG d   1       7.509  -3.463  -7.514  0.00  0.00     0.200 HD
ATOM     34  H   LIG d   1       7.307  -2.000  -6.743  0.00  0.00     0.200 HD
ENDBRANCH  22  31
ENDBRANCH   1  22
TORSDOF 7
ENDMDL
MODEL 6
REMARK VINA RESULT:      -4.7      3.718      5.368
REMARK  7 active torsions:
REMARK  status: ('A' for Active; 'I' for Inactive)
REMARK    1  A    between atoms: C_1  and  C_2 
REMARK    2  A    between atoms: C_2  and  C_4 
REMARK    3  A    between atoms: C_2  and  C_14 
REMARK    4  A    between atoms: C_14  and  C_16 
REMARK    5  A    between atoms: C_14  and  N_33 
REMARK    6  A    between atoms: C_16  and  O_18 
REMARK    7  A    between atoms: O_18  and  C_19 
ROOT
ATOM      1  C   LIG d   1       5.497  -1.380  -3.182  0.00  0.00     0.037 C 
ATOM      2  H   LIG d   1       6.377  -1.172  -2.573  0.00  0.00     0.041 H 
ENDROOT
BRANCH   1   3
ATOM      3  C   LIG d   1       4.307  -1.687  -2.272  0.00  0.00    -0.053 C 
ATOM      4  H   LIG d   1       4.368  -1.072  -1.373  0.00  0.00     0.024 H 
ATOM      5  H   LIG d   1       3.379  -1.466  -2.799  0.00  0.00     0.024 H 
ATOM      6  H   LIG d   1       4.325  -2.740  -1.994  0.00  0.00     0.024 H 
ENDBRANCH   1   3
BRANCH   1   7
ATOM      7  C   LIG d   1       5.771  -2.567  -4.070  0.00  0.00    -0.014 A 
ATOM      8  C   LIG d   1       7.051  -3.259  -4.229  0.00  0.00     0.003 A 
ATOM      9  C   LIG d   1       6.821  -4.295  -5.153  0.00  0.00     0.047 A 
ATOM     10  C   LIG d   1       8.323  -3.086  -3.679  0.00  0.00    -0.052 A 
ATOM     11  N   LIG d   1       5.496  -4.225  -5.520  0.00  0.00    -0.360 N 
ATOM     12  C   LIG d   1       7.870  -5.137  -5.508  0.00  0.00    -0.038 A 
ATOM     13  C   LIG d   1       4.887  -3.190  -4.865  0.00  0.00     0.006 A 
ATOM     14  H   LIG d   1       5.059  -4.820  -6.149  0.00  0.00     0.165 HD
ATOM     15  H   LIG d   1       3.847  -2.914  -4.972  0.00  0.00     0.081 H 
ATOM     16  C   LIG d   1       9.118  -4.944  -4.958  0.00  0.00    -0.060 A 
ATOM     17  H   LIG d   1       7.707  -5.936  -6.217  0.00  0.00     0.064 H 
ATOM     18  C   LIG d   1       9.339  -3.925  -4.042  0.00  0.00    -0.061 A 
ATOM     19  H   LIG d   1       9.933  -5.596  -5.238  0.00  0.00     0.062 H 
ATOM     20  H   LIG d   1      10.322  -3.790  -3.616  0.00  0.00     0.062 H 
ATOM     21  H   LIG d   1       8.503  -2.292  -2.969  0.00  0.00     0.062 H 
ENDBRANCH   1   7
BRANCH   1  22
ATOM     22  C   LIG d   1       5.176  -0.160  -4.047  0.00  0.00     0.081 C 
ATOM     23  H   LIG d   1       4.391  -0.415  -4.759  0.00  0.00     0.097 H 
BRANCH  22  24
ATOM     24  C   LIG d   1       4.707   0.971  -3.167  0.00  0.00     0.356 C 
ATOM     25  O   LIG d   1       5.411   1.369  -2.269  0.00  0.00    -0.244 OA
BRANCH  24  26
ATOM     26  O   LIG d   1       3.507   1.534  -3.380  0.00  0.00    -0.464 OA
BRANCH  26  27
ATOM     27  C   LIG d   1       2.680   0.947  -4.420  0.00  0.00     0.082 C 
ATOM     28  H   LIG d   1       2.719  -0.140  -4.345  0.00  0.00     0.066 H 
ATOM     29  H   LIG d   1       1.650   1.282  -4.297  0.00  0.00     0.066 H 
ATOM     30  H   LIG d   1       3.049   1.257  -5.397  0.00  0.00     0.066 H 
ENDBRANCH  26  27
ENDBRANCH  24  26
ENDBRANCH  22  24
BRANCH  22  31
ATOM     31  N   LIG d   1       6.387   0.235  -4.789  0.00  0.00     0.229 N 
ATOM     32  H   LIG d   1       7.112  -0.471  -4.674  0.00  0.00     0.200 HD
ATOM     33  H   LIG d   1       6.171   0.341  -5.778  0.00  0.00     0.200 HD
ATOM     34  H   LIG d   1       6.729   1.131  -4.422  0.00  0.00     0.200 HD
ENDBRANCH  22  31
ENDBRANCH   1  22
TORSDOF 7
ENDMDL
MODEL 7
REMARK VINA RESULT:      -4.7      1.836      2.616
REMARK  7 active torsions:
REMARK  status: ('A' for Active; 'I' for Inactive)
REMARK    1  A    between atoms: C_1  and  C_2 
REMARK    2  A    between atoms: C_2  and  C_4 
REMARK    3  A    between atoms: C_2  and  C_14 
REMARK    4  A    between atoms: C_14  and  C_16 
REMARK    5  A    between atoms: C_14  and  N_33 
REMARK    6  A    between atoms: C_16  and  O_18 
REMARK    7  A    between atoms: O_18  and  C_19 
ROOT
ATOM      1  C   LIG d   1       3.333  -0.770  -7.187  0.00  0.00     0.037 C 
ATOM      2  H   LIG d   1       2.745  -1.688  -7.158  0.00  0.00     0.041 H 
ENDROOT
BRANCH   1   3
ATOM      3  C   LIG d   1       4.790  -1.107  -7.506  0.00  0.00    -0.053 C 
ATOM      4  H   LIG d   1       5.161  -1.836  -6.786  0.00  0.00     0.024 H 
ATOM      5  H   LIG d   1       4.854  -1.525  -8.511  0.00  0.00     0.024 H 
ATOM      6  H   LIG d   1       5.393  -0.201  -7.451  0.00  0.00     0.024 H 
ENDBRANCH   1   3
BRANCH   1   7
ATOM      7  C   LIG d   1       3.257  -0.084  -5.847  0.00  0.00    -0.014 A 
ATOM      8  C   LIG d   1       3.687  -0.634  -4.561  0.00  0.00     0.003 A 
ATOM      9  C   LIG d   1       3.424   0.363  -3.603  0.00  0.00     0.047 A 
ATOM     10  C   LIG d   1       4.252  -1.848  -4.164  0.00  0.00    -0.052 A 
ATOM     11  N   LIG d   1       2.875   1.433  -4.272  0.00  0.00    -0.360 N 
ATOM     12  C   LIG d   1       3.732   0.124  -2.268  0.00  0.00    -0.038 A 
ATOM     13  C   LIG d   1       2.783   1.150  -5.607  0.00  0.00     0.006 A 
ATOM     14  H   LIG d   1       2.594   2.265  -3.859  0.00  0.00     0.165 HD
ATOM     15  H   LIG d   1       2.388   1.819  -6.358  0.00  0.00     0.081 H 
ATOM     16  C   LIG d   1       4.284  -1.083  -1.898  0.00  0.00    -0.060 A 
ATOM     17  H   LIG d   1       3.535   0.881  -1.523  0.00  0.00     0.064 H 
ATOM     18  C   LIG d   1       4.548  -2.061  -2.847  0.00  0.00    -0.061 A 
ATOM     19  H   LIG d   1       4.519  -1.269  -0.860  0.00  0.00     0.062 H 
ATOM     20  H   LIG d   1       4.985  -3.000  -2.541  0.00  0.00     0.062 H 
ATOM     21  H   LIG d   1       4.456  -2.615  -4.896  0.00  0.00     0.062 H 
ENDBRANCH   1   7
BRANCH   1  22
ATOM     22  C   LIG d   1       2.774   0.158  -8.267  0.00  0.00     0.081 C 
ATOM     23  H   LIG d   1       2.189   0.950  -7.800  0.00  0.00     0.097 H 
BRANCH  22  24
ATOM     24  C   LIG d   1       3.914   0.769  -9.042  0.00  0.00     0.356 C 
ATOM     25  O   LIG d   1       4.221   0.317 -10.120  0.00  0.00    -0.244 OA
BRANCH  24  26
ATOM     26  O   LIG d   1       4.587   1.813  -8.535  0.00  0.00    -0.464 OA
BRANCH  26  27
ATOM     27  C   LIG d   1       5.938   2.026  -9.022  0.00  0.00     0.082 C 
ATOM     28  H   LIG d   1       6.510   2.580  -8.278  0.00  0.00     0.066 H 
ATOM     29  H   LIG d   1       6.415   1.063  -9.203  0.00  0.00     0.066 H 
ATOM     30  H   LIG d   1       5.905   2.595  -9.951  0.00  0.00     0.066 H 
ENDBRANCH  26  27
ENDBRANCH  24  26
ENDBRANCH  22  24
BRANCH  22  31
ATOM     31  N   LIG d   1       1.901  -0.620  -9.164  0.00  0.00     0.229 N 
ATOM     32  H   LIG d   1       2.464  -1.136  -9.838  0.00  0.00     0.200 HD
ATOM     33  H   LIG d   1       1.337  -1.272  -8.622  0.00  0.00     0.200 HD
ATOM     34  H   LIG d   1       1.279   0.023  -9.668  0.00  0.00     0.200 HD
ENDBRANCH  22  31
ENDBRANCH   1  22
TORSDOF 7
ENDMDL
MODEL 8
REMARK VINA RESULT:      -4.7      2.092      2.806
REMARK  7 active torsions:
REMARK  status: ('A' for Active; 'I' for Inactive)
REMARK    1  A    between atoms: C_1  and  C_2 
REMARK    2  A    between atoms: C_2  and  C_4 
REMARK    3  A    between atoms: C_2  and  C_14 
REMARK    4  A    between atoms: C_14  and  C_16 
REMARK    5  A    between atoms: C_14  and  N_33 
REMARK    6  A    between atoms: C_16  and  O_18 
REMARK    7  A    between atoms: O_18  and  C_19 
ROOT
ATOM      1  C   LIG d   1       5.998  -1.304  -6.597  0.00  0.00     0.037 C 
ATOM      2  H   LIG d   1       5.034  -1.809  -6.658  0.00  0.00     0.041 H 
ENDROOT
BRANCH   1   3
ATOM      3  C   LIG d   1       7.115  -2.296  -6.925  0.00  0.00    -0.053 C 
ATOM      4  H   LIG d   1       7.768  -1.870  -7.687  0.00  0.00     0.024 H 
ATOM      5  H   LIG d   1       7.696  -2.501  -6.025  0.00  0.00     0.024 H 
ATOM      6  H   LIG d   1       6.680  -3.224  -7.296  0.00  0.00     0.024 H 
ENDBRANCH   1   3
BRANCH   1   7
ATOM      7  C   LIG d   1       6.196  -0.768  -5.202  0.00  0.00    -0.014 A 
ATOM      8  C   LIG d   1       5.159  -0.228  -4.321  0.00  0.00     0.003 A 
ATOM      9  C   LIG d   1       5.813   0.144  -3.132  0.00  0.00     0.047 A 
ATOM     10  C   LIG d   1       3.781  -0.040  -4.446  0.00  0.00    -0.052 A 
ATOM     11  N   LIG d   1       7.147  -0.152  -3.294  0.00  0.00    -0.360 N 
ATOM     12  C   LIG d   1       5.073   0.698  -2.092  0.00  0.00    -0.038 A 
ATOM     13  C   LIG d   1       7.357  -0.694  -4.532  0.00  0.00     0.006 A 
ATOM     14  H   LIG d   1       7.837   0.001  -2.629  0.00  0.00     0.165 HD
ATOM     15  H   LIG d   1       8.315  -1.016  -4.914  0.00  0.00     0.081 H 
ATOM     16  C   LIG d   1       3.715   0.880  -2.239  0.00  0.00    -0.060 A 
ATOM     17  H   LIG d   1       5.563   0.988  -1.174  0.00  0.00     0.064 H 
ATOM     18  C   LIG d   1       3.074   0.505  -3.410  0.00  0.00    -0.061 A 
ATOM     19  H   LIG d   1       3.143   1.314  -1.432  0.00  0.00     0.062 H 
ATOM     20  H   LIG d   1       2.008   0.649  -3.508  0.00  0.00     0.062 H 
ATOM     21  H   LIG d   1       3.275  -0.325  -5.357  0.00  0.00     0.062 H 
ENDBRANCH   1   7
BRANCH   1  22
ATOM     22  C   LIG d   1       6.033  -0.147  -7.597  0.00  0.00     0.081 C 
ATOM     23  H   LIG d   1       6.564  -0.460  -8.497  0.00  0.00     0.097 H 
BRANCH  22  24
ATOM     24  C   LIG d   1       4.623   0.247  -7.958  0.00  0.00     0.356 C 
ATOM     25  O   LIG d   1       3.752  -0.590  -7.988  0.00  0.00    -0.244 OA
BRANCH  24  26
ATOM     26  O   LIG d   1       4.337   1.526  -8.246  0.00  0.00    -0.464 OA
BRANCH  26  27
ATOM     27  C   LIG d   1       2.943   1.850  -8.491  0.00  0.00     0.082 C 
ATOM     28  H   LIG d   1       2.504   1.094  -9.143  0.00  0.00     0.066 H 
ATOM     29  H   LIG d   1       2.402   1.871  -7.545  0.00  0.00     0.066 H 
ATOM     30  H   LIG d   1       2.875   2.826  -8.971  0.00  0.00     0.066 H 
ENDBRANCH  26  27
ENDBRANCH  24  26
ENDBRANCH  22  24
BRANCH  22  31
ATOM     31  N   LIG d   1       6.746   0.991  -6.990  0.00  0.00     0.229 N 
ATOM     32  H   LIG d   1       6.205   1.846  -7.110  0.00  0.00     0.200 HD
ATOM     33  H   LIG d   1       6.894   0.820  -5.998  0.00  0.00     0.200 HD
ATOM     34  H   LIG d   1       7.657   1.102  -7.452  0.00  0.00     0.200 HD
ENDBRANCH  22  31
ENDBRANCH   1  22
TORSDOF 7
ENDMDL
MODEL 9
REMARK VINA RESULT:      -4.7      2.206      2.940
REMARK  7 active torsions:
REMARK  status: ('A' for Active; 'I' for Inactive)
REMARK    1  A    between atoms: C_1  and  C_2 
REMARK    2  A    between atoms: C_2  and  C_4 
REMARK    3  A    between atoms: C_2  and  C_14 
REMARK    4  A    between atoms: C_14  and  C_16 
REMARK    5  A    between atoms: C_14  and  N_33 
REMARK    6  A    between atoms: C_16  and  O_18 
REMARK    7  A    between atoms: O_18  and  C_19 
ROOT
ATOM      1  C   LIG d   1       4.772  -0.783  -7.413  0.00  0.00     0.037 C 
ATOM      2  H   LIG d   1       5.740  -1.170  -7.095  0.00  0.00     0.041 H 
ENDROOT
BRANCH   1   3
ATOM      3  C   LIG d   1       4.973   0.505  -8.213  0.00  0.00    -0.053 C 
ATOM      4  H   LIG d   1       6.002   0.553  -8.570  0.00  0.00     0.024 H 
ATOM      5  H   LIG d   1       4.293   0.514  -9.064  0.00  0.00     0.024 H 
ATOM      6  H   LIG d   1       4.769   1.364  -7.575  0.00  0.00     0.024 H 
ENDBRANCH   1   3
BRANCH   1   7
ATOM      7  C   LIG d   1       3.924  -0.495  -6.200  0.00  0.00    -0.014 A 
ATOM      8  C   LIG d   1       4.225  -0.870  -4.818  0.00  0.00     0.003 A 
ATOM      9  C   LIG d   1       3.153  -0.390  -4.042  0.00  0.00     0.047 A 
ATOM     10  C   LIG d   1       5.280  -1.549  -4.204  0.00  0.00    -0.052 A 
ATOM     11  N   LIG d   1       2.274   0.227  -4.903  0.00  0.00    -0.360 N 
ATOM     12  C   LIG d   1       3.160  -0.601  -2.667  0.00  0.00    -0.038 A 
ATOM     13  C   LIG d   1       2.749   0.155  -6.183  0.00  0.00     0.006 A 
ATOM     14  H   LIG d   1       1.442   0.650  -4.640  0.00  0.00     0.165 HD
ATOM     15  H   LIG d   1       2.253   0.562  -7.053  0.00  0.00     0.081 H 
ATOM     16  C   LIG d   1       4.208  -1.278  -2.083  0.00  0.00    -0.060 A 
ATOM     17  H   LIG d   1       2.343  -0.238  -2.060  0.00  0.00     0.064 H 
ATOM     18  C   LIG d   1       5.266  -1.743  -2.851  0.00  0.00    -0.061 A 
ATOM     19  H   LIG d   1       4.209  -1.444  -1.015  0.00  0.00     0.062 H 
ATOM     20  H   LIG d   1       6.082  -2.268  -2.377  0.00  0.00     0.062 H 
ATOM     21  H   LIG d   1       6.105  -1.918  -4.796  0.00  0.00     0.062 H 
ENDBRANCH   1   7
BRANCH   1  22
ATOM     22  C   LIG d   1       4.071  -1.824  -8.289  0.00  0.00     0.081 C 
ATOM     23  H   LIG d   1       3.101  -1.439  -8.605  0.00  0.00     0.097 H 
BRANCH  22  24
ATOM     24  C   LIG d   1       4.917  -2.110  -9.503  0.00  0.00     0.356 C 
ATOM     25  O   LIG d   1       6.016  -2.596  -9.371  0.00  0.00    -0.244 OA
BRANCH  24  26
ATOM     26  O   LIG d   1       4.451  -1.826 -10.729  0.00  0.00    -0.464 OA
BRANCH  26  27
ATOM     27  C   LIG d   1       3.045  -1.478 -10.834  0.00  0.00     0.082 C 
ATOM     28  H   LIG d   1       2.440  -2.274 -10.398  0.00  0.00     0.066 H 
ATOM     29  H   LIG d   1       2.859  -0.547 -10.298  0.00  0.00     0.066 H 
ATOM     30  H   LIG d   1       2.778  -1.353 -11.883  0.00  0.00     0.066 H 
ENDBRANCH  26  27
ENDBRANCH  24  26
ENDBRANCH  22  24
BRANCH  22  31
ATOM     31  N   LIG d   1       3.866  -3.053  -7.503  0.00  0.00     0.229 N 
ATOM     32  H   LIG d   1       4.756  -3.384  -7.133  0.00  0.00     0.200 HD
ATOM     33  H   LIG d   1       3.225  -2.872  -6.732  0.00  0.00     0.200 HD
ATOM     34  H   LIG d   1       3.464  -3.778  -8.110  0.00  0.00     0.200 HD
ENDBRANCH  22  31
ENDBRANCH   1  22
TORSDOF 7
ENDMDL
MODEL 10
REMARK VINA RESULT:      -4.6      3.414      5.053
REMARK  7 active torsions:
REMARK  status: ('A' for Active; 'I' for Inactive)
REMARK    1  A    between atoms: C_1  and  C_2 
REMARK    2  A    between atoms: C_2  and  C_4 
REMARK    3  A    between atoms: C_2  and  C_14 
REMARK    4  A    between atoms: C_14  and  C_16 
REMARK    5  A    between atoms: C_14  and  N_33 
REMARK    6  A    between atoms: C_16  and  O_18 
REMARK    7  A    between atoms: O_18  and  C_19 
ROOT
ATOM      1  C   LIG d   1       5.196  -0.965  -2.703  0.00  0.00     0.037 C 
ATOM      2  H   LIG d   1       5.635  -0.604  -1.772  0.00  0.00     0.041 H 
ENDROOT
BRANCH   1   3
ATOM      3  C   LIG d   1       3.866  -1.660  -2.404  0.00  0.00    -0.053 C 
ATOM      4  H   LIG d   1       3.833  -2.618  -2.922  0.00  0.00     0.024 H 
ATOM      5  H   LIG d   1       3.776  -1.825  -1.330  0.00  0.00     0.024 H 
ATOM      6  H   LIG d   1       3.044  -1.032  -2.746  0.00  0.00     0.024 H 
ENDBRANCH   1   3
BRANCH   1   7
ATOM      7  C   LIG d   1       6.139  -1.943  -3.356  0.00  0.00    -0.014 A 
ATOM      8  C   LIG d   1       5.801  -2.919  -4.393  0.00  0.00     0.003 A 
ATOM      9  C   LIG d   1       6.995  -3.602  -4.689  0.00  0.00     0.047 A 
ATOM     10  C   LIG d   1       4.623  -3.252  -5.065  0.00  0.00    -0.052 A 
ATOM     11  N   LIG d   1       7.977  -3.070  -3.884  0.00  0.00    -0.360 N 
ATOM     12  C   LIG d   1       6.986  -4.605  -5.653  0.00  0.00    -0.038 A 
ATOM     13  C   LIG d   1       7.449  -2.083  -3.097  0.00  0.00     0.006 A 
ATOM     14  H   LIG d   1       8.905  -3.352  -3.875  0.00  0.00     0.165 HD
ATOM     15  H   LIG d   1       8.004  -1.503  -2.374  0.00  0.00     0.081 H 
ATOM     16  C   LIG d   1       5.811  -4.921  -6.300  0.00  0.00    -0.060 A 
ATOM     17  H   LIG d   1       7.896  -5.137  -5.889  0.00  0.00     0.064 H 
ATOM     18  C   LIG d   1       4.638  -4.241  -6.009  0.00  0.00    -0.061 A 
ATOM     19  H   LIG d   1       5.805  -5.704  -7.045  0.00  0.00     0.062 H 
ATOM     20  H   LIG d   1       3.726  -4.498  -6.529  0.00  0.00     0.062 H 
ATOM     21  H   LIG d   1       3.705  -2.730  -4.841  0.00  0.00     0.062 H 
ENDBRANCH   1   7
BRANCH   1  22
ATOM     22  C   LIG d   1       4.954   0.217  -3.644  0.00  0.00     0.081 C 
ATOM     23  H   LIG d   1       4.830  -0.150  -4.663  0.00  0.00     0.097 H 
BRANCH  22  24
ATOM     24  C   LIG d   1       3.708   0.950  -3.220  0.00  0.00     0.356 C 
ATOM     25  O   LIG d   1       3.579   1.307  -2.072  0.00  0.00    -0.244 OA
BRANCH  24  26
ATOM     26  O   LIG d   1       2.741   1.206  -4.116  0.00  0.00    -0.464 OA
BRANCH  26  27
ATOM     27  C   LIG d   1       2.716   0.381  -5.311  0.00  0.00     0.082 C 
ATOM     28  H   LIG d   1       3.731   0.257  -5.689  0.00  0.00     0.066 H 
ATOM     29  H   LIG d   1       2.298  -0.596  -5.069  0.00  0.00     0.066 H 
ATOM     30  H   LIG d   1       2.102   0.861  -6.072  0.00  0.00     0.066 H 
ENDBRANCH  26  27
ENDBRANCH  24  26
ENDBRANCH  22  24
BRANCH  22  31
ATOM     31  N   LIG d   1       6.121   1.115  -3.596  0.00  0.00     0.229 N 
ATOM     32  H   LIG d   1       6.429   1.237  -2.632  0.00  0.00     0.200 HD
ATOM     33  H   LIG d   1       6.883   0.727  -4.148  0.00  0.00     0.200 HD
ATOM     34  H   LIG d   1       5.858   2.030  -3.983  0.00  0.00     0.200 HD
ENDBRANCH  22  31
ENDBRANCH   1  22
TORSDOF 7
ENDMDL
