MODEL 1
REMARK VINA RESULT:      -7.2      0.000      0.000
REMARK  3 active torsions:
REMARK  status: ('A' for Active; 'I' for Inactive)
REMARK    1  A    between atoms: C_1  and  O_2 
REMARK    2  A    between atoms: O_2  and  C_3 
REMARK    3  A    between atoms: C_28  and  C_30 
ROOT
ATOM      1  C   LIG d   1       2.748  -1.382 -10.432  0.00  0.00     0.121 A 
ATOM      2  C   LIG d   1       2.061  -0.523  -9.586  0.00  0.00    -0.018 A 
ATOM      3  C   LIG d   1       2.462  -0.399  -8.269  0.00  0.00    -0.036 A 
ATOM      4  C   LIG d   1       3.541  -1.130  -7.805  0.00  0.00     0.043 A 
ATOM      5  C   LIG d   1       4.236  -1.996  -8.643  0.00  0.00     0.006 A 
ATOM      6  C   LIG d   1       3.827  -2.112  -9.964  0.00  0.00    -0.013 A 
ATOM      7  C   LIG d   1       5.406  -2.818  -8.182  0.00  0.00     0.090 C 
ATOM      8  H   LIG d   1       5.177  -3.879  -8.290  0.00  0.00     0.065 H 
ATOM      9  C   LIG d   1       5.853  -2.528  -6.737  0.00  0.00     0.014 C 
ATOM     10  H   LIG d   1       6.431  -3.360  -6.334  0.00  0.00     0.035 H 
ATOM     11  C   LIG d   1       6.743  -1.279  -6.927  0.00  0.00    -0.022 C 
ATOM     12  C   LIG d   1       7.377  -1.540  -8.311  0.00  0.00     0.049 C 
ATOM     13  O   LIG d   1       6.545  -2.482  -8.997  0.00  0.00    -0.372 OA
ATOM     14  C   LIG d   1       4.663  -2.210  -5.858  0.00  0.00     0.070 C 
ATOM     15  H   LIG d   1       3.982  -3.060  -5.839  0.00  0.00     0.054 H 
ATOM     16  N   LIG d   1       3.980  -1.030  -6.487  0.00  0.00    -0.264 N 
ATOM     17  C   LIG d   1       3.967   0.019  -5.625  0.00  0.00     0.227 C 
ATOM     18  O   LIG d   1       3.188   0.948  -5.601  0.00  0.00    -0.275 OA
ATOM     19  C   LIG d   1       5.113  -0.221  -4.727  0.00  0.00     0.081 C 
ATOM     20  H   LIG d   1       6.031  -0.076  -5.298  0.00  0.00     0.043 H 
ATOM     21  C   LIG d   1       4.940  -1.770  -4.468  0.00  0.00     0.119 C 
ATOM     22  C   LIG d   1       3.744  -1.973  -3.549  0.00  0.00    -0.051 C 
ATOM     23  C   LIG d   1       4.131  -1.577  -2.348  0.00  0.00    -0.056 C 
ATOM     24  C   LIG d   1       5.564  -1.065  -2.544  0.00  0.00     0.087 C 
ATOM     25  H   LIG d   1       6.188  -0.997  -1.653  0.00  0.00     0.065 H 
ATOM     26  C   LIG d   1       5.326   0.284  -3.329  0.00  0.00     0.043 C 
ATOM     27  H   LIG d   1       6.203   0.929  -3.275  0.00  0.00     0.040 H 
ATOM     28  O   LIG d   1       6.050  -1.972  -3.619  0.00  0.00    -0.359 OA
ATOM     29  H   LIG d   1       1.219   0.045  -9.954  0.00  0.00     0.066 H 
ATOM     30  H   LIG d   1       1.934   0.267  -7.603  0.00  0.00     0.064 H 
ATOM     31  H   LIG d   1       4.353  -2.777 -10.632  0.00  0.00     0.066 H 
ATOM     32  H   LIG d   1       7.509  -1.226  -6.152  0.00  0.00     0.029 H 
ATOM     33  H   LIG d   1       6.142  -0.370  -6.939  0.00  0.00     0.029 H 
ATOM     34  H   LIG d   1       8.379  -1.952  -8.187  0.00  0.00     0.056 H 
ATOM     35  H   LIG d   1       7.428  -0.610  -8.877  0.00  0.00     0.056 H 
ATOM     36  H   LIG d   1       2.774  -2.363  -3.822  0.00  0.00     0.060 H 
ATOM     37  H   LIG d   1       3.563  -1.607  -1.430  0.00  0.00     0.060 H 
ENDROOT
BRANCH   1  38
ATOM     38  O   LIG d   1       2.358  -1.507 -11.728  0.00  0.00    -0.495 OA
BRANCH  38  39
ATOM     39  C   LIG d   1       0.954  -1.471 -11.991  0.00  0.00     0.079 C 
ATOM     40  H   LIG d   1       0.718  -0.585 -12.581  0.00  0.00     0.066 H 
ATOM     41  H   LIG d   1       0.664  -2.363 -12.545  0.00  0.00     0.066 H 
ATOM     42  H   LIG d   1       0.408  -1.434 -11.048  0.00  0.00     0.066 H 
ENDBRANCH  38  39
ENDBRANCH   1  38
BRANCH  26  43
ATOM     43  C   LIG d   1       4.101   0.999  -2.819  0.00  0.00     0.048 C 
ATOM     44  O   LIG d   1       3.413   0.487  -1.968  0.00  0.00    -0.549 OA
ATOM     45  O   LIG d   1       3.773   2.204  -3.310  0.00  0.00    -0.549 OA
ENDBRANCH  26  43
TORSDOF 3
ENDMDL
MODEL 2
REMARK VINA RESULT:      -7.2      3.427      4.359
REMARK  3 active torsions:
REMARK  status: ('A' for Active; 'I' for Inactive)
REMARK    1  A    between atoms: C_1  and  O_2 
REMARK    2  A    between atoms: O_2  and  C_3 
REMARK    3  A    between atoms: C_28  and  C_30 
ROOT
ATOM      1  C   LIG d   1       9.454   0.175  -7.982  0.00  0.00     0.121 A 
ATOM      2  C   LIG d   1       8.969   1.245  -7.244  0.00  0.00    -0.018 A 
ATOM      3  C   LIG d   1       7.972   1.032  -6.310  0.00  0.00    -0.036 A 
ATOM      4  C   LIG d   1       7.468  -0.242  -6.118  0.00  0.00     0.043 A 
ATOM      5  C   LIG d   1       7.944  -1.323  -6.854  0.00  0.00     0.006 A 
ATOM      6  C   LIG d   1       8.946  -1.098  -7.788  0.00  0.00    -0.013 A 
ATOM      7  C   LIG d   1       7.420  -2.721  -6.689  0.00  0.00     0.090 C 
ATOM      8  H   LIG d   1       6.981  -3.063  -7.626  0.00  0.00     0.065 H 
ATOM      9  C   LIG d   1       6.400  -2.883  -5.547  0.00  0.00     0.014 C 
ATOM     10  H   LIG d   1       5.795  -3.778  -5.691  0.00  0.00     0.035 H 
ATOM     11  C   LIG d   1       7.323  -3.032  -4.317  0.00  0.00    -0.022 C 
ATOM     12  C   LIG d   1       8.534  -3.784  -4.910  0.00  0.00     0.049 C 
ATOM     13  O   LIG d   1       8.521  -3.577  -6.327  0.00  0.00    -0.372 OA
ATOM     14  C   LIG d   1       5.532  -1.649  -5.420  0.00  0.00     0.070 C 
ATOM     15  H   LIG d   1       4.982  -1.489  -6.348  0.00  0.00     0.054 H 
ATOM     16  N   LIG d   1       6.468  -0.500  -5.183  0.00  0.00    -0.264 N 
ATOM     17  C   LIG d   1       6.199   0.085  -3.989  0.00  0.00     0.227 C 
ATOM     18  O   LIG d   1       6.436   1.226  -3.653  0.00  0.00    -0.275 OA
ATOM     19  C   LIG d   1       5.558  -0.976  -3.189  0.00  0.00     0.081 C 
ATOM     20  H   LIG d   1       6.312  -1.724  -2.946  0.00  0.00     0.043 H 
ATOM     21  C   LIG d   1       4.590  -1.593  -4.275  0.00  0.00     0.119 C 
ATOM     22  C   LIG d   1       3.449  -0.614  -4.513  0.00  0.00    -0.051 C 
ATOM     23  C   LIG d   1       2.674  -0.685  -3.444  0.00  0.00    -0.056 C 
ATOM     24  C   LIG d   1       3.382  -1.673  -2.508  0.00  0.00     0.087 C 
ATOM     25  H   LIG d   1       2.776  -2.130  -1.726  0.00  0.00     0.065 H 
ATOM     26  C   LIG d   1       4.625  -0.830  -2.020  0.00  0.00     0.043 C 
ATOM     27  H   LIG d   1       5.059  -1.259  -1.117  0.00  0.00     0.040 H 
ATOM     28  O   LIG d   1       4.000  -2.606  -3.488  0.00  0.00    -0.359 OA
ATOM     29  H   LIG d   1       9.366   2.238  -7.399  0.00  0.00     0.066 H 
ATOM     30  H   LIG d   1       7.589   1.858  -5.730  0.00  0.00     0.064 H 
ATOM     31  H   LIG d   1       9.332  -1.922  -8.369  0.00  0.00     0.066 H 
ATOM     32  H   LIG d   1       6.840  -3.623  -3.538  0.00  0.00     0.029 H 
ATOM     33  H   LIG d   1       7.619  -2.056  -3.932  0.00  0.00     0.029 H 
ATOM     34  H   LIG d   1       8.453  -4.848  -4.690  0.00  0.00     0.056 H 
ATOM     35  H   LIG d   1       9.459  -3.389  -4.488  0.00  0.00     0.056 H 
ATOM     36  H   LIG d   1       3.301   0.012  -5.382  0.00  0.00     0.060 H 
ATOM     37  H   LIG d   1       1.746  -0.162  -3.267  0.00  0.00     0.060 H 
ENDROOT
BRANCH   1  38
ATOM     38  O   LIG d   1      10.434   0.379  -8.902  0.00  0.00    -0.495 OA
BRANCH  38  39
ATOM     39  C   LIG d   1      10.629   1.719  -9.357  0.00  0.00     0.079 C 
ATOM     40  H   LIG d   1      11.621   2.062  -9.063  0.00  0.00     0.066 H 
ATOM     41  H   LIG d   1      10.542   1.751 -10.443  0.00  0.00     0.066 H 
ATOM     42  H   LIG d   1       9.875   2.368  -8.913  0.00  0.00     0.066 H 
ENDBRANCH  38  39
ENDBRANCH   1  38
BRANCH  26  43
ATOM     43  C   LIG d   1       4.250   0.613  -1.803  0.00  0.00     0.048 C 
ATOM     44  O   LIG d   1       4.979   1.337  -1.167  0.00  0.00    -0.549 OA
ATOM     45  O   LIG d   1       3.107   1.095  -2.315  0.00  0.00    -0.549 OA
ENDBRANCH  26  43
TORSDOF 3
ENDMDL
MODEL 3
REMARK VINA RESULT:      -6.3     10.539     12.600
REMARK  3 active torsions:
REMARK  status: ('A' for Active; 'I' for Inactive)
REMARK    1  A    between atoms: C_1  and  O_2 
REMARK    2  A    between atoms: O_2  and  C_3 
REMARK    3  A    between atoms: C_28  and  C_30 
ROOT
ATOM      1  C   LIG d   1       9.241   8.340  -7.008  0.00  0.00     0.121 A 
ATOM      2  C   LIG d   1       9.465   7.162  -6.311  0.00  0.00    -0.018 A 
ATOM      3  C   LIG d   1       9.946   7.217  -5.016  0.00  0.00    -0.036 A 
ATOM      4  C   LIG d   1      10.198   8.442  -4.426  0.00  0.00     0.043 A 
ATOM      5  C   LIG d   1       9.979   9.631  -5.115  0.00  0.00     0.006 A 
ATOM      6  C   LIG d   1       9.495   9.565  -6.413  0.00  0.00    -0.013 A 
ATOM      7  C   LIG d   1      10.249  10.984  -4.520  0.00  0.00     0.090 C 
ATOM      8  H   LIG d   1      11.010  11.499  -5.106  0.00  0.00     0.065 H 
ATOM      9  C   LIG d   1      10.668  10.951  -3.038  0.00  0.00     0.014 C 
ATOM     10  H   LIG d   1      11.190  11.867  -2.762  0.00  0.00     0.035 H 
ATOM     11  C   LIG d   1       9.301  10.857  -2.325  0.00  0.00    -0.022 C 
ATOM     12  C   LIG d   1       8.391  11.684  -3.259  0.00  0.00     0.049 C 
ATOM     13  O   LIG d   1       9.024  11.741  -4.542  0.00  0.00    -0.372 OA
ATOM     14  C   LIG d   1      11.513   9.730  -2.743  0.00  0.00     0.070 C 
ATOM     15  H   LIG d   1      12.416   9.751  -3.353  0.00  0.00     0.054 H 
ATOM     16  N   LIG d   1      10.678   8.541  -3.122  0.00  0.00    -0.264 N 
ATOM     17  C   LIG d   1      10.468   7.752  -2.038  0.00  0.00     0.227 C 
ATOM     18  O   LIG d   1      10.220   6.564  -2.023  0.00  0.00    -0.275 OA
ATOM     19  C   LIG d   1      10.606   8.659  -0.882  0.00  0.00     0.081 C 
ATOM     20  H   LIG d   1       9.753   9.337  -0.877  0.00  0.00     0.043 H 
ATOM     21  C   LIG d   1      11.880   9.480  -1.328  0.00  0.00     0.119 C 
ATOM     22  C   LIG d   1      13.101   8.581  -1.197  0.00  0.00    -0.051 C 
ATOM     23  C   LIG d   1      13.338   8.468   0.099  0.00  0.00    -0.056 C 
ATOM     24  C   LIG d   1      12.210   9.255   0.776  0.00  0.00     0.087 C 
ATOM     25  H   LIG d   1      12.381   9.571   1.805  0.00  0.00     0.065 H 
ATOM     26  C   LIG d   1      10.964   8.317   0.536  0.00  0.00     0.043 C 
ATOM     27  H   LIG d   1      10.148   8.566   1.216  0.00  0.00     0.040 H 
ATOM     28  O   LIG d   1      11.981  10.342  -0.213  0.00  0.00    -0.359 OA
ATOM     29  H   LIG d   1       9.267   6.208  -6.777  0.00  0.00     0.066 H 
ATOM     30  H   LIG d   1      10.123   6.305  -4.466  0.00  0.00     0.064 H 
ATOM     31  H   LIG d   1       9.316  10.475  -6.966  0.00  0.00     0.066 H 
ATOM     32  H   LIG d   1       9.349  11.303  -1.331  0.00  0.00     0.029 H 
ATOM     33  H   LIG d   1       8.963   9.822  -2.267  0.00  0.00     0.029 H 
ATOM     34  H   LIG d   1       8.270  12.691  -2.860  0.00  0.00     0.056 H 
ATOM     35  H   LIG d   1       7.416  11.204  -3.348  0.00  0.00     0.056 H 
ATOM     36  H   LIG d   1      13.662   8.127  -2.002  0.00  0.00     0.060 H 
ATOM     37  H   LIG d   1      14.148   7.936   0.576  0.00  0.00     0.060 H 
ENDROOT
BRANCH   1  38
ATOM     38  O   LIG d   1       8.768   8.292  -8.281  0.00  0.00    -0.495 OA
BRANCH  38  39
ATOM     39  C   LIG d   1       9.112   7.144  -9.059  0.00  0.00     0.079 C 
ATOM     40  H   LIG d   1       8.739   6.246  -8.566  0.00  0.00     0.066 H 
ATOM     41  H   LIG d   1       8.664   7.228 -10.049  0.00  0.00     0.066 H 
ATOM     42  H   LIG d   1      10.196   7.082  -9.155  0.00  0.00     0.066 H 
ENDBRANCH  38  39
ENDBRANCH   1  38
BRANCH  26  43
ATOM     43  C   LIG d   1      11.345   6.864   0.664  0.00  0.00     0.048 C 
ATOM     44  O   LIG d   1      10.516   6.049   0.991  0.00  0.00    -0.549 OA
ATOM     45  O   LIG d   1      12.605   6.476   0.414  0.00  0.00    -0.549 OA
ENDBRANCH  26  43
TORSDOF 3
ENDMDL
MODEL 4
REMARK VINA RESULT:      -6.2      3.614      6.983
REMARK  3 active torsions:
REMARK  status: ('A' for Active; 'I' for Inactive)
REMARK    1  A    between atoms: C_1  and  O_2 
REMARK    2  A    between atoms: O_2  and  C_3 
REMARK    3  A    between atoms: C_28  and  C_30 
ROOT
ATOM      1  C   LIG d   1       5.062  -1.037  -2.680  0.00  0.00     0.121 A 
ATOM      2  C   LIG d   1       4.017  -1.917  -2.920  0.00  0.00    -0.018 A 
ATOM      3  C   LIG d   1       4.195  -2.962  -3.807  0.00  0.00    -0.036 A 
ATOM      4  C   LIG d   1       5.411  -3.122  -4.448  0.00  0.00     0.043 A 
ATOM      5  C   LIG d   1       6.466  -2.245  -4.218  0.00  0.00     0.006 A 
ATOM      6  C   LIG d   1       6.277  -1.201  -3.324  0.00  0.00    -0.013 A 
ATOM      7  C   LIG d   1       7.799  -2.373  -4.899  0.00  0.00     0.090 C 
ATOM      8  H   LIG d   1       7.995  -1.482  -5.496  0.00  0.00     0.065 H 
ATOM      9  C   LIG d   1       7.944  -3.629  -5.777  0.00  0.00     0.014 C 
ATOM     10  H   LIG d   1       8.741  -3.502  -6.509  0.00  0.00     0.035 H 
ATOM     11  C   LIG d   1       8.320  -4.703  -4.732  0.00  0.00    -0.022 C 
ATOM     12  C   LIG d   1       9.154  -3.890  -3.718  0.00  0.00     0.049 C 
ATOM     13  O   LIG d   1       8.813  -2.510  -3.885  0.00  0.00    -0.372 OA
ATOM     14  C   LIG d   1       6.632  -3.971  -6.449  0.00  0.00     0.070 C 
ATOM     15  H   LIG d   1       6.318  -3.145  -7.087  0.00  0.00     0.054 H 
ATOM     16  N   LIG d   1       5.633  -4.164  -5.346  0.00  0.00    -0.264 N 
ATOM     17  C   LIG d   1       5.135  -5.427  -5.378  0.00  0.00     0.227 C 
ATOM     18  O   LIG d   1       4.069  -5.814  -4.951  0.00  0.00    -0.275 OA
ATOM     19  C   LIG d   1       6.182  -6.223  -6.048  0.00  0.00     0.081 C 
ATOM     20  H   LIG d   1       7.036  -6.300  -5.375  0.00  0.00     0.043 H 
ATOM     21  C   LIG d   1       6.570  -5.238  -7.220  0.00  0.00     0.119 C 
ATOM     22  C   LIG d   1       5.442  -5.238  -8.242  0.00  0.00    -0.051 C 
ATOM     23  C   LIG d   1       5.519  -6.396  -8.875  0.00  0.00    -0.056 C 
ATOM     24  C   LIG d   1       6.670  -7.144  -8.191  0.00  0.00     0.087 C 
ATOM     25  H   LIG d   1       7.122  -7.965  -8.747  0.00  0.00     0.065 H 
ATOM     26  C   LIG d   1       6.035  -7.518  -6.795  0.00  0.00     0.043 C 
ATOM     27  H   LIG d   1       6.598  -8.315  -6.309  0.00  0.00     0.040 H 
ATOM     28  O   LIG d   1       7.574  -6.018  -7.834  0.00  0.00    -0.359 OA
ATOM     29  H   LIG d   1       3.070  -1.786  -2.417  0.00  0.00     0.066 H 
ATOM     30  H   LIG d   1       3.387  -3.652  -4.000  0.00  0.00     0.064 H 
ATOM     31  H   LIG d   1       7.083  -0.509  -3.129  0.00  0.00     0.066 H 
ATOM     32  H   LIG d   1       8.920  -5.493  -5.185  0.00  0.00     0.029 H 
ATOM     33  H   LIG d   1       7.429  -5.117  -4.261  0.00  0.00     0.029 H 
ATOM     34  H   LIG d   1      10.217  -4.036  -3.911  0.00  0.00     0.056 H 
ATOM     35  H   LIG d   1       8.917  -4.209  -2.702  0.00  0.00     0.056 H 
ATOM     36  H   LIG d   1       4.723  -4.450  -8.415  0.00  0.00     0.060 H 
ATOM     37  H   LIG d   1       4.906  -6.740  -9.695  0.00  0.00     0.060 H 
ENDROOT
BRANCH   1  38
ATOM     38  O   LIG d   1       4.893  -0.009  -1.808  0.00  0.00    -0.495 OA
BRANCH  38  39
ATOM     39  C   LIG d   1       3.944   0.997  -2.167  0.00  0.00     0.079 C 
ATOM     40  H   LIG d   1       4.093   1.877  -1.541  0.00  0.00     0.066 H 
ATOM     41  H   LIG d   1       4.080   1.270  -3.213  0.00  0.00     0.066 H 
ATOM     42  H   LIG d   1       2.934   0.614  -2.019  0.00  0.00     0.066 H 
ENDBRANCH  38  39
ENDBRANCH   1  38
BRANCH  26  43
ATOM     43  C   LIG d   1       4.584  -7.897  -6.943  0.00  0.00     0.048 C 
ATOM     44  O   LIG d   1       4.087  -8.692  -6.181  0.00  0.00    -0.549 OA
ATOM     45  O   LIG d   1       3.844  -7.352  -7.920  0.00  0.00    -0.549 OA
ENDBRANCH  26  43
TORSDOF 3
ENDMDL
MODEL 5
REMARK VINA RESULT:      -6.2      3.568      4.927
REMARK  3 active torsions:
REMARK  status: ('A' for Active; 'I' for Inactive)
REMARK    1  A    between atoms: C_1  and  O_2 
REMARK    2  A    between atoms: O_2  and  C_3 
REMARK    3  A    between atoms: C_28  and  C_30 
ROOT
ATOM      1  C   LIG d   1       6.947  -6.666  -5.877  0.00  0.00     0.121 A 
ATOM      2  C   LIG d   1       5.593  -6.373  -5.803  0.00  0.00    -0.018 A 
ATOM      3  C   LIG d   1       5.188  -5.141  -5.325  0.00  0.00    -0.036 A 
ATOM      4  C   LIG d   1       6.132  -4.212  -4.925  0.00  0.00     0.043 A 
ATOM      5  C   LIG d   1       7.493  -4.495  -4.992  0.00  0.00     0.006 A 
ATOM      6  C   LIG d   1       7.889  -5.734  -5.475  0.00  0.00    -0.013 A 
ATOM      7  C   LIG d   1       8.554  -3.524  -4.559  0.00  0.00     0.090 C 
ATOM      8  H   LIG d   1       9.131  -3.950  -3.737  0.00  0.00     0.065 H 
ATOM      9  C   LIG d   1       8.016  -2.139  -4.153  0.00  0.00     0.014 C 
ATOM     10  H   LIG d   1       8.734  -1.613  -3.523  0.00  0.00     0.035 H 
ATOM     11  C   LIG d   1       7.870  -1.442  -5.524  0.00  0.00    -0.022 C 
ATOM     12  C   LIG d   1       9.047  -2.046  -6.321  0.00  0.00     0.049 C 
ATOM     13  O   LIG d   1       9.421  -3.270  -5.681  0.00  0.00    -0.372 OA
ATOM     14  C   LIG d   1       6.672  -2.262  -3.467  0.00  0.00     0.070 C 
ATOM     15  H   LIG d   1       6.773  -2.866  -2.565  0.00  0.00     0.054 H 
ATOM     16  N   LIG d   1       5.766  -2.958  -4.441  0.00  0.00    -0.264 N 
ATOM     17  C   LIG d   1       4.712  -2.162  -4.752  0.00  0.00     0.227 C 
ATOM     18  O   LIG d   1       3.616  -2.503  -5.145  0.00  0.00    -0.275 OA
ATOM     19  C   LIG d   1       5.195  -0.789  -4.507  0.00  0.00     0.081 C 
ATOM     20  H   LIG d   1       5.935  -0.546  -5.270  0.00  0.00     0.043 H 
ATOM     21  C   LIG d   1       5.955  -1.005  -3.139  0.00  0.00     0.119 C 
ATOM     22  C   LIG d   1       4.922  -1.199  -2.039  0.00  0.00    -0.051 C 
ATOM     23  C   LIG d   1       4.387  -0.009  -1.824  0.00  0.00    -0.056 C 
ATOM     24  C   LIG d   1       5.055   0.916  -2.848  0.00  0.00     0.087 C 
ATOM     25  H   LIG d   1       5.015   1.986  -2.644  0.00  0.00     0.065 H 
ATOM     26  C   LIG d   1       4.392   0.443  -4.200  0.00  0.00     0.043 C 
ATOM     27  H   LIG d   1       4.515   1.194  -4.981  0.00  0.00     0.040 H 
ATOM     28  O   LIG d   1       6.413   0.316  -2.937  0.00  0.00    -0.359 OA
ATOM     29  H   LIG d   1       4.860  -7.102  -6.116  0.00  0.00     0.066 H 
ATOM     30  H   LIG d   1       4.137  -4.903  -5.264  0.00  0.00     0.064 H 
ATOM     31  H   LIG d   1       8.939  -5.975  -5.538  0.00  0.00     0.066 H 
ATOM     32  H   LIG d   1       7.979  -0.362  -5.425  0.00  0.00     0.029 H 
ATOM     33  H   LIG d   1       6.916  -1.693  -5.988  0.00  0.00     0.029 H 
ATOM     34  H   LIG d   1       9.889  -1.354  -6.318  0.00  0.00     0.056 H 
ATOM     35  H   LIG d   1       8.737  -2.244  -7.347  0.00  0.00     0.056 H 
ATOM     36  H   LIG d   1       4.675  -2.122  -1.536  0.00  0.00     0.060 H 
ATOM     37  H   LIG d   1       3.642   0.254  -1.087  0.00  0.00     0.060 H 
ENDROOT
BRANCH   1  38
ATOM     38  O   LIG d   1       7.351  -7.876  -6.347  0.00  0.00    -0.495 OA
BRANCH  38  39
ATOM     39  C   LIG d   1       7.420  -8.948  -5.405  0.00  0.00     0.079 C 
ATOM     40  H   LIG d   1       6.764  -8.734  -4.562  0.00  0.00     0.066 H 
ATOM     41  H   LIG d   1       7.103  -9.874  -5.884  0.00  0.00     0.066 H 
ATOM     42  H   LIG d   1       8.445  -9.055  -5.050  0.00  0.00     0.066 H 
ENDBRANCH  38  39
ENDBRANCH   1  38
BRANCH  26  43
ATOM     43  C   LIG d   1       2.936   0.106  -4.002  0.00  0.00     0.048 C 
ATOM     44  O   LIG d   1       2.138   0.337  -4.879  0.00  0.00    -0.549 OA
ATOM     45  O   LIG d   1       2.526  -0.452  -2.852  0.00  0.00    -0.549 OA
ENDBRANCH  26  43
TORSDOF 3
ENDMDL
MODEL 6
REMARK VINA RESULT:      -6.1      2.535      5.866
REMARK  3 active torsions:
REMARK  status: ('A' for Active; 'I' for Inactive)
REMARK    1  A    between atoms: C_1  and  O_2 
REMARK    2  A    between atoms: O_2  and  C_3 
REMARK    3  A    between atoms: C_28  and  C_30 
ROOT
ATOM      1  C   LIG d   1       4.514  -5.869  -5.945  0.00  0.00     0.121 A 
ATOM      2  C   LIG d   1       4.051  -5.819  -7.251  0.00  0.00    -0.018 A 
ATOM      3  C   LIG d   1       3.971  -4.600  -7.900  0.00  0.00    -0.036 A 
ATOM      4  C   LIG d   1       4.353  -3.444  -7.243  0.00  0.00     0.043 A 
ATOM      5  C   LIG d   1       4.816  -3.481  -5.932  0.00  0.00     0.006 A 
ATOM      6  C   LIG d   1       4.894  -4.709  -5.291  0.00  0.00    -0.013 A 
ATOM      7  C   LIG d   1       5.231  -2.251  -5.175  0.00  0.00     0.090 C 
ATOM      8  H   LIG d   1       4.595  -2.126  -4.298  0.00  0.00     0.065 H 
ATOM      9  C   LIG d   1       5.221  -0.959  -6.013  0.00  0.00     0.014 C 
ATOM     10  H   LIG d   1       5.167  -0.080  -5.371  0.00  0.00     0.035 H 
ATOM     11  C   LIG d   1       6.587  -1.037  -6.730  0.00  0.00    -0.022 C 
ATOM     12  C   LIG d   1       7.471  -1.729  -5.669  0.00  0.00     0.049 C 
ATOM     13  O   LIG d   1       6.601  -2.414  -4.762  0.00  0.00    -0.372 OA
ATOM     14  C   LIG d   1       4.087  -0.975  -7.016  0.00  0.00     0.070 C 
ATOM     15  H   LIG d   1       3.133  -1.049  -6.492  0.00  0.00     0.054 H 
ATOM     16  N   LIG d   1       4.293  -2.197  -7.862  0.00  0.00    -0.264 N 
ATOM     17  C   LIG d   1       4.461  -1.844  -9.162  0.00  0.00     0.227 C 
ATOM     18  O   LIG d   1       4.243  -2.518 -10.147  0.00  0.00    -0.275 OA
ATOM     19  C   LIG d   1       4.969  -0.460  -9.110  0.00  0.00     0.081 C 
ATOM     20  H   LIG d   1       5.985  -0.484  -8.716  0.00  0.00     0.043 H 
ATOM     21  C   LIG d   1       4.025   0.139  -7.994  0.00  0.00     0.119 C 
ATOM     22  C   LIG d   1       2.633   0.313  -8.584  0.00  0.00    -0.051 C 
ATOM     23  C   LIG d   1       2.709   1.347  -9.405  0.00  0.00    -0.056 C 
ATOM     24  C   LIG d   1       4.182   1.775  -9.367  0.00  0.00     0.087 C 
ATOM     25  H   LIG d   1       4.408   2.787  -9.702  0.00  0.00     0.065 H 
ATOM     26  C   LIG d   1       4.883   0.607 -10.164  0.00  0.00     0.043 C 
ATOM     27  H   LIG d   1       5.876   0.904 -10.502  0.00  0.00     0.040 H 
ATOM     28  O   LIG d   1       4.539   1.453  -7.959  0.00  0.00    -0.359 OA
ATOM     29  H   LIG d   1       3.754  -6.725  -7.759  0.00  0.00     0.066 H 
ATOM     30  H   LIG d   1       3.613  -4.551  -8.917  0.00  0.00     0.064 H 
ATOM     31  H   LIG d   1       5.252  -4.762  -4.274  0.00  0.00     0.066 H 
ATOM     32  H   LIG d   1       6.963  -0.039  -6.960  0.00  0.00     0.029 H 
ATOM     33  H   LIG d   1       6.518  -1.641  -7.635  0.00  0.00     0.029 H 
ATOM     34  H   LIG d   1       8.055  -0.983  -5.131  0.00  0.00     0.056 H 
ATOM     35  H   LIG d   1       8.138  -2.443  -6.152  0.00  0.00     0.056 H 
ATOM     36  H   LIG d   1       1.759  -0.286  -8.374  0.00  0.00     0.060 H 
ATOM     37  H   LIG d   1       1.909   1.793  -9.977  0.00  0.00     0.060 H 
ENDROOT
BRANCH   1  38
ATOM     38  O   LIG d   1       4.594  -7.064  -5.302  0.00  0.00    -0.495 OA
BRANCH  38  39
ATOM     39  C   LIG d   1       4.790  -8.225  -6.112  0.00  0.00     0.079 C 
ATOM     40  H   LIG d   1       4.194  -8.138  -7.021  0.00  0.00     0.066 H 
ATOM     41  H   LIG d   1       5.844  -8.310  -6.378  0.00  0.00     0.066 H 
ATOM     42  H   LIG d   1       4.482  -9.111  -5.559  0.00  0.00     0.066 H 
ENDBRANCH  38  39
ENDBRANCH   1  38
BRANCH  26  43
ATOM     43  C   LIG d   1       4.033   0.155 -11.324  0.00  0.00     0.048 C 
ATOM     44  O   LIG d   1       4.549  -0.106 -12.385  0.00  0.00    -0.549 OA
ATOM     45  O   LIG d   1       2.704   0.042 -11.180  0.00  0.00    -0.549 OA
ENDBRANCH  26  43
TORSDOF 3
ENDMDL
MODEL 7
REMARK VINA RESULT:      -6.1      3.653      5.773
REMARK  3 active torsions:
REMARK  status: ('A' for Active; 'I' for Inactive)
REMARK    1  A    between atoms: C_1  and  O_2 
REMARK    2  A    between atoms: O_2  and  C_3 
REMARK    3  A    between atoms: C_28  and  C_30 
ROOT
ATOM      1  C   LIG d   1      10.342   3.110  -6.044  0.00  0.00     0.121 A 
ATOM      2  C   LIG d   1       9.404   3.612  -5.153  0.00  0.00    -0.018 A 
ATOM      3  C   LIG d   1       8.360   2.807  -4.738  0.00  0.00    -0.036 A 
ATOM      4  C   LIG d   1       8.257   1.511  -5.212  0.00  0.00     0.043 A 
ATOM      5  C   LIG d   1       9.189   0.997  -6.108  0.00  0.00     0.006 A 
ATOM      6  C   LIG d   1      10.234   1.813  -6.517  0.00  0.00    -0.013 A 
ATOM      7  C   LIG d   1       9.112  -0.398  -6.659  0.00  0.00     0.090 C 
ATOM      8  H   LIG d   1       9.003  -0.361  -7.743  0.00  0.00     0.065 H 
ATOM      9  C   LIG d   1       7.988  -1.257  -6.052  0.00  0.00     0.014 C 
ATOM     10  H   LIG d   1       7.739  -2.092  -6.707  0.00  0.00     0.035 H 
ATOM     11  C   LIG d   1       8.642  -1.757  -4.745  0.00  0.00    -0.022 C 
ATOM     12  C   LIG d   1      10.122  -1.903  -5.158  0.00  0.00     0.049 C 
ATOM     13  O   LIG d   1      10.330  -1.087  -6.317  0.00  0.00    -0.372 OA
ATOM     14  C   LIG d   1       6.767  -0.413  -5.752  0.00  0.00     0.070 C 
ATOM     15  H   LIG d   1       6.394   0.035  -6.673  0.00  0.00     0.054 H 
ATOM     16  N   LIG d   1       7.223   0.667  -4.815  0.00  0.00    -0.264 N 
ATOM     17  C   LIG d   1       6.547   0.584  -3.640  0.00  0.00     0.227 C 
ATOM     18  O   LIG d   1       6.338   1.473  -2.842  0.00  0.00    -0.275 OA
ATOM     19  C   LIG d   1       6.127  -0.827  -3.549  0.00  0.00     0.081 C 
ATOM     20  H   LIG d   1       7.014  -1.437  -3.380  0.00  0.00     0.043 H 
ATOM     21  C   LIG d   1       5.645  -1.067  -5.034  0.00  0.00     0.119 C 
ATOM     22  C   LIG d   1       4.325  -0.336  -5.236  0.00  0.00    -0.051 C 
ATOM     23  C   LIG d   1       3.414  -1.033  -4.579  0.00  0.00    -0.056 C 
ATOM     24  C   LIG d   1       4.194  -2.173  -3.912  0.00  0.00     0.087 C 
ATOM     25  H   LIG d   1       3.619  -3.044  -3.597  0.00  0.00     0.065 H 
ATOM     26  C   LIG d   1       4.981  -1.412  -2.775  0.00  0.00     0.043 C 
ATOM     27  H   LIG d   1       5.337  -2.106  -2.013  0.00  0.00     0.040 H 
ATOM     28  O   LIG d   1       5.260  -2.421  -4.920  0.00  0.00    -0.359 OA
ATOM     29  H   LIG d   1       9.489   4.624  -4.786  0.00  0.00     0.066 H 
ATOM     30  H   LIG d   1       7.626   3.189  -4.044  0.00  0.00     0.064 H 
ATOM     31  H   LIG d   1      10.970   1.434  -7.210  0.00  0.00     0.066 H 
ATOM     32  H   LIG d   1       8.224  -2.718  -4.444  0.00  0.00     0.029 H 
ATOM     33  H   LIG d   1       8.530  -1.022  -3.947  0.00  0.00     0.029 H 
ATOM     34  H   LIG d   1      10.340  -2.944  -5.395  0.00  0.00     0.056 H 
ATOM     35  H   LIG d   1      10.769  -1.565  -4.348  0.00  0.00     0.056 H 
ATOM     36  H   LIG d   1       4.165   0.571  -5.802  0.00  0.00     0.060 H 
ATOM     37  H   LIG d   1       2.353  -0.842  -4.523  0.00  0.00     0.060 H 
ENDROOT
BRANCH   1  38
ATOM     38  O   LIG d   1      11.371   3.896  -6.455  0.00  0.00    -0.495 OA
BRANCH  38  39
ATOM     39  C   LIG d   1      12.042   4.663  -5.454  0.00  0.00     0.079 C 
ATOM     40  H   LIG d   1      11.544   4.524  -4.495  0.00  0.00     0.066 H 
ATOM     41  H   LIG d   1      13.078   4.332  -5.376  0.00  0.00     0.066 H 
ATOM     42  H   LIG d   1      12.018   5.718  -5.726  0.00  0.00     0.066 H 
ENDBRANCH  38  39
ENDBRANCH   1  38
BRANCH  26  43
ATOM     43  C   LIG d   1       4.132  -0.328  -2.160  0.00  0.00     0.048 C 
ATOM     44  O   LIG d   1       4.620   0.445  -1.371  0.00  0.00    -0.549 OA
ATOM     45  O   LIG d   1       2.836  -0.222  -2.490  0.00  0.00    -0.549 OA
ENDBRANCH  26  43
TORSDOF 3
ENDMDL
MODEL 8
REMARK VINA RESULT:      -5.9      2.766      6.516
REMARK  3 active torsions:
REMARK  status: ('A' for Active; 'I' for Inactive)
REMARK    1  A    between atoms: C_1  and  O_2 
REMARK    2  A    between atoms: O_2  and  C_3 
REMARK    3  A    between atoms: C_28  and  C_30 
ROOT
ATOM      1  C   LIG d   1       8.130   1.995  -4.487  0.00  0.00     0.121 A 
ATOM      2  C   LIG d   1       8.398   1.415  -5.718  0.00  0.00    -0.018 A 
ATOM      3  C   LIG d   1       7.810   0.208  -6.046  0.00  0.00    -0.036 A 
ATOM      4  C   LIG d   1       6.960  -0.411  -5.147  0.00  0.00     0.043 A 
ATOM      5  C   LIG d   1       6.685   0.158  -3.908  0.00  0.00     0.006 A 
ATOM      6  C   LIG d   1       7.279   1.371  -3.590  0.00  0.00    -0.013 A 
ATOM      7  C   LIG d   1       5.778  -0.482  -2.895  0.00  0.00     0.090 C 
ATOM      8  H   LIG d   1       6.338  -0.699  -1.985  0.00  0.00     0.065 H 
ATOM      9  C   LIG d   1       5.078  -1.760  -3.392  0.00  0.00     0.014 C 
ATOM     10  H   LIG d   1       4.740  -2.369  -2.554  0.00  0.00     0.035 H 
ATOM     11  C   LIG d   1       3.877  -1.180  -4.172  0.00  0.00    -0.022 C 
ATOM     12  C   LIG d   1       3.542   0.088  -3.355  0.00  0.00     0.049 C 
ATOM     13  O   LIG d   1       4.708   0.436  -2.601  0.00  0.00    -0.372 OA
ATOM     14  C   LIG d   1       5.985  -2.549  -4.313  0.00  0.00     0.070 C 
ATOM     15  H   LIG d   1       6.888  -2.842  -3.778  0.00  0.00     0.054 H 
ATOM     16  N   LIG d   1       6.343  -1.625  -5.440  0.00  0.00    -0.264 N 
ATOM     17  C   LIG d   1       5.917  -2.140  -6.622  0.00  0.00     0.227 C 
ATOM     18  O   LIG d   1       6.359  -1.918  -7.729  0.00  0.00    -0.275 OA
ATOM     19  C   LIG d   1       4.795  -3.027  -6.259  0.00  0.00     0.081 C 
ATOM     20  H   LIG d   1       3.961  -2.407  -5.932  0.00  0.00     0.043 H 
ATOM     21  C   LIG d   1       5.406  -3.737  -4.987  0.00  0.00     0.119 C 
ATOM     22  C   LIG d   1       6.474  -4.717  -5.449  0.00  0.00    -0.051 C 
ATOM     23  C   LIG d   1       5.829  -5.734  -5.996  0.00  0.00    -0.056 C 
ATOM     24  C   LIG d   1       4.347  -5.345  -5.927  0.00  0.00     0.087 C 
ATOM     25  H   LIG d   1       3.622  -6.153  -6.015  0.00  0.00     0.065 H 
ATOM     26  C   LIG d   1       4.255  -4.207  -7.017  0.00  0.00     0.043 C 
ATOM     27  H   LIG d   1       3.222  -4.037  -7.320  0.00  0.00     0.040 H 
ATOM     28  O   LIG d   1       4.312  -4.568  -4.658  0.00  0.00    -0.359 OA
ATOM     29  H   LIG d   1       9.063   1.903  -6.416  0.00  0.00     0.066 H 
ATOM     30  H   LIG d   1       8.013  -0.250  -7.002  0.00  0.00     0.064 H 
ATOM     31  H   LIG d   1       7.078   1.833  -2.634  0.00  0.00     0.066 H 
ATOM     32  H   LIG d   1       3.038  -1.877  -4.170  0.00  0.00     0.029 H 
ATOM     33  H   LIG d   1       4.163  -0.923  -5.192  0.00  0.00     0.029 H 
ATOM     34  H   LIG d   1       2.711  -0.116  -2.680  0.00  0.00     0.056 H 
ATOM     35  H   LIG d   1       3.280   0.904  -4.028  0.00  0.00     0.056 H 
ATOM     36  H   LIG d   1       7.544  -4.606  -5.349  0.00  0.00     0.060 H 
ATOM     37  H   LIG d   1       6.253  -6.640  -6.403  0.00  0.00     0.060 H 
ENDROOT
BRANCH   1  38
ATOM     38  O   LIG d   1       8.705   3.182  -4.159  0.00  0.00    -0.495 OA
BRANCH  38  39
ATOM     39  C   LIG d   1       9.872   3.133  -3.336  0.00  0.00     0.079 C 
ATOM     40  H   LIG d   1      10.264   2.116  -3.322  0.00  0.00     0.066 H 
ATOM     41  H   LIG d   1      10.628   3.807  -3.737  0.00  0.00     0.066 H 
ATOM     42  H   LIG d   1       9.615   3.437  -2.322  0.00  0.00     0.066 H 
ENDBRANCH  38  39
ENDBRANCH   1  38
BRANCH  26  43
ATOM     43  C   LIG d   1       5.119  -4.527  -8.210  0.00  0.00     0.048 C 
ATOM     44  O   LIG d   1       4.826  -4.097  -9.300  0.00  0.00    -0.549 OA
ATOM     45  O   LIG d   1       6.214  -5.289  -8.061  0.00  0.00    -0.549 OA
ENDBRANCH  26  43
TORSDOF 3
ENDMDL
MODEL 9
REMARK VINA RESULT:      -5.9      2.565      3.452
REMARK  3 active torsions:
REMARK  status: ('A' for Active; 'I' for Inactive)
REMARK    1  A    between atoms: C_1  and  O_2 
REMARK    2  A    between atoms: O_2  and  C_3 
REMARK    3  A    between atoms: C_28  and  C_30 
ROOT
ATOM      1  C   LIG d   1       8.030  -2.382  -9.542  0.00  0.00     0.121 A 
ATOM      2  C   LIG d   1       6.710  -1.960  -9.590  0.00  0.00    -0.018 A 
ATOM      3  C   LIG d   1       6.051  -1.650  -8.415  0.00  0.00    -0.036 A 
ATOM      4  C   LIG d   1       6.710  -1.760  -7.204  0.00  0.00     0.043 A 
ATOM      5  C   LIG d   1       8.034  -2.185  -7.142  0.00  0.00     0.006 A 
ATOM      6  C   LIG d   1       8.687  -2.492  -8.327  0.00  0.00    -0.013 A 
ATOM      7  C   LIG d   1       8.788  -2.331  -5.851  0.00  0.00     0.090 C 
ATOM      8  H   LIG d   1       9.091  -3.370  -5.717  0.00  0.00     0.065 H 
ATOM      9  C   LIG d   1       8.014  -1.852  -4.609  0.00  0.00     0.014 C 
ATOM     10  H   LIG d   1       8.422  -2.296  -3.701  0.00  0.00     0.035 H 
ATOM     11  C   LIG d   1       8.273  -0.329  -4.643  0.00  0.00    -0.022 C 
ATOM     12  C   LIG d   1       9.703  -0.257  -5.223  0.00  0.00     0.049 C 
ATOM     13  O   LIG d   1       9.954  -1.488  -5.910  0.00  0.00    -0.372 OA
ATOM     14  C   LIG d   1       6.536  -2.148  -4.747  0.00  0.00     0.070 C 
ATOM     15  H   LIG d   1       6.383  -3.222  -4.849  0.00  0.00     0.054 H 
ATOM     16  N   LIG d   1       6.084  -1.452  -5.998  0.00  0.00    -0.264 N 
ATOM     17  C   LIG d   1       5.125  -0.537  -5.706  0.00  0.00     0.227 C 
ATOM     18  O   LIG d   1       4.265  -0.104  -6.444  0.00  0.00    -0.275 OA
ATOM     19  C   LIG d   1       5.363  -0.185  -4.294  0.00  0.00     0.081 C 
ATOM     20  H   LIG d   1       6.290   0.385  -4.235  0.00  0.00     0.043 H 
ATOM     21  C   LIG d   1       5.633  -1.621  -3.693  0.00  0.00     0.119 C 
ATOM     22  C   LIG d   1       4.312  -2.374  -3.634  0.00  0.00    -0.051 C 
ATOM     23  C   LIG d   1       3.624  -1.833  -2.643  0.00  0.00    -0.056 C 
ATOM     24  C   LIG d   1       4.507  -0.690  -2.127  0.00  0.00     0.087 C 
ATOM     25  H   LIG d   1       4.298  -0.323  -1.123  0.00  0.00     0.065 H 
ATOM     26  C   LIG d   1       4.389   0.368  -3.292  0.00  0.00     0.043 C 
ATOM     27  H   LIG d   1       4.695   1.358  -2.955  0.00  0.00     0.040 H 
ATOM     28  O   LIG d   1       5.866  -1.252  -2.350  0.00  0.00    -0.359 OA
ATOM     29  H   LIG d   1       6.199  -1.876 -10.538  0.00  0.00     0.066 H 
ATOM     30  H   LIG d   1       5.023  -1.320  -8.442  0.00  0.00     0.064 H 
ATOM     31  H   LIG d   1       9.715  -2.822  -8.304  0.00  0.00     0.066 H 
ATOM     32  H   LIG d   1       8.238   0.094  -3.639  0.00  0.00     0.029 H 
ATOM     33  H   LIG d   1       7.561   0.172  -5.299  0.00  0.00     0.029 H 
ATOM     34  H   LIG d   1      10.424  -0.129  -4.416  0.00  0.00     0.056 H 
ATOM     35  H   LIG d   1       9.779   0.577  -5.921  0.00  0.00     0.056 H 
ATOM     36  H   LIG d   1       4.000  -3.188  -4.273  0.00  0.00     0.060 H 
ATOM     37  H   LIG d   1       2.652  -2.131  -2.277  0.00  0.00     0.060 H 
ENDROOT
BRANCH   1  38
ATOM     38  O   LIG d   1       8.684  -2.688 -10.693  0.00  0.00    -0.495 OA
BRANCH  38  39
ATOM     39  C   LIG d   1       8.053  -2.309 -11.918  0.00  0.00     0.079 C 
ATOM     40  H   LIG d   1       8.813  -2.017 -12.643  0.00  0.00     0.066 H 
ATOM     41  H   LIG d   1       7.483  -3.151 -12.310  0.00  0.00     0.066 H 
ATOM     42  H   LIG d   1       7.383  -1.469 -11.737  0.00  0.00     0.066 H 
ENDBRANCH  38  39
ENDBRANCH   1  38
BRANCH  26  43
ATOM     43  C   LIG d   1       2.991   0.400  -3.856  0.00  0.00     0.048 C 
ATOM     44  O   LIG d   1       2.203  -0.467  -3.565  0.00  0.00    -0.549 OA
ATOM     45  O   LIG d   1       2.623   1.392  -4.681  0.00  0.00    -0.549 OA
ENDBRANCH  26  43
TORSDOF 3
ENDMDL
MODEL 10
REMARK VINA RESULT:      -5.8      9.367     11.833
REMARK  3 active torsions:
REMARK  status: ('A' for Active; 'I' for Inactive)
REMARK    1  A    between atoms: C_1  and  O_2 
REMARK    2  A    between atoms: O_2  and  C_3 
REMARK    3  A    between atoms: C_28  and  C_30 
ROOT
ATOM      1  C   LIG d   1       9.747  11.437  -5.231  0.00  0.00     0.121 A 
ATOM      2  C   LIG d   1       9.590  10.403  -6.142  0.00  0.00    -0.018 A 
ATOM      3  C   LIG d   1       9.782   9.098  -5.730  0.00  0.00    -0.036 A 
ATOM      4  C   LIG d   1      10.126   8.833  -4.416  0.00  0.00     0.043 A 
ATOM      5  C   LIG d   1      10.288   9.862  -3.494  0.00  0.00     0.006 A 
ATOM      6  C   LIG d   1      10.092  11.168  -3.918  0.00  0.00    -0.013 A 
ATOM      7  C   LIG d   1      10.672   9.624  -2.061  0.00  0.00     0.090 C 
ATOM      8  H   LIG d   1      11.625  10.110  -1.849  0.00  0.00     0.065 H 
ATOM      9  C   LIG d   1      10.748   8.138  -1.665  0.00  0.00     0.014 C 
ATOM     10  H   LIG d   1      11.360   8.005  -0.772  0.00  0.00     0.035 H 
ATOM     11  C   LIG d   1       9.266   7.813  -1.372  0.00  0.00    -0.022 C 
ATOM     12  C   LIG d   1       8.751   9.148  -0.790  0.00  0.00     0.049 C 
ATOM     13  O   LIG d   1       9.645  10.181  -1.219  0.00  0.00    -0.372 OA
ATOM     14  C   LIG d   1      11.264   7.299  -2.814  0.00  0.00     0.070 C 
ATOM     15  H   LIG d   1      12.266   7.629  -3.090  0.00  0.00     0.054 H 
ATOM     16  N   LIG d   1      10.323   7.531  -3.959  0.00  0.00    -0.264 N 
ATOM     17  C   LIG d   1       9.739   6.364  -4.332  0.00  0.00     0.227 C 
ATOM     18  O   LIG d   1       9.276   6.080  -5.416  0.00  0.00    -0.275 OA
ATOM     19  C   LIG d   1       9.792   5.518  -3.124  0.00  0.00     0.081 C 
ATOM     20  H   LIG d   1       9.101   5.929  -2.388  0.00  0.00     0.043 H 
ATOM     21  C   LIG d   1      11.264   5.825  -2.637  0.00  0.00     0.119 C 
ATOM     22  C   LIG d   1      12.237   5.130  -3.578  0.00  0.00    -0.051 C 
ATOM     23  C   LIG d   1      12.163   3.840  -3.296  0.00  0.00    -0.056 C 
ATOM     24  C   LIG d   1      11.083   3.734  -2.212  0.00  0.00     0.087 C 
ATOM     25  H   LIG d   1      11.084   2.829  -1.604  0.00  0.00     0.065 H 
ATOM     26  C   LIG d   1       9.765   4.019  -3.032  0.00  0.00     0.043 C 
ATOM     27  H   LIG d   1       8.884   3.677  -2.488  0.00  0.00     0.040 H 
ATOM     28  O   LIG d   1      11.282   5.015  -1.481  0.00  0.00    -0.359 OA
ATOM     29  H   LIG d   1       9.322  10.616  -7.167  0.00  0.00     0.066 H 
ATOM     30  H   LIG d   1       9.662   8.286  -6.431  0.00  0.00     0.064 H 
ATOM     31  H   LIG d   1      10.211  11.983  -3.219  0.00  0.00     0.066 H 
ATOM     32  H   LIG d   1       9.182   7.010  -0.639  0.00  0.00     0.029 H 
ATOM     33  H   LIG d   1       8.735   7.556  -2.289  0.00  0.00     0.029 H 
ATOM     34  H   LIG d   1       8.738   9.097   0.298  0.00  0.00     0.056 H 
ATOM     35  H   LIG d   1       7.746   9.351  -1.162  0.00  0.00     0.056 H 
ATOM     36  H   LIG d   1      12.863   5.596  -4.325  0.00  0.00     0.060 H 
ATOM     37  H   LIG d   1      12.737   3.037  -3.734  0.00  0.00     0.060 H 
ENDROOT
BRANCH   1  38
ATOM     38  O   LIG d   1       9.560  12.723  -5.631  0.00  0.00    -0.495 OA
BRANCH  38  39
ATOM     39  C   LIG d   1       9.551  12.971  -7.038  0.00  0.00     0.079 C 
ATOM     40  H   LIG d   1      10.471  12.589  -7.480  0.00  0.00     0.066 H 
ATOM     41  H   LIG d   1       8.696  12.468  -7.491  0.00  0.00     0.066 H 
ATOM     42  H   LIG d   1       9.480  14.043  -7.218  0.00  0.00     0.066 H 
ENDBRANCH  38  39
ENDBRANCH   1  38
BRANCH  26  43
ATOM     43  C   LIG d   1       9.831   3.390  -4.400  0.00  0.00     0.048 C 
ATOM     44  O   LIG d   1      10.903   3.152  -4.904  0.00  0.00    -0.549 OA
ATOM     45  O   LIG d   1       8.700   3.095  -5.059  0.00  0.00    -0.549 OA
ENDBRANCH  26  43
TORSDOF 3
ENDMDL
