MODEL 1
REMARK VINA RESULT:      -7.9      0.000      0.000
REMARK  7 active torsions:
REMARK  status: ('A' for Active; 'I' for Inactive)
REMARK    1  A    between atoms: C_1  and  C_2 
REMARK    2  A    between atoms: C_13  and  O_15 
REMARK    3  A    between atoms: O_15  and  C_16 
REMARK    4  A    between atoms: C_16  and  C_18 
REMARK    5  A    between atoms: C_18  and  C_19 
REMARK    6  A    between atoms: C_19  and  C_20 
REMARK    7  A    between atoms: C_34  and  C_35 
ROOT
ATOM      1  C   LIG d   1       6.761  -2.930  -5.718  0.00  0.00     0.008 C 
ATOM      2  C   LIG d   1       7.355  -3.666  -6.907  0.00  0.00    -0.044 C 
ATOM      3  C   LIG d   1       7.790  -5.048  -6.403  0.00  0.00    -0.049 C 
ATOM      4  C   LIG d   1       8.780  -4.960  -5.242  0.00  0.00    -0.029 C 
ATOM      5  H   LIG d   1       9.726  -4.567  -5.612  0.00  0.00     0.031 H 
ATOM      6  C   LIG d   1       8.281  -4.055  -4.115  0.00  0.00    -0.034 C 
ATOM      7  H   LIG d   1       7.394  -4.497  -3.662  0.00  0.00     0.031 H 
ATOM      8  C   LIG d   1       7.922  -2.706  -4.715  0.00  0.00    -0.029 C 
ATOM      9  H   LIG d   1       8.781  -2.267  -5.223  0.00  0.00     0.031 H 
ATOM     10  C   LIG d   1       7.305  -1.693  -3.744  0.00  0.00    -0.046 C 
ATOM     11  C   LIG d   1       6.546  -0.722  -4.690  0.00  0.00    -0.015 C 
ATOM     12  C   LIG d   1       6.250  -1.518  -5.986  0.00  0.00     0.109 C 
ATOM     13  H   LIG d   1       6.781  -1.078  -6.829  0.00  0.00     0.074 H 
ATOM     14  C   LIG d   1       9.339  -3.845  -3.037  0.00  0.00    -0.046 C 
ATOM     15  C   LIG d   1      10.215  -5.076  -2.838  0.00  0.00    -0.030 C 
ATOM     16  C   LIG d   1       9.452  -6.304  -3.276  0.00  0.00    -0.060 C 
ATOM     17  C   LIG d   1       9.184  -7.277  -2.412  0.00  0.00    -0.019 C 
ATOM     18  C   LIG d   1       8.431  -8.461  -2.821  0.00  0.00     0.156 C 
ATOM     19  O   LIG d   1       8.215  -9.349  -2.023  0.00  0.00    -0.293 OA
ATOM     20  C   LIG d   1       7.924  -8.577  -4.237  0.00  0.00     0.011 C 
ATOM     21  C   LIG d   1       7.696  -7.170  -4.800  0.00  0.00    -0.037 C 
ATOM     22  C   LIG d   1       9.004  -6.382  -4.711  0.00  0.00    -0.007 C 
ATOM     23  H   LIG d   1       8.218  -3.120  -7.288  0.00  0.00     0.027 H 
ATOM     24  H   LIG d   1       6.605  -3.774  -7.691  0.00  0.00     0.027 H 
ATOM     25  H   LIG d   1       8.255  -5.592  -7.224  0.00  0.00     0.027 H 
ATOM     26  H   LIG d   1       6.906  -5.595  -6.072  0.00  0.00     0.027 H 
ATOM     27  H   LIG d   1       8.081  -1.165  -3.192  0.00  0.00     0.027 H 
ATOM     28  H   LIG d   1       6.613  -2.183  -3.060  0.00  0.00     0.027 H 
ATOM     29  H   LIG d   1       7.170   0.143  -4.917  0.00  0.00     0.030 H 
ATOM     30  H   LIG d   1       5.614  -0.401  -4.227  0.00  0.00     0.030 H 
ATOM     31  H   LIG d   1       9.972  -3.004  -3.322  0.00  0.00     0.027 H 
ATOM     32  H   LIG d   1       8.843  -3.610  -2.096  0.00  0.00     0.027 H 
ATOM     33  H   LIG d   1      10.479  -5.168  -1.785  0.00  0.00     0.031 H 
ATOM     34  H   LIG d   1      11.121  -4.978  -3.435  0.00  0.00     0.031 H 
ATOM     35  H   LIG d   1       9.529  -7.192  -1.392  0.00  0.00     0.065 H 
ATOM     36  H   LIG d   1       8.599  -9.061  -4.794  0.00  0.00     0.035 H 
ATOM     37  H   LIG d   1       6.984  -9.129  -4.243  0.00  0.00     0.035 H 
ATOM     38  H   LIG d   1       7.382  -7.240  -5.841  0.00  0.00     0.028 H 
ATOM     39  H   LIG d   1       6.926  -6.665  -4.218  0.00  0.00     0.028 H 
ENDROOT
BRANCH  12  40
ATOM     40  O   LIG d   1       4.822  -1.541  -6.249  0.00  0.00    -0.461 OA
BRANCH  40  41
ATOM     41  C   LIG d   1       4.229  -0.363  -6.498  0.00  0.00     0.308 C 
ATOM     42  O   LIG d   1       4.872   0.552  -6.955  0.00  0.00    -0.251 OA
BRANCH  41  43
ATOM     43  C   LIG d   1       2.762  -0.181  -6.208  0.00  0.00     0.049 C 
ATOM     44  H   LIG d   1       2.263   0.218  -7.092  0.00  0.00     0.038 H 
ATOM     45  H   LIG d   1       2.322  -1.143  -5.946  0.00  0.00     0.038 H 
BRANCH  43  46
ATOM     46  C   LIG d   1       2.589   0.794  -5.041  0.00  0.00    -0.018 C 
ATOM     47  H   LIG d   1       3.060   1.745  -5.291  0.00  0.00     0.032 H 
ATOM     48  H   LIG d   1       1.527   0.952  -4.855  0.00  0.00     0.032 H 
BRANCH  46  49
ATOM     49  C   LIG d   1       3.237   0.220  -3.808  0.00  0.00    -0.047 A 
ATOM     50  C   LIG d   1       3.964   1.039  -2.964  0.00  0.00    -0.059 A 
ATOM     51  C   LIG d   1       4.558   0.512  -1.833  0.00  0.00    -0.061 A 
ATOM     52  H   LIG d   1       4.068   2.090  -3.189  0.00  0.00     0.062 H 
ATOM     53  C   LIG d   1       4.425  -0.832  -1.544  0.00  0.00    -0.062 A 
ATOM     54  H   LIG d   1       5.126   1.153  -1.174  0.00  0.00     0.062 H 
ATOM     55  C   LIG d   1       3.697  -1.651  -2.387  0.00  0.00    -0.061 A 
ATOM     56  H   LIG d   1       4.889  -1.244  -0.660  0.00  0.00     0.062 H 
ATOM     57  C   LIG d   1       3.099  -1.124  -3.516  0.00  0.00    -0.059 A 
ATOM     58  H   LIG d   1       3.594  -2.703  -2.162  0.00  0.00     0.062 H 
ATOM     59  H   LIG d   1       2.528  -1.763  -4.174  0.00  0.00     0.062 H 
ENDBRANCH  46  49
ENDBRANCH  43  46
ENDBRANCH  41  43
ENDBRANCH  40  41
ENDBRANCH  12  40
BRANCH   1  60
ATOM     60  C   LIG d   1       5.654  -3.775  -5.083  0.00  0.00    -0.056 C 
ATOM     61  H   LIG d   1       5.602  -3.564  -4.015  0.00  0.00     0.024 H 
ATOM     62  H   LIG d   1       4.699  -3.532  -5.549  0.00  0.00     0.024 H 
ATOM     63  H   LIG d   1       5.872  -4.833  -5.235  0.00  0.00     0.024 H 
ENDBRANCH   1  60
BRANCH  22  64
ATOM     64  C   LIG d   1      10.081  -7.077  -5.546  0.00  0.00    -0.056 C 
ATOM     65  H   LIG d   1      10.343  -8.028  -5.084  0.00  0.00     0.024 H 
ATOM     66  H   LIG d   1       9.703  -7.254  -6.552  0.00  0.00     0.024 H 
ATOM     67  H   LIG d   1      10.966  -6.442  -5.598  0.00  0.00     0.024 H 
ENDBRANCH  22  64
TORSDOF 7
ENDMDL
MODEL 2
REMARK VINA RESULT:      -7.6      1.849      3.170
REMARK  7 active torsions:
REMARK  status: ('A' for Active; 'I' for Inactive)
REMARK    1  A    between atoms: C_1  and  C_2 
REMARK    2  A    between atoms: C_13  and  O_15 
REMARK    3  A    between atoms: O_15  and  C_16 
REMARK    4  A    between atoms: C_16  and  C_18 
REMARK    5  A    between atoms: C_18  and  C_19 
REMARK    6  A    between atoms: C_19  and  C_20 
REMARK    7  A    between atoms: C_34  and  C_35 
ROOT
ATOM      1  C   LIG d   1       6.010  -2.168  -5.816  0.00  0.00     0.008 C 
ATOM      2  C   LIG d   1       6.247  -1.737  -4.378  0.00  0.00    -0.044 C 
ATOM      3  C   LIG d   1       7.658  -2.209  -4.001  0.00  0.00    -0.049 C 
ATOM      4  C   LIG d   1       7.835  -3.717  -4.173  0.00  0.00    -0.029 C 
ATOM      5  H   LIG d   1       7.235  -4.233  -3.424  0.00  0.00     0.031 H 
ATOM      6  C   LIG d   1       7.406  -4.201  -5.560  0.00  0.00    -0.034 C 
ATOM      7  H   LIG d   1       8.071  -3.777  -6.312  0.00  0.00     0.031 H 
ATOM      8  C   LIG d   1       5.987  -3.719  -5.812  0.00  0.00    -0.029 C 
ATOM      9  H   LIG d   1       5.311  -4.086  -5.039  0.00  0.00     0.031 H 
ATOM     10  C   LIG d   1       5.421  -4.027  -7.202  0.00  0.00    -0.046 C 
ATOM     11  C   LIG d   1       4.293  -2.971  -7.360  0.00  0.00    -0.015 C 
ATOM     12  C   LIG d   1       4.657  -1.798  -6.414  0.00  0.00     0.109 C 
ATOM     13  H   LIG d   1       3.909  -1.702  -5.628  0.00  0.00     0.074 H 
ATOM     14  C   LIG d   1       7.433  -5.722  -5.670  0.00  0.00    -0.046 C 
ATOM     15  C   LIG d   1       8.552  -6.342  -4.842  0.00  0.00    -0.030 C 
ATOM     16  C   LIG d   1       9.653  -5.326  -4.654  0.00  0.00    -0.060 C 
ATOM     17  C   LIG d   1      10.877  -5.562  -5.113  0.00  0.00    -0.019 C 
ATOM     18  C   LIG d   1      11.944  -4.577  -4.951  0.00  0.00     0.156 C 
ATOM     19  O   LIG d   1      13.062  -4.820  -5.359  0.00  0.00    -0.293 OA
ATOM     20  C   LIG d   1      11.656  -3.259  -4.278  0.00  0.00     0.011 C 
ATOM     21  C   LIG d   1      10.179  -2.906  -4.487  0.00  0.00    -0.037 C 
ATOM     22  C   LIG d   1       9.315  -4.043  -3.940  0.00  0.00    -0.007 C 
ATOM     23  H   LIG d   1       5.511  -2.204  -3.724  0.00  0.00     0.027 H 
ATOM     24  H   LIG d   1       6.184  -0.652  -4.300  0.00  0.00     0.027 H 
ATOM     25  H   LIG d   1       7.849  -1.948  -2.960  0.00  0.00     0.027 H 
ATOM     26  H   LIG d   1       8.382  -1.694  -4.633  0.00  0.00     0.027 H 
ATOM     27  H   LIG d   1       5.012  -5.036  -7.238  0.00  0.00     0.027 H 
ATOM     28  H   LIG d   1       6.183  -3.893  -7.970  0.00  0.00     0.027 H 
ATOM     29  H   LIG d   1       3.334  -3.402  -7.070  0.00  0.00     0.030 H 
ATOM     30  H   LIG d   1       4.249  -2.621  -8.391  0.00  0.00     0.030 H 
ATOM     31  H   LIG d   1       6.478  -6.119  -5.326  0.00  0.00     0.027 H 
ATOM     32  H   LIG d   1       7.574  -5.997  -6.715  0.00  0.00     0.027 H 
ATOM     33  H   LIG d   1       8.947  -7.214  -5.361  0.00  0.00     0.031 H 
ATOM     34  H   LIG d   1       8.162  -6.641  -3.869  0.00  0.00     0.031 H 
ATOM     35  H   LIG d   1      11.086  -6.497  -5.613  0.00  0.00     0.065 H 
ATOM     36  H   LIG d   1      11.852  -3.334  -3.301  0.00  0.00     0.035 H 
ATOM     37  H   LIG d   1      12.282  -2.481  -4.715  0.00  0.00     0.035 H 
ATOM     38  H   LIG d   1       9.946  -1.983  -3.958  0.00  0.00     0.028 H 
ATOM     39  H   LIG d   1       9.982  -2.779  -5.552  0.00  0.00     0.028 H 
ENDROOT
BRANCH  12  40
ATOM     40  O   LIG d   1       4.760  -0.559  -7.164  0.00  0.00    -0.461 OA
BRANCH  40  41
ATOM     41  C   LIG d   1       3.725   0.291  -7.081  0.00  0.00     0.308 C 
ATOM     42  O   LIG d   1       3.725   1.308  -7.733  0.00  0.00    -0.251 OA
BRANCH  41  43
ATOM     43  C   LIG d   1       2.562  -0.022  -6.175  0.00  0.00     0.049 C 
ATOM     44  H   LIG d   1       1.634   0.022  -6.746  0.00  0.00     0.038 H 
ATOM     45  H   LIG d   1       2.685  -1.022  -5.759  0.00  0.00     0.038 H 
BRANCH  43  46
ATOM     46  C   LIG d   1       2.510   1.001  -5.038  0.00  0.00    -0.018 C 
ATOM     47  H   LIG d   1       3.037   1.906  -5.341  0.00  0.00     0.032 H 
ATOM     48  H   LIG d   1       1.471   1.243  -4.814  0.00  0.00     0.032 H 
BRANCH  46  49
ATOM     49  C   LIG d   1       3.168   0.423  -3.813  0.00  0.00    -0.047 A 
ATOM     50  C   LIG d   1       4.033   1.197  -3.062  0.00  0.00    -0.059 A 
ATOM     51  C   LIG d   1       4.636   0.665  -1.937  0.00  0.00    -0.061 A 
ATOM     52  H   LIG d   1       4.238   2.215  -3.355  0.00  0.00     0.062 H 
ATOM     53  C   LIG d   1       4.374  -0.638  -1.562  0.00  0.00    -0.062 A 
ATOM     54  H   LIG d   1       5.313   1.270  -1.351  0.00  0.00     0.062 H 
ATOM     55  C   LIG d   1       3.508  -1.412  -2.312  0.00  0.00    -0.061 A 
ATOM     56  H   LIG d   1       4.845  -1.054  -0.684  0.00  0.00     0.062 H 
ATOM     57  C   LIG d   1       2.901  -0.880  -3.434  0.00  0.00    -0.059 A 
ATOM     58  H   LIG d   1       3.303  -2.432  -2.020  0.00  0.00     0.062 H 
ATOM     59  H   LIG d   1       2.222  -1.483  -4.019  0.00  0.00     0.062 H 
ENDBRANCH  46  49
ENDBRANCH  43  46
ENDBRANCH  41  43
ENDBRANCH  40  41
ENDBRANCH  12  40
BRANCH   1  60
ATOM     60  C   LIG d   1       7.137  -1.647  -6.709  0.00  0.00    -0.056 C 
ATOM     61  H   LIG d   1       7.300  -2.341  -7.532  0.00  0.00     0.024 H 
ATOM     62  H   LIG d   1       6.863  -0.669  -7.106  0.00  0.00     0.024 H 
ATOM     63  H   LIG d   1       8.053  -1.555  -6.123  0.00  0.00     0.024 H 
ENDBRANCH   1  60
BRANCH  22  64
ATOM     64  C   LIG d   1       9.573  -4.210  -2.441  0.00  0.00    -0.056 C 
ATOM     65  H   LIG d   1       8.682  -3.920  -1.884  0.00  0.00     0.024 H 
ATOM     66  H   LIG d   1       9.811  -5.251  -2.227  0.00  0.00     0.024 H 
ATOM     67  H   LIG d   1      10.410  -3.577  -2.143  0.00  0.00     0.024 H 
ENDBRANCH  22  64
TORSDOF 7
ENDMDL
MODEL 3
REMARK VINA RESULT:      -7.5      4.276      6.549
REMARK  7 active torsions:
REMARK  status: ('A' for Active; 'I' for Inactive)
REMARK    1  A    between atoms: C_1  and  C_2 
REMARK    2  A    between atoms: C_13  and  O_15 
REMARK    3  A    between atoms: O_15  and  C_16 
REMARK    4  A    between atoms: C_16  and  C_18 
REMARK    5  A    between atoms: C_18  and  C_19 
REMARK    6  A    between atoms: C_19  and  C_20 
REMARK    7  A    between atoms: C_34  and  C_35 
ROOT
ATOM      1  C   LIG d   1       6.629  -1.050  -8.249  0.00  0.00     0.008 C 
ATOM      2  C   LIG d   1       5.558  -2.123  -8.154  0.00  0.00    -0.044 C 
ATOM      3  C   LIG d   1       4.780  -1.862  -6.858  0.00  0.00    -0.049 C 
ATOM      4  C   LIG d   1       5.685  -1.859  -5.626  0.00  0.00    -0.029 C 
ATOM      5  H   LIG d   1       6.049  -2.871  -5.450  0.00  0.00     0.031 H 
ATOM      6  C   LIG d   1       6.889  -0.929  -5.786  0.00  0.00    -0.034 C 
ATOM      7  H   LIG d   1       6.541   0.103  -5.852  0.00  0.00     0.031 H 
ATOM      8  C   LIG d   1       7.608  -1.301  -7.071  0.00  0.00    -0.029 C 
ATOM      9  H   LIG d   1       7.917  -2.347  -7.053  0.00  0.00     0.031 H 
ATOM     10  C   LIG d   1       8.791  -0.405  -7.452  0.00  0.00    -0.046 C 
ATOM     11  C   LIG d   1       8.925  -0.636  -8.982  0.00  0.00    -0.015 C 
ATOM     12  C   LIG d   1       7.534  -1.108  -9.475  0.00  0.00     0.109 C 
ATOM     13  H   LIG d   1       7.594  -2.128  -9.853  0.00  0.00     0.074 H 
ATOM     14  C   LIG d   1       7.868  -1.052  -4.624  0.00  0.00    -0.046 C 
ATOM     15  C   LIG d   1       7.165  -1.343  -3.303  0.00  0.00    -0.030 C 
ATOM     16  C   LIG d   1       5.745  -0.834  -3.374  0.00  0.00    -0.060 C 
ATOM     17  C   LIG d   1       5.319   0.103  -2.535  0.00  0.00    -0.019 C 
ATOM     18  C   LIG d   1       3.952   0.615  -2.607  0.00  0.00     0.156 C 
ATOM     19  O   LIG d   1       3.576   1.456  -1.817  0.00  0.00    -0.293 OA
ATOM     20  C   LIG d   1       3.010   0.095  -3.664  0.00  0.00     0.011 C 
ATOM     21  C   LIG d   1       3.827  -0.362  -4.877  0.00  0.00    -0.037 C 
ATOM     22  C   LIG d   1       4.838  -1.417  -4.426  0.00  0.00    -0.007 C 
ATOM     23  H   LIG d   1       6.021  -3.109  -8.119  0.00  0.00     0.027 H 
ATOM     24  H   LIG d   1       4.887  -2.056  -9.011  0.00  0.00     0.027 H 
ATOM     25  H   LIG d   1       4.024  -2.637  -6.739  0.00  0.00     0.027 H 
ATOM     26  H   LIG d   1       4.285  -0.893  -6.934  0.00  0.00     0.027 H 
ATOM     27  H   LIG d   1       9.696  -0.719  -6.934  0.00  0.00     0.027 H 
ATOM     28  H   LIG d   1       8.570   0.641  -7.238  0.00  0.00     0.027 H 
ATOM     29  H   LIG d   1       9.673  -1.404  -9.180  0.00  0.00     0.030 H 
ATOM     30  H   LIG d   1       9.202   0.294  -9.478  0.00  0.00     0.030 H 
ATOM     31  H   LIG d   1       8.568  -1.860  -4.836  0.00  0.00     0.027 H 
ATOM     32  H   LIG d   1       8.423  -0.119  -4.529  0.00  0.00     0.027 H 
ATOM     33  H   LIG d   1       7.691  -0.839  -2.493  0.00  0.00     0.031 H 
ATOM     34  H   LIG d   1       7.159  -2.417  -3.123  0.00  0.00     0.031 H 
ATOM     35  H   LIG d   1       5.995   0.493  -1.787  0.00  0.00     0.065 H 
ATOM     36  H   LIG d   1       2.489  -0.675  -3.296  0.00  0.00     0.035 H 
ATOM     37  H   LIG d   1       2.325   0.888  -3.963  0.00  0.00     0.035 H 
ATOM     38  H   LIG d   1       3.162  -0.790  -5.625  0.00  0.00     0.028 H 
ATOM     39  H   LIG d   1       4.356   0.491  -5.303  0.00  0.00     0.028 H 
ENDROOT
BRANCH  12  40
ATOM     40  O   LIG d   1       7.037  -0.218 -10.510  0.00  0.00    -0.461 OA
BRANCH  40  41
ATOM     41  C   LIG d   1       6.608  -0.786 -11.648  0.00  0.00     0.308 C 
ATOM     42  O   LIG d   1       7.333  -0.823 -12.614  0.00  0.00    -0.251 OA
BRANCH  41  43
ATOM     43  C   LIG d   1       5.225  -1.379 -11.721  0.00  0.00     0.049 C 
ATOM     44  H   LIG d   1       5.216  -2.194 -12.445  0.00  0.00     0.038 H 
ATOM     45  H   LIG d   1       4.941  -1.760 -10.741  0.00  0.00     0.038 H 
BRANCH  43  46
ATOM     46  C   LIG d   1       4.230  -0.301 -12.156  0.00  0.00    -0.018 C 
ATOM     47  H   LIG d   1       4.743   0.438 -12.774  0.00  0.00     0.032 H 
ATOM     48  H   LIG d   1       3.425  -0.759 -12.731  0.00  0.00     0.032 H 
BRANCH  46  49
ATOM     49  C   LIG d   1       3.657   0.375 -10.937  0.00  0.00    -0.047 A 
ATOM     50  C   LIG d   1       3.913   1.713 -10.703  0.00  0.00    -0.059 A 
ATOM     51  C   LIG d   1       3.387   2.331  -9.585  0.00  0.00    -0.061 A 
ATOM     52  H   LIG d   1       4.526   2.274 -11.393  0.00  0.00     0.062 H 
ATOM     53  C   LIG d   1       2.604   1.614  -8.701  0.00  0.00    -0.062 A 
ATOM     54  H   LIG d   1       3.589   3.377  -9.402  0.00  0.00     0.062 H 
ATOM     55  C   LIG d   1       2.346   0.276  -8.936  0.00  0.00    -0.061 A 
ATOM     56  H   LIG d   1       2.193   2.097  -7.827  0.00  0.00     0.062 H 
ATOM     57  C   LIG d   1       2.869  -0.342 -10.056  0.00  0.00    -0.059 A 
ATOM     58  H   LIG d   1       1.734  -0.285  -8.245  0.00  0.00     0.062 H 
ATOM     59  H   LIG d   1       2.665  -1.387 -10.242  0.00  0.00     0.062 H 
ENDBRANCH  46  49
ENDBRANCH  43  46
ENDBRANCH  41  43
ENDBRANCH  40  41
ENDBRANCH  12  40
BRANCH   1  60
ATOM     60  C   LIG d   1       5.991   0.335  -8.134  0.00  0.00    -0.056 C 
ATOM     61  H   LIG d   1       5.828   0.744  -9.131  0.00  0.00     0.024 H 
ATOM     62  H   LIG d   1       5.036   0.253  -7.614  0.00  0.00     0.024 H 
ATOM     63  H   LIG d   1       6.653   0.996  -7.574  0.00  0.00     0.024 H 
ENDBRANCH   1  60
BRANCH  22  64
ATOM     64  C   LIG d   1       4.098  -2.626  -3.849  0.00  0.00    -0.056 C 
ATOM     65  H   LIG d   1       4.777  -3.476  -3.792  0.00  0.00     0.024 H 
ATOM     66  H   LIG d   1       3.733  -2.385  -2.851  0.00  0.00     0.024 H 
ATOM     67  H   LIG d   1       3.254  -2.876  -4.493  0.00  0.00     0.024 H 
ENDBRANCH  22  64
TORSDOF 7
ENDMDL
MODEL 4
REMARK VINA RESULT:      -7.5      3.334      7.545
REMARK  7 active torsions:
REMARK  status: ('A' for Active; 'I' for Inactive)
REMARK    1  A    between atoms: C_1  and  C_2 
REMARK    2  A    between atoms: C_13  and  O_15 
REMARK    3  A    between atoms: O_15  and  C_16 
REMARK    4  A    between atoms: C_16  and  C_18 
REMARK    5  A    between atoms: C_18  and  C_19 
REMARK    6  A    between atoms: C_19  and  C_20 
REMARK    7  A    between atoms: C_34  and  C_35 
ROOT
ATOM      1  C   LIG d   1       6.143  -0.912  -6.933  0.00  0.00     0.008 C 
ATOM      2  C   LIG d   1       4.768  -1.374  -6.480  0.00  0.00    -0.044 C 
ATOM      3  C   LIG d   1       3.918  -1.545  -7.746  0.00  0.00    -0.049 C 
ATOM      4  C   LIG d   1       3.837  -0.261  -8.572  0.00  0.00    -0.029 C 
ATOM      5  H   LIG d   1       3.251   0.477  -8.026  0.00  0.00     0.031 H 
ATOM      6  C   LIG d   1       5.217   0.332  -8.867  0.00  0.00    -0.034 C 
ATOM      7  H   LIG d   1       5.773  -0.351  -9.508  0.00  0.00     0.031 H 
ATOM      8  C   LIG d   1       5.952   0.499  -7.548  0.00  0.00    -0.029 C 
ATOM      9  H   LIG d   1       5.386   1.135  -6.867  0.00  0.00     0.031 H 
ATOM     10  C   LIG d   1       7.399   0.991  -7.656  0.00  0.00    -0.046 C 
ATOM     11  C   LIG d   1       8.028   0.518  -6.317  0.00  0.00    -0.015 C 
ATOM     12  C   LIG d   1       7.171  -0.679  -5.831  0.00  0.00     0.109 C 
ATOM     13  H   LIG d   1       6.672  -0.430  -4.895  0.00  0.00     0.074 H 
ATOM     14  C   LIG d   1       5.122   1.692  -9.551  0.00  0.00    -0.046 C 
ATOM     15  C   LIG d   1       3.918   1.790 -10.479  0.00  0.00    -0.030 C 
ATOM     16  C   LIG d   1       3.528   0.404 -10.936  0.00  0.00    -0.060 C 
ATOM     17  C   LIG d   1       3.554   0.084 -12.225  0.00  0.00    -0.019 C 
ATOM     18  C   LIG d   1       3.196  -1.260 -12.674  0.00  0.00     0.156 C 
ATOM     19  O   LIG d   1       3.205  -1.526 -13.858  0.00  0.00    -0.293 OA
ATOM     20  C   LIG d   1       2.815  -2.314 -11.665  0.00  0.00     0.011 C 
ATOM     21  C   LIG d   1       3.512  -2.004 -10.336  0.00  0.00    -0.037 C 
ATOM     22  C   LIG d   1       3.120  -0.596  -9.886  0.00  0.00    -0.007 C 
ATOM     23  H   LIG d   1       4.320  -0.624  -5.829  0.00  0.00     0.027 H 
ATOM     24  H   LIG d   1       4.850  -2.326  -5.955  0.00  0.00     0.027 H 
ATOM     25  H   LIG d   1       2.910  -1.841  -7.456  0.00  0.00     0.027 H 
ATOM     26  H   LIG d   1       4.356  -2.332  -8.360  0.00  0.00     0.027 H 
ATOM     27  H   LIG d   1       7.433   2.077  -7.734  0.00  0.00     0.027 H 
ATOM     28  H   LIG d   1       7.905   0.529  -8.503  0.00  0.00     0.027 H 
ATOM     29  H   LIG d   1       7.996   1.323  -5.583  0.00  0.00     0.030 H 
ATOM     30  H   LIG d   1       9.058   0.199  -6.479  0.00  0.00     0.030 H 
ATOM     31  H   LIG d   1       5.043   2.466  -8.788  0.00  0.00     0.027 H 
ATOM     32  H   LIG d   1       6.029   1.859 -10.131  0.00  0.00     0.027 H 
ATOM     33  H   LIG d   1       4.176   2.398 -11.346  0.00  0.00     0.031 H 
ATOM     34  H   LIG d   1       3.084   2.247  -9.948  0.00  0.00     0.031 H 
ATOM     35  H   LIG d   1       3.844   0.829 -12.952  0.00  0.00     0.065 H 
ATOM     36  H   LIG d   1       1.824  -2.310 -11.538  0.00  0.00     0.035 H 
ATOM     37  H   LIG d   1       3.132  -3.293 -12.024  0.00  0.00     0.035 H 
ATOM     38  H   LIG d   1       3.201  -2.727  -9.584  0.00  0.00     0.028 H 
ATOM     39  H   LIG d   1       4.592  -2.056 -10.470  0.00  0.00     0.028 H 
ENDROOT
BRANCH  12  40
ATOM     40  O   LIG d   1       8.001  -1.858  -5.659  0.00  0.00    -0.461 OA
BRANCH  40  41
ATOM     41  C   LIG d   1       7.772  -2.612  -4.573  0.00  0.00     0.308 C 
ATOM     42  O   LIG d   1       7.950  -3.806  -4.619  0.00  0.00    -0.251 OA
BRANCH  41  43
ATOM     43  C   LIG d   1       7.293  -1.971  -3.297  0.00  0.00     0.049 C 
ATOM     44  H   LIG d   1       7.894  -2.330  -2.462  0.00  0.00     0.038 H 
ATOM     45  H   LIG d   1       7.390  -0.888  -3.376  0.00  0.00     0.038 H 
BRANCH  43  46
ATOM     46  C   LIG d   1       5.825  -2.335  -3.062  0.00  0.00    -0.018 C 
ATOM     47  H   LIG d   1       5.444  -2.881  -3.926  0.00  0.00     0.032 H 
ATOM     48  H   LIG d   1       5.744  -2.960  -2.172  0.00  0.00     0.032 H 
BRANCH  46  49
ATOM     49  C   LIG d   1       5.020  -1.077  -2.868  0.00  0.00    -0.047 A 
ATOM     50  C   LIG d   1       3.639  -1.133  -2.865  0.00  0.00    -0.059 A 
ATOM     51  C   LIG d   1       2.901   0.022  -2.687  0.00  0.00    -0.061 A 
ATOM     52  H   LIG d   1       3.137  -2.079  -3.002  0.00  0.00     0.062 H 
ATOM     53  C   LIG d   1       3.543   1.233  -2.511  0.00  0.00    -0.062 A 
ATOM     54  H   LIG d   1       1.822  -0.022  -2.685  0.00  0.00     0.062 H 
ATOM     55  C   LIG d   1       4.924   1.290  -2.513  0.00  0.00    -0.061 A 
ATOM     56  H   LIG d   1       2.966   2.136  -2.373  0.00  0.00     0.062 H 
ATOM     57  C   LIG d   1       5.663   0.134  -2.687  0.00  0.00    -0.059 A 
ATOM     58  H   LIG d   1       5.427   2.236  -2.377  0.00  0.00     0.062 H 
ATOM     59  H   LIG d   1       6.743   0.177  -2.685  0.00  0.00     0.062 H 
ENDBRANCH  46  49
ENDBRANCH  43  46
ENDBRANCH  41  43
ENDBRANCH  40  41
ENDBRANCH  12  40
BRANCH   1  60
ATOM     60  C   LIG d   1       6.703  -1.884  -7.973  0.00  0.00    -0.056 C 
ATOM     61  H   LIG d   1       7.580  -1.445  -8.447  0.00  0.00     0.024 H 
ATOM     62  H   LIG d   1       6.982  -2.818  -7.485  0.00  0.00     0.024 H 
ATOM     63  H   LIG d   1       5.943  -2.085  -8.730  0.00  0.00     0.024 H 
ENDBRANCH   1  60
BRANCH  22  64
ATOM     64  C   LIG d   1       1.606  -0.525  -9.675  0.00  0.00    -0.056 C 
ATOM     65  H   LIG d   1       1.383   0.183  -8.878  0.00  0.00     0.024 H 
ATOM     66  H   LIG d   1       1.126  -0.199 -10.597  0.00  0.00     0.024 H 
ATOM     67  H   LIG d   1       1.231  -1.512  -9.401  0.00  0.00     0.024 H 
ENDBRANCH  22  64
TORSDOF 7
ENDMDL
MODEL 5
REMARK VINA RESULT:      -7.4      3.198      7.461
REMARK  7 active torsions:
REMARK  status: ('A' for Active; 'I' for Inactive)
REMARK    1  A    between atoms: C_1  and  C_2 
REMARK    2  A    between atoms: C_13  and  O_15 
REMARK    3  A    between atoms: O_15  and  C_16 
REMARK    4  A    between atoms: C_16  and  C_18 
REMARK    5  A    between atoms: C_18  and  C_19 
REMARK    6  A    between atoms: C_19  and  C_20 
REMARK    7  A    between atoms: C_34  and  C_35 
ROOT
ATOM      1  C   LIG d   1       6.480  -1.752  -7.140  0.00  0.00     0.008 C 
ATOM      2  C   LIG d   1       5.912  -0.450  -6.602  0.00  0.00    -0.044 C 
ATOM      3  C   LIG d   1       4.691  -0.108  -7.466  0.00  0.00    -0.049 C 
ATOM      4  C   LIG d   1       5.039   0.001  -8.950  0.00  0.00    -0.029 C 
ATOM      5  H   LIG d   1       5.659   0.883  -9.106  0.00  0.00     0.031 H 
ATOM      6  C   LIG d   1       5.797  -1.225  -9.464  0.00  0.00    -0.034 C 
ATOM      7  H   LIG d   1       5.145  -2.097  -9.416  0.00  0.00     0.031 H 
ATOM      8  C   LIG d   1       7.003  -1.446  -8.568  0.00  0.00    -0.029 C 
ATOM      9  H   LIG d   1       7.643  -0.563  -8.555  0.00  0.00     0.031 H 
ATOM     10  C   LIG d   1       7.832  -2.698  -8.872  0.00  0.00    -0.046 C 
ATOM     11  C   LIG d   1       8.569  -2.962  -7.530  0.00  0.00    -0.015 C 
ATOM     12  C   LIG d   1       7.712  -2.296  -6.424  0.00  0.00     0.109 C 
ATOM     13  H   LIG d   1       8.267  -1.483  -5.956  0.00  0.00     0.074 H 
ATOM     14  C   LIG d   1       6.279  -1.040 -10.899  0.00  0.00    -0.046 C 
ATOM     15  C   LIG d   1       5.315  -0.204 -11.731  0.00  0.00    -0.030 C 
ATOM     16  C   LIG d   1       3.929  -0.309 -11.140  0.00  0.00    -0.060 C 
ATOM     17  C   LIG d   1       2.927  -0.814 -11.851  0.00  0.00    -0.019 C 
ATOM     18  C   LIG d   1       1.587  -0.936 -11.282  0.00  0.00     0.156 C 
ATOM     19  O   LIG d   1       0.680  -1.381 -11.955  0.00  0.00    -0.293 OA
ATOM     20  C   LIG d   1       1.332  -0.509  -9.858  0.00  0.00     0.011 C 
ATOM     21  C   LIG d   1       2.629  -0.659  -9.055  0.00  0.00    -0.037 C 
ATOM     22  C   LIG d   1       3.726   0.169  -9.726  0.00  0.00    -0.007 C 
ATOM     23  H   LIG d   1       6.657   0.342  -6.679  0.00  0.00     0.027 H 
ATOM     24  H   LIG d   1       5.608  -0.578  -5.563  0.00  0.00     0.027 H 
ATOM     25  H   LIG d   1       4.277   0.843  -7.130  0.00  0.00     0.027 H 
ATOM     26  H   LIG d   1       3.939  -0.886  -7.336  0.00  0.00     0.027 H 
ATOM     27  H   LIG d   1       8.547  -2.504  -9.671  0.00  0.00     0.027 H 
ATOM     28  H   LIG d   1       7.187  -3.538  -9.129  0.00  0.00     0.027 H 
ATOM     29  H   LIG d   1       9.563  -2.515  -7.554  0.00  0.00     0.030 H 
ATOM     30  H   LIG d   1       8.644  -4.035  -7.350  0.00  0.00     0.030 H 
ATOM     31  H   LIG d   1       7.252  -0.547 -10.884  0.00  0.00     0.027 H 
ATOM     32  H   LIG d   1       6.387  -2.020 -11.364  0.00  0.00     0.027 H 
ATOM     33  H   LIG d   1       5.302  -0.575 -12.755  0.00  0.00     0.031 H 
ATOM     34  H   LIG d   1       5.636   0.837 -11.724  0.00  0.00     0.031 H 
ATOM     35  H   LIG d   1       3.107  -1.139 -12.866  0.00  0.00     0.065 H 
ATOM     36  H   LIG d   1       1.033   0.444  -9.845  0.00  0.00     0.035 H 
ATOM     37  H   LIG d   1       0.558  -1.140  -9.421  0.00  0.00     0.035 H 
ATOM     38  H   LIG d   1       2.472  -0.301  -8.039  0.00  0.00     0.028 H 
ATOM     39  H   LIG d   1       2.925  -1.707  -9.033  0.00  0.00     0.028 H 
ENDROOT
BRANCH  12  40
ATOM     40  O   LIG d   1       7.323  -3.277  -5.427  0.00  0.00    -0.461 OA
BRANCH  40  41
ATOM     41  C   LIG d   1       7.695  -3.040  -4.160  0.00  0.00     0.308 C 
ATOM     42  O   LIG d   1       8.605  -3.665  -3.670  0.00  0.00    -0.251 OA
BRANCH  41  43
ATOM     43  C   LIG d   1       6.979  -1.992  -3.347  0.00  0.00     0.049 C 
ATOM     44  H   LIG d   1       7.324  -2.035  -2.314  0.00  0.00     0.038 H 
ATOM     45  H   LIG d   1       7.189  -1.006  -3.760  0.00  0.00     0.038 H 
BRANCH  43  46
ATOM     46  C   LIG d   1       5.472  -2.253  -3.393  0.00  0.00    -0.018 C 
ATOM     47  H   LIG d   1       5.199  -2.631  -4.379  0.00  0.00     0.032 H 
ATOM     48  H   LIG d   1       5.208  -2.991  -2.635  0.00  0.00     0.032 H 
BRANCH  46  49
ATOM     49  C   LIG d   1       4.732  -0.969  -3.124  0.00  0.00    -0.047 A 
ATOM     50  C   LIG d   1       5.159  -0.121  -2.119  0.00  0.00    -0.059 A 
ATOM     51  C   LIG d   1       4.479   1.057  -1.873  0.00  0.00    -0.061 A 
ATOM     52  H   LIG d   1       6.022  -0.381  -1.524  0.00  0.00     0.062 H 
ATOM     53  C   LIG d   1       3.374   1.390  -2.633  0.00  0.00    -0.062 A 
ATOM     54  H   LIG d   1       4.812   1.718  -1.086  0.00  0.00     0.062 H 
ATOM     55  C   LIG d   1       2.948   0.544  -3.640  0.00  0.00    -0.061 A 
ATOM     56  H   LIG d   1       2.843   2.310  -2.441  0.00  0.00     0.062 H 
ATOM     57  C   LIG d   1       3.630  -0.633  -3.889  0.00  0.00    -0.059 A 
ATOM     58  H   LIG d   1       2.084   0.803  -4.234  0.00  0.00     0.062 H 
ATOM     59  H   LIG d   1       3.299  -1.293  -4.678  0.00  0.00     0.062 H 
ENDBRANCH  46  49
ENDBRANCH  43  46
ENDBRANCH  41  43
ENDBRANCH  40  41
ENDBRANCH  12  40
BRANCH   1  60
ATOM     60  C   LIG d   1       5.386  -2.820  -7.183  0.00  0.00    -0.056 C 
ATOM     61  H   LIG d   1       5.063  -3.051  -6.168  0.00  0.00     0.024 H 
ATOM     62  H   LIG d   1       4.538  -2.449  -7.759  0.00  0.00     0.024 H 
ATOM     63  H   LIG d   1       5.776  -3.722  -7.655  0.00  0.00     0.024 H 
ENDBRANCH   1  60
BRANCH  22  64
ATOM     64  C   LIG d   1       3.324   1.645  -9.738  0.00  0.00    -0.056 C 
ATOM     65  H   LIG d   1       2.622   1.837  -8.928  0.00  0.00     0.024 H 
ATOM     66  H   LIG d   1       4.211   2.264  -9.605  0.00  0.00     0.024 H 
ATOM     67  H   LIG d   1       2.853   1.885 -10.692  0.00  0.00     0.024 H 
ENDBRANCH  22  64
TORSDOF 7
ENDMDL
MODEL 6
REMARK VINA RESULT:      -7.4      3.695      6.955
REMARK  7 active torsions:
REMARK  status: ('A' for Active; 'I' for Inactive)
REMARK    1  A    between atoms: C_1  and  C_2 
REMARK    2  A    between atoms: C_13  and  O_15 
REMARK    3  A    between atoms: O_15  and  C_16 
REMARK    4  A    between atoms: C_16  and  C_18 
REMARK    5  A    between atoms: C_18  and  C_19 
REMARK    6  A    between atoms: C_19  and  C_20 
REMARK    7  A    between atoms: C_34  and  C_35 
ROOT
ATOM      1  C   LIG d   1       6.708  -0.623  -6.195  0.00  0.00     0.008 C 
ATOM      2  C   LIG d   1       7.884  -1.237  -5.454  0.00  0.00    -0.044 C 
ATOM      3  C   LIG d   1       8.691  -0.073  -4.862  0.00  0.00    -0.049 C 
ATOM      4  C   LIG d   1       9.152   0.919  -5.929  0.00  0.00    -0.029 C 
ATOM      5  H   LIG d   1       9.904   0.442  -6.556  0.00  0.00     0.031 H 
ATOM      6  C   LIG d   1       8.004   1.396  -6.820  0.00  0.00    -0.034 C 
ATOM      7  H   LIG d   1       7.298   1.972  -6.222  0.00  0.00     0.031 H 
ATOM      8  C   LIG d   1       7.304   0.171  -7.386  0.00  0.00    -0.029 C 
ATOM      9  H   LIG d   1       8.005  -0.452  -7.944  0.00  0.00     0.031 H 
ATOM     10  C   LIG d   1       6.056   0.453  -8.230  0.00  0.00    -0.046 C 
ATOM     11  C   LIG d   1       5.279  -0.890  -8.162  0.00  0.00    -0.015 C 
ATOM     12  C   LIG d   1       5.753  -1.603  -6.869  0.00  0.00     0.109 C 
ATOM     13  H   LIG d   1       6.272  -2.528  -7.117  0.00  0.00     0.074 H 
ATOM     14  C   LIG d   1       8.496   2.257  -7.978  0.00  0.00    -0.046 C 
ATOM     15  C   LIG d   1       9.707   3.100  -7.598  0.00  0.00    -0.030 C 
ATOM     16  C   LIG d   1       9.707   3.324  -6.104  0.00  0.00    -0.060 C 
ATOM     17  C   LIG d   1       9.633   4.553  -5.605  0.00  0.00    -0.019 C 
ATOM     18  C   LIG d   1       9.614   4.779  -4.161  0.00  0.00     0.156 C 
ATOM     19  O   LIG d   1       9.567   5.910  -3.724  0.00  0.00    -0.293 OA
ATOM     20  C   LIG d   1       9.654   3.604  -3.215  0.00  0.00     0.011 C 
ATOM     21  C   LIG d   1       9.031   2.387  -3.908  0.00  0.00    -0.037 C 
ATOM     22  C   LIG d   1       9.787   2.116  -5.209  0.00  0.00    -0.007 C 
ATOM     23  H   LIG d   1       8.504  -1.805  -6.147  0.00  0.00     0.027 H 
ATOM     24  H   LIG d   1       7.523  -1.885  -4.655  0.00  0.00     0.027 H 
ATOM     25  H   LIG d   1       9.566  -0.476  -4.352  0.00  0.00     0.027 H 
ATOM     26  H   LIG d   1       8.069   0.452  -4.137  0.00  0.00     0.027 H 
ATOM     27  H   LIG d   1       6.330   0.688  -9.258  0.00  0.00     0.027 H 
ATOM     28  H   LIG d   1       5.468   1.261  -7.795  0.00  0.00     0.027 H 
ATOM     29  H   LIG d   1       5.513  -1.502  -9.033  0.00  0.00     0.030 H 
ATOM     30  H   LIG d   1       4.207  -0.700  -8.114  0.00  0.00     0.030 H 
ATOM     31  H   LIG d   1       8.765   1.609  -8.812  0.00  0.00     0.027 H 
ATOM     32  H   LIG d   1       7.690   2.920  -8.292  0.00  0.00     0.027 H 
ATOM     33  H   LIG d   1       9.656   4.061  -8.109  0.00  0.00     0.031 H 
ATOM     34  H   LIG d   1      10.619   2.580  -7.888  0.00  0.00     0.031 H 
ATOM     35  H   LIG d   1       9.585   5.398  -6.276  0.00  0.00     0.065 H 
ATOM     36  H   LIG d   1      10.603   3.406  -2.970  0.00  0.00     0.035 H 
ATOM     37  H   LIG d   1       9.087   3.842  -2.315  0.00  0.00     0.035 H 
ATOM     38  H   LIG d   1       9.104   1.519  -3.255  0.00  0.00     0.028 H 
ATOM     39  H   LIG d   1       7.984   2.591  -4.131  0.00  0.00     0.028 H 
ENDROOT
BRANCH  12  40
ATOM     40  O   LIG d   1       4.621  -1.880  -6.003  0.00  0.00    -0.461 OA
BRANCH  40  41
ATOM     41  C   LIG d   1       4.646  -3.033  -5.316  0.00  0.00     0.308 C 
ATOM     42  O   LIG d   1       4.301  -4.061  -5.849  0.00  0.00    -0.251 OA
BRANCH  41  43
ATOM     43  C   LIG d   1       5.108  -3.046  -3.882  0.00  0.00     0.049 C 
ATOM     44  H   LIG d   1       5.504  -4.031  -3.636  0.00  0.00     0.038 H 
ATOM     45  H   LIG d   1       5.886  -2.296  -3.744  0.00  0.00     0.038 H 
BRANCH  43  46
ATOM     46  C   LIG d   1       3.926  -2.729  -2.963  0.00  0.00    -0.018 C 
ATOM     47  H   LIG d   1       3.001  -3.063  -3.434  0.00  0.00     0.032 H 
ATOM     48  H   LIG d   1       4.057  -3.245  -2.011  0.00  0.00     0.032 H 
BRANCH  46  49
ATOM     49  C   LIG d   1       3.860  -1.243  -2.725  0.00  0.00    -0.047 A 
ATOM     50  C   LIG d   1       4.733  -0.645  -1.835  0.00  0.00    -0.059 A 
ATOM     51  C   LIG d   1       4.671   0.718  -1.617  0.00  0.00    -0.061 A 
ATOM     52  H   LIG d   1       5.461  -1.244  -1.310  0.00  0.00     0.062 H 
ATOM     53  C   LIG d   1       3.739   1.485  -2.290  0.00  0.00    -0.062 A 
ATOM     54  H   LIG d   1       5.353   1.185  -0.921  0.00  0.00     0.062 H 
ATOM     55  C   LIG d   1       2.867   0.888  -3.181  0.00  0.00    -0.061 A 
ATOM     56  H   LIG d   1       3.691   2.551  -2.119  0.00  0.00     0.062 H 
ATOM     57  C   LIG d   1       2.931  -0.475  -3.402  0.00  0.00    -0.059 A 
ATOM     58  H   LIG d   1       2.137   1.487  -3.706  0.00  0.00     0.062 H 
ATOM     59  H   LIG d   1       2.251  -0.942  -4.101  0.00  0.00     0.062 H 
ENDBRANCH  46  49
ENDBRANCH  43  46
ENDBRANCH  41  43
ENDBRANCH  40  41
ENDBRANCH  12  40
BRANCH   1  60
ATOM     60  C   LIG d   1       5.930   0.306  -5.261  0.00  0.00    -0.056 C 
ATOM     61  H   LIG d   1       5.503   1.127  -5.836  0.00  0.00     0.024 H 
ATOM     62  H   LIG d   1       5.130  -0.253  -4.775  0.00  0.00     0.024 H 
ATOM     63  H   LIG d   1       6.604   0.706  -4.502  0.00  0.00     0.024 H 
ENDBRANCH   1  60
BRANCH  22  64
ATOM     64  C   LIG d   1      11.253   1.807  -4.898  0.00  0.00    -0.056 C 
ATOM     65  H   LIG d   1      11.647   2.560  -4.217  0.00  0.00     0.024 H 
ATOM     66  H   LIG d   1      11.326   0.824  -4.433  0.00  0.00     0.024 H 
ATOM     67  H   LIG d   1      11.830   1.815  -5.823  0.00  0.00     0.024 H 
ENDBRANCH  22  64
TORSDOF 7
ENDMDL
MODEL 7
REMARK VINA RESULT:      -7.3      4.252      7.546
REMARK  7 active torsions:
REMARK  status: ('A' for Active; 'I' for Inactive)
REMARK    1  A    between atoms: C_1  and  C_2 
REMARK    2  A    between atoms: C_13  and  O_15 
REMARK    3  A    between atoms: O_15  and  C_16 
REMARK    4  A    between atoms: C_16  and  C_18 
REMARK    5  A    between atoms: C_18  and  C_19 
REMARK    6  A    between atoms: C_19  and  C_20 
REMARK    7  A    between atoms: C_34  and  C_35 
ROOT
ATOM      1  C   LIG d   1       8.104  -0.061  -5.116  0.00  0.00     0.008 C 
ATOM      2  C   LIG d   1       7.638   0.553  -3.806  0.00  0.00    -0.044 C 
ATOM      3  C   LIG d   1       8.158   1.997  -3.783  0.00  0.00    -0.049 C 
ATOM      4  C   LIG d   1       9.677   2.072  -3.932  0.00  0.00    -0.029 C 
ATOM      5  H   LIG d   1      10.142   1.669  -3.034  0.00  0.00     0.031 H 
ATOM      6  C   LIG d   1      10.186   1.285  -5.141  0.00  0.00    -0.034 C 
ATOM      7  H   LIG d   1       9.815   1.748  -6.056  0.00  0.00     0.031 H 
ATOM      8  C   LIG d   1       9.651  -0.134  -5.041  0.00  0.00    -0.029 C 
ATOM      9  H   LIG d   1       9.964  -0.600  -4.106  0.00  0.00     0.031 H 
ATOM     10  C   LIG d   1       9.978  -1.049  -6.226  0.00  0.00    -0.046 C 
ATOM     11  C   LIG d   1       8.881  -2.144  -6.134  0.00  0.00    -0.015 C 
ATOM     12  C   LIG d   1       7.695  -1.510  -5.363  0.00  0.00     0.109 C 
ATOM     13  H   LIG d   1       7.542  -2.026  -4.416  0.00  0.00     0.074 H 
ATOM     14  C   LIG d   1      11.709   1.232  -5.192  0.00  0.00    -0.046 C 
ATOM     15  C   LIG d   1      12.350   2.505  -4.652  0.00  0.00    -0.030 C 
ATOM     16  C   LIG d   1      11.377   3.650  -4.795  0.00  0.00    -0.060 C 
ATOM     17  C   LIG d   1      11.680   4.706  -5.542  0.00  0.00    -0.019 C 
ATOM     18  C   LIG d   1      10.737   5.812  -5.701  0.00  0.00     0.156 C 
ATOM     19  O   LIG d   1      11.041   6.778  -6.370  0.00  0.00    -0.293 OA
ATOM     20  C   LIG d   1       9.387   5.751  -5.031  0.00  0.00     0.011 C 
ATOM     21  C   LIG d   1       8.978   4.283  -4.870  0.00  0.00    -0.037 C 
ATOM     22  C   LIG d   1      10.059   3.551  -4.073  0.00  0.00    -0.007 C 
ATOM     23  H   LIG d   1       8.052  -0.005  -2.966  0.00  0.00     0.027 H 
ATOM     24  H   LIG d   1       6.549   0.548  -3.760  0.00  0.00     0.027 H 
ATOM     25  H   LIG d   1       7.872   2.458  -2.838  0.00  0.00     0.027 H 
ATOM     26  H   LIG d   1       7.695   2.550  -4.601  0.00  0.00     0.027 H 
ATOM     27  H   LIG d   1      10.969  -1.487  -6.114  0.00  0.00     0.027 H 
ATOM     28  H   LIG d   1       9.902  -0.506  -7.169  0.00  0.00     0.027 H 
ATOM     29  H   LIG d   1       9.260  -3.009  -5.590  0.00  0.00     0.030 H 
ATOM     30  H   LIG d   1       8.562  -2.440  -7.133  0.00  0.00     0.030 H 
ATOM     31  H   LIG d   1      12.053   0.385  -4.598  0.00  0.00     0.027 H 
ATOM     32  H   LIG d   1      12.023   1.090  -6.225  0.00  0.00     0.027 H 
ATOM     33  H   LIG d   1      13.255   2.724  -5.218  0.00  0.00     0.031 H 
ATOM     34  H   LIG d   1      12.601   2.369  -3.600  0.00  0.00     0.031 H 
ATOM     35  H   LIG d   1      12.638   4.748  -6.039  0.00  0.00     0.065 H 
ATOM     36  H   LIG d   1       9.440   6.189  -4.135  0.00  0.00     0.035 H 
ATOM     37  H   LIG d   1       8.651   6.269  -5.647  0.00  0.00     0.035 H 
ATOM     38  H   LIG d   1       8.030   4.225  -4.338  0.00  0.00     0.028 H 
ATOM     39  H   LIG d   1       8.876   3.823  -5.853  0.00  0.00     0.028 H 
ENDROOT
BRANCH  12  40
ATOM     40  O   LIG d   1       6.486  -1.562  -6.165  0.00  0.00    -0.461 OA
BRANCH  40  41
ATOM     41  C   LIG d   1       5.479  -2.318  -5.700  0.00  0.00     0.308 C 
ATOM     42  O   LIG d   1       4.537  -2.574  -6.413  0.00  0.00    -0.251 OA
BRANCH  41  43
ATOM     43  C   LIG d   1       5.522  -2.848  -4.291  0.00  0.00     0.049 C 
ATOM     44  H   LIG d   1       5.752  -3.914  -4.310  0.00  0.00     0.038 H 
ATOM     45  H   LIG d   1       6.291  -2.321  -3.728  0.00  0.00     0.038 H 
BRANCH  43  46
ATOM     46  C   LIG d   1       4.162  -2.632  -3.623  0.00  0.00    -0.018 C 
ATOM     47  H   LIG d   1       3.368  -2.854  -4.337  0.00  0.00     0.032 H 
ATOM     48  H   LIG d   1       4.072  -3.294  -2.761  0.00  0.00     0.032 H 
BRANCH  46  49
ATOM     49  C   LIG d   1       4.047  -1.200  -3.171  0.00  0.00    -0.047 A 
ATOM     50  C   LIG d   1       4.677  -0.787  -2.012  0.00  0.00    -0.059 A 
ATOM     51  C   LIG d   1       4.571   0.528  -1.599  0.00  0.00    -0.061 A 
ATOM     52  H   LIG d   1       5.252  -1.491  -1.430  0.00  0.00     0.062 H 
ATOM     53  C   LIG d   1       3.836   1.430  -2.344  0.00  0.00    -0.062 A 
ATOM     54  H   LIG d   1       5.063   0.850  -0.693  0.00  0.00     0.062 H 
ATOM     55  C   LIG d   1       3.206   1.017  -3.503  0.00  0.00    -0.061 A 
ATOM     56  H   LIG d   1       3.752   2.457  -2.021  0.00  0.00     0.062 H 
ATOM     57  C   LIG d   1       3.316  -0.296  -3.919  0.00  0.00    -0.059 A 
ATOM     58  H   LIG d   1       2.630   1.722  -4.086  0.00  0.00     0.062 H 
ATOM     59  H   LIG d   1       2.826  -0.618  -4.828  0.00  0.00     0.062 H 
ENDBRANCH  46  49
ENDBRANCH  43  46
ENDBRANCH  41  43
ENDBRANCH  40  41
ENDBRANCH  12  40
BRANCH   1  60
ATOM     60  C   LIG d   1       7.660   0.815  -6.289  0.00  0.00    -0.056 C 
ATOM     61  H   LIG d   1       8.437   1.547  -6.511  0.00  0.00     0.024 H 
ATOM     62  H   LIG d   1       7.488   0.189  -7.165  0.00  0.00     0.024 H 
ATOM     63  H   LIG d   1       6.737   1.333  -6.027  0.00  0.00     0.024 H 
ENDBRANCH   1  60
BRANCH  22  64
ATOM     64  C   LIG d   1      10.189   4.180  -2.684  0.00  0.00    -0.056 C 
ATOM     65  H   LIG d   1       9.268   4.708  -2.436  0.00  0.00     0.024 H 
ATOM     66  H   LIG d   1      10.369   3.398  -1.947  0.00  0.00     0.024 H 
ATOM     67  H   LIG d   1      11.023   4.882  -2.680  0.00  0.00     0.024 H 
ENDBRANCH  22  64
TORSDOF 7
ENDMDL
MODEL 8
REMARK VINA RESULT:      -7.1      5.045      8.365
REMARK  7 active torsions:
REMARK  status: ('A' for Active; 'I' for Inactive)
REMARK    1  A    between atoms: C_1  and  C_2 
REMARK    2  A    between atoms: C_13  and  O_15 
REMARK    3  A    between atoms: O_15  and  C_16 
REMARK    4  A    between atoms: C_16  and  C_18 
REMARK    5  A    between atoms: C_18  and  C_19 
REMARK    6  A    between atoms: C_19  and  C_20 
REMARK    7  A    between atoms: C_34  and  C_35 
ROOT
ATOM      1  C   LIG d   1       8.875   1.012  -5.683  0.00  0.00     0.008 C 
ATOM      2  C   LIG d   1      10.142   0.659  -4.922  0.00  0.00    -0.044 C 
ATOM      3  C   LIG d   1      10.520   1.894  -4.094  0.00  0.00    -0.049 C 
ATOM      4  C   LIG d   1      10.711   3.140  -4.958  0.00  0.00    -0.029 C 
ATOM      5  H   LIG d   1      11.605   3.016  -5.568  0.00  0.00     0.031 H 
ATOM      6  C   LIG d   1       9.520   3.397  -5.884  0.00  0.00    -0.034 C 
ATOM      7  H   LIG d   1       8.641   3.633  -5.285  0.00  0.00     0.031 H 
ATOM      8  C   LIG d   1       9.261   2.132  -6.685  0.00  0.00    -0.029 C 
ATOM      9  H   LIG d   1      10.147   1.844  -7.251  0.00  0.00     0.031 H 
ATOM     10  C   LIG d   1       8.034   2.168  -7.601  0.00  0.00    -0.046 C 
ATOM     11  C   LIG d   1       7.704   0.664  -7.801  0.00  0.00    -0.015 C 
ATOM     12  C   LIG d   1       8.304  -0.081  -6.581  0.00  0.00     0.109 C 
ATOM     13  H   LIG d   1       9.094  -0.757  -6.904  0.00  0.00     0.074 H 
ATOM     14  C   LIG d   1       9.785   4.544  -6.854  0.00  0.00    -0.046 C 
ATOM     15  C   LIG d   1      10.657   5.631  -6.239  0.00  0.00    -0.030 C 
ATOM     16  C   LIG d   1      10.509   5.596  -4.737  0.00  0.00    -0.060 C 
ATOM     17  C   LIG d   1      10.035   6.649  -4.079  0.00  0.00    -0.019 C 
ATOM     18  C   LIG d   1       9.872   6.618  -2.627  0.00  0.00     0.156 C 
ATOM     19  O   LIG d   1       9.457   7.597  -2.042  0.00  0.00    -0.293 OA
ATOM     20  C   LIG d   1      10.220   5.369  -1.857  0.00  0.00     0.011 C 
ATOM     21  C   LIG d   1      10.038   4.154  -2.773  0.00  0.00    -0.037 C 
ATOM     22  C   LIG d   1      10.909   4.335  -4.017  0.00  0.00    -0.007 C 
ATOM     23  H   LIG d   1      10.942   0.421  -5.622  0.00  0.00     0.027 H 
ATOM     24  H   LIG d   1       9.956  -0.189  -4.263  0.00  0.00     0.027 H 
ATOM     25  H   LIG d   1      11.448   1.689  -3.560  0.00  0.00     0.027 H 
ATOM     26  H   LIG d   1       9.730   2.086  -3.368  0.00  0.00     0.027 H 
ATOM     27  H   LIG d   1       8.276   2.639  -8.553  0.00  0.00     0.027 H 
ATOM     28  H   LIG d   1       7.203   2.683  -7.118  0.00  0.00     0.027 H 
ATOM     29  H   LIG d   1       8.160   0.300  -8.723  0.00  0.00     0.030 H 
ATOM     30  H   LIG d   1       6.624   0.518  -7.835  0.00  0.00     0.030 H 
ATOM     31  H   LIG d   1      10.284   4.150  -7.739  0.00  0.00     0.027 H 
ATOM     32  H   LIG d   1       8.832   4.982  -7.151  0.00  0.00     0.027 H 
ATOM     33  H   LIG d   1      10.341   6.605  -6.613  0.00  0.00     0.031 H 
ATOM     34  H   LIG d   1      11.699   5.458  -6.507  0.00  0.00     0.031 H 
ATOM     35  H   LIG d   1       9.766   7.541  -4.626  0.00  0.00     0.065 H 
ATOM     36  H   LIG d   1      11.169   5.422  -1.548  0.00  0.00     0.035 H 
ATOM     37  H   LIG d   1       9.560   5.277  -0.994  0.00  0.00     0.035 H 
ATOM     38  H   LIG d   1      10.339   3.250  -2.245  0.00  0.00     0.028 H 
ATOM     39  H   LIG d   1       8.992   4.073  -3.069  0.00  0.00     0.028 H 
ENDROOT
BRANCH  12  40
ATOM     40  O   LIG d   1       7.267  -0.818  -5.881  0.00  0.00    -0.461 OA
BRANCH  40  41
ATOM     41  C   LIG d   1       7.580  -2.050  -5.450  0.00  0.00     0.308 C 
ATOM     42  O   LIG d   1       8.472  -2.667  -5.982  0.00  0.00    -0.251 OA
BRANCH  41  43
ATOM     43  C   LIG d   1       6.820  -2.663  -4.302  0.00  0.00     0.049 C 
ATOM     44  H   LIG d   1       5.789  -2.845  -4.605  0.00  0.00     0.038 H 
ATOM     45  H   LIG d   1       7.287  -3.606  -4.020  0.00  0.00     0.038 H 
BRANCH  43  46
ATOM     46  C   LIG d   1       6.841  -1.707  -3.108  0.00  0.00    -0.018 C 
ATOM     47  H   LIG d   1       7.121  -2.256  -2.208  0.00  0.00     0.032 H 
ATOM     48  H   LIG d   1       7.566  -0.913  -3.290  0.00  0.00     0.032 H 
BRANCH  46  49
ATOM     49  C   LIG d   1       5.472  -1.106  -2.924  0.00  0.00    -0.047 A 
ATOM     50  C   LIG d   1       4.345  -1.840  -3.242  0.00  0.00    -0.059 A 
ATOM     51  C   LIG d   1       3.089  -1.288  -3.072  0.00  0.00    -0.061 A 
ATOM     52  H   LIG d   1       4.446  -2.845  -3.624  0.00  0.00     0.062 H 
ATOM     53  C   LIG d   1       2.959  -0.002  -2.583  0.00  0.00    -0.062 A 
ATOM     54  H   LIG d   1       2.209  -1.862  -3.322  0.00  0.00     0.062 H 
ATOM     55  C   LIG d   1       4.086   0.733  -2.263  0.00  0.00    -0.061 A 
ATOM     56  H   LIG d   1       1.978   0.430  -2.451  0.00  0.00     0.062 H 
ATOM     57  C   LIG d   1       5.342   0.179  -2.429  0.00  0.00    -0.059 A 
ATOM     58  H   LIG d   1       3.985   1.738  -1.882  0.00  0.00     0.062 H 
ATOM     59  H   LIG d   1       6.223   0.751  -2.176  0.00  0.00     0.062 H 
ENDBRANCH  46  49
ENDBRANCH  43  46
ENDBRANCH  41  43
ENDBRANCH  40  41
ENDBRANCH  12  40
BRANCH   1  60
ATOM     60  C   LIG d   1       7.802   1.503  -4.710  0.00  0.00    -0.056 C 
ATOM     61  H   LIG d   1       8.231   1.600  -3.713  0.00  0.00     0.024 H 
ATOM     62  H   LIG d   1       7.428   2.473  -5.041  0.00  0.00     0.024 H 
ATOM     63  H   LIG d   1       6.979   0.788  -4.684  0.00  0.00     0.024 H 
ENDBRANCH   1  60
BRANCH  22  64
ATOM     64  C   LIG d   1      12.380   4.425  -3.607  0.00  0.00    -0.056 C 
ATOM     65  H   LIG d   1      12.449   4.593  -2.533  0.00  0.00     0.024 H 
ATOM     66  H   LIG d   1      12.886   3.494  -3.862  0.00  0.00     0.024 H 
ATOM     67  H   LIG d   1      12.855   5.252  -4.136  0.00  0.00     0.024 H 
ENDBRANCH  22  64
TORSDOF 7
ENDMDL
MODEL 9
REMARK VINA RESULT:      -7.1      7.216     10.539
REMARK  7 active torsions:
REMARK  status: ('A' for Active; 'I' for Inactive)
REMARK    1  A    between atoms: C_1  and  C_2 
REMARK    2  A    between atoms: C_13  and  O_15 
REMARK    3  A    between atoms: O_15  and  C_16 
REMARK    4  A    between atoms: C_16  and  C_18 
REMARK    5  A    between atoms: C_18  and  C_19 
REMARK    6  A    between atoms: C_19  and  C_20 
REMARK    7  A    between atoms: C_34  and  C_35 
ROOT
ATOM      1  C   LIG d   1      10.607   3.773  -4.404  0.00  0.00     0.008 C 
ATOM      2  C   LIG d   1      10.547   3.344  -2.948  0.00  0.00    -0.044 C 
ATOM      3  C   LIG d   1      10.349   4.619  -2.118  0.00  0.00    -0.049 C 
ATOM      4  C   LIG d   1      11.454   5.649  -2.357  0.00  0.00    -0.029 C 
ATOM      5  H   LIG d   1      12.386   5.272  -1.941  0.00  0.00     0.031 H 
ATOM      6  C   LIG d   1      11.666   5.943  -3.844  0.00  0.00    -0.034 C 
ATOM      7  H   LIG d   1      10.774   6.424  -4.247  0.00  0.00     0.031 H 
ATOM      8  C   LIG d   1      11.895   4.623  -4.560  0.00  0.00    -0.029 C 
ATOM      9  H   LIG d   1      12.750   4.096  -4.136  0.00  0.00     0.031 H 
ATOM     10  C   LIG d   1      12.028   4.712  -6.084  0.00  0.00    -0.046 C 
ATOM     11  C   LIG d   1      11.670   3.274  -6.549  0.00  0.00    -0.015 C 
ATOM     12  C   LIG d   1      10.797   2.657  -5.427  0.00  0.00     0.109 C 
ATOM     13  H   LIG d   1      11.310   1.810  -4.972  0.00  0.00     0.074 H 
ATOM     14  C   LIG d   1      12.871   6.846  -4.083  0.00  0.00    -0.046 C 
ATOM     15  C   LIG d   1      13.068   7.857  -2.961  0.00  0.00    -0.030 C 
ATOM     16  C   LIG d   1      11.745   8.105  -2.277  0.00  0.00    -0.060 C 
ATOM     17  C   LIG d   1      11.206   9.319  -2.265  0.00  0.00    -0.019 C 
ATOM     18  C   LIG d   1       9.917   9.564  -1.621  0.00  0.00     0.156 C 
ATOM     19  O   LIG d   1       9.451  10.685  -1.602  0.00  0.00    -0.293 OA
ATOM     20  C   LIG d   1       9.167   8.424  -0.980  0.00  0.00     0.011 C 
ATOM     21  C   LIG d   1       9.544   7.120  -1.691  0.00  0.00    -0.037 C 
ATOM     22  C   LIG d   1      11.060   6.935  -1.620  0.00  0.00    -0.007 C 
ATOM     23  H   LIG d   1      11.480   2.857  -2.665  0.00  0.00     0.027 H 
ATOM     24  H   LIG d   1       9.708   2.666  -2.794  0.00  0.00     0.027 H 
ATOM     25  H   LIG d   1      10.338   4.353  -1.061  0.00  0.00     0.027 H 
ATOM     26  H   LIG d   1       9.389   5.064  -2.381  0.00  0.00     0.027 H 
ATOM     27  H   LIG d   1      13.049   4.965  -6.368  0.00  0.00     0.027 H 
ATOM     28  H   LIG d   1      11.324   5.436  -6.494  0.00  0.00     0.027 H 
ATOM     29  H   LIG d   1      12.579   2.686  -6.682  0.00  0.00     0.030 H 
ATOM     30  H   LIG d   1      11.108   3.311  -7.482  0.00  0.00     0.030 H 
ATOM     31  H   LIG d   1      13.766   6.228  -4.162  0.00  0.00     0.027 H 
ATOM     32  H   LIG d   1      12.730   7.383  -5.021  0.00  0.00     0.027 H 
ATOM     33  H   LIG d   1      13.443   8.792  -3.376  0.00  0.00     0.031 H 
ATOM     34  H   LIG d   1      13.784   7.466  -2.239  0.00  0.00     0.031 H 
ATOM     35  H   LIG d   1      11.729  10.137  -2.739  0.00  0.00     0.065 H 
ATOM     36  H   LIG d   1       9.413   8.366  -0.013  0.00  0.00     0.035 H 
ATOM     37  H   LIG d   1       8.095   8.594  -1.074  0.00  0.00     0.035 H 
ATOM     38  H   LIG d   1       9.050   6.281  -1.201  0.00  0.00     0.028 H 
ATOM     39  H   LIG d   1       9.231   7.170  -2.734  0.00  0.00     0.028 H 
ENDROOT
BRANCH  12  40
ATOM     40  O   LIG d   1       9.513   2.238  -5.959  0.00  0.00    -0.461 OA
BRANCH  40  41
ATOM     41  C   LIG d   1       9.069   1.024  -5.597  0.00  0.00     0.308 C 
ATOM     42  O   LIG d   1       9.833   0.089  -5.559  0.00  0.00    -0.251 OA
BRANCH  41  43
ATOM     43  C   LIG d   1       7.619   0.828  -5.237  0.00  0.00     0.049 C 
ATOM     44  H   LIG d   1       6.992   1.365  -5.949  0.00  0.00     0.038 H 
ATOM     45  H   LIG d   1       7.378  -0.234  -5.268  0.00  0.00     0.038 H 
BRANCH  43  46
ATOM     46  C   LIG d   1       7.367   1.367  -3.827  0.00  0.00    -0.018 C 
ATOM     47  H   LIG d   1       8.272   1.259  -3.230  0.00  0.00     0.032 H 
ATOM     48  H   LIG d   1       7.093   2.421  -3.885  0.00  0.00     0.032 H 
BRANCH  46  49
ATOM     49  C   LIG d   1       6.246   0.591  -3.186  0.00  0.00    -0.047 A 
ATOM     50  C   LIG d   1       6.258  -0.792  -3.213  0.00  0.00    -0.059 A 
ATOM     51  C   LIG d   1       5.229  -1.503  -2.625  0.00  0.00    -0.061 A 
ATOM     52  H   LIG d   1       7.070  -1.314  -3.696  0.00  0.00     0.062 H 
ATOM     53  C   LIG d   1       4.190  -0.834  -2.008  0.00  0.00    -0.062 A 
ATOM     54  H   LIG d   1       5.239  -2.583  -2.648  0.00  0.00     0.062 H 
ATOM     55  C   LIG d   1       4.178   0.548  -1.979  0.00  0.00    -0.061 A 
ATOM     56  H   LIG d   1       3.386  -1.390  -1.548  0.00  0.00     0.062 H 
ATOM     57  C   LIG d   1       5.209   1.260  -2.564  0.00  0.00    -0.059 A 
ATOM     58  H   LIG d   1       3.366   1.072  -1.497  0.00  0.00     0.062 H 
ATOM     59  H   LIG d   1       5.202   2.341  -2.539  0.00  0.00     0.062 H 
ENDBRANCH  46  49
ENDBRANCH  43  46
ENDBRANCH  41  43
ENDBRANCH  40  41
ENDBRANCH  12  40
BRANCH   1  60
ATOM     60  C   LIG d   1       9.368   4.599  -4.756  0.00  0.00    -0.056 C 
ATOM     61  H   LIG d   1       8.522   4.259  -4.158  0.00  0.00     0.024 H 
ATOM     62  H   LIG d   1       9.562   5.651  -4.546  0.00  0.00     0.024 H 
ATOM     63  H   LIG d   1       9.138   4.477  -5.815  0.00  0.00     0.024 H 
ENDBRANCH   1  60
BRANCH  22  64
ATOM     64  C   LIG d   1      11.499   6.841  -0.157  0.00  0.00    -0.056 C 
ATOM     65  H   LIG d   1      12.099   7.714   0.099  0.00  0.00     0.024 H 
ATOM     66  H   LIG d   1      10.619   6.804   0.484  0.00  0.00     0.024 H 
ATOM     67  H   LIG d   1      12.092   5.937  -0.013  0.00  0.00     0.024 H 
ENDBRANCH  22  64
TORSDOF 7
ENDMDL
