MODEL 1
REMARK VINA RESULT:      -7.3      0.000      0.000
REMARK  1 active torsions:
REMARK  status: ('A' for Active; 'I' for Inactive)
REMARK    1  A    between atoms: C_4  and  C_7 
ROOT
ATOM      1  C   LIG d   1       6.959  -0.885  -3.388  0.00  0.00     0.036 C 
ATOM      2  C   LIG d   1       5.497  -0.655  -3.152  0.00  0.00    -0.025 A 
ATOM      3  C   LIG d   1       5.107   0.402  -2.344  0.00  0.00    -0.057 A 
ATOM      4  C   LIG d   1       3.767   0.650  -2.114  0.00  0.00    -0.061 A 
ATOM      5  C   LIG d   1       2.795  -0.151  -2.687  0.00  0.00    -0.061 A 
ATOM      6  C   LIG d   1       3.165  -1.210  -3.490  0.00  0.00    -0.051 A 
ATOM      7  C   LIG d   1       4.516  -1.467  -3.720  0.00  0.00     0.026 A 
ATOM      8  C   LIG d   1       4.917  -2.614  -4.565  0.00  0.00     0.194 C 
ATOM      9  O   LIG d   1       4.123  -3.154  -5.310  0.00  0.00    -0.287 OA
ATOM     10  C   LIG d   1       6.318  -3.082  -4.472  0.00  0.00     0.026 A 
ATOM     11  C   LIG d   1       7.284  -2.254  -3.903  0.00  0.00    -0.025 A 
ATOM     12  C   LIG d   1       8.589  -2.711  -3.813  0.00  0.00    -0.057 A 
ATOM     13  C   LIG d   1       8.928  -3.964  -4.287  0.00  0.00    -0.061 A 
ATOM     14  C   LIG d   1       7.968  -4.781  -4.859  0.00  0.00    -0.061 A 
ATOM     15  C   LIG d   1       6.663  -4.345  -4.953  0.00  0.00    -0.051 A 
ATOM     16  H   LIG d   1       7.488  -0.733  -2.447  0.00  0.00     0.045 H 
ATOM     17  H   LIG d   1       5.855   1.035  -1.892  0.00  0.00     0.062 H 
ATOM     18  H   LIG d   1       3.478   1.476  -1.483  0.00  0.00     0.062 H 
ATOM     19  H   LIG d   1       1.750   0.053  -2.505  0.00  0.00     0.062 H 
ATOM     20  H   LIG d   1       2.410  -1.839  -3.939  0.00  0.00     0.062 H 
ATOM     21  H   LIG d   1       9.347  -2.083  -3.369  0.00  0.00     0.062 H 
ATOM     22  H   LIG d   1       9.948  -4.307  -4.210  0.00  0.00     0.062 H 
ATOM     23  H   LIG d   1       8.242  -5.758  -5.230  0.00  0.00     0.062 H 
ATOM     24  H   LIG d   1       5.911  -4.980  -5.398  0.00  0.00     0.062 H 
ENDROOT
BRANCH   1  25
ATOM     25  C   LIG d   1       7.451   0.133  -4.384  0.00  0.00    -0.036 A 
ATOM     26  C   LIG d   1       7.218  -0.052  -5.734  0.00  0.00    -0.058 A 
ATOM     27  C   LIG d   1       7.668   0.883  -6.648  0.00  0.00    -0.061 A 
ATOM     28  H   LIG d   1       6.684  -0.927  -6.074  0.00  0.00     0.062 H 
ATOM     29  C   LIG d   1       8.351   2.003  -6.211  0.00  0.00    -0.062 A 
ATOM     30  H   LIG d   1       7.487   0.738  -7.702  0.00  0.00     0.062 H 
ATOM     31  C   LIG d   1       8.583   2.188  -4.861  0.00  0.00    -0.061 A 
ATOM     32  H   LIG d   1       8.706   2.731  -6.924  0.00  0.00     0.062 H 
ATOM     33  C   LIG d   1       8.134   1.253  -3.947  0.00  0.00    -0.058 A 
ATOM     34  H   LIG d   1       9.116   3.063  -4.519  0.00  0.00     0.062 H 
ATOM     35  H   LIG d   1       8.316   1.398  -2.892  0.00  0.00     0.062 H 
ENDBRANCH   1  25
TORSDOF 1
ENDMDL
MODEL 2
REMARK VINA RESULT:      -7.2      2.075      5.507
REMARK  1 active torsions:
REMARK  status: ('A' for Active; 'I' for Inactive)
REMARK    1  A    between atoms: C_4  and  C_7 
ROOT
ATOM      1  C   LIG d   1       6.666  -2.248  -3.938  0.00  0.00     0.036 C 
ATOM      2  C   LIG d   1       7.978  -1.818  -4.520  0.00  0.00    -0.025 A 
ATOM      3  C   LIG d   1       8.915  -2.785  -4.847  0.00  0.00    -0.057 A 
ATOM      4  C   LIG d   1      10.131  -2.425  -5.396  0.00  0.00    -0.061 A 
ATOM      5  C   LIG d   1      10.431  -1.094  -5.629  0.00  0.00    -0.061 A 
ATOM      6  C   LIG d   1       9.512  -0.118  -5.305  0.00  0.00    -0.051 A 
ATOM      7  C   LIG d   1       8.286  -0.477  -4.747  0.00  0.00     0.026 A 
ATOM      8  C   LIG d   1       7.306   0.570  -4.380  0.00  0.00     0.194 C 
ATOM      9  O   LIG d   1       7.396   1.698  -4.823  0.00  0.00    -0.287 OA
ATOM     10  C   LIG d   1       6.213   0.196  -3.455  0.00  0.00     0.026 A 
ATOM     11  C   LIG d   1       5.919  -1.150  -3.245  0.00  0.00    -0.025 A 
ATOM     12  C   LIG d   1       4.899  -1.485  -2.368  0.00  0.00    -0.057 A 
ATOM     13  C   LIG d   1       4.182  -0.498  -1.718  0.00  0.00    -0.061 A 
ATOM     14  C   LIG d   1       4.470   0.838  -1.934  0.00  0.00    -0.061 A 
ATOM     15  C   LIG d   1       5.484   1.190  -2.801  0.00  0.00    -0.051 A 
ATOM     16  H   LIG d   1       6.852  -3.048  -3.221  0.00  0.00     0.045 H 
ATOM     17  H   LIG d   1       8.693  -3.827  -4.672  0.00  0.00     0.062 H 
ATOM     18  H   LIG d   1      10.852  -3.189  -5.646  0.00  0.00     0.062 H 
ATOM     19  H   LIG d   1      11.383  -0.822  -6.062  0.00  0.00     0.062 H 
ATOM     20  H   LIG d   1       9.742   0.923  -5.484  0.00  0.00     0.062 H 
ATOM     21  H   LIG d   1       4.665  -2.523  -2.190  0.00  0.00     0.062 H 
ATOM     22  H   LIG d   1       3.390  -0.773  -1.037  0.00  0.00     0.062 H 
ATOM     23  H   LIG d   1       3.902   1.603  -1.426  0.00  0.00     0.062 H 
ATOM     24  H   LIG d   1       5.713   2.232  -2.972  0.00  0.00     0.062 H 
ENDROOT
BRANCH   1  25
ATOM     25  C   LIG d   1       5.803  -2.791  -5.048  0.00  0.00    -0.036 A 
ATOM     26  C   LIG d   1       5.443  -1.977  -6.105  0.00  0.00    -0.058 A 
ATOM     27  C   LIG d   1       4.652  -2.475  -7.124  0.00  0.00    -0.061 A 
ATOM     28  H   LIG d   1       5.779  -0.951  -6.135  0.00  0.00     0.062 H 
ATOM     29  C   LIG d   1       4.222  -3.789  -7.085  0.00  0.00    -0.062 A 
ATOM     30  H   LIG d   1       4.371  -1.839  -7.949  0.00  0.00     0.062 H 
ATOM     31  C   LIG d   1       4.583  -4.603  -6.028  0.00  0.00    -0.061 A 
ATOM     32  H   LIG d   1       3.602  -4.177  -7.878  0.00  0.00     0.062 H 
ATOM     33  C   LIG d   1       5.373  -4.105  -5.009  0.00  0.00    -0.058 A 
ATOM     34  H   LIG d   1       4.248  -5.630  -5.998  0.00  0.00     0.062 H 
ATOM     35  H   LIG d   1       5.655  -4.741  -4.183  0.00  0.00     0.062 H 
ENDBRANCH   1  25
TORSDOF 1
ENDMDL
MODEL 3
REMARK VINA RESULT:      -7.0      2.602      4.377
REMARK  1 active torsions:
REMARK  status: ('A' for Active; 'I' for Inactive)
REMARK    1  A    between atoms: C_4  and  C_7 
ROOT
ATOM      1  C   LIG d   1       4.319  -1.230  -5.692  0.00  0.00     0.036 C 
ATOM      2  C   LIG d   1       4.233  -0.252  -6.825  0.00  0.00    -0.025 A 
ATOM      3  C   LIG d   1       3.020   0.365  -7.086  0.00  0.00    -0.057 A 
ATOM      4  C   LIG d   1       2.908   1.281  -8.115  0.00  0.00    -0.061 A 
ATOM      5  C   LIG d   1       4.004   1.596  -8.899  0.00  0.00    -0.061 A 
ATOM      6  C   LIG d   1       5.218   0.987  -8.656  0.00  0.00    -0.051 A 
ATOM      7  C   LIG d   1       5.334   0.060  -7.622  0.00  0.00     0.026 A 
ATOM      8  C   LIG d   1       6.630  -0.609  -7.371  0.00  0.00     0.194 C 
ATOM      9  O   LIG d   1       7.665  -0.164  -7.825  0.00  0.00    -0.287 OA
ATOM     10  C   LIG d   1       6.623  -1.840  -6.549  0.00  0.00     0.026 A 
ATOM     11  C   LIG d   1       5.514  -2.131  -5.757  0.00  0.00    -0.025 A 
ATOM     12  C   LIG d   1       5.517  -3.293  -5.001  0.00  0.00    -0.057 A 
ATOM     13  C   LIG d   1       6.606  -4.144  -5.027  0.00  0.00    -0.061 A 
ATOM     14  C   LIG d   1       7.709  -3.848  -5.808  0.00  0.00    -0.061 A 
ATOM     15  C   LIG d   1       7.722  -2.698  -6.571  0.00  0.00    -0.051 A 
ATOM     16  H   LIG d   1       3.419  -1.845  -5.699  0.00  0.00     0.045 H 
ATOM     17  H   LIG d   1       2.158   0.130  -6.481  0.00  0.00     0.062 H 
ATOM     18  H   LIG d   1       1.957   1.754  -8.308  0.00  0.00     0.062 H 
ATOM     19  H   LIG d   1       3.908   2.316  -9.699  0.00  0.00     0.062 H 
ATOM     20  H   LIG d   1       6.077   1.230  -9.266  0.00  0.00     0.062 H 
ATOM     21  H   LIG d   1       4.662  -3.535  -4.387  0.00  0.00     0.062 H 
ATOM     22  H   LIG d   1       6.595  -5.045  -4.434  0.00  0.00     0.062 H 
ATOM     23  H   LIG d   1       8.558  -4.516  -5.821  0.00  0.00     0.062 H 
ATOM     24  H   LIG d   1       8.581  -2.464  -7.183  0.00  0.00     0.062 H 
ENDROOT
BRANCH   1  25
ATOM     25  C   LIG d   1       4.365  -0.462  -4.397  0.00  0.00    -0.036 A 
ATOM     26  C   LIG d   1       5.533   0.165  -4.006  0.00  0.00    -0.058 A 
ATOM     27  C   LIG d   1       5.575   0.871  -2.818  0.00  0.00    -0.061 A 
ATOM     28  H   LIG d   1       6.412   0.105  -4.629  0.00  0.00     0.062 H 
ATOM     29  C   LIG d   1       4.448   0.949  -2.021  0.00  0.00    -0.062 A 
ATOM     30  H   LIG d   1       6.487   1.361  -2.513  0.00  0.00     0.062 H 
ATOM     31  C   LIG d   1       3.279   0.323  -2.412  0.00  0.00    -0.061 A 
ATOM     32  H   LIG d   1       4.481   1.497  -1.091  0.00  0.00     0.062 H 
ATOM     33  C   LIG d   1       3.238  -0.384  -3.599  0.00  0.00    -0.058 A 
ATOM     34  H   LIG d   1       2.399   0.384  -1.789  0.00  0.00     0.062 H 
ATOM     35  H   LIG d   1       2.325  -0.874  -3.905  0.00  0.00     0.062 H 
ENDBRANCH   1  25
TORSDOF 1
ENDMDL
MODEL 4
REMARK VINA RESULT:      -7.0      2.640      5.165
REMARK  1 active torsions:
REMARK  status: ('A' for Active; 'I' for Inactive)
REMARK    1  A    between atoms: C_4  and  C_7 
ROOT
ATOM      1  C   LIG d   1       5.718  -1.607  -5.737  0.00  0.00     0.036 C 
ATOM      2  C   LIG d   1       6.913  -0.759  -6.053  0.00  0.00    -0.025 A 
ATOM      3  C   LIG d   1       7.679  -1.070  -7.165  0.00  0.00    -0.057 A 
ATOM      4  C   LIG d   1       8.781  -0.302  -7.493  0.00  0.00    -0.061 A 
ATOM      5  C   LIG d   1       9.136   0.787  -6.717  0.00  0.00    -0.061 A 
ATOM      6  C   LIG d   1       8.387   1.108  -5.603  0.00  0.00    -0.051 A 
ATOM      7  C   LIG d   1       7.278   0.334  -5.267  0.00  0.00     0.026 A 
ATOM      8  C   LIG d   1       6.484   0.663  -4.062  0.00  0.00     0.194 C 
ATOM      9  O   LIG d   1       6.574   1.752  -3.529  0.00  0.00    -0.287 OA
ATOM     10  C   LIG d   1       5.578  -0.378  -3.527  0.00  0.00     0.026 A 
ATOM     11  C   LIG d   1       5.224  -1.460  -4.330  0.00  0.00    -0.025 A 
ATOM     12  C   LIG d   1       4.384  -2.433  -3.812  0.00  0.00    -0.057 A 
ATOM     13  C   LIG d   1       3.900  -2.326  -2.522  0.00  0.00    -0.061 A 
ATOM     14  C   LIG d   1       4.247  -1.246  -1.728  0.00  0.00    -0.061 A 
ATOM     15  C   LIG d   1       5.085  -0.270  -2.226  0.00  0.00    -0.051 A 
ATOM     16  H   LIG d   1       5.982  -2.651  -5.906  0.00  0.00     0.045 H 
ATOM     17  H   LIG d   1       7.413  -1.916  -7.780  0.00  0.00     0.062 H 
ATOM     18  H   LIG d   1       9.369  -0.556  -8.362  0.00  0.00     0.062 H 
ATOM     19  H   LIG d   1       9.996   1.383  -6.983  0.00  0.00     0.062 H 
ATOM     20  H   LIG d   1       8.660   1.957  -4.994  0.00  0.00     0.062 H 
ATOM     21  H   LIG d   1       4.105  -3.280  -4.420  0.00  0.00     0.062 H 
ATOM     22  H   LIG d   1       3.246  -3.091  -2.130  0.00  0.00     0.062 H 
ATOM     23  H   LIG d   1       3.861  -1.168  -0.723  0.00  0.00     0.062 H 
ATOM     24  H   LIG d   1       5.360   0.574  -1.610  0.00  0.00     0.062 H 
ENDROOT
BRANCH   1  25
ATOM     25  C   LIG d   1       4.603  -1.236  -6.680  0.00  0.00    -0.036 A 
ATOM     26  C   LIG d   1       4.263  -2.084  -7.717  0.00  0.00    -0.058 A 
ATOM     27  C   LIG d   1       3.239  -1.744  -8.581  0.00  0.00    -0.061 A 
ATOM     28  H   LIG d   1       4.797  -3.013  -7.851  0.00  0.00     0.062 H 
ATOM     29  C   LIG d   1       2.555  -0.555  -8.407  0.00  0.00    -0.062 A 
ATOM     30  H   LIG d   1       2.974  -2.406  -9.391  0.00  0.00     0.062 H 
ATOM     31  C   LIG d   1       2.894   0.293  -7.370  0.00  0.00    -0.061 A 
ATOM     32  H   LIG d   1       1.758  -0.288  -9.085  0.00  0.00     0.062 H 
ATOM     33  C   LIG d   1       3.918  -0.047  -6.506  0.00  0.00    -0.058 A 
ATOM     34  H   LIG d   1       2.359   1.221  -7.234  0.00  0.00     0.062 H 
ATOM     35  H   LIG d   1       4.184   0.616  -5.696  0.00  0.00     0.062 H 
ENDBRANCH   1  25
TORSDOF 1
ENDMDL
MODEL 5
REMARK VINA RESULT:      -7.0      2.306      5.001
REMARK  1 active torsions:
REMARK  status: ('A' for Active; 'I' for Inactive)
REMARK    1  A    between atoms: C_4  and  C_7 
ROOT
ATOM      1  C   LIG d   1       3.882  -1.341  -5.396  0.00  0.00     0.036 C 
ATOM      2  C   LIG d   1       4.785  -2.533  -5.494  0.00  0.00    -0.025 A 
ATOM      3  C   LIG d   1       4.453  -3.555  -6.369  0.00  0.00    -0.057 A 
ATOM      4  C   LIG d   1       5.269  -4.664  -6.493  0.00  0.00    -0.061 A 
ATOM      5  C   LIG d   1       6.429  -4.770  -5.747  0.00  0.00    -0.061 A 
ATOM      6  C   LIG d   1       6.773  -3.764  -4.867  0.00  0.00    -0.051 A 
ATOM      7  C   LIG d   1       5.951  -2.646  -4.736  0.00  0.00     0.026 A 
ATOM      8  C   LIG d   1       6.306  -1.574  -3.780  0.00  0.00     0.194 C 
ATOM      9  O   LIG d   1       7.432  -1.481  -3.331  0.00  0.00    -0.287 OA
ATOM     10  C   LIG d   1       5.245  -0.621  -3.387  0.00  0.00     0.026 A 
ATOM     11  C   LIG d   1       4.090  -0.521  -4.160  0.00  0.00    -0.025 A 
ATOM     12  C   LIG d   1       3.100   0.369  -3.774  0.00  0.00    -0.057 A 
ATOM     13  C   LIG d   1       3.261   1.149  -2.645  0.00  0.00    -0.061 A 
ATOM     14  C   LIG d   1       4.412   1.054  -1.883  0.00  0.00    -0.061 A 
ATOM     15  C   LIG d   1       5.407   0.171  -2.250  0.00  0.00    -0.051 A 
ATOM     16  H   LIG d   1       2.850  -1.688  -5.414  0.00  0.00     0.045 H 
ATOM     17  H   LIG d   1       3.551  -3.484  -6.958  0.00  0.00     0.062 H 
ATOM     18  H   LIG d   1       4.998  -5.453  -7.178  0.00  0.00     0.062 H 
ATOM     19  H   LIG d   1       7.063  -5.638  -5.853  0.00  0.00     0.062 H 
ATOM     20  H   LIG d   1       7.678  -3.842  -4.282  0.00  0.00     0.062 H 
ATOM     21  H   LIG d   1       2.197   0.453  -4.359  0.00  0.00     0.062 H 
ATOM     22  H   LIG d   1       2.482   1.838  -2.355  0.00  0.00     0.062 H 
ATOM     23  H   LIG d   1       4.532   1.670  -1.004  0.00  0.00     0.062 H 
ATOM     24  H   LIG d   1       6.307   0.093  -1.658  0.00  0.00     0.062 H 
ENDROOT
BRANCH   1  25
ATOM     25  C   LIG d   1       4.113  -0.463  -6.600  0.00  0.00    -0.036 A 
ATOM     26  C   LIG d   1       3.038   0.085  -7.272  0.00  0.00    -0.058 A 
ATOM     27  C   LIG d   1       3.250   0.891  -8.375  0.00  0.00    -0.061 A 
ATOM     28  H   LIG d   1       2.032  -0.116  -6.935  0.00  0.00     0.062 H 
ATOM     29  C   LIG d   1       4.538   1.148  -8.806  0.00  0.00    -0.062 A 
ATOM     30  H   LIG d   1       2.410   1.319  -8.901  0.00  0.00     0.062 H 
ATOM     31  C   LIG d   1       5.614   0.600  -8.132  0.00  0.00    -0.061 A 
ATOM     32  H   LIG d   1       4.704   1.774  -9.669  0.00  0.00     0.062 H 
ATOM     33  C   LIG d   1       5.402  -0.206  -7.030  0.00  0.00    -0.058 A 
ATOM     34  H   LIG d   1       6.621   0.802  -8.468  0.00  0.00     0.062 H 
ATOM     35  H   LIG d   1       6.243  -0.634  -6.504  0.00  0.00     0.062 H 
ENDBRANCH   1  25
TORSDOF 1
ENDMDL
MODEL 6
REMARK VINA RESULT:      -6.9      1.677      4.378
REMARK  1 active torsions:
REMARK  status: ('A' for Active; 'I' for Inactive)
REMARK    1  A    between atoms: C_4  and  C_7 
ROOT
ATOM      1  C   LIG d   1       6.292  -2.166  -5.221  0.00  0.00     0.036 C 
ATOM      2  C   LIG d   1       5.541  -1.656  -4.029  0.00  0.00    -0.025 A 
ATOM      3  C   LIG d   1       4.534  -2.439  -3.486  0.00  0.00    -0.057 A 
ATOM      4  C   LIG d   1       3.829  -2.005  -2.379  0.00  0.00    -0.061 A 
ATOM      5  C   LIG d   1       4.117  -0.784  -1.796  0.00  0.00    -0.061 A 
ATOM      6  C   LIG d   1       5.112   0.011  -2.327  0.00  0.00    -0.051 A 
ATOM      7  C   LIG d   1       5.823  -0.422  -3.445  0.00  0.00     0.026 A 
ATOM      8  C   LIG d   1       6.878   0.437  -4.029  0.00  0.00     0.194 C 
ATOM      9  O   LIG d   1       7.358   1.358  -3.398  0.00  0.00    -0.287 OA
ATOM     10  C   LIG d   1       7.328   0.137  -5.406  0.00  0.00     0.026 A 
ATOM     11  C   LIG d   1       7.038  -1.105  -5.969  0.00  0.00    -0.025 A 
ATOM     12  C   LIG d   1       7.457  -1.368  -7.264  0.00  0.00    -0.057 A 
ATOM     13  C   LIG d   1       8.157  -0.416  -7.981  0.00  0.00    -0.061 A 
ATOM     14  C   LIG d   1       8.451   0.813  -7.417  0.00  0.00    -0.061 A 
ATOM     15  C   LIG d   1       8.039   1.094  -6.131  0.00  0.00    -0.051 A 
ATOM     16  H   LIG d   1       5.581  -2.636  -5.901  0.00  0.00     0.045 H 
ATOM     17  H   LIG d   1       4.300  -3.395  -3.930  0.00  0.00     0.062 H 
ATOM     18  H   LIG d   1       3.047  -2.625  -1.967  0.00  0.00     0.062 H 
ATOM     19  H   LIG d   1       3.563  -0.454  -0.930  0.00  0.00     0.062 H 
ATOM     20  H   LIG d   1       5.341   0.966  -1.875  0.00  0.00     0.062 H 
ATOM     21  H   LIG d   1       7.234  -2.322  -7.716  0.00  0.00     0.062 H 
ATOM     22  H   LIG d   1       8.477  -0.634  -8.989  0.00  0.00     0.062 H 
ATOM     23  H   LIG d   1       9.002   1.550  -7.982  0.00  0.00     0.062 H 
ATOM     24  H   LIG d   1       8.265   2.053  -5.687  0.00  0.00     0.062 H 
ENDROOT
BRANCH   1  25
ATOM     25  C   LIG d   1       7.275  -3.211  -4.759  0.00  0.00    -0.036 A 
ATOM     26  C   LIG d   1       7.257  -4.474  -5.320  0.00  0.00    -0.058 A 
ATOM     27  C   LIG d   1       8.159  -5.432  -4.897  0.00  0.00    -0.061 A 
ATOM     28  H   LIG d   1       6.537  -4.712  -6.089  0.00  0.00     0.062 H 
ATOM     29  C   LIG d   1       9.081  -5.125  -3.912  0.00  0.00    -0.062 A 
ATOM     30  H   LIG d   1       8.145  -6.418  -5.334  0.00  0.00     0.062 H 
ATOM     31  C   LIG d   1       9.099  -3.862  -3.352  0.00  0.00    -0.061 A 
ATOM     32  H   LIG d   1       9.783  -5.874  -3.578  0.00  0.00     0.062 H 
ATOM     33  C   LIG d   1       8.196  -2.905  -3.774  0.00  0.00    -0.058 A 
ATOM     34  H   LIG d   1       9.819  -3.623  -2.583  0.00  0.00     0.062 H 
ATOM     35  H   LIG d   1       8.210  -1.917  -3.336  0.00  0.00     0.062 H 
ENDBRANCH   1  25
TORSDOF 1
ENDMDL
MODEL 7
REMARK VINA RESULT:      -6.8      3.073      4.510
REMARK  1 active torsions:
REMARK  status: ('A' for Active; 'I' for Inactive)
REMARK    1  A    between atoms: C_4  and  C_7 
ROOT
ATOM      1  C   LIG d   1       4.804  -1.896  -6.336  0.00  0.00     0.036 C 
ATOM      2  C   LIG d   1       4.251  -1.617  -4.972  0.00  0.00    -0.025 A 
ATOM      3  C   LIG d   1       4.582  -2.467  -3.928  0.00  0.00    -0.057 A 
ATOM      4  C   LIG d   1       4.100  -2.233  -2.654  0.00  0.00    -0.061 A 
ATOM      5  C   LIG d   1       3.281  -1.148  -2.400  0.00  0.00    -0.061 A 
ATOM      6  C   LIG d   1       2.937  -0.294  -3.428  0.00  0.00    -0.051 A 
ATOM      7  C   LIG d   1       3.418  -0.528  -4.715  0.00  0.00     0.026 A 
ATOM      8  C   LIG d   1       3.035   0.375  -5.824  0.00  0.00     0.194 C 
ATOM      9  O   LIG d   1       2.574   1.477  -5.605  0.00  0.00    -0.287 OA
ATOM     10  C   LIG d   1       3.233  -0.111  -7.208  0.00  0.00     0.026 A 
ATOM     11  C   LIG d   1       4.073  -1.198  -7.442  0.00  0.00    -0.025 A 
ATOM     12  C   LIG d   1       4.239  -1.648  -8.742  0.00  0.00    -0.057 A 
ATOM     13  C   LIG d   1       3.589  -1.023  -9.789  0.00  0.00    -0.061 A 
ATOM     14  C   LIG d   1       2.762   0.062  -9.555  0.00  0.00    -0.061 A 
ATOM     15  C   LIG d   1       2.581   0.521  -8.267  0.00  0.00    -0.051 A 
ATOM     16  H   LIG d   1       4.759  -2.970  -6.513  0.00  0.00     0.045 H 
ATOM     17  H   LIG d   1       5.222  -3.317  -4.112  0.00  0.00     0.062 H 
ATOM     18  H   LIG d   1       4.366  -2.904  -1.851  0.00  0.00     0.062 H 
ATOM     19  H   LIG d   1       2.911  -0.970  -1.401  0.00  0.00     0.062 H 
ATOM     20  H   LIG d   1       2.297   0.556  -3.235  0.00  0.00     0.062 H 
ATOM     21  H   LIG d   1       4.882  -2.493  -8.939  0.00  0.00     0.062 H 
ATOM     22  H   LIG d   1       3.728  -1.384 -10.797  0.00  0.00     0.062 H 
ATOM     23  H   LIG d   1       2.260   0.548 -10.379  0.00  0.00     0.062 H 
ATOM     24  H   LIG d   1       1.935   1.367  -8.079  0.00  0.00     0.062 H 
ENDROOT
BRANCH   1  25
ATOM     25  C   LIG d   1       6.247  -1.465  -6.367  0.00  0.00    -0.036 A 
ATOM     26  C   LIG d   1       6.577  -0.137  -6.175  0.00  0.00    -0.058 A 
ATOM     27  C   LIG d   1       7.901   0.258  -6.202  0.00  0.00    -0.061 A 
ATOM     28  H   LIG d   1       5.799   0.592  -6.004  0.00  0.00     0.062 H 
ATOM     29  C   LIG d   1       8.897  -0.677  -6.422  0.00  0.00    -0.062 A 
ATOM     30  H   LIG d   1       8.159   1.295  -6.053  0.00  0.00     0.062 H 
ATOM     31  C   LIG d   1       8.567  -2.005  -6.613  0.00  0.00    -0.061 A 
ATOM     32  H   LIG d   1       9.931  -0.368  -6.447  0.00  0.00     0.062 H 
ATOM     33  C   LIG d   1       7.243  -2.400  -6.587  0.00  0.00    -0.058 A 
ATOM     34  H   LIG d   1       9.345  -2.736  -6.784  0.00  0.00     0.062 H 
ATOM     35  H   LIG d   1       6.985  -3.438  -6.736  0.00  0.00     0.062 H 
ENDBRANCH   1  25
TORSDOF 1
ENDMDL
MODEL 8
REMARK VINA RESULT:      -6.8      2.173      2.958
REMARK  1 active torsions:
REMARK  status: ('A' for Active; 'I' for Inactive)
REMARK    1  A    between atoms: C_4  and  C_7 
ROOT
ATOM      1  C   LIG d   1       6.105  -0.760  -5.481  0.00  0.00     0.036 C 
ATOM      2  C   LIG d   1       5.561  -0.396  -4.132  0.00  0.00    -0.025 A 
ATOM      3  C   LIG d   1       5.694   0.910  -3.686  0.00  0.00    -0.057 A 
ATOM      4  C   LIG d   1       5.194   1.283  -2.453  0.00  0.00    -0.061 A 
ATOM      5  C   LIG d   1       4.552   0.361  -1.646  0.00  0.00    -0.061 A 
ATOM      6  C   LIG d   1       4.415  -0.944  -2.071  0.00  0.00    -0.051 A 
ATOM      7  C   LIG d   1       4.922  -1.326  -3.313  0.00  0.00     0.026 A 
ATOM      8  C   LIG d   1       4.793  -2.730  -3.765  0.00  0.00     0.194 C 
ATOM      9  O   LIG d   1       4.001  -3.488  -3.240  0.00  0.00    -0.287 OA
ATOM     10  C   LIG d   1       5.661  -3.179  -4.876  0.00  0.00     0.026 A 
ATOM     11  C   LIG d   1       6.288  -2.232  -5.685  0.00  0.00    -0.025 A 
ATOM     12  C   LIG d   1       7.107  -2.668  -6.714  0.00  0.00    -0.057 A 
ATOM     13  C   LIG d   1       7.292  -4.019  -6.939  0.00  0.00    -0.061 A 
ATOM     14  C   LIG d   1       6.662  -4.957  -6.139  0.00  0.00    -0.061 A 
ATOM     15  C   LIG d   1       5.846  -4.542  -5.107  0.00  0.00    -0.051 A 
ATOM     16  H   LIG d   1       7.069  -0.268  -5.608  0.00  0.00     0.045 H 
ATOM     17  H   LIG d   1       6.192   1.640  -4.307  0.00  0.00     0.062 H 
ATOM     18  H   LIG d   1       5.306   2.303  -2.118  0.00  0.00     0.062 H 
ATOM     19  H   LIG d   1       4.162   0.662  -0.685  0.00  0.00     0.062 H 
ATOM     20  H   LIG d   1       3.915  -1.669  -1.445  0.00  0.00     0.062 H 
ATOM     21  H   LIG d   1       7.604  -1.947  -7.345  0.00  0.00     0.062 H 
ATOM     22  H   LIG d   1       7.933  -4.345  -7.744  0.00  0.00     0.062 H 
ATOM     23  H   LIG d   1       6.808  -6.011  -6.324  0.00  0.00     0.062 H 
ATOM     24  H   LIG d   1       5.353  -5.270  -4.480  0.00  0.00     0.062 H 
ENDROOT
BRANCH   1  25
ATOM     25  C   LIG d   1       5.161  -0.242  -6.535  0.00  0.00    -0.036 A 
ATOM     26  C   LIG d   1       5.656   0.422  -7.641  0.00  0.00    -0.058 A 
ATOM     27  C   LIG d   1       4.791   0.896  -8.609  0.00  0.00    -0.061 A 
ATOM     28  H   LIG d   1       6.720   0.570  -7.749  0.00  0.00     0.062 H 
ATOM     29  C   LIG d   1       3.428   0.705  -8.470  0.00  0.00    -0.062 A 
ATOM     30  H   LIG d   1       5.178   1.415  -9.472  0.00  0.00     0.062 H 
ATOM     31  C   LIG d   1       2.932   0.039  -7.365  0.00  0.00    -0.061 A 
ATOM     32  H   LIG d   1       2.751   1.078  -9.224  0.00  0.00     0.062 H 
ATOM     33  C   LIG d   1       3.798  -0.433  -6.397  0.00  0.00    -0.058 A 
ATOM     34  H   LIG d   1       1.868  -0.110  -7.257  0.00  0.00     0.062 H 
ATOM     35  H   LIG d   1       3.411  -0.953  -5.532  0.00  0.00     0.062 H 
ENDBRANCH   1  25
TORSDOF 1
ENDMDL
MODEL 9
REMARK VINA RESULT:      -6.3      3.924      6.210
REMARK  1 active torsions:
REMARK  status: ('A' for Active; 'I' for Inactive)
REMARK    1  A    between atoms: C_4  and  C_7 
ROOT
ATOM      1  C   LIG d   1       4.786  -0.970  -7.535  0.00  0.00     0.036 C 
ATOM      2  C   LIG d   1       3.801  -0.991  -8.665  0.00  0.00    -0.025 A 
ATOM      3  C   LIG d   1       2.992  -2.104  -8.827  0.00  0.00    -0.057 A 
ATOM      4  C   LIG d   1       2.064  -2.153  -9.850  0.00  0.00    -0.061 A 
ATOM      5  C   LIG d   1       1.929  -1.092 -10.728  0.00  0.00    -0.061 A 
ATOM      6  C   LIG d   1       2.730   0.022 -10.585  0.00  0.00    -0.051 A 
ATOM      7  C   LIG d   1       3.670   0.073  -9.556  0.00  0.00     0.026 A 
ATOM      8  C   LIG d   1       4.544   1.259  -9.411  0.00  0.00     0.194 C 
ATOM      9  O   LIG d   1       4.272   2.310  -9.957  0.00  0.00    -0.287 OA
ATOM     10  C   LIG d   1       5.761   1.120  -8.581  0.00  0.00     0.026 A 
ATOM     11  C   LIG d   1       5.871   0.051  -7.694  0.00  0.00    -0.025 A 
ATOM     12  C   LIG d   1       7.022  -0.072  -6.931  0.00  0.00    -0.057 A 
ATOM     13  C   LIG d   1       8.039   0.856  -7.043  0.00  0.00    -0.061 A 
ATOM     14  C   LIG d   1       7.925   1.922  -7.919  0.00  0.00    -0.061 A 
ATOM     15  C   LIG d   1       6.788   2.058  -8.689  0.00  0.00    -0.051 A 
ATOM     16  H   LIG d   1       5.244  -1.955  -7.459  0.00  0.00     0.045 H 
ATOM     17  H   LIG d   1       3.085  -2.938  -8.148  0.00  0.00     0.062 H 
ATOM     18  H   LIG d   1       1.440  -3.026  -9.965  0.00  0.00     0.062 H 
ATOM     19  H   LIG d   1       1.199  -1.137 -11.523  0.00  0.00     0.062 H 
ATOM     20  H   LIG d   1       2.629   0.854 -11.268  0.00  0.00     0.062 H 
ATOM     21  H   LIG d   1       7.123  -0.898  -6.244  0.00  0.00     0.062 H 
ATOM     22  H   LIG d   1       8.930   0.749  -6.443  0.00  0.00     0.062 H 
ATOM     23  H   LIG d   1       8.723   2.645  -7.998  0.00  0.00     0.062 H 
ATOM     24  H   LIG d   1       6.695   2.888  -9.375  0.00  0.00     0.062 H 
ENDROOT
BRANCH   1  25
ATOM     25  C   LIG d   1       4.043  -0.687  -6.255  0.00  0.00    -0.036 A 
ATOM     26  C   LIG d   1       4.346  -1.396  -5.108  0.00  0.00    -0.058 A 
ATOM     27  C   LIG d   1       3.666  -1.135  -3.934  0.00  0.00    -0.061 A 
ATOM     28  H   LIG d   1       5.115  -2.153  -5.130  0.00  0.00     0.062 H 
ATOM     29  C   LIG d   1       2.681  -0.164  -3.907  0.00  0.00    -0.062 A 
ATOM     30  H   LIG d   1       3.902  -1.689  -3.038  0.00  0.00     0.062 H 
ATOM     31  C   LIG d   1       2.379   0.546  -5.053  0.00  0.00    -0.061 A 
ATOM     32  H   LIG d   1       2.147   0.036  -2.990  0.00  0.00     0.062 H 
ATOM     33  C   LIG d   1       3.059   0.284  -6.228  0.00  0.00    -0.058 A 
ATOM     34  H   LIG d   1       1.610   1.304  -5.032  0.00  0.00     0.062 H 
ATOM     35  H   LIG d   1       2.822   0.839  -7.124  0.00  0.00     0.062 H 
ENDBRANCH   1  25
TORSDOF 1
ENDMDL
MODEL 10
REMARK VINA RESULT:      -5.8      3.385      5.399
REMARK  1 active torsions:
REMARK  status: ('A' for Active; 'I' for Inactive)
REMARK    1  A    between atoms: C_4  and  C_7 
ROOT
ATOM      1  C   LIG d   1       5.495  -0.925  -7.021  0.00  0.00     0.036 C 
ATOM      2  C   LIG d   1       4.715   0.144  -7.724  0.00  0.00    -0.025 A 
ATOM      3  C   LIG d   1       5.200   0.650  -8.920  0.00  0.00    -0.057 A 
ATOM      4  C   LIG d   1       4.501   1.628  -9.601  0.00  0.00    -0.061 A 
ATOM      5  C   LIG d   1       3.307   2.117  -9.101  0.00  0.00    -0.061 A 
ATOM      6  C   LIG d   1       2.812   1.629  -7.909  0.00  0.00    -0.051 A 
ATOM      7  C   LIG d   1       3.517   0.645  -7.217  0.00  0.00     0.026 A 
ATOM      8  C   LIG d   1       2.999   0.133  -5.928  0.00  0.00     0.194 C 
ATOM      9  O   LIG d   1       1.842   0.310  -5.602  0.00  0.00    -0.287 OA
ATOM     10  C   LIG d   1       3.938  -0.600  -5.050  0.00  0.00     0.026 A 
ATOM     11  C   LIG d   1       5.129  -1.096  -5.578  0.00  0.00    -0.025 A 
ATOM     12  C   LIG d   1       6.003  -1.771  -4.741  0.00  0.00    -0.057 A 
ATOM     13  C   LIG d   1       5.694  -1.956  -3.407  0.00  0.00    -0.061 A 
ATOM     14  C   LIG d   1       4.507  -1.470  -2.887  0.00  0.00    -0.061 A 
ATOM     15  C   LIG d   1       3.626  -0.792  -3.704  0.00  0.00    -0.051 A 
ATOM     16  H   LIG d   1       6.554  -0.677  -7.084  0.00  0.00     0.045 H 
ATOM     17  H   LIG d   1       6.129   0.276  -9.323  0.00  0.00     0.062 H 
ATOM     18  H   LIG d   1       4.890   2.013 -10.532  0.00  0.00     0.062 H 
ATOM     19  H   LIG d   1       2.766   2.880  -9.642  0.00  0.00     0.062 H 
ATOM     20  H   LIG d   1       1.881   2.008  -7.514  0.00  0.00     0.062 H 
ATOM     21  H   LIG d   1       6.932  -2.154  -5.134  0.00  0.00     0.062 H 
ATOM     22  H   LIG d   1       6.384  -2.483  -2.766  0.00  0.00     0.062 H 
ATOM     23  H   LIG d   1       4.271  -1.622  -1.844  0.00  0.00     0.062 H 
ATOM     24  H   LIG d   1       2.699  -0.410  -3.302  0.00  0.00     0.062 H 
ENDROOT
BRANCH   1  25
ATOM     25  C   LIG d   1       5.266  -2.234  -7.733  0.00  0.00    -0.036 A 
ATOM     26  C   LIG d   1       6.341  -2.953  -8.221  0.00  0.00    -0.058 A 
ATOM     27  C   LIG d   1       6.131  -4.153  -8.873  0.00  0.00    -0.061 A 
ATOM     28  H   LIG d   1       7.345  -2.576  -8.092  0.00  0.00     0.062 H 
ATOM     29  C   LIG d   1       4.845  -4.635  -9.036  0.00  0.00    -0.062 A 
ATOM     30  H   LIG d   1       6.970  -4.715  -9.254  0.00  0.00     0.062 H 
ATOM     31  C   LIG d   1       3.771  -3.916  -8.548  0.00  0.00    -0.061 A 
ATOM     32  H   LIG d   1       4.681  -5.571  -9.549  0.00  0.00     0.062 H 
ATOM     33  C   LIG d   1       3.980  -2.715  -7.897  0.00  0.00    -0.058 A 
ATOM     34  H   LIG d   1       2.766  -4.293  -8.676  0.00  0.00     0.062 H 
ATOM     35  H   LIG d   1       3.140  -2.153  -7.515  0.00  0.00     0.062 H 
ENDBRANCH   1  25
TORSDOF 1
ENDMDL
