MODEL 1
REMARK VINA RESULT:      -6.3      0.000      0.000
REMARK  1 active torsions:
REMARK  status: ('A' for Active; 'I' for Inactive)
REMARK    1  A    between atoms: C_8  and  C_14 
ROOT
ATOM      1  C   LIG d   1      10.027   8.018 -13.321  0.00  0.00     0.009 C 
ATOM      2  C   LIG d   1      10.989   9.194 -13.144  0.00  0.00     0.009 C 
ATOM      3  N   LIG d   1      11.660   9.088 -11.842  0.00  0.00    -0.310 N 
ATOM      4  C   LIG d   1      11.810  10.408 -11.216  0.00  0.00     0.036 C 
ATOM      5  C   LIG d   1      12.377  10.243  -9.805  0.00  0.00    -0.021 C 
ATOM      6  N   LIG d   1      11.273  10.181  -8.838  0.00  0.00     0.228 N 
ATOM      7  C   LIG d   1      11.299   8.886  -8.146  0.00  0.00    -0.025 C 
ATOM      8  C   LIG d   1       9.869   8.380  -7.954  0.00  0.00     0.051 C 
ATOM      9  C   LIG d   1       9.788   6.908  -8.366  0.00  0.00    -0.025 C 
ATOM     10  N   LIG d   1       8.659   6.719  -9.286  0.00  0.00     0.228 N 
ATOM     11  C   LIG d   1       9.076   5.855 -10.400  0.00  0.00    -0.021 C 
ATOM     12  C   LIG d   1       8.888   6.601 -11.722  0.00  0.00     0.036 C 
ATOM     13  N   LIG d   1      10.191   7.080 -12.203  0.00  0.00    -0.310 N 
ATOM     14  H   LIG d   1       9.002   8.387 -13.338  0.00  0.00     0.044 H 
ATOM     15  H   LIG d   1      10.246   7.508 -14.259  0.00  0.00     0.044 H 
ATOM     16  H   LIG d   1      11.735   9.177 -13.940  0.00  0.00     0.044 H 
ATOM     17  H   LIG d   1      10.432  10.130 -13.189  0.00  0.00     0.044 H 
ATOM     18  H   LIG d   1      11.167   8.453 -11.233  0.00  0.00     0.122 HD
ATOM     19  H   LIG d   1      12.490  11.018 -11.812  0.00  0.00     0.048 H 
ATOM     20  H   LIG d   1      10.837  10.897 -11.162  0.00  0.00     0.048 H 
ATOM     21  H   LIG d   1      12.958   9.322  -9.752  0.00  0.00     0.083 H 
ATOM     22  H   LIG d   1      13.019  11.091  -9.570  0.00  0.00     0.083 H 
ATOM     23  H   LIG d   1      11.375  10.925  -8.164  0.00  0.00     0.201 HD
ATOM     24  H   LIG d   1      11.862   8.166  -8.742  0.00  0.00     0.082 H 
ATOM     25  H   LIG d   1      11.776   9.003  -7.173  0.00  0.00     0.082 H 
ATOM     26  H   LIG d   1       9.190   8.968  -8.573  0.00  0.00     0.041 H 
ATOM     27  H   LIG d   1      10.714   6.619  -8.862  0.00  0.00     0.082 H 
ATOM     28  H   LIG d   1       9.641   6.291  -7.480  0.00  0.00     0.082 H 
ATOM     29  H   LIG d   1       7.892   6.287  -8.795  0.00  0.00     0.201 HD
ATOM     30  H   LIG d   1      10.125   5.587 -10.279  0.00  0.00     0.083 H 
ATOM     31  H   LIG d   1       8.468   4.949 -10.404  0.00  0.00     0.083 H 
ATOM     32  H   LIG d   1       8.454   5.927 -12.461  0.00  0.00     0.048 H 
ATOM     33  H   LIG d   1       8.223   7.450 -11.570  0.00  0.00     0.048 H 
ATOM     34  H   LIG d   1      10.787   6.308 -12.464  0.00  0.00     0.122 HD
ATOM     35  H   LIG d   1      10.394  10.284  -9.323  0.00  0.00     0.201 HD
ATOM     36  H   LIG d   1       8.366   7.615  -9.648  0.00  0.00     0.201 HD
ENDROOT
BRANCH   8  37
ATOM     37  C   LIG d   1       9.470   8.521  -6.484  0.00  0.00     0.051 C 
ATOM     38  C   LIG d   1      10.439   7.725  -5.609  0.00  0.00    -0.025 C 
ATOM     39  N   LIG d   1       9.707   6.657  -4.915  0.00  0.00     0.228 N 
ATOM     40  H   LIG d   1      11.214   7.280  -6.236  0.00  0.00     0.082 H 
ATOM     41  H   LIG d   1      10.911   8.382  -4.882  0.00  0.00     0.082 H 
ATOM     42  C   LIG d   1      10.423   6.271  -3.693  0.00  0.00    -0.021 C 
ATOM     43  H   LIG d   1       9.637   5.853  -5.524  0.00  0.00     0.201 HD
ATOM     44  H   LIG d   1       8.783   6.982  -4.683  0.00  0.00     0.201 HD
ATOM     45  C   LIG d   1       9.499   6.427  -2.484  0.00  0.00     0.036 C 
ATOM     46  H   LIG d   1      11.303   6.898  -3.569  0.00  0.00     0.083 H 
ATOM     47  H   LIG d   1      10.737   5.228  -3.777  0.00  0.00     0.083 H 
ATOM     48  N   LIG d   1      10.134   7.376  -1.522  0.00  0.00    -0.310 N 
ATOM     49  H   LIG d   1       9.376   5.470  -1.986  0.00  0.00     0.048 H 
ATOM     50  H   LIG d   1       8.542   6.831  -2.794  0.00  0.00     0.048 H 
ATOM     51  C   LIG d   1       9.056   8.300  -1.053  0.00  0.00     0.009 C 
ATOM     52  H   LIG d   1      10.689   8.007  -2.180  0.00  0.00     0.122 HD
ATOM     53  C   LIG d   1       9.513   9.741  -1.271  0.00  0.00     0.009 C 
ATOM     54  H   LIG d   1       8.897   8.120   0.008  0.00  0.00     0.044 H 
ATOM     55  H   LIG d   1       8.153   8.103  -1.616  0.00  0.00     0.044 H 
ATOM     56  N   LIG d   1       8.422  10.482  -1.973  0.00  0.00    -0.310 N 
ATOM     57  H   LIG d   1      10.405   9.776  -1.887  0.00  0.00     0.044 H 
ATOM     58  H   LIG d   1       9.690  10.226  -0.314  0.00  0.00     0.044 H 
ATOM     59  C   LIG d   1       9.081  11.596  -2.720  0.00  0.00     0.036 C 
ATOM     60  H   LIG d   1       7.964  11.005  -1.161  0.00  0.00     0.122 HD
ATOM     61  C   LIG d   1       8.870  11.369  -4.217  0.00  0.00    -0.021 C 
ATOM     62  H   LIG d   1      10.139  11.596  -2.485  0.00  0.00     0.048 H 
ATOM     63  H   LIG d   1       8.617  12.529  -2.417  0.00  0.00     0.048 H 
ATOM     64  N   LIG d   1       9.544  10.130  -4.625  0.00  0.00     0.228 N 
ATOM     65  H   LIG d   1       9.287  12.209  -4.775  0.00  0.00     0.083 H 
ATOM     66  H   LIG d   1       7.802  11.291  -4.427  0.00  0.00     0.083 H 
ATOM     67  C   LIG d   1       9.499   9.997  -6.087  0.00  0.00    -0.025 C 
ATOM     68  H   LIG d   1       9.083   9.337  -4.204  0.00  0.00     0.201 HD
ATOM     69  H   LIG d   1      10.507  10.160  -4.318  0.00  0.00     0.201 HD
ATOM     70  H   LIG d   1      10.376  10.474  -6.524  0.00  0.00     0.082 H 
ATOM     71  H   LIG d   1       8.600  10.485  -6.466  0.00  0.00     0.082 H 
ATOM     72  H   LIG d   1       8.458   8.132  -6.351  0.00  0.00     0.041 H 
ENDBRANCH   8  37
TORSDOF 1
ENDMDL
MODEL 2
REMARK VINA RESULT:      -6.2      1.813      2.463
REMARK  1 active torsions:
REMARK  status: ('A' for Active; 'I' for Inactive)
REMARK    1  A    between atoms: C_8  and  C_14 
ROOT
ATOM      1  C   LIG d   1      10.248   3.810 -11.515  0.00  0.00     0.009 C 
ATOM      2  C   LIG d   1      10.110   5.139 -12.259  0.00  0.00     0.009 C 
ATOM      3  N   LIG d   1      10.633   6.227 -11.422  0.00  0.00    -0.310 N 
ATOM      4  C   LIG d   1       9.802   7.432 -11.543  0.00  0.00     0.036 C 
ATOM      5  C   LIG d   1      10.289   8.489 -10.551  0.00  0.00    -0.021 C 
ATOM      6  N   LIG d   1       9.520   8.383  -9.304  0.00  0.00     0.228 N 
ATOM      7  C   LIG d   1      10.427   8.063  -8.194  0.00  0.00    -0.025 C 
ATOM      8  C   LIG d   1       9.753   7.061  -7.255  0.00  0.00     0.051 C 
ATOM      9  C   LIG d   1      10.733   5.934  -6.922  0.00  0.00    -0.025 C 
ATOM     10  N   LIG d   1      10.081   4.637  -7.142  0.00  0.00     0.228 N 
ATOM     11  C   LIG d   1      11.009   3.733  -7.836  0.00  0.00    -0.021 C 
ATOM     12  C   LIG d   1      10.385   3.278  -9.157  0.00  0.00     0.036 C 
ATOM     13  N   LIG d   1      10.994   4.022 -10.268  0.00  0.00    -0.310 N 
ATOM     14  H   LIG d   1       9.257   3.418 -11.283  0.00  0.00     0.044 H 
ATOM     15  H   LIG d   1      10.783   3.097 -12.142  0.00  0.00     0.044 H 
ATOM     16  H   LIG d   1      10.674   5.094 -13.191  0.00  0.00     0.044 H 
ATOM     17  H   LIG d   1       9.058   5.325 -12.480  0.00  0.00     0.044 H 
ATOM     18  H   LIG d   1      10.709   5.935 -10.459  0.00  0.00     0.122 HD
ATOM     19  H   LIG d   1       9.877   7.824 -12.558  0.00  0.00     0.048 H 
ATOM     20  H   LIG d   1       8.764   7.181 -11.327  0.00  0.00     0.048 H 
ATOM     21  H   LIG d   1      11.347   8.330 -10.339  0.00  0.00     0.083 H 
ATOM     22  H   LIG d   1      10.150   9.481 -10.980  0.00  0.00     0.083 H 
ATOM     23  H   LIG d   1       9.057   9.259  -9.119  0.00  0.00     0.201 HD
ATOM     24  H   LIG d   1      11.346   7.629  -8.589  0.00  0.00     0.082 H 
ATOM     25  H   LIG d   1      10.663   8.974  -7.644  0.00  0.00     0.082 H 
ATOM     26  H   LIG d   1       8.871   6.643  -7.743  0.00  0.00     0.041 H 
ATOM     27  H   LIG d   1      11.609   6.014  -7.565  0.00  0.00     0.082 H 
ATOM     28  H   LIG d   1      11.038   6.015  -5.879  0.00  0.00     0.082 H 
ATOM     29  H   LIG d   1       9.822   4.235  -6.253  0.00  0.00     0.201 HD
ATOM     30  H   LIG d   1      11.943   4.257  -8.037  0.00  0.00     0.083 H 
ATOM     31  H   LIG d   1      11.207   2.864  -7.208  0.00  0.00     0.083 H 
ATOM     32  H   LIG d   1      10.563   2.211  -9.294  0.00  0.00     0.048 H 
ATOM     33  H   LIG d   1       9.312   3.468  -9.138  0.00  0.00     0.048 H 
ATOM     34  H   LIG d   1      11.965   3.773 -10.381  0.00  0.00     0.122 HD
ATOM     35  H   LIG d   1       8.831   7.651  -9.396  0.00  0.00     0.201 HD
ATOM     36  H   LIG d   1       9.253   4.767  -7.706  0.00  0.00     0.201 HD
ENDROOT
BRANCH   8  37
ATOM     37  C   LIG d   1       9.334   7.770  -5.966  0.00  0.00     0.051 C 
ATOM     38  C   LIG d   1      10.158   7.237  -4.795  0.00  0.00    -0.025 C 
ATOM     39  N   LIG d   1       9.265   6.586  -3.825  0.00  0.00     0.228 N 
ATOM     40  H   LIG d   1      10.882   6.506  -5.161  0.00  0.00     0.082 H 
ATOM     41  H   LIG d   1      10.694   8.052  -4.313  0.00  0.00     0.082 H 
ATOM     42  C   LIG d   1       9.884   6.587  -2.494  0.00  0.00    -0.021 C 
ATOM     43  H   LIG d   1       9.103   5.631  -4.113  0.00  0.00     0.201 HD
ATOM     44  H   LIG d   1       8.388   7.080  -3.796  0.00  0.00     0.201 HD
ATOM     45  C   LIG d   1       8.955   7.278  -1.495  0.00  0.00     0.036 C 
ATOM     46  H   LIG d   1      10.839   7.108  -2.534  0.00  0.00     0.083 H 
ATOM     47  H   LIG d   1      10.053   5.555  -2.178  0.00  0.00     0.083 H 
ATOM     48  N   LIG d   1       9.687   8.428  -0.886  0.00  0.00    -0.310 N 
ATOM     49  H   LIG d   1       8.687   6.588  -0.701  0.00  0.00     0.048 H 
ATOM     50  H   LIG d   1       8.073   7.652  -2.001  0.00  0.00     0.048 H 
ATOM     51  C   LIG d   1       8.733   9.580  -0.860  0.00  0.00     0.009 C 
ATOM     52  H   LIG d   1      10.342   8.708  -1.679  0.00  0.00     0.122 HD
ATOM     53  C   LIG d   1       9.390  10.779  -1.539  0.00  0.00     0.009 C 
ATOM     54  H   LIG d   1       8.519   9.816   0.181  0.00  0.00     0.044 H 
ATOM     55  H   LIG d   1       7.828   9.300  -1.385  0.00  0.00     0.044 H 
ATOM     56  N   LIG d   1       8.433  11.340  -2.540  0.00  0.00    -0.310 N 
ATOM     57  H   LIG d   1      10.297  10.484  -2.056  0.00  0.00     0.044 H 
ATOM     58  H   LIG d   1       9.604  11.553  -0.806  0.00  0.00     0.044 H 
ATOM     59  C   LIG d   1       9.261  12.022  -3.580  0.00  0.00     0.036 C 
ATOM     60  H   LIG d   1       8.028  12.171  -2.004  0.00  0.00     0.122 HD
ATOM     61  C   LIG d   1       9.065  11.295  -4.911  0.00  0.00    -0.021 C 
ATOM     62  H   LIG d   1      10.301  11.981  -3.280  0.00  0.00     0.048 H 
ATOM     63  H   LIG d   1       8.922  13.049  -3.664  0.00  0.00     0.048 H 
ATOM     64  N   LIG d   1       9.574   9.922  -4.800  0.00  0.00     0.228 N 
ATOM     65  H   LIG d   1       9.611  11.821  -5.696  0.00  0.00     0.083 H 
ATOM     66  H   LIG d   1       8.003  11.273  -5.162  0.00  0.00     0.083 H 
ATOM     67  C   LIG d   1       9.554   9.276  -6.118  0.00  0.00    -0.025 C 
ATOM     68  H   LIG d   1       8.996   9.396  -4.161  0.00  0.00     0.201 HD
ATOM     69  H   LIG d   1      10.522   9.947  -4.450  0.00  0.00     0.201 HD
ATOM     70  H   LIG d   1      10.502   9.455  -6.626  0.00  0.00     0.082 H 
ATOM     71  H   LIG d   1       8.743   9.696  -6.714  0.00  0.00     0.082 H 
ATOM     72  H   LIG d   1       8.275   7.578  -5.783  0.00  0.00     0.041 H 
ENDBRANCH   8  37
TORSDOF 1
ENDMDL
MODEL 3
REMARK VINA RESULT:      -6.2      5.487      8.717
REMARK  1 active torsions:
REMARK  status: ('A' for Active; 'I' for Inactive)
REMARK    1  A    between atoms: C_8  and  C_14 
ROOT
ATOM      1  C   LIG d   1      10.439  -3.256  -3.987  0.00  0.00     0.009 C 
ATOM      2  C   LIG d   1       8.912  -3.216  -3.897  0.00  0.00     0.009 C 
ATOM      3  N   LIG d   1       8.420  -1.952  -4.460  0.00  0.00    -0.310 N 
ATOM      4  C   LIG d   1       7.296  -1.426  -3.675  0.00  0.00     0.036 C 
ATOM      5  C   LIG d   1       6.908  -0.044  -4.201  0.00  0.00    -0.021 C 
ATOM      6  N   LIG d   1       7.611   0.990  -3.430  0.00  0.00     0.228 N 
ATOM      7  C   LIG d   1       8.480   1.764  -4.326  0.00  0.00    -0.025 C 
ATOM      8  C   LIG d   1       9.799   2.075  -3.618  0.00  0.00     0.051 C 
ATOM      9  C   LIG d   1      10.968   1.768  -4.556  0.00  0.00    -0.025 C 
ATOM     10  N   LIG d   1      11.951   0.931  -3.856  0.00  0.00     0.228 N 
ATOM     11  C   LIG d   1      12.403  -0.145  -4.750  0.00  0.00    -0.021 C 
ATOM     12  C   LIG d   1      12.101  -1.500  -4.108  0.00  0.00     0.036 C 
ATOM     13  N   LIG d   1      10.915  -2.089  -4.742  0.00  0.00    -0.310 N 
ATOM     14  H   LIG d   1      10.863  -3.236  -2.983  0.00  0.00     0.044 H 
ATOM     15  H   LIG d   1      10.749  -4.169  -4.495  0.00  0.00     0.044 H 
ATOM     16  H   LIG d   1       8.493  -4.052  -4.457  0.00  0.00     0.044 H 
ATOM     17  H   LIG d   1       8.608  -3.291  -2.852  0.00  0.00     0.044 H 
ATOM     18  H   LIG d   1       9.163  -1.274  -4.527  0.00  0.00     0.122 HD
ATOM     19  H   LIG d   1       6.444  -2.101  -3.762  0.00  0.00     0.048 H 
ATOM     20  H   LIG d   1       7.590  -1.347  -2.628  0.00  0.00     0.048 H 
ATOM     21  H   LIG d   1       7.185   0.036  -5.252  0.00  0.00     0.083 H 
ATOM     22  H   LIG d   1       5.832   0.095  -4.098  0.00  0.00     0.083 H 
ATOM     23  H   LIG d   1       6.938   1.605  -3.000  0.00  0.00     0.201 HD
ATOM     24  H   LIG d   1       8.680   1.185  -5.229  0.00  0.00     0.082 H 
ATOM     25  H   LIG d   1       7.984   2.696  -4.596  0.00  0.00     0.082 H 
ATOM     26  H   LIG d   1       9.882   1.460  -2.720  0.00  0.00     0.041 H 
ATOM     27  H   LIG d   1      10.599   1.238  -5.434  0.00  0.00     0.082 H 
ATOM     28  H   LIG d   1      11.439   2.700  -4.866  0.00  0.00     0.082 H 
ATOM     29  H   LIG d   1      12.742   1.496  -3.584  0.00  0.00     0.201 HD
ATOM     30  H   LIG d   1      11.879  -0.069  -5.702  0.00  0.00     0.083 H 
ATOM     31  H   LIG d   1      13.476  -0.052  -4.917  0.00  0.00     0.083 H 
ATOM     32  H   LIG d   1      12.955  -2.165  -4.247  0.00  0.00     0.048 H 
ATOM     33  H   LIG d   1      11.915  -1.366  -3.043  0.00  0.00     0.048 H 
ATOM     34  H   LIG d   1      11.101  -2.333  -5.704  0.00  0.00     0.122 HD
ATOM     35  H   LIG d   1       8.173   0.552  -2.715  0.00  0.00     0.201 HD
ATOM     36  H   LIG d   1      11.526   0.529  -3.034  0.00  0.00     0.201 HD
ENDROOT
BRANCH   8  37
ATOM     37  C   LIG d   1       9.833   3.553  -3.227  0.00  0.00     0.051 C 
ATOM     38  C   LIG d   1      11.190   3.891  -2.609  0.00  0.00    -0.025 C 
ATOM     39  N   LIG d   1      11.002   4.312  -1.214  0.00  0.00     0.228 N 
ATOM     40  H   LIG d   1      11.831   3.007  -2.633  0.00  0.00     0.082 H 
ATOM     41  H   LIG d   1      11.670   4.688  -3.174  0.00  0.00     0.082 H 
ATOM     42  C   LIG d   1      12.123   5.159  -0.791  0.00  0.00    -0.021 C 
ATOM     43  H   LIG d   1      10.966   3.493  -0.623  0.00  0.00     0.201 HD
ATOM     44  H   LIG d   1      10.137   4.821  -1.133  0.00  0.00     0.201 HD
ATOM     45  C   LIG d   1      11.593   6.508  -0.303  0.00  0.00     0.036 C 
ATOM     46  H   LIG d   1      12.806   5.309  -1.624  0.00  0.00     0.083 H 
ATOM     47  H   LIG d   1      12.657   4.664   0.024  0.00  0.00     0.083 H 
ATOM     48  N   LIG d   1      12.217   7.587  -1.126  0.00  0.00    -0.310 N 
ATOM     49  H   LIG d   1      11.877   6.665   0.734  0.00  0.00     0.048 H 
ATOM     50  H   LIG d   1      10.518   6.554  -0.423  0.00  0.00     0.048 H 
ATOM     51  C   LIG d   1      11.126   8.549  -1.472  0.00  0.00     0.009 C 
ATOM     52  H   LIG d   1      12.367   7.087  -2.055  0.00  0.00     0.122 HD
ATOM     53  C   LIG d   1      11.106   8.747  -2.986  0.00  0.00     0.009 C 
ATOM     54  H   LIG d   1      11.342   9.495  -0.978  0.00  0.00     0.044 H 
ATOM     55  H   LIG d   1      10.180   8.147  -1.134  0.00  0.00     0.044 H 
ATOM     56  N   LIG d   1       9.703   8.575  -3.468  0.00  0.00    -0.310 N 
ATOM     57  H   LIG d   1      11.734   8.015  -3.481  0.00  0.00     0.044 H 
ATOM     58  H   LIG d   1      11.427   9.756  -3.235  0.00  0.00     0.044 H 
ATOM     59  C   LIG d   1       9.796   8.136  -4.892  0.00  0.00     0.036 C 
ATOM     60  H   LIG d   1       9.388   9.591  -3.573  0.00  0.00     0.122 HD
ATOM     61  C   LIG d   1       9.216   6.725  -5.006  0.00  0.00    -0.021 C 
ATOM     62  H   LIG d   1      10.838   8.138  -5.191  0.00  0.00     0.048 H 
ATOM     63  H   LIG d   1       9.218   8.825  -5.499  0.00  0.00     0.048 H 
ATOM     64  N   LIG d   1      10.036   5.793  -4.222  0.00  0.00     0.228 N 
ATOM     65  H   LIG d   1       9.216   6.415  -6.052  0.00  0.00     0.083 H 
ATOM     66  H   LIG d   1       8.192   6.721  -4.627  0.00  0.00     0.083 H 
ATOM     67  C   LIG d   1       9.594   4.415  -4.467  0.00  0.00    -0.025 C 
ATOM     68  H   LIG d   1       9.944   6.003  -3.239  0.00  0.00     0.201 HD
ATOM     69  H   LIG d   1      11.004   5.891  -4.496  0.00  0.00     0.201 HD
ATOM     70  H   LIG d   1      10.146   3.999  -5.310  0.00  0.00     0.082 H 
ATOM     71  H   LIG d   1       8.529   4.413  -4.702  0.00  0.00     0.082 H 
ATOM     72  H   LIG d   1       9.044   3.746  -2.497  0.00  0.00     0.041 H 
ENDBRANCH   8  37
TORSDOF 1
ENDMDL
MODEL 4
REMARK VINA RESULT:      -6.2      3.783      7.850
REMARK  1 active torsions:
REMARK  status: ('A' for Active; 'I' for Inactive)
REMARK    1  A    between atoms: C_8  and  C_14 
ROOT
ATOM      1  C   LIG d   1       9.195  11.994  -2.689  0.00  0.00     0.009 C 
ATOM      2  C   LIG d   1       9.280  11.961  -4.216  0.00  0.00     0.009 C 
ATOM      3  N   LIG d   1       8.893  10.629  -4.700  0.00  0.00    -0.310 N 
ATOM      4  C   LIG d   1       9.736  10.212  -5.828  0.00  0.00     0.036 C 
ATOM      5  C   LIG d   1       9.403   8.769  -6.208  0.00  0.00    -0.021 C 
ATOM      6  N   LIG d   1      10.314   7.854  -5.507  0.00  0.00     0.228 N 
ATOM      7  C   LIG d   1       9.539   6.967  -4.629  0.00  0.00    -0.025 C 
ATOM      8  C   LIG d   1      10.292   6.763  -3.314  0.00  0.00     0.051 C 
ATOM      9  C   LIG d   1       9.328   6.942  -2.140  0.00  0.00    -0.025 C 
ATOM     10  N   LIG d   1       9.912   7.872  -1.164  0.00  0.00     0.228 N 
ATOM     11  C   LIG d   1       8.882   8.816  -0.710  0.00  0.00    -0.021 C 
ATOM     12  C   LIG d   1       9.329  10.246  -1.020  0.00  0.00     0.036 C 
ATOM     13  N   LIG d   1       8.611  10.737  -2.204  0.00  0.00    -0.310 N 
ATOM     14  H   LIG d   1      10.195  12.115  -2.272  0.00  0.00     0.044 H 
ATOM     15  H   LIG d   1       8.568  12.830  -2.378  0.00  0.00     0.044 H 
ATOM     16  H   LIG d   1       8.607  12.710  -4.634  0.00  0.00     0.044 H 
ATOM     17  H   LIG d   1      10.302  12.177  -4.528  0.00  0.00     0.044 H 
ATOM     18  H   LIG d   1       8.925   9.951  -3.954  0.00  0.00     0.122 HD
ATOM     19  H   LIG d   1       9.551  10.865  -6.681  0.00  0.00     0.048 H 
ATOM     20  H   LIG d   1      10.786  10.280  -5.541  0.00  0.00     0.048 H 
ATOM     21  H   LIG d   1       8.375   8.545  -5.923  0.00  0.00     0.083 H 
ATOM     22  H   LIG d   1       9.517   8.641  -7.284  0.00  0.00     0.083 H 
ATOM     23  H   LIG d   1      10.821   7.301  -6.181  0.00  0.00     0.201 HD
ATOM     24  H   LIG d   1       8.567   7.417  -4.425  0.00  0.00     0.082 H 
ATOM     25  H   LIG d   1       9.397   6.004  -5.120  0.00  0.00     0.082 H 
ATOM     26  H   LIG d   1      11.097   7.496  -3.239  0.00  0.00     0.041 H 
ATOM     27  H   LIG d   1       8.384   7.345  -2.504  0.00  0.00     0.082 H 
ATOM     28  H   LIG d   1       9.154   5.978  -1.663  0.00  0.00     0.082 H 
ATOM     29  H   LIG d   1      10.265   7.353  -0.373  0.00  0.00     0.201 HD
ATOM     30  H   LIG d   1       7.946   8.608  -1.226  0.00  0.00     0.083 H 
ATOM     31  H   LIG d   1       8.737   8.705   0.366  0.00  0.00     0.083 H 
ATOM     32  H   LIG d   1       9.105  10.889  -0.168  0.00  0.00     0.048 H 
ATOM     33  H   LIG d   1      10.401  10.259  -1.213  0.00  0.00     0.048 H 
ATOM     34  H   LIG d   1       7.627  10.846  -2.011  0.00  0.00     0.122 HD
ATOM     35  H   LIG d   1      10.966   8.389  -4.952  0.00  0.00     0.201 HD
ATOM     36  H   LIG d   1      10.669   8.382  -1.596  0.00  0.00     0.201 HD
ENDROOT
BRANCH   8  37
ATOM     37  C   LIG d   1      10.884   5.352  -3.278  0.00  0.00     0.051 C 
ATOM     38  C   LIG d   1      10.465   4.587  -4.533  0.00  0.00    -0.025 C 
ATOM     39  N   LIG d   1       9.645   3.429  -4.149  0.00  0.00     0.228 N 
ATOM     40  H   LIG d   1       9.878   5.241  -5.181  0.00  0.00     0.082 H 
ATOM     41  H   LIG d   1      11.345   4.252  -5.078  0.00  0.00     0.082 H 
ATOM     42  C   LIG d   1       9.714   2.398  -5.192  0.00  0.00    -0.021 C 
ATOM     43  H   LIG d   1       8.685   3.724  -4.040  0.00  0.00     0.201 HD
ATOM     44  H   LIG d   1       9.982   3.057  -3.276  0.00  0.00     0.201 HD
ATOM     45  C   LIG d   1      10.209   1.085  -4.585  0.00  0.00     0.036 C 
ATOM     46  H   LIG d   1      10.390   2.719  -5.982  0.00  0.00     0.083 H 
ATOM     47  H   LIG d   1       8.717   2.250  -5.613  0.00  0.00     0.083 H 
ATOM     48  N   LIG d   1      11.449   0.669  -5.305  0.00  0.00    -0.310 N 
ATOM     49  H   LIG d   1       9.461   0.309  -4.721  0.00  0.00     0.048 H 
ATOM     50  H   LIG d   1      10.442   1.221  -3.536  0.00  0.00     0.048 H 
ATOM     51  C   LIG d   1      12.421   0.217  -4.263  0.00  0.00     0.009 C 
ATOM     52  H   LIG d   1      11.859   1.612  -5.588  0.00  0.00     0.122 HD
ATOM     53  C   LIG d   1      13.733   0.974  -4.451  0.00  0.00     0.009 C 
ATOM     54  H   LIG d   1      12.588  -0.851  -4.398  0.00  0.00     0.044 H 
ATOM     55  H   LIG d   1      12.007   0.419  -3.283  0.00  0.00     0.044 H 
ATOM     56  N   LIG d   1      14.152   1.532  -3.129  0.00  0.00    -0.310 N 
ATOM     57  H   LIG d   1      13.610   1.796  -5.148  0.00  0.00     0.044 H 
ATOM     58  H   LIG d   1      14.511   0.296  -4.792  0.00  0.00     0.044 H 
ATOM     59  C   LIG d   1      14.993   2.731  -3.424  0.00  0.00     0.036 C 
ATOM     60  H   LIG d   1      14.887   0.820  -2.821  0.00  0.00     0.122 HD
ATOM     61  C   LIG d   1      14.281   3.970  -2.880  0.00  0.00    -0.021 C 
ATOM     62  H   LIG d   1      15.121   2.812  -4.497  0.00  0.00     0.048 H 
ATOM     63  H   LIG d   1      15.950   2.605  -2.928  0.00  0.00     0.048 H 
ATOM     64  N   LIG d   1      13.012   4.160  -3.594  0.00  0.00     0.228 N 
ATOM     65  H   LIG d   1      14.914   4.847  -3.028  0.00  0.00     0.083 H 
ATOM     66  H   LIG d   1      14.086   3.841  -1.814  0.00  0.00     0.083 H 
ATOM     67  C   LIG d   1      12.409   5.441  -3.204  0.00  0.00    -0.025 C 
ATOM     68  H   LIG d   1      12.378   3.409  -3.364  0.00  0.00     0.201 HD
ATOM     69  H   LIG d   1      13.187   4.157  -4.589  0.00  0.00     0.201 HD
ATOM     70  H   LIG d   1      12.760   6.227  -3.872  0.00  0.00     0.082 H 
ATOM     71  H   LIG d   1      12.702   5.682  -2.182  0.00  0.00     0.082 H 
ATOM     72  H   LIG d   1      10.510   4.833  -2.394  0.00  0.00     0.041 H 
ENDBRANCH   8  37
TORSDOF 1
ENDMDL
MODEL 5
REMARK VINA RESULT:      -6.1     12.504     15.425
REMARK  1 active torsions:
REMARK  status: ('A' for Active; 'I' for Inactive)
REMARK    1  A    between atoms: C_8  and  C_14 
ROOT
ATOM      1  C   LIG d   1       9.215  -9.297  -3.525  0.00  0.00     0.009 C 
ATOM      2  C   LIG d   1       8.027 -10.205  -3.845  0.00  0.00     0.009 C 
ATOM      3  N   LIG d   1       7.240  -9.618  -4.937  0.00  0.00    -0.310 N 
ATOM      4  C   LIG d   1       5.801  -9.804  -4.712  0.00  0.00     0.036 C 
ATOM      5  C   LIG d   1       5.014  -9.056  -5.788  0.00  0.00    -0.021 C 
ATOM      6  N   LIG d   1       4.668  -7.714  -5.299  0.00  0.00     0.228 N 
ATOM      7  C   LIG d   1       5.285  -6.702  -6.166  0.00  0.00    -0.025 C 
ATOM      8  C   LIG d   1       5.799  -5.542  -5.312  0.00  0.00     0.051 C 
ATOM      9  C   LIG d   1       7.222  -5.180  -5.744  0.00  0.00    -0.025 C 
ATOM     10  N   LIG d   1       8.091  -5.114  -4.562  0.00  0.00     0.228 N 
ATOM     11  C   LIG d   1       9.365  -5.785  -4.852  0.00  0.00    -0.021 C 
ATOM     12  C   LIG d   1       9.579  -6.926  -3.857  0.00  0.00     0.036 C 
ATOM     13  N   LIG d   1       9.278  -8.208  -4.509  0.00  0.00    -0.310 N 
ATOM     14  H   LIG d   1       9.094  -8.877  -2.526  0.00  0.00     0.044 H 
ATOM     15  H   LIG d   1      10.137  -9.877  -3.566  0.00  0.00     0.044 H 
ATOM     16  H   LIG d   1       8.391 -11.188  -4.146  0.00  0.00     0.044 H 
ATOM     17  H   LIG d   1       7.398 -10.307  -2.960  0.00  0.00     0.044 H 
ATOM     18  H   LIG d   1       7.464  -8.642  -5.059  0.00  0.00     0.122 HD
ATOM     19  H   LIG d   1       5.561 -10.867  -4.757  0.00  0.00     0.048 H 
ATOM     20  H   LIG d   1       5.535  -9.414  -3.729  0.00  0.00     0.048 H 
ATOM     21  H   LIG d   1       5.622  -8.968  -6.689  0.00  0.00     0.083 H 
ATOM     22  H   LIG d   1       4.102  -9.605  -6.019  0.00  0.00     0.083 H 
ATOM     23  H   LIG d   1       3.666  -7.601  -5.310  0.00  0.00     0.201 HD
ATOM     24  H   LIG d   1       6.118  -7.149  -6.711  0.00  0.00     0.082 H 
ATOM     25  H   LIG d   1       4.546  -6.331  -6.875  0.00  0.00     0.082 H 
ATOM     26  H   LIG d   1       5.802  -5.839  -4.262  0.00  0.00     0.041 H 
ATOM     27  H   LIG d   1       7.597  -5.941  -6.429  0.00  0.00     0.082 H 
ATOM     28  H   LIG d   1       7.214  -4.212  -6.244  0.00  0.00     0.082 H 
ATOM     29  H   LIG d   1       8.265  -4.149  -4.326  0.00  0.00     0.201 HD
ATOM     30  H   LIG d   1       9.342  -6.186  -5.865  0.00  0.00     0.083 H 
ATOM     31  H   LIG d   1      10.182  -5.067  -4.765  0.00  0.00     0.083 H 
ATOM     32  H   LIG d   1      10.617  -6.926  -3.521  0.00  0.00     0.048 H 
ATOM     33  H   LIG d   1       8.920  -6.790  -3.000  0.00  0.00     0.048 H 
ATOM     34  H   LIG d   1       9.950  -8.413  -5.233  0.00  0.00     0.122 HD
ATOM     35  H   LIG d   1       5.010  -7.602  -4.357  0.00  0.00     0.201 HD
ATOM     36  H   LIG d   1       7.638  -5.574  -3.785  0.00  0.00     0.201 HD
ENDROOT
BRANCH   8  37
ATOM     37  C   LIG d   1       4.886  -4.329  -5.496  0.00  0.00     0.051 C 
ATOM     38  C   LIG d   1       5.350  -3.193  -4.583  0.00  0.00    -0.025 C 
ATOM     39  N   LIG d   1       4.292  -2.885  -3.611  0.00  0.00     0.228 N 
ATOM     40  H   LIG d   1       6.250  -3.501  -4.047  0.00  0.00     0.082 H 
ATOM     41  H   LIG d   1       5.578  -2.308  -5.174  0.00  0.00     0.082 H 
ATOM     42  C   LIG d   1       4.437  -1.503  -3.135  0.00  0.00    -0.021 C 
ATOM     43  H   LIG d   1       4.371  -3.514  -2.824  0.00  0.00     0.201 HD
ATOM     44  H   LIG d   1       3.393  -3.005  -4.047  0.00  0.00     0.201 HD
ATOM     45  C   LIG d   1       3.144  -0.730  -3.400  0.00  0.00     0.036 C 
ATOM     46  H   LIG d   1       5.267  -1.023  -3.648  0.00  0.00     0.083 H 
ATOM     47  H   LIG d   1       4.639  -1.515  -2.062  0.00  0.00     0.083 H 
ATOM     48  N   LIG d   1       3.465   0.448  -4.259  0.00  0.00    -0.310 N 
ATOM     49  H   LIG d   1       2.732  -0.365  -2.464  0.00  0.00     0.048 H 
ATOM     50  H   LIG d   1       2.431  -1.359  -3.920  0.00  0.00     0.048 H 
ATOM     51  C   LIG d   1       2.401   0.519  -5.308  0.00  0.00     0.009 C 
ATOM     52  H   LIG d   1       4.297   0.084  -4.819  0.00  0.00     0.122 HD
ATOM     53  C   LIG d   1       3.066   0.564  -6.682  0.00  0.00     0.009 C 
ATOM     54  H   LIG d   1       1.828   1.430  -5.145  0.00  0.00     0.044 H 
ATOM     55  H   LIG d   1       1.766  -0.354  -5.226  0.00  0.00     0.044 H 
ATOM     56  N   LIG d   1       2.418  -0.460  -7.555  0.00  0.00    -0.310 N 
ATOM     57  H   LIG d   1       4.124   0.336  -6.609  0.00  0.00     0.044 H 
ATOM     58  H   LIG d   1       2.916   1.540  -7.138  0.00  0.00     0.044 H 
ATOM     59  C   LIG d   1       3.434  -0.844  -8.581  0.00  0.00     0.036 C 
ATOM     60  H   LIG d   1       1.746   0.142  -8.128  0.00  0.00     0.122 HD
ATOM     61  C   LIG d   1       3.788  -2.318  -8.388  0.00  0.00    -0.021 C 
ATOM     62  H   LIG d   1       4.314  -0.225  -8.449  0.00  0.00     0.048 H 
ATOM     63  H   LIG d   1       2.998  -0.692  -9.564  0.00  0.00     0.048 H 
ATOM     64  N   LIG d   1       4.424  -2.502  -7.077  0.00  0.00     0.228 N 
ATOM     65  H   LIG d   1       4.480  -2.632  -9.172  0.00  0.00     0.083 H 
ATOM     66  H   LIG d   1       2.881  -2.922  -8.443  0.00  0.00     0.083 H 
ATOM     67  C   LIG d   1       4.927  -3.876  -6.956  0.00  0.00    -0.025 C 
ATOM     68  H   LIG d   1       3.750  -2.328  -6.345  0.00  0.00     0.201 HD
ATOM     69  H   LIG d   1       5.192  -1.851  -6.986  0.00  0.00     0.201 HD
ATOM     70  H   LIG d   1       5.952  -3.922  -7.322  0.00  0.00     0.082 H 
ATOM     71  H   LIG d   1       4.304  -4.543  -7.553  0.00  0.00     0.082 H 
ATOM     72  H   LIG d   1       3.864  -4.610  -5.234  0.00  0.00     0.041 H 
ENDBRANCH   8  37
TORSDOF 1
ENDMDL
MODEL 6
REMARK VINA RESULT:      -6.0      1.004      2.790
REMARK  1 active torsions:
REMARK  status: ('A' for Active; 'I' for Inactive)
REMARK    1  A    between atoms: C_8  and  C_14 
ROOT
ATOM      1  C   LIG d   1      12.753   7.351 -12.258  0.00  0.00     0.009 C 
ATOM      2  C   LIG d   1      11.729   6.221 -12.384  0.00  0.00     0.009 C 
ATOM      3  N   LIG d   1      10.490   6.603 -11.692  0.00  0.00    -0.310 N 
ATOM      4  C   LIG d   1       9.904   5.455 -10.987  0.00  0.00     0.036 C 
ATOM      5  C   LIG d   1       8.703   5.922 -10.163  0.00  0.00    -0.021 C 
ATOM      6  N   LIG d   1       9.137   6.229  -8.794  0.00  0.00     0.228 N 
ATOM      7  C   LIG d   1       8.882   7.646  -8.505  0.00  0.00    -0.025 C 
ATOM      8  C   LIG d   1      10.043   8.219  -7.690  0.00  0.00     0.051 C 
ATOM      9  C   LIG d   1      10.473   9.560  -8.287  0.00  0.00    -0.025 C 
ATOM     10  N   LIG d   1      11.929   9.565  -8.482  0.00  0.00     0.228 N 
ATOM     11  C   LIG d   1      12.245  10.143  -9.796  0.00  0.00    -0.021 C 
ATOM     12  C   LIG d   1      13.021   9.122 -10.629  0.00  0.00     0.036 C 
ATOM     13  N   LIG d   1      12.122   8.514 -11.620  0.00  0.00    -0.310 N 
ATOM     14  H   LIG d   1      13.593   7.014 -11.651  0.00  0.00     0.044 H 
ATOM     15  H   LIG d   1      13.109   7.629 -13.250  0.00  0.00     0.044 H 
ATOM     16  H   LIG d   1      11.516   6.039 -13.437  0.00  0.00     0.044 H 
ATOM     17  H   LIG d   1      12.131   5.314 -11.932  0.00  0.00     0.044 H 
ATOM     18  H   LIG d   1      10.652   7.372 -11.060  0.00  0.00     0.122 HD
ATOM     19  H   LIG d   1       9.580   4.710 -11.713  0.00  0.00     0.048 H 
ATOM     20  H   LIG d   1      10.651   5.016 -10.325  0.00  0.00     0.048 H 
ATOM     21  H   LIG d   1       8.275   6.815 -10.617  0.00  0.00     0.083 H 
ATOM     22  H   LIG d   1       7.952   5.133 -10.138  0.00  0.00     0.083 H 
ATOM     23  H   LIG d   1       8.625   5.655  -8.142  0.00  0.00     0.201 HD
ATOM     24  H   LIG d   1       8.789   8.197  -9.442  0.00  0.00     0.082 H 
ATOM     25  H   LIG d   1       7.958   7.740  -7.936  0.00  0.00     0.082 H 
ATOM     26  H   LIG d   1      10.883   7.523  -7.717  0.00  0.00     0.041 H 
ATOM     27  H   LIG d   1       9.978   9.706  -9.247  0.00  0.00     0.082 H 
ATOM     28  H   LIG d   1      10.195  10.366  -7.608  0.00  0.00     0.082 H 
ATOM     29  H   LIG d   1      12.365  10.117  -7.759  0.00  0.00     0.201 HD
ATOM     30  H   LIG d   1      11.321  10.404 -10.310  0.00  0.00     0.083 H 
ATOM     31  H   LIG d   1      12.852  11.040  -9.661  0.00  0.00     0.083 H 
ATOM     32  H   LIG d   1      13.843   9.622 -11.144  0.00  0.00     0.048 H 
ATOM     33  H   LIG d   1      13.420   8.346  -9.976  0.00  0.00     0.048 H 
ATOM     34  H   LIG d   1      11.832   9.191 -12.309  0.00  0.00     0.122 HD
ATOM     35  H   LIG d   1      10.125   6.041  -8.704  0.00  0.00     0.201 HD
ATOM     36  H   LIG d   1      12.277   8.618  -8.439  0.00  0.00     0.201 HD
ENDROOT
BRANCH   8  37
ATOM     37  C   LIG d   1       9.597   8.425  -6.241  0.00  0.00     0.051 C 
ATOM     38  C   LIG d   1      10.567   7.710  -5.299  0.00  0.00    -0.025 C 
ATOM     39  N   LIG d   1       9.850   6.656  -4.568  0.00  0.00     0.228 N 
ATOM     40  H   LIG d   1      11.373   7.258  -5.880  0.00  0.00     0.082 H 
ATOM     41  H   LIG d   1      10.996   8.421  -4.596  0.00  0.00     0.082 H 
ATOM     42  C   LIG d   1      10.543   6.361  -3.308  0.00  0.00    -0.021 C 
ATOM     43  H   LIG d   1       9.824   5.819  -5.134  0.00  0.00     0.201 HD
ATOM     44  H   LIG d   1       8.910   6.962  -4.379  0.00  0.00     0.201 HD
ATOM     45  C   LIG d   1       9.580   6.550  -2.134  0.00  0.00     0.036 C 
ATOM     46  H   LIG d   1      11.399   7.024  -3.195  0.00  0.00     0.083 H 
ATOM     47  H   LIG d   1      10.893   5.326  -3.326  0.00  0.00     0.083 H 
ATOM     48  N   LIG d   1      10.156   7.570  -1.209  0.00  0.00    -0.310 N 
ATOM     49  H   LIG d   1       9.474   5.618  -1.588  0.00  0.00     0.048 H 
ATOM     50  H   LIG d   1       8.620   6.903  -2.491  0.00  0.00     0.048 H 
ATOM     51  C   LIG d   1       9.036   8.481  -0.820  0.00  0.00     0.009 C 
ATOM     52  H   LIG d   1      10.709   8.183  -1.884  0.00  0.00     0.122 HD
ATOM     53  C   LIG d   1       9.451   9.922  -1.104  0.00  0.00     0.009 C 
ATOM     54  H   LIG d   1       8.852   8.352   0.245  0.00  0.00     0.044 H 
ATOM     55  H   LIG d   1       8.156   8.223  -1.395  0.00  0.00     0.044 H 
ATOM     56  N   LIG d   1       8.358  10.588  -1.873  0.00  0.00    -0.310 N 
ATOM     57  H   LIG d   1      10.359   9.955  -1.696  0.00  0.00     0.044 H 
ATOM     58  H   LIG d   1       9.585  10.464  -0.170  0.00  0.00     0.044 H 
ATOM     59  C   LIG d   1       9.001  11.681  -2.662  0.00  0.00     0.036 C 
ATOM     60  H   LIG d   1       7.860  11.138  -1.104  0.00  0.00     0.122 HD
ATOM     61  C   LIG d   1       8.840  11.368  -4.150  0.00  0.00    -0.021 C 
ATOM     62  H   LIG d   1      10.051  11.730  -2.400  0.00  0.00     0.048 H 
ATOM     63  H   LIG d   1       8.498  12.613  -2.423  0.00  0.00     0.048 H 
ATOM     64  N   LIG d   1       9.566  10.133  -4.472  0.00  0.00     0.228 N 
ATOM     65  H   LIG d   1       9.246  12.190  -4.741  0.00  0.00     0.083 H 
ATOM     66  H   LIG d   1       7.782  11.242  -4.384  0.00  0.00     0.083 H 
ATOM     67  C   LIG d   1       9.567   9.920  -5.924  0.00  0.00    -0.025 C 
ATOM     68  H   LIG d   1       9.119   9.348  -4.020  0.00  0.00     0.201 HD
ATOM     69  H   LIG d   1      10.518  10.211  -4.141  0.00  0.00     0.201 HD
ATOM     70  H   LIG d   1      10.441  10.403  -6.363  0.00  0.00     0.082 H 
ATOM     71  H   LIG d   1       8.664  10.356  -6.354  0.00  0.00     0.082 H 
ATOM     72  H   LIG d   1       8.596   8.009  -6.115  0.00  0.00     0.041 H 
ENDBRANCH   8  37
TORSDOF 1
ENDMDL
MODEL 7
REMARK VINA RESULT:      -6.0      0.817      8.032
REMARK  1 active torsions:
REMARK  status: ('A' for Active; 'I' for Inactive)
REMARK    1  A    between atoms: C_8  and  C_14 
ROOT
ATOM      1  C   LIG d   1       9.999   8.303  -0.572  0.00  0.00     0.009 C 
ATOM      2  C   LIG d   1       9.796   9.800  -0.812  0.00  0.00     0.009 C 
ATOM      3  N   LIG d   1       9.110  10.003  -2.095  0.00  0.00    -0.310 N 
ATOM      4  C   LIG d   1       9.651  11.170  -2.804  0.00  0.00     0.036 C 
ATOM      5  C   LIG d   1       9.018  11.262  -4.193  0.00  0.00    -0.021 C 
ATOM      6  N   LIG d   1       9.876  10.579  -5.169  0.00  0.00     0.228 N 
ATOM      7  C   LIG d   1       9.138   9.463  -5.775  0.00  0.00    -0.025 C 
ATOM      8  C   LIG d   1      10.075   8.267  -5.953  0.00  0.00     0.051 C 
ATOM      9  C   LIG d   1       9.386   6.998  -5.448  0.00  0.00    -0.025 C 
ATOM     10  N   LIG d   1      10.286   6.284  -4.532  0.00  0.00     0.228 N 
ATOM     11  C   LIG d   1       9.529   5.826  -3.359  0.00  0.00    -0.021 C 
ATOM     12  C   LIG d   1      10.143   6.423  -2.091  0.00  0.00     0.036 C 
ATOM     13  N   LIG d   1       9.313   7.541  -1.624  0.00  0.00    -0.310 N 
ATOM     14  H   LIG d   1      11.064   8.072  -0.594  0.00  0.00     0.044 H 
ATOM     15  H   LIG d   1       9.588   8.032   0.400  0.00  0.00     0.044 H 
ATOM     16  H   LIG d   1       9.192  10.218  -0.007  0.00  0.00     0.044 H 
ATOM     17  H   LIG d   1      10.765  10.299  -0.836  0.00  0.00     0.044 H 
ATOM     18  H   LIG d   1       9.165   9.174  -2.668  0.00  0.00     0.122 HD
ATOM     19  H   LIG d   1       9.424  12.075  -2.239  0.00  0.00     0.048 H 
ATOM     20  H   LIG d   1      10.732  11.066  -2.903  0.00  0.00     0.048 H 
ATOM     21  H   LIG d   1       8.036  10.788  -4.178  0.00  0.00     0.083 H 
ATOM     22  H   LIG d   1       8.910  12.309  -4.474  0.00  0.00     0.083 H 
ATOM     23  H   LIG d   1      10.151  11.230  -5.889  0.00  0.00     0.201 HD
ATOM     24  H   LIG d   1       8.309   9.180  -5.125  0.00  0.00     0.082 H 
ATOM     25  H   LIG d   1       8.751   9.768  -6.746  0.00  0.00     0.082 H 
ATOM     26  H   LIG d   1      10.991   8.436  -5.384  0.00  0.00     0.041 H 
ATOM     27  H   LIG d   1       8.471   7.268  -4.921  0.00  0.00     0.082 H 
ATOM     28  H   LIG d   1       9.144   6.355  -6.293  0.00  0.00     0.082 H 
ATOM     29  H   LIG d   1      10.686   5.488  -5.005  0.00  0.00     0.201 HD
ATOM     30  H   LIG d   1       8.492   6.150  -3.447  0.00  0.00     0.083 H 
ATOM     31  H   LIG d   1       9.566   4.738  -3.304  0.00  0.00     0.083 H 
ATOM     32  H   LIG d   1      10.190   5.657  -1.316  0.00  0.00     0.048 H 
ATOM     33  H   LIG d   1      11.148   6.782  -2.308  0.00  0.00     0.048 H 
ATOM     34  H   LIG d   1       8.412   7.215  -1.305  0.00  0.00     0.122 HD
ATOM     35  H   LIG d   1      10.698  10.224  -4.704  0.00  0.00     0.201 HD
ATOM     36  H   LIG d   1      11.025   6.904  -4.234  0.00  0.00     0.201 HD
ENDROOT
BRANCH   8  37
ATOM     37  C   LIG d   1      10.420   8.105  -7.435  0.00  0.00     0.051 C 
ATOM     38  C   LIG d   1       9.162   7.725  -8.216  0.00  0.00    -0.025 C 
ATOM     39  N   LIG d   1       9.342   6.394  -8.813  0.00  0.00     0.228 N 
ATOM     40  H   LIG d   1       8.306   7.701  -7.540  0.00  0.00     0.082 H 
ATOM     41  H   LIG d   1       8.973   8.457  -8.998  0.00  0.00     0.082 H 
ATOM     42  C   LIG d   1       8.467   6.248  -9.984  0.00  0.00    -0.021 C 
ATOM     43  H   LIG d   1       9.098   5.689  -8.130  0.00  0.00     0.201 HD
ATOM     44  H   LIG d   1      10.303   6.277  -9.087  0.00  0.00     0.201 HD
ATOM     45  C   LIG d   1       9.308   5.898 -11.213  0.00  0.00     0.036 C 
ATOM     46  H   LIG d   1       7.926   7.176 -10.156  0.00  0.00     0.083 H 
ATOM     47  H   LIG d   1       7.750   5.446  -9.796  0.00  0.00     0.083 H 
ATOM     48  N   LIG d   1       9.080   6.944 -12.254  0.00  0.00    -0.310 N 
ATOM     49  H   LIG d   1       8.991   4.942 -11.618  0.00  0.00     0.048 H 
ATOM     50  H   LIG d   1      10.360   5.883 -10.955  0.00  0.00     0.048 H 
ATOM     51  C   LIG d   1      10.420   7.284 -12.823  0.00  0.00     0.009 C 
ATOM     52  H   LIG d   1       8.876   7.802 -11.654  0.00  0.00     0.122 HD
ATOM     53  C   LIG d   1      10.623   8.795 -12.740  0.00  0.00     0.009 C 
ATOM     54  H   LIG d   1      10.434   6.966 -13.865  0.00  0.00     0.044 H 
ATOM     55  H   LIG d   1      11.186   6.770 -12.255  0.00  0.00     0.044 H 
ATOM     56  N   LIG d   1      11.959   9.061 -12.127  0.00  0.00    -0.310 N 
ATOM     57  H   LIG d   1       9.861   9.254 -12.120  0.00  0.00     0.044 H 
ATOM     58  H   LIG d   1      10.617   9.228 -13.737  0.00  0.00     0.044 H 
ATOM     59  C   LIG d   1      11.868  10.405 -11.483  0.00  0.00     0.036 C 
ATOM     60  H   LIG d   1      12.551   9.272 -12.991  0.00  0.00     0.122 HD
ATOM     61  C   LIG d   1      12.042  10.235  -9.973  0.00  0.00    -0.021 C 
ATOM     62  H   LIG d   1      10.897  10.833 -11.703  0.00  0.00     0.048 H 
ATOM     63  H   LIG d   1      12.665  11.027 -11.880  0.00  0.00     0.048 H 
ATOM     64  N   LIG d   1      10.932   9.436  -9.439  0.00  0.00     0.228 N 
ATOM     65  H   LIG d   1      12.045  11.215  -9.494  0.00  0.00     0.083 H 
ATOM     66  H   LIG d   1      12.988   9.730  -9.769  0.00  0.00     0.083 H 
ATOM     67  C   LIG d   1      10.993   9.417  -7.972  0.00  0.00    -0.025 C 
ATOM     68  H   LIG d   1      10.995   8.491  -9.788  0.00  0.00     0.201 HD
ATOM     69  H   LIG d   1      10.056   9.844  -9.736  0.00  0.00     0.201 HD
ATOM     70  H   LIG d   1      10.421  10.254  -7.573  0.00  0.00     0.082 H 
ATOM     71  H   LIG d   1      12.031   9.509  -7.653  0.00  0.00     0.082 H 
ATOM     72  H   LIG d   1      11.167   7.315  -7.542  0.00  0.00     0.041 H 
ENDBRANCH   8  37
TORSDOF 1
ENDMDL
MODEL 8
REMARK VINA RESULT:      -5.9      5.481      8.883
REMARK  1 active torsions:
REMARK  status: ('A' for Active; 'I' for Inactive)
REMARK    1  A    between atoms: C_8  and  C_14 
ROOT
ATOM      1  C   LIG d   1      10.041   9.190  -4.390  0.00  0.00     0.009 C 
ATOM      2  C   LIG d   1      10.224   8.926  -2.895  0.00  0.00     0.009 C 
ATOM      3  N   LIG d   1      10.882   7.627  -2.703  0.00  0.00    -0.310 N 
ATOM      4  C   LIG d   1      10.316   6.913  -1.550  0.00  0.00     0.036 C 
ATOM      5  C   LIG d   1      10.920   5.511  -1.471  0.00  0.00    -0.021 C 
ATOM      6  N   LIG d   1      10.049   4.561  -2.176  0.00  0.00     0.228 N 
ATOM      7  C   LIG d   1      10.785   3.956  -3.293  0.00  0.00    -0.025 C 
ATOM      8  C   LIG d   1       9.857   3.813  -4.500  0.00  0.00     0.051 C 
ATOM      9  C   LIG d   1      10.568   4.321  -5.755  0.00  0.00    -0.025 C 
ATOM     10  N   LIG d   1       9.694   5.264  -6.465  0.00  0.00     0.228 N 
ATOM     11  C   LIG d   1      10.480   6.428  -6.900  0.00  0.00    -0.021 C 
ATOM     12  C   LIG d   1       9.885   7.700  -6.292  0.00  0.00     0.036 C 
ATOM     13  N   LIG d   1      10.713   8.135  -5.159  0.00  0.00    -0.310 N 
ATOM     14  H   LIG d   1       8.978   9.193  -4.631  0.00  0.00     0.044 H 
ATOM     15  H   LIG d   1      10.474  10.157  -4.644  0.00  0.00     0.044 H 
ATOM     16  H   LIG d   1      10.840   9.713  -2.459  0.00  0.00     0.044 H 
ATOM     17  H   LIG d   1       9.250   8.915  -2.405  0.00  0.00     0.044 H 
ATOM     18  H   LIG d   1      10.824   7.066  -3.539  0.00  0.00     0.122 HD
ATOM     19  H   LIG d   1      10.545   7.461  -0.636  0.00  0.00     0.048 H 
ATOM     20  H   LIG d   1       9.234   6.838  -1.666  0.00  0.00     0.048 H 
ATOM     21  H   LIG d   1      11.906   5.512  -1.936  0.00  0.00     0.083 H 
ATOM     22  H   LIG d   1      11.012   5.214  -0.427  0.00  0.00     0.083 H 
ATOM     23  H   LIG d   1       9.753   3.838  -1.537  0.00  0.00     0.201 HD
ATOM     24  H   LIG d   1      11.631   4.592  -3.559  0.00  0.00     0.082 H 
ATOM     25  H   LIG d   1      11.151   2.973  -2.997  0.00  0.00     0.082 H 
ATOM     26  H   LIG d   1       8.952   4.398  -4.332  0.00  0.00     0.041 H 
ATOM     27  H   LIG d   1      11.491   4.826  -5.470  0.00  0.00     0.082 H 
ATOM     28  H   LIG d   1      10.800   3.480  -6.407  0.00  0.00     0.082 H 
ATOM     29  H   LIG d   1       9.293   4.810  -7.272  0.00  0.00     0.201 HD
ATOM     30  H   LIG d   1      11.511   6.315  -6.567  0.00  0.00     0.083 H 
ATOM     31  H   LIG d   1      10.454   6.498  -7.988  0.00  0.00     0.083 H 
ATOM     32  H   LIG d   1       9.861   8.487  -7.047  0.00  0.00     0.048 H 
ATOM     33  H   LIG d   1       8.872   7.499  -5.945  0.00  0.00     0.048 H 
ATOM     34  H   LIG d   1      11.623   8.440  -5.472  0.00  0.00     0.122 HD
ATOM     35  H   LIG d   1       9.240   5.048  -2.532  0.00  0.00     0.201 HD
ATOM     36  H   LIG d   1       8.956   5.569  -5.848  0.00  0.00     0.201 HD
ENDROOT
BRANCH   8  37
ATOM     37  C   LIG d   1       9.484   2.341  -4.686  0.00  0.00     0.051 C 
ATOM     38  C   LIG d   1      10.612   1.454  -4.156  0.00  0.00    -0.025 C 
ATOM     39  N   LIG d   1      11.171   0.663  -5.260  0.00  0.00     0.228 N 
ATOM     40  H   LIG d   1      11.398   2.080  -3.729  0.00  0.00     0.082 H 
ATOM     41  H   LIG d   1      10.232   0.790  -3.381  0.00  0.00     0.082 H 
ATOM     42  C   LIG d   1      11.804  -0.553  -4.735  0.00  0.00    -0.021 C 
ATOM     43  H   LIG d   1      11.867   1.214  -5.743  0.00  0.00     0.201 HD
ATOM     44  H   LIG d   1      10.435   0.417  -5.901  0.00  0.00     0.201 HD
ATOM     45  C   LIG d   1      11.177  -1.784  -5.392  0.00  0.00     0.036 C 
ATOM     46  H   LIG d   1      11.670  -0.601  -3.656  0.00  0.00     0.083 H 
ATOM     47  H   LIG d   1      12.872  -0.527  -4.961  0.00  0.00     0.083 H 
ATOM     48  N   LIG d   1      10.611  -2.656  -4.319  0.00  0.00    -0.310 N 
ATOM     49  H   LIG d   1      11.938  -2.350  -5.921  0.00  0.00     0.048 H 
ATOM     50  H   LIG d   1      10.378  -1.486  -6.060  0.00  0.00     0.048 H 
ATOM     51  C   LIG d   1       9.266  -3.104  -4.795  0.00  0.00     0.009 C 
ATOM     52  H   LIG d   1      10.349  -1.937  -3.576  0.00  0.00     0.122 HD
ATOM     53  C   LIG d   1       8.229  -2.774  -3.724  0.00  0.00     0.009 C 
ATOM     54  H   LIG d   1       9.306  -4.181  -4.951  0.00  0.00     0.044 H 
ATOM     55  H   LIG d   1       9.029  -2.592  -5.719  0.00  0.00     0.044 H 
ATOM     56  N   LIG d   1       7.084  -2.068  -4.375  0.00  0.00    -0.310 N 
ATOM     57  H   LIG d   1       8.649  -2.123  -2.965  0.00  0.00     0.044 H 
ATOM     58  H   LIG d   1       7.850  -3.689  -3.275  0.00  0.00     0.044 H 
ATOM     59  C   LIG d   1       6.452  -1.224  -3.317  0.00  0.00     0.036 C 
ATOM     60  H   LIG d   1       6.375  -2.861  -4.475  0.00  0.00     0.122 HD
ATOM     61  C   LIG d   1       6.609   0.246  -3.709  0.00  0.00    -0.021 C 
ATOM     62  H   LIG d   1       6.949  -1.416  -2.374  0.00  0.00     0.048 H 
ATOM     63  H   LIG d   1       5.400  -1.483  -3.260  0.00  0.00     0.048 H 
ATOM     64  N   LIG d   1       8.035   0.597  -3.733  0.00  0.00     0.228 N 
ATOM     65  H   LIG d   1       6.094   0.873  -2.980  0.00  0.00     0.083 H 
ATOM     66  H   LIG d   1       6.175   0.408  -4.697  0.00  0.00     0.083 H 
ATOM     67  C   LIG d   1       8.187   2.044  -3.932  0.00  0.00    -0.025 C 
ATOM     68  H   LIG d   1       8.493   0.106  -4.486  0.00  0.00     0.201 HD
ATOM     69  H   LIG d   1       8.457   0.331  -2.854  0.00  0.00     0.201 HD
ATOM     70  H   LIG d   1       8.206   2.545  -2.965  0.00  0.00     0.082 H 
ATOM     71  H   LIG d   1       7.345   2.419  -4.514  0.00  0.00     0.082 H 
ATOM     72  H   LIG d   1       9.337   2.143  -5.749  0.00  0.00     0.041 H 
ENDBRANCH   8  37
TORSDOF 1
ENDMDL
MODEL 9
REMARK VINA RESULT:      -5.9      4.758      7.714
REMARK  1 active torsions:
REMARK  status: ('A' for Active; 'I' for Inactive)
REMARK    1  A    between atoms: C_8  and  C_14 
ROOT
ATOM      1  C   LIG d   1       9.648  -2.225  -5.487  0.00  0.00     0.009 C 
ATOM      2  C   LIG d   1      11.150  -2.056  -5.255  0.00  0.00     0.009 C 
ATOM      3  N   LIG d   1      11.379  -0.963  -4.301  0.00  0.00    -0.310 N 
ATOM      4  C   LIG d   1      12.552  -0.165  -4.683  0.00  0.00     0.036 C 
ATOM      5  C   LIG d   1      12.672   1.044  -3.755  0.00  0.00    -0.021 C 
ATOM      6  N   LIG d   1      11.995   2.198  -4.362  0.00  0.00     0.228 N 
ATOM      7  C   LIG d   1      10.895   2.635  -3.492  0.00  0.00    -0.025 C 
ATOM      8  C   LIG d   1       9.693   3.035  -4.349  0.00  0.00     0.051 C 
ATOM      9  C   LIG d   1       8.424   2.403  -3.775  0.00  0.00    -0.025 C 
ATOM     10  N   LIG d   1       7.687   1.723  -4.848  0.00  0.00     0.228 N 
ATOM     11  C   LIG d   1       7.219   0.415  -4.369  0.00  0.00    -0.021 C 
ATOM     12  C   LIG d   1       7.790  -0.689  -5.260  0.00  0.00     0.036 C 
ATOM     13  N   LIG d   1       8.909  -1.345  -4.572  0.00  0.00    -0.310 N 
ATOM     14  H   LIG d   1       9.407  -1.961  -6.517  0.00  0.00     0.044 H 
ATOM     15  H   LIG d   1       9.366  -3.261  -5.302  0.00  0.00     0.044 H 
ATOM     16  H   LIG d   1      11.562  -2.982  -4.853  0.00  0.00     0.044 H 
ATOM     17  H   LIG d   1      11.640  -1.820  -6.200  0.00  0.00     0.044 H 
ATOM     18  H   LIG d   1      10.559  -0.382  -4.214  0.00  0.00     0.122 HD
ATOM     19  H   LIG d   1      13.450  -0.778  -4.601  0.00  0.00     0.048 H 
ATOM     20  H   LIG d   1      12.438   0.176  -5.713  0.00  0.00     0.048 H 
ATOM     21  H   LIG d   1      12.207   0.814  -2.796  0.00  0.00     0.083 H 
ATOM     22  H   LIG d   1      13.724   1.280  -3.600  0.00  0.00     0.083 H 
ATOM     23  H   LIG d   1      12.654   2.952  -4.477  0.00  0.00     0.201 HD
ATOM     24  H   LIG d   1      10.611   1.819  -2.826  0.00  0.00     0.082 H 
ATOM     25  H   LIG d   1      11.219   3.490  -2.900  0.00  0.00     0.082 H 
ATOM     26  H   LIG d   1       9.844   2.685  -5.371  0.00  0.00     0.041 H 
ATOM     27  H   LIG d   1       8.694   1.680  -3.006  0.00  0.00     0.082 H 
ATOM     28  H   LIG d   1       7.796   3.180  -3.340  0.00  0.00     0.082 H 
ATOM     29  H   LIG d   1       6.894   2.284  -5.121  0.00  0.00     0.201 HD
ATOM     30  H   LIG d   1       7.554   0.263  -3.343  0.00  0.00     0.083 H 
ATOM     31  H   LIG d   1       6.129   0.384  -4.403  0.00  0.00     0.083 H 
ATOM     32  H   LIG d   1       7.012  -1.424  -5.471  0.00  0.00     0.048 H 
ATOM     33  H   LIG d   1       8.142  -0.256  -6.196  0.00  0.00     0.048 H 
ATOM     34  H   LIG d   1       8.587  -1.855  -3.762  0.00  0.00     0.122 HD
ATOM     35  H   LIG d   1      11.625   1.934  -5.263  0.00  0.00     0.201 HD
ATOM     36  H   LIG d   1       8.295   1.592  -5.643  0.00  0.00     0.201 HD
ENDROOT
BRANCH   8  37
ATOM     37  C   LIG d   1       9.550   4.558  -4.349  0.00  0.00     0.051 C 
ATOM     38  C   LIG d   1      10.519   5.165  -3.334  0.00  0.00    -0.025 C 
ATOM     39  N   LIG d   1       9.758   5.857  -2.284  0.00  0.00     0.228 N 
ATOM     40  H   LIG d   1      11.116   4.372  -2.880  0.00  0.00     0.082 H 
ATOM     41  H   LIG d   1      11.187   5.868  -3.830  0.00  0.00     0.082 H 
ATOM     42  C   LIG d   1      10.592   6.891  -1.660  0.00  0.00    -0.021 C 
ATOM     43  H   LIG d   1       9.482   5.187  -1.580  0.00  0.00     0.201 HD
ATOM     44  H   LIG d   1       8.937   6.276  -2.689  0.00  0.00     0.201 HD
ATOM     45  C   LIG d   1       9.897   8.249  -1.773  0.00  0.00     0.036 C 
ATOM     46  H   LIG d   1      11.561   6.929  -2.153  0.00  0.00     0.083 H 
ATOM     47  H   LIG d   1      10.737   6.645  -0.606  0.00  0.00     0.083 H 
ATOM     48  N   LIG d   1      10.802   9.184  -2.505  0.00  0.00    -0.310 N 
ATOM     49  H   LIG d   1       9.717   8.657  -0.783  0.00  0.00     0.048 H 
ATOM     50  H   LIG d   1       8.971   8.151  -2.327  0.00  0.00     0.048 H 
ATOM     51  C   LIG d   1       9.952   9.925  -3.487  0.00  0.00     0.009 C 
ATOM     52  H   LIG d   1      11.333   8.513  -3.142  0.00  0.00     0.122 HD
ATOM     53  C   LIG d   1      10.570   9.787  -4.877  0.00  0.00     0.009 C 
ATOM     54  H   LIG d   1       9.934  10.973  -3.194  0.00  0.00     0.044 H 
ATOM     55  H   LIG d   1       8.954   9.506  -3.477  0.00  0.00     0.044 H 
ATOM     56  N   LIG d   1       9.501   9.364  -5.831  0.00  0.00    -0.310 N 
ATOM     57  H   LIG d   1      11.352   9.036  -4.880  0.00  0.00     0.044 H 
ATOM     58  H   LIG d   1      10.959  10.746  -5.210  0.00  0.00     0.044 H 
ATOM     59  C   LIG d   1      10.188   8.638  -6.941  0.00  0.00     0.036 C 
ATOM     60  H   LIG d   1       9.253  10.293  -6.298  0.00  0.00     0.122 HD
ATOM     61  C   LIG d   1       9.719   7.183  -6.935  0.00  0.00    -0.021 C 
ATOM     62  H   LIG d   1      11.259   8.688  -6.780  0.00  0.00     0.048 H 
ATOM     63  H   LIG d   1       9.915   9.113  -7.878  0.00  0.00     0.048 H 
ATOM     64  N   LIG d   1      10.139   6.537  -5.685  0.00  0.00     0.228 N 
ATOM     65  H   LIG d   1      10.161   6.655  -7.782  0.00  0.00     0.083 H 
ATOM     66  H   LIG d   1       8.631   7.150  -7.017  0.00  0.00     0.083 H 
ATOM     67  C   LIG d   1       9.850   5.099  -5.747  0.00  0.00    -0.025 C 
ATOM     68  H   LIG d   1       9.640   6.944  -4.908  0.00  0.00     0.201 HD
ATOM     69  H   LIG d   1      11.132   6.677  -5.556  0.00  0.00     0.201 HD
ATOM     70  H   LIG d   1      10.708   4.572  -6.164  0.00  0.00     0.082 H 
ATOM     71  H   LIG d   1       8.983   4.932  -6.387  0.00  0.00     0.082 H 
ATOM     72  H   LIG d   1       8.526   4.819  -4.074  0.00  0.00     0.041 H 
ENDBRANCH   8  37
TORSDOF 1
ENDMDL
MODEL 10
REMARK VINA RESULT:      -5.8      0.762      2.708
REMARK  1 active torsions:
REMARK  status: ('A' for Active; 'I' for Inactive)
REMARK    1  A    between atoms: C_8  and  C_14 
ROOT
ATOM      1  C   LIG d   1       9.818   7.664 -12.690  0.00  0.00     0.009 C 
ATOM      2  C   LIG d   1      10.691   8.916 -12.790  0.00  0.00     0.009 C 
ATOM      3  N   LIG d   1      11.628   8.953 -11.660  0.00  0.00    -0.310 N 
ATOM      4  C   LIG d   1      11.793  10.322 -11.155  0.00  0.00     0.036 C 
ATOM      5  C   LIG d   1      12.656  10.301  -9.893  0.00  0.00    -0.021 C 
ATOM      6  N   LIG d   1      11.791  10.231  -8.708  0.00  0.00     0.228 N 
ATOM      7  C   LIG d   1      12.073   8.994  -7.967  0.00  0.00    -0.025 C 
ATOM      8  C   LIG d   1      10.764   8.402  -7.443  0.00  0.00     0.051 C 
ATOM      9  C   LIG d   1      10.725   6.903  -7.745  0.00  0.00    -0.025 C 
ATOM     10  N   LIG d   1       9.448   6.566  -8.389  0.00  0.00     0.228 N 
ATOM     11  C   LIG d   1       9.693   5.656  -9.516  0.00  0.00    -0.021 C 
ATOM     12  C   LIG d   1       9.168   6.289 -10.806  0.00  0.00     0.036 C 
ATOM     13  N   LIG d   1      10.294   6.823 -11.583  0.00  0.00    -0.310 N 
ATOM     14  H   LIG d   1       8.785   7.956 -12.505  0.00  0.00     0.044 H 
ATOM     15  H   LIG d   1       9.878   7.104 -13.623  0.00  0.00     0.044 H 
ATOM     16  H   LIG d   1      11.251   8.895 -13.726  0.00  0.00     0.044 H 
ATOM     17  H   LIG d   1      10.059   9.804 -12.766  0.00  0.00     0.044 H 
ATOM     18  H   LIG d   1      11.331   8.330 -10.924  0.00  0.00     0.122 HD
ATOM     19  H   LIG d   1      12.277  10.934 -11.917  0.00  0.00     0.048 H 
ATOM     20  H   LIG d   1      10.815  10.743 -10.920  0.00  0.00     0.048 H 
ATOM     21  H   LIG d   1      13.313   9.431  -9.915  0.00  0.00     0.083 H 
ATOM     22  H   LIG d   1      13.259  11.208  -9.849  0.00  0.00     0.083 H 
ATOM     23  H   LIG d   1      11.968  11.027  -8.114  0.00  0.00     0.201 HD
ATOM     24  H   LIG d   1      12.558   8.276  -8.630  0.00  0.00     0.082 H 
ATOM     25  H   LIG d   1      12.733   9.216  -7.129  0.00  0.00     0.082 H 
ATOM     26  H   LIG d   1       9.922   8.894  -7.932  0.00  0.00     0.041 H 
ATOM     27  H   LIG d   1      11.547   6.645  -8.413  0.00  0.00     0.082 H 
ATOM     28  H   LIG d   1      10.822   6.342  -6.816  0.00  0.00     0.082 H 
ATOM     29  H   LIG d   1       8.842   6.116  -7.720  0.00  0.00     0.201 HD
ATOM     30  H   LIG d   1      10.763   5.474  -9.610  0.00  0.00     0.083 H 
ATOM     31  H   LIG d   1       9.178   4.711  -9.338  0.00  0.00     0.083 H 
ATOM     32  H   LIG d   1       8.647   5.533 -11.395  0.00  0.00     0.048 H 
ATOM     33  H   LIG d   1       8.479   7.096 -10.561  0.00  0.00     0.048 H 
ATOM     34  H   LIG d   1      10.885   6.079 -11.923  0.00  0.00     0.122 HD
ATOM     35  H   LIG d   1      10.824  10.235  -8.997  0.00  0.00     0.201 HD
ATOM     36  H   LIG d   1       9.009   7.410  -8.727  0.00  0.00     0.201 HD
ENDROOT
BRANCH   8  37
ATOM     37  C   LIG d   1      10.674   8.620  -5.932  0.00  0.00     0.051 C 
ATOM     38  C   LIG d   1       9.453   9.482  -5.609  0.00  0.00    -0.025 C 
ATOM     39  N   LIG d   1       9.893  10.743  -4.996  0.00  0.00     0.228 N 
ATOM     40  H   LIG d   1       8.909   9.703  -6.530  0.00  0.00     0.082 H 
ATOM     41  H   LIG d   1       8.791   8.952  -4.928  0.00  0.00     0.082 H 
ATOM     42  C   LIG d   1       8.812  11.307  -4.179  0.00  0.00    -0.021 C 
ATOM     43  H   LIG d   1      10.132  11.401  -5.726  0.00  0.00     0.201 HD
ATOM     44  H   LIG d   1      10.702  10.571  -4.423  0.00  0.00     0.201 HD
ATOM     45  C   LIG d   1       9.303  11.508  -2.744  0.00  0.00     0.036 C 
ATOM     46  H   LIG d   1       7.956  10.635  -4.187  0.00  0.00     0.083 H 
ATOM     47  H   LIG d   1       8.513  12.271  -4.598  0.00  0.00     0.083 H 
ATOM     48  N   LIG d   1       8.418  10.728  -1.828  0.00  0.00    -0.310 N 
ATOM     49  H   LIG d   1       9.232  12.557  -2.472  0.00  0.00     0.048 H 
ATOM     50  H   LIG d   1      10.319  11.147  -2.642  0.00  0.00     0.048 H 
ATOM     51  C   LIG d   1       9.314  10.040  -0.848  0.00  0.00     0.009 C 
ATOM     52  H   LIG d   1       8.122   9.918  -2.456  0.00  0.00     0.122 HD
ATOM     53  C   LIG d   1       8.992   8.548  -0.850  0.00  0.00     0.009 C 
ATOM     54  H   LIG d   1       9.119  10.459   0.138  0.00  0.00     0.044 H 
ATOM     55  H   LIG d   1      10.344  10.203  -1.137  0.00  0.00     0.044 H 
ATOM     56  N   LIG d   1      10.271   7.787  -0.988  0.00  0.00    -0.310 N 
ATOM     57  H   LIG d   1       8.346   8.291  -1.682  0.00  0.00     0.044 H 
ATOM     58  H   LIG d   1       8.531   8.263   0.093  0.00  0.00     0.044 H 
ATOM     59  C   LIG d   1       9.919   6.479  -1.617  0.00  0.00     0.036 C 
ATOM     60  H   LIG d   1      10.458   7.500   0.024  0.00  0.00     0.122 HD
ATOM     61  C   LIG d   1      10.593   6.400  -2.987  0.00  0.00    -0.021 C 
ATOM     62  H   LIG d   1       8.842   6.422  -1.725  0.00  0.00     0.048 H 
ATOM     63  H   LIG d   1      10.286   5.684  -0.976  0.00  0.00     0.048 H 
ATOM     64  N   LIG d   1      10.051   7.447  -3.861  0.00  0.00     0.228 N 
ATOM     65  H   LIG d   1      10.400   5.422  -3.431  0.00  0.00     0.083 H 
ATOM     66  H   LIG d   1      11.669   6.539  -2.872  0.00  0.00     0.083 H 
ATOM     67  C   LIG d   1      10.560   7.268  -5.227  0.00  0.00    -0.025 C 
ATOM     68  H   LIG d   1      10.330   8.355  -3.518  0.00  0.00     0.201 HD
ATOM     69  H   LIG d   1       9.042   7.387  -3.866  0.00  0.00     0.201 HD
ATOM     70  H   LIG d   1       9.883   6.622  -5.786  0.00  0.00     0.082 H 
ATOM     71  H   LIG d   1      11.546   6.804  -5.187  0.00  0.00     0.082 H 
ATOM     72  H   LIG d   1      11.578   9.129  -5.591  0.00  0.00     0.041 H 
ENDBRANCH   8  37
TORSDOF 1
ENDMDL
