MODEL 1
REMARK VINA RESULT:      -6.6      0.000      0.000
REMARK  3 active torsions:
REMARK  status: ('A' for Active; 'I' for Inactive)
REMARK    1  A    between atoms: CB_1  and  CA_2 
REMARK       I    between atoms: CA_2  and  C_4 
REMARK       I    between atoms: CA_2  and  N_6 
REMARK       I    between atoms: N_6  and  C_7 
REMARK    2  A    between atoms: C_7  and  C_9 
REMARK    3  A    between atoms: C_14  and  N_15 
ROOT
ATOM      1  C   UNK d   0       4.155  -0.946  -4.905  0.00  0.00     0.114 A 
ATOM      2  C   UNK d   0       4.539  -2.274  -4.715  0.00  0.00    -0.043 A 
ATOM      3  C   UNK d   0       4.395  -2.860  -3.475  0.00  0.00    -0.061 A 
ATOM      4  C   UNK d   0       3.861  -2.138  -2.423  0.00  0.00    -0.055 A 
ATOM      5  C   UNK d   0       3.474  -0.822  -2.605  0.00  0.00     0.016 A 
ATOM      6  C   UNK d   0       3.617  -0.223  -3.839  0.00  0.00     0.285 A 
ATOM      7  H   UNK d   0       4.952  -2.841  -5.537  0.00  0.00     0.063 H 
ATOM      8  H   UNK d   0       4.696  -3.887  -3.326  0.00  0.00     0.062 H 
ATOM      9  H   UNK d   0       3.747  -2.603  -1.455  0.00  0.00     0.062 H 
ATOM     10  H   UNK d   0       3.057  -0.264  -1.780  0.00  0.00     0.069 H 
ENDROOT
BRANCH   1  11
ATOM     11  C   UNK d   0       4.311  -0.310  -6.231  0.00  0.00     0.251 C 
ATOM     12  N   ALA d   1       3.342  -0.442  -7.159  0.00  0.00    -0.303 N 
ATOM     13  CA  ALA d   1       3.497   0.189  -8.472  0.00  0.00     0.060 C 
ATOM     14  H   ALA d   1       2.544  -0.953  -6.958  0.00  0.00     0.150 HD
ATOM     15  HA  ALA d   1       4.546   0.161  -8.768  0.00  0.00     0.056 H 
ATOM     16  C   ALA d   1       2.670  -0.557  -9.488  0.00  0.00     0.062 C 
ATOM     17  O   ALA d   1       2.018  -1.516  -9.149  0.00  0.00    -0.548 OA
ATOM     18  OXT ALA d   1       2.657  -0.155 -10.768  0.00  0.00    -0.548 OA
ATOM     19  O   UNK d   0       5.312   0.332  -6.483  0.00  0.00    -0.270 OA
BRANCH  13  20
ATOM     20  CB  ALA d   1       3.026   1.643  -8.399  0.00  0.00    -0.041 C 
ATOM     21  HB1 ALA d   1       2.872   1.923  -7.358  0.00  0.00     0.025 H 
ATOM     22  HB2 ALA d   1       3.781   2.292  -8.842  0.00  0.00     0.025 H 
ATOM     23  HB3 ALA d   1       2.089   1.749  -8.947  0.00  0.00     0.025 H 
ENDBRANCH  13  20
ENDBRANCH   1  11
BRANCH   6  24
ATOM     24  N   UNK d   0       3.202   1.185  -4.033  0.00  0.00     0.080 N 
ATOM     25  O   UNK d   0       3.684   2.062  -3.340  0.00  0.00     0.042 OA
ATOM     26  O   UNK d   0       2.378   1.466  -4.885  0.00  0.00    -0.576 OA
ENDBRANCH   6  24
TORSDOF 5
ENDMDL
MODEL 2
REMARK VINA RESULT:      -6.3      2.017      3.088
REMARK  3 active torsions:
REMARK  status: ('A' for Active; 'I' for Inactive)
REMARK    1  A    between atoms: CB_1  and  CA_2 
REMARK       I    between atoms: CA_2  and  C_4 
REMARK       I    between atoms: CA_2  and  N_6 
REMARK       I    between atoms: N_6  and  C_7 
REMARK    2  A    between atoms: C_7  and  C_9 
REMARK    3  A    between atoms: C_14  and  N_15 
ROOT
ATOM      1  C   UNK d   0       3.561   0.263  -4.101  0.00  0.00     0.114 A 
ATOM      2  C   UNK d   0       3.383   1.352  -3.247  0.00  0.00    -0.043 A 
ATOM      3  C   UNK d   0       3.978   1.353  -2.002  0.00  0.00    -0.061 A 
ATOM      4  C   UNK d   0       4.757   0.282  -1.604  0.00  0.00    -0.055 A 
ATOM      5  C   UNK d   0       4.941  -0.799  -2.447  0.00  0.00     0.016 A 
ATOM      6  C   UNK d   0       4.349  -0.814  -3.692  0.00  0.00     0.285 A 
ATOM      7  H   UNK d   0       2.779   2.192  -3.559  0.00  0.00     0.063 H 
ATOM      8  H   UNK d   0       3.838   2.194  -1.339  0.00  0.00     0.062 H 
ATOM      9  H   UNK d   0       5.224   0.290  -0.629  0.00  0.00     0.062 H 
ATOM     10  H   UNK d   0       5.552  -1.632  -2.130  0.00  0.00     0.069 H 
ENDROOT
BRANCH   1  11
ATOM     11  C   UNK d   0       2.924   0.253  -5.435  0.00  0.00     0.251 C 
ATOM     12  N   ALA d   1       3.666   0.474  -6.538  0.00  0.00    -0.303 N 
ATOM     13  CA  ALA d   1       3.035   0.463  -7.860  0.00  0.00     0.060 C 
ATOM     14  H   ALA d   1       4.618   0.638  -6.457  0.00  0.00     0.150 HD
ATOM     15  HA  ALA d   1       2.029   0.878  -7.785  0.00  0.00     0.056 H 
ATOM     16  C   ALA d   1       3.851   1.298  -8.813  0.00  0.00     0.062 C 
ATOM     17  O   ALA d   1       4.857   1.843  -8.428  0.00  0.00    -0.548 OA
ATOM     18  OXT ALA d   1       3.461   1.433 -10.090  0.00  0.00    -0.548 OA
ATOM     19  O   UNK d   0       1.730   0.047  -5.536  0.00  0.00    -0.270 OA
BRANCH  13  20
ATOM     20  CB  ALA d   1       2.956  -0.974  -8.377  0.00  0.00    -0.041 C 
ATOM     21  HB1 ALA d   1       2.112  -1.482  -7.913  0.00  0.00     0.025 H 
ATOM     22  HB2 ALA d   1       2.824  -0.964  -9.459  0.00  0.00     0.025 H 
ATOM     23  HB3 ALA d   1       3.879  -1.500  -8.129  0.00  0.00     0.025 H 
ENDBRANCH  13  20
ENDBRANCH   1  11
BRANCH   6  24
ATOM     24  N   UNK d   0       4.547  -1.972  -4.594  0.00  0.00     0.080 N 
ATOM     25  O   UNK d   0       5.249  -1.859  -5.583  0.00  0.00     0.042 OA
ATOM     26  O   UNK d   0       4.008  -3.036  -4.347  0.00  0.00    -0.576 OA
ENDBRANCH   6  24
TORSDOF 5
ENDMDL
MODEL 3
REMARK VINA RESULT:      -6.0      4.586      6.408
REMARK  3 active torsions:
REMARK  status: ('A' for Active; 'I' for Inactive)
REMARK    1  A    between atoms: CB_1  and  CA_2 
REMARK       I    between atoms: CA_2  and  C_4 
REMARK       I    between atoms: CA_2  and  N_6 
REMARK       I    between atoms: N_6  and  C_7 
REMARK    2  A    between atoms: C_7  and  C_9 
REMARK    3  A    between atoms: C_14  and  N_15 
ROOT
ATOM      1  C   UNK d   0       6.282   0.367  -3.402  0.00  0.00     0.114 A 
ATOM      2  C   UNK d   0       5.501   1.243  -2.648  0.00  0.00    -0.043 A 
ATOM      3  C   UNK d   0       4.488   0.750  -1.852  0.00  0.00    -0.061 A 
ATOM      4  C   UNK d   0       4.252  -0.612  -1.793  0.00  0.00    -0.055 A 
ATOM      5  C   UNK d   0       5.025  -1.487  -2.535  0.00  0.00     0.016 A 
ATOM      6  C   UNK d   0       6.038  -1.007  -3.338  0.00  0.00     0.285 A 
ATOM      7  H   UNK d   0       5.688   2.307  -2.690  0.00  0.00     0.063 H 
ATOM      8  H   UNK d   0       3.881   1.428  -1.270  0.00  0.00     0.062 H 
ATOM      9  H   UNK d   0       3.461  -0.993  -1.164  0.00  0.00     0.062 H 
ATOM     10  H   UNK d   0       4.836  -2.549  -2.483  0.00  0.00     0.069 H 
ENDROOT
BRANCH   1  11
ATOM     11  C   UNK d   0       7.366   0.888  -4.262  0.00  0.00     0.251 C 
ATOM     12  N   ALA d   1       8.586   1.122  -3.739  0.00  0.00    -0.303 N 
ATOM     13  CA  ALA d   1       9.660   1.639  -4.590  0.00  0.00     0.060 C 
ATOM     14  H   ALA d   1       8.753   0.948  -2.800  0.00  0.00     0.150 HD
ATOM     15  HA  ALA d   1       9.241   2.323  -5.330  0.00  0.00     0.056 H 
ATOM     16  C   ALA d   1      10.664   2.375  -3.741  0.00  0.00     0.062 C 
ATOM     17  O   ALA d   1      10.501   2.457  -2.547  0.00  0.00    -0.548 OA
ATOM     18  OXT ALA d   1      11.742   2.936  -4.310  0.00  0.00    -0.548 OA
ATOM     19  O   UNK d   0       7.156   1.107  -5.439  0.00  0.00    -0.270 OA
BRANCH  13  20
ATOM     20  CB  ALA d   1      10.350   0.476  -5.305  0.00  0.00    -0.041 C 
ATOM     21  HB1 ALA d   1      10.889  -0.130  -4.577  0.00  0.00     0.025 H 
ATOM     22  HB2 ALA d   1       9.602  -0.138  -5.806  0.00  0.00     0.025 H 
ATOM     23  HB3 ALA d   1      11.052   0.868  -6.043  0.00  0.00     0.025 H 
ENDBRANCH  13  20
ENDBRANCH   1  11
BRANCH   6  24
ATOM     24  N   UNK d   0       6.864  -1.944  -4.131  0.00  0.00     0.080 N 
ATOM     25  O   UNK d   0       7.862  -2.441  -3.640  0.00  0.00     0.042 OA
ATOM     26  O   UNK d   0       6.547  -2.218  -5.275  0.00  0.00    -0.576 OA
ENDBRANCH   6  24
TORSDOF 5
ENDMDL
MODEL 4
REMARK VINA RESULT:      -6.0      1.531      2.599
REMARK  3 active torsions:
REMARK  status: ('A' for Active; 'I' for Inactive)
REMARK    1  A    between atoms: CB_1  and  CA_2 
REMARK       I    between atoms: CA_2  and  C_4 
REMARK       I    between atoms: CA_2  and  N_6 
REMARK       I    between atoms: N_6  and  C_7 
REMARK    2  A    between atoms: C_7  and  C_9 
REMARK    3  A    between atoms: C_14  and  N_15 
ROOT
ATOM      1  C   UNK d   0       3.943  -0.844  -4.935  0.00  0.00     0.114 A 
ATOM      2  C   UNK d   0       3.157  -0.204  -3.975  0.00  0.00    -0.043 A 
ATOM      3  C   UNK d   0       2.982  -0.782  -2.735  0.00  0.00    -0.061 A 
ATOM      4  C   UNK d   0       3.591  -1.987  -2.438  0.00  0.00    -0.055 A 
ATOM      5  C   UNK d   0       4.375  -2.625  -3.383  0.00  0.00     0.016 A 
ATOM      6  C   UNK d   0       4.555  -2.061  -4.628  0.00  0.00     0.285 A 
ATOM      7  H   UNK d   0       2.685   0.740  -4.205  0.00  0.00     0.063 H 
ATOM      8  H   UNK d   0       2.371  -0.289  -1.993  0.00  0.00     0.062 H 
ATOM      9  H   UNK d   0       3.454  -2.433  -1.463  0.00  0.00     0.062 H 
ATOM     10  H   UNK d   0       4.849  -3.566  -3.144  0.00  0.00     0.069 H 
ENDROOT
BRANCH   1  11
ATOM     11  C   UNK d   0       4.132  -0.233  -6.268  0.00  0.00     0.251 C 
ATOM     12  N   ALA d   1       3.188  -0.387  -7.219  0.00  0.00    -0.303 N 
ATOM     13  CA  ALA d   1       3.375   0.218  -8.540  0.00  0.00     0.060 C 
ATOM     14  H   ALA d   1       2.386  -0.896  -7.028  0.00  0.00     0.150 HD
ATOM     15  HA  ALA d   1       4.432   0.188  -8.807  0.00  0.00     0.056 H 
ATOM     16  C   ALA d   1       2.577  -0.551  -9.562  0.00  0.00     0.062 C 
ATOM     17  O   ALA d   1       1.919  -1.504  -9.221  0.00  0.00    -0.548 OA
ATOM     18  OXT ALA d   1       2.596  -0.175 -10.850  0.00  0.00    -0.548 OA
ATOM     19  O   UNK d   0       5.138   0.406  -6.508  0.00  0.00    -0.270 OA
BRANCH  13  20
ATOM     20  CB  ALA d   1       2.899   1.671  -8.509  0.00  0.00    -0.041 C 
ATOM     21  HB1 ALA d   1       1.973   1.739  -7.939  0.00  0.00     0.025 H 
ATOM     22  HB2 ALA d   1       3.660   2.293  -8.038  0.00  0.00     0.025 H 
ATOM     23  HB3 ALA d   1       2.724   2.019  -9.528  0.00  0.00     0.025 H 
ENDBRANCH  13  20
ENDBRANCH   1  11
BRANCH   6  24
ATOM     24  N   UNK d   0       5.394  -2.744  -5.639  0.00  0.00     0.080 N 
ATOM     25  O   UNK d   0       6.598  -2.559  -5.655  0.00  0.00     0.042 OA
ATOM     26  O   UNK d   0       4.881  -3.490  -6.454  0.00  0.00    -0.576 OA
ENDBRANCH   6  24
TORSDOF 5
ENDMDL
MODEL 5
REMARK VINA RESULT:      -6.0      2.224      5.725
REMARK  3 active torsions:
REMARK  status: ('A' for Active; 'I' for Inactive)
REMARK    1  A    between atoms: CB_1  and  CA_2 
REMARK       I    between atoms: CA_2  and  C_4 
REMARK       I    between atoms: CA_2  and  N_6 
REMARK       I    between atoms: N_6  and  C_7 
REMARK    2  A    between atoms: C_7  and  C_9 
REMARK    3  A    between atoms: C_14  and  N_15 
ROOT
ATOM      1  C   UNK d   0       3.719  -0.083  -7.531  0.00  0.00     0.114 A 
ATOM      2  C   UNK d   0       2.438  -0.129  -8.081  0.00  0.00    -0.043 A 
ATOM      3  C   UNK d   0       2.240   0.243  -9.395  0.00  0.00    -0.061 A 
ATOM      4  C   UNK d   0       3.311   0.652 -10.169  0.00  0.00    -0.055 A 
ATOM      5  C   UNK d   0       4.585   0.696  -9.632  0.00  0.00     0.016 A 
ATOM      6  C   UNK d   0       4.796   0.330  -8.319  0.00  0.00     0.285 A 
ATOM      7  H   UNK d   0       1.602  -0.453  -7.479  0.00  0.00     0.063 H 
ATOM      8  H   UNK d   0       1.248   0.211  -9.820  0.00  0.00     0.062 H 
ATOM      9  H   UNK d   0       3.151   0.938 -11.199  0.00  0.00     0.062 H 
ATOM     10  H   UNK d   0       5.417   1.015 -10.242  0.00  0.00     0.069 H 
ENDROOT
BRANCH   1  11
ATOM     11  C   UNK d   0       3.938  -0.476  -6.123  0.00  0.00     0.251 C 
ATOM     12  N   ALA d   1       3.597   0.367  -5.128  0.00  0.00    -0.303 N 
ATOM     13  CA  ALA d   1       3.814  -0.023  -3.732  0.00  0.00     0.060 C 
ATOM     14  H   ALA d   1       3.207   1.230  -5.335  0.00  0.00     0.150 HD
ATOM     15  HA  ALA d   1       4.725  -0.617  -3.658  0.00  0.00     0.056 H 
ATOM     16  C   ALA d   1       3.951   1.214  -2.882  0.00  0.00     0.062 C 
ATOM     17  O   ALA d   1       3.874   2.307  -3.388  0.00  0.00    -0.548 OA
ATOM     18  OXT ALA d   1       4.157   1.100  -1.560  0.00  0.00    -0.548 OA
ATOM     19  O   UNK d   0       4.427  -1.558  -5.862  0.00  0.00    -0.270 OA
BRANCH  13  20
ATOM     20  CB  ALA d   1       2.625  -0.850  -3.242  0.00  0.00    -0.041 C 
ATOM     21  HB1 ALA d   1       2.843  -1.251  -2.253  0.00  0.00     0.025 H 
ATOM     22  HB2 ALA d   1       1.738  -0.219  -3.189  0.00  0.00     0.025 H 
ATOM     23  HB3 ALA d   1       2.444  -1.673  -3.935  0.00  0.00     0.025 H 
ENDBRANCH  13  20
ENDBRANCH   1  11
BRANCH   6  24
ATOM     24  N   UNK d   0       6.159   0.377  -7.745  0.00  0.00     0.080 N 
ATOM     25  O   UNK d   0       6.875  -0.607  -7.795  0.00  0.00     0.042 OA
ATOM     26  O   UNK d   0       6.566   1.400  -7.223  0.00  0.00    -0.576 OA
ENDBRANCH   6  24
TORSDOF 5
ENDMDL
MODEL 6
REMARK VINA RESULT:      -6.0      2.302      2.866
REMARK  3 active torsions:
REMARK  status: ('A' for Active; 'I' for Inactive)
REMARK    1  A    between atoms: CB_1  and  CA_2 
REMARK       I    between atoms: CA_2  and  C_4 
REMARK       I    between atoms: CA_2  and  N_6 
REMARK       I    between atoms: N_6  and  C_7 
REMARK    2  A    between atoms: C_7  and  C_9 
REMARK    3  A    between atoms: C_14  and  N_15 
ROOT
ATOM      1  C   UNK d   0       4.297  -0.309  -4.728  0.00  0.00     0.114 A 
ATOM      2  C   UNK d   0       3.082  -0.386  -4.045  0.00  0.00    -0.043 A 
ATOM      3  C   UNK d   0       3.051  -0.206  -2.677  0.00  0.00    -0.061 A 
ATOM      4  C   UNK d   0       4.218   0.061  -1.985  0.00  0.00    -0.055 A 
ATOM      5  C   UNK d   0       5.425   0.143  -2.656  0.00  0.00     0.016 A 
ATOM      6  C   UNK d   0       5.471  -0.039  -4.022  0.00  0.00     0.285 A 
ATOM      7  H   UNK d   0       2.170  -0.589  -4.585  0.00  0.00     0.063 H 
ATOM      8  H   UNK d   0       2.112  -0.269  -2.147  0.00  0.00     0.062 H 
ATOM      9  H   UNK d   0       4.187   0.205  -0.915  0.00  0.00     0.062 H 
ATOM     10  H   UNK d   0       6.332   0.352  -2.109  0.00  0.00     0.069 H 
ENDROOT
BRANCH   1  11
ATOM     11  C   UNK d   0       4.340  -0.505  -6.192  0.00  0.00     0.251 C 
ATOM     12  N   ALA d   1       4.364   0.562  -7.015  0.00  0.00    -0.303 N 
ATOM     13  CA  ALA d   1       4.406   0.368  -8.466  0.00  0.00     0.060 C 
ATOM     14  H   ALA d   1       4.354   1.459  -6.646  0.00  0.00     0.150 HD
ATOM     15  HA  ALA d   1       3.823  -0.515  -8.732  0.00  0.00     0.056 H 
ATOM     16  C   ALA d   1       3.825   1.577  -9.152  0.00  0.00     0.062 C 
ATOM     17  O   ALA d   1       3.420   2.507  -8.497  0.00  0.00    -0.548 OA
ATOM     18  OXT ALA d   1       3.761   1.623 -10.492  0.00  0.00    -0.548 OA
ATOM     19  O   UNK d   0       4.352  -1.629  -6.655  0.00  0.00    -0.270 OA
BRANCH  13  20
ATOM     20  CB  ALA d   1       5.856   0.174  -8.914  0.00  0.00    -0.041 C 
ATOM     21  HB1 ALA d   1       6.510   0.184  -8.042  0.00  0.00     0.025 H 
ATOM     22  HB2 ALA d   1       5.953  -0.782  -9.429  0.00  0.00     0.025 H 
ATOM     23  HB3 ALA d   1       6.139   0.982  -9.590  0.00  0.00     0.025 H 
ENDBRANCH  13  20
ENDBRANCH   1  11
BRANCH   6  24
ATOM     24  N   UNK d   0       6.763   0.049  -4.740  0.00  0.00     0.080 N 
ATOM     25  O   UNK d   0       7.061   1.070  -5.334  0.00  0.00     0.042 OA
ATOM     26  O   UNK d   0       7.528  -0.898  -4.736  0.00  0.00    -0.576 OA
ENDBRANCH   6  24
TORSDOF 5
ENDMDL
MODEL 7
REMARK VINA RESULT:      -5.9      1.763      2.138
REMARK  3 active torsions:
REMARK  status: ('A' for Active; 'I' for Inactive)
REMARK    1  A    between atoms: CB_1  and  CA_2 
REMARK       I    between atoms: CA_2  and  C_4 
REMARK       I    between atoms: CA_2  and  N_6 
REMARK       I    between atoms: N_6  and  C_7 
REMARK    2  A    between atoms: C_7  and  C_9 
REMARK    3  A    between atoms: C_14  and  N_15 
ROOT
ATOM      1  C   UNK d   0       4.503  -0.559  -4.574  0.00  0.00     0.114 A 
ATOM      2  C   UNK d   0       5.530  -1.108  -3.805  0.00  0.00    -0.043 A 
ATOM      3  C   UNK d   0       5.542  -0.919  -2.439  0.00  0.00    -0.061 A 
ATOM      4  C   UNK d   0       4.532  -0.196  -1.829  0.00  0.00    -0.055 A 
ATOM      5  C   UNK d   0       3.509   0.347  -2.584  0.00  0.00     0.016 A 
ATOM      6  C   UNK d   0       3.487   0.169  -3.952  0.00  0.00     0.285 A 
ATOM      7  H   UNK d   0       6.316  -1.677  -4.280  0.00  0.00     0.063 H 
ATOM      8  H   UNK d   0       6.339  -1.340  -1.843  0.00  0.00     0.062 H 
ATOM      9  H   UNK d   0       4.545  -0.055  -0.758  0.00  0.00     0.062 H 
ATOM     10  H   UNK d   0       2.723   0.910  -2.102  0.00  0.00     0.069 H 
ENDROOT
BRANCH   1  11
ATOM     11  C   UNK d   0       4.486  -0.753  -6.039  0.00  0.00     0.251 C 
ATOM     12  N   ALA d   1       4.529   0.314  -6.861  0.00  0.00    -0.303 N 
ATOM     13  CA  ALA d   1       4.512   0.122  -8.313  0.00  0.00     0.060 C 
ATOM     14  H   ALA d   1       4.571   1.209  -6.491  0.00  0.00     0.150 HD
ATOM     15  HA  ALA d   1       3.881  -0.733  -8.559  0.00  0.00     0.056 H 
ATOM     16  C   ALA d   1       3.961   1.358  -8.977  0.00  0.00     0.062 C 
ATOM     17  O   ALA d   1       3.620   2.303  -8.307  0.00  0.00    -0.548 OA
ATOM     18  OXT ALA d   1       3.853   1.410 -10.313  0.00  0.00    -0.548 OA
ATOM     19  O   UNK d   0       4.432  -1.876  -6.503  0.00  0.00    -0.270 OA
BRANCH  13  20
ATOM     20  CB  ALA d   1       5.935  -0.134  -8.811  0.00  0.00    -0.041 C 
ATOM     21  HB1 ALA d   1       6.568  -0.422  -7.971  0.00  0.00     0.025 H 
ATOM     22  HB2 ALA d   1       5.924  -0.936  -9.548  0.00  0.00     0.025 H 
ATOM     23  HB3 ALA d   1       6.330   0.774  -9.268  0.00  0.00     0.025 H 
ENDBRANCH  13  20
ENDBRANCH   1  11
BRANCH   6  24
ATOM     24  N   UNK d   0       2.391   0.751  -4.759  0.00  0.00     0.080 N 
ATOM     25  O   UNK d   0       1.389   0.096  -4.986  0.00  0.00     0.042 OA
ATOM     26  O   UNK d   0       2.490   1.883  -5.196  0.00  0.00    -0.576 OA
ENDBRANCH   6  24
TORSDOF 5
ENDMDL
MODEL 8
REMARK VINA RESULT:      -5.5      3.249      3.929
REMARK  3 active torsions:
REMARK  status: ('A' for Active; 'I' for Inactive)
REMARK    1  A    between atoms: CB_1  and  CA_2 
REMARK       I    between atoms: CA_2  and  C_4 
REMARK       I    between atoms: CA_2  and  N_6 
REMARK       I    between atoms: N_6  and  C_7 
REMARK    2  A    between atoms: C_7  and  C_9 
REMARK    3  A    between atoms: C_14  and  N_15 
ROOT
ATOM      1  C   UNK d   0       4.561  -0.804  -4.559  0.00  0.00     0.114 A 
ATOM      2  C   UNK d   0       3.315  -0.203  -4.373  0.00  0.00    -0.043 A 
ATOM      3  C   UNK d   0       3.069   0.529  -3.229  0.00  0.00    -0.061 A 
ATOM      4  C   UNK d   0       4.058   0.676  -2.273  0.00  0.00    -0.055 A 
ATOM      5  C   UNK d   0       5.296   0.086  -2.453  0.00  0.00     0.016 A 
ATOM      6  C   UNK d   0       5.554  -0.652  -3.590  0.00  0.00     0.285 A 
ATOM      7  H   UNK d   0       2.544  -0.314  -5.121  0.00  0.00     0.063 H 
ATOM      8  H   UNK d   0       2.105   0.991  -3.083  0.00  0.00     0.062 H 
ATOM      9  H   UNK d   0       3.862   1.254  -1.382  0.00  0.00     0.062 H 
ATOM     10  H   UNK d   0       6.064   0.206  -1.703  0.00  0.00     0.069 H 
ENDROOT
BRANCH   1  11
ATOM     11  C   UNK d   0       4.830  -1.594  -5.779  0.00  0.00     0.251 C 
ATOM     12  N   ALA d   1       4.110  -2.705  -6.034  0.00  0.00    -0.303 N 
ATOM     13  CA  ALA d   1       4.377  -3.488  -7.244  0.00  0.00     0.060 C 
ATOM     14  H   ALA d   1       3.416  -2.986  -5.419  0.00  0.00     0.150 HD
ATOM     15  HA  ALA d   1       5.445  -3.465  -7.464  0.00  0.00     0.056 H 
ATOM     16  C   ALA d   1       3.942  -4.914  -7.025  0.00  0.00     0.062 C 
ATOM     17  O   ALA d   1       3.457  -5.243  -5.969  0.00  0.00    -0.548 OA
ATOM     18  OXT ALA d   1       4.090  -5.819  -8.004  0.00  0.00    -0.548 OA
ATOM     19  O   UNK d   0       5.700  -1.243  -6.551  0.00  0.00    -0.270 OA
BRANCH  13  20
ATOM     20  CB  ALA d   1       3.601  -2.892  -8.420  0.00  0.00    -0.041 C 
ATOM     21  HB1 ALA d   1       2.766  -2.302  -8.043  0.00  0.00     0.025 H 
ATOM     22  HB2 ALA d   1       4.262  -2.253  -9.005  0.00  0.00     0.025 H 
ATOM     23  HB3 ALA d   1       3.222  -3.697  -9.050  0.00  0.00     0.025 H 
ENDBRANCH  13  20
ENDBRANCH   1  11
BRANCH   6  24
ATOM     24  N   UNK d   0       6.880  -1.282  -3.781  0.00  0.00     0.080 N 
ATOM     25  O   UNK d   0       7.804  -0.629  -4.232  0.00  0.00     0.042 OA
ATOM     26  O   UNK d   0       7.046  -2.452  -3.489  0.00  0.00    -0.576 OA
ENDBRANCH   6  24
TORSDOF 5
ENDMDL
MODEL 9
REMARK VINA RESULT:      -5.5      1.953      5.246
REMARK  3 active torsions:
REMARK  status: ('A' for Active; 'I' for Inactive)
REMARK    1  A    between atoms: CB_1  and  CA_2 
REMARK       I    between atoms: CA_2  and  C_4 
REMARK       I    between atoms: CA_2  and  N_6 
REMARK       I    between atoms: N_6  and  C_7 
REMARK    2  A    between atoms: C_7  and  C_9 
REMARK    3  A    between atoms: C_14  and  N_15 
ROOT
ATOM      1  C   UNK d   0       3.638  -1.150  -7.728  0.00  0.00     0.114 A 
ATOM      2  C   UNK d   0       3.543  -2.403  -8.335  0.00  0.00    -0.043 A 
ATOM      3  C   UNK d   0       2.787  -2.558  -9.478  0.00  0.00    -0.061 A 
ATOM      4  C   UNK d   0       2.131  -1.472 -10.029  0.00  0.00    -0.055 A 
ATOM      5  C   UNK d   0       2.224  -0.226  -9.436  0.00  0.00     0.016 A 
ATOM      6  C   UNK d   0       2.974  -0.058  -8.290  0.00  0.00     0.285 A 
ATOM      7  H   UNK d   0       4.059  -3.251  -7.908  0.00  0.00     0.063 H 
ATOM      8  H   UNK d   0       2.709  -3.528  -9.946  0.00  0.00     0.062 H 
ATOM      9  H   UNK d   0       1.543  -1.598 -10.927  0.00  0.00     0.062 H 
ATOM     10  H   UNK d   0       1.710   0.619  -9.871  0.00  0.00     0.069 H 
ENDROOT
BRANCH   1  11
ATOM     11  C   UNK d   0       4.443  -0.978  -6.501  0.00  0.00     0.251 C 
ATOM     12  N   ALA d   1       3.899  -1.239  -5.296  0.00  0.00    -0.303 N 
ATOM     13  CA  ALA d   1       4.696  -1.068  -4.079  0.00  0.00     0.060 C 
ATOM     14  H   ALA d   1       2.979  -1.541  -5.234  0.00  0.00     0.150 HD
ATOM     15  HA  ALA d   1       5.371  -0.220  -4.203  0.00  0.00     0.056 H 
ATOM     16  C   ALA d   1       3.781  -0.814  -2.910  0.00  0.00     0.062 C 
ATOM     17  O   ALA d   1       2.584  -0.780  -3.075  0.00  0.00    -0.548 OA
ATOM     18  OXT ALA d   1       4.293  -0.626  -1.684  0.00  0.00    -0.548 OA
ATOM     19  O   UNK d   0       5.596  -0.599  -6.578  0.00  0.00    -0.270 OA
BRANCH  13  20
ATOM     20  CB  ALA d   1       5.513  -2.335  -3.822  0.00  0.00    -0.041 C 
ATOM     21  HB1 ALA d   1       6.563  -2.071  -3.692  0.00  0.00     0.025 H 
ATOM     22  HB2 ALA d   1       5.149  -2.827  -2.920  0.00  0.00     0.025 H 
ATOM     23  HB3 ALA d   1       5.412  -3.012  -4.671  0.00  0.00     0.025 H 
ENDBRANCH  13  20
ENDBRANCH   1  11
BRANCH   6  24
ATOM     24  N   UNK d   0       3.073   1.276  -7.656  0.00  0.00     0.080 N 
ATOM     25  O   UNK d   0       2.793   1.413  -6.479  0.00  0.00     0.042 OA
ATOM     26  O   UNK d   0       3.434   2.237  -8.312  0.00  0.00    -0.576 OA
ENDBRANCH   6  24
TORSDOF 5
ENDMDL
MODEL 10
REMARK VINA RESULT:      -5.4      1.823      2.194
REMARK  3 active torsions:
REMARK  status: ('A' for Active; 'I' for Inactive)
REMARK    1  A    between atoms: CB_1  and  CA_2 
REMARK       I    between atoms: CA_2  and  C_4 
REMARK       I    between atoms: CA_2  and  N_6 
REMARK       I    between atoms: N_6  and  C_7 
REMARK    2  A    between atoms: C_7  and  C_9 
REMARK    3  A    between atoms: C_14  and  N_15 
ROOT
ATOM      1  C   UNK d   0       4.572  -0.814  -4.827  0.00  0.00     0.114 A 
ATOM      2  C   UNK d   0       5.278  -1.936  -5.264  0.00  0.00    -0.043 A 
ATOM      3  C   UNK d   0       6.154  -2.573  -4.410  0.00  0.00    -0.061 A 
ATOM      4  C   UNK d   0       6.326  -2.107  -3.119  0.00  0.00    -0.055 A 
ATOM      5  C   UNK d   0       5.627  -0.998  -2.677  0.00  0.00     0.016 A 
ATOM      6  C   UNK d   0       4.751  -0.350  -3.522  0.00  0.00     0.285 A 
ATOM      7  H   UNK d   0       5.140  -2.303  -6.271  0.00  0.00     0.063 H 
ATOM      8  H   UNK d   0       6.703  -3.439  -4.748  0.00  0.00     0.062 H 
ATOM      9  H   UNK d   0       7.010  -2.613  -2.452  0.00  0.00     0.062 H 
ATOM     10  H   UNK d   0       5.766  -0.641  -1.667  0.00  0.00     0.069 H 
ENDROOT
BRANCH   1  11
ATOM     11  C   UNK d   0       3.635  -0.123  -5.738  0.00  0.00     0.251 C 
ATOM     12  N   ALA d   1       4.061   0.305  -6.943  0.00  0.00    -0.303 N 
ATOM     13  CA  ALA d   1       3.132   0.989  -7.847  0.00  0.00     0.060 C 
ATOM     14  H   ALA d   1       4.980   0.159  -7.213  0.00  0.00     0.150 HD
ATOM     15  HA  ALA d   1       2.439   1.596  -7.263  0.00  0.00     0.056 H 
ATOM     16  C   ALA d   1       3.908   1.877  -8.785  0.00  0.00     0.062 C 
ATOM     17  O   ALA d   1       5.112   1.931  -8.709  0.00  0.00    -0.548 OA
ATOM     18  OXT ALA d   1       3.261   2.606  -9.708  0.00  0.00    -0.548 OA
ATOM     19  O   UNK d   0       2.482   0.059  -5.400  0.00  0.00    -0.270 OA
BRANCH  13  20
ATOM     20  CB  ALA d   1       2.348  -0.046  -8.654  0.00  0.00    -0.041 C 
ATOM     21  HB1 ALA d   1       2.897  -0.988  -8.670  0.00  0.00     0.025 H 
ATOM     22  HB2 ALA d   1       1.373  -0.203  -8.195  0.00  0.00     0.025 H 
ATOM     23  HB3 ALA d   1       2.215   0.313  -9.675  0.00  0.00     0.025 H 
ENDBRANCH  13  20
ENDBRANCH   1  11
BRANCH   6  24
ATOM     24  N   UNK d   0       4.004   0.837  -3.048  0.00  0.00     0.080 N 
ATOM     25  O   UNK d   0       4.378   1.954  -3.356  0.00  0.00     0.042 OA
ATOM     26  O   UNK d   0       3.015   0.696  -2.351  0.00  0.00    -0.576 OA
ENDBRANCH   6  24
TORSDOF 5
ENDMDL
