MODEL 1
REMARK VINA RESULT:      -8.3      0.000      0.000
REMARK  9 active torsions:
REMARK  status: ('A' for Active; 'I' for Inactive)
REMARK    1  A    between atoms: C_1  and  C_2 
REMARK    2  A    between atoms: C_9  and  O_20 
REMARK    3  A    between atoms: C_12  and  C_14 
REMARK    4  A    between atoms: C_23  and  O_41 
REMARK    5  A    between atoms: C_24  and  C_31 
REMARK    6  A    between atoms: C_27  and  O_30 
REMARK    7  A    between atoms: N_32  and  C_33 
REMARK    8  A    between atoms: C_33  and  C_34 
REMARK    9  A    between atoms: C_34  and  C_35 
ROOT
ATOM      1  C   LIG d   1       5.281  -4.327  -7.161  0.00  0.00     0.004 C 
ATOM      2  C   LIG d   1       6.282  -3.176  -7.280  0.00  0.00    -0.044 C 
ATOM      3  C   LIG d   1       5.568  -1.828  -7.203  0.00  0.00    -0.048 C 
ATOM      4  C   LIG d   1       4.606  -1.717  -8.390  0.00  0.00    -0.022 C 
ATOM      5  H   LIG d   1       5.155  -1.850  -9.321  0.00  0.00     0.031 H 
ATOM      6  C   LIG d   1       3.547  -2.811  -8.257  0.00  0.00    -0.008 C 
ATOM      7  H   LIG d   1       3.004  -2.658  -7.324  0.00  0.00     0.033 H 
ATOM      8  C   LIG d   1       4.150  -4.172  -8.193  0.00  0.00     0.075 C 
ATOM      9  C   LIG d   1       4.819  -4.563  -9.523  0.00  0.00    -0.023 C 
ATOM     10  C   LIG d   1       5.724  -5.754  -9.134  0.00  0.00    -0.043 C 
ATOM     11  C   LIG d   1       5.999  -5.623  -7.624  0.00  0.00    -0.008 C 
ATOM     12  H   LIG d   1       7.071  -5.541  -7.444  0.00  0.00     0.035 H 
ATOM     13  C   LIG d   1       2.557  -2.707  -9.421  0.00  0.00    -0.045 C 
ATOM     14  C   LIG d   1       1.880  -1.335  -9.395  0.00  0.00    -0.023 C 
ATOM     15  C   LIG d   1       2.941  -0.241  -9.528  0.00  0.00     0.079 C 
ATOM     16  C   LIG d   1       3.942  -0.338  -8.374  0.00  0.00     0.038 C 
ATOM     17  C   LIG d   1       5.014   0.745  -8.515  0.00  0.00    -0.037 C 
ATOM     18  C   LIG d   1       5.759   0.556  -9.838  0.00  0.00    -0.026 C 
ATOM     19  C   LIG d   1       4.771   0.662 -11.001  0.00  0.00     0.058 C 
ATOM     20  H   LIG d   1       5.302   0.528 -11.942  0.00  0.00     0.059 H 
ATOM     21  C   LIG d   1       3.690  -0.412 -10.850  0.00  0.00     0.003 C 
ATOM     22  H   LIG d   1       7.006  -3.244  -6.467  0.00  0.00     0.027 H 
ATOM     23  H   LIG d   1       6.806  -3.251  -8.233  0.00  0.00     0.027 H 
ATOM     24  H   LIG d   1       5.008  -1.764  -6.270  0.00  0.00     0.027 H 
ATOM     25  H   LIG d   1       6.302  -1.023  -7.250  0.00  0.00     0.027 H 
ATOM     26  H   LIG d   1       4.071  -4.872 -10.253  0.00  0.00     0.029 H 
ATOM     27  H   LIG d   1       5.416  -3.738  -9.910  0.00  0.00     0.029 H 
ATOM     28  H   LIG d   1       5.214  -6.695  -9.340  0.00  0.00     0.027 H 
ATOM     29  H   LIG d   1       6.661  -5.709  -9.689  0.00  0.00     0.027 H 
ATOM     30  H   LIG d   1       3.089  -2.832 -10.363  0.00  0.00     0.027 H 
ATOM     31  H   LIG d   1       1.801  -3.487  -9.324  0.00  0.00     0.027 H 
ATOM     32  H   LIG d   1       1.177  -1.262 -10.225  0.00  0.00     0.029 H 
ATOM     33  H   LIG d   1       1.346  -1.211  -8.453  0.00  0.00     0.029 H 
ATOM     34  H   LIG d   1       4.541   1.727  -8.501  0.00  0.00     0.028 H 
ATOM     35  H   LIG d   1       5.718   0.669  -7.686  0.00  0.00     0.028 H 
ATOM     36  H   LIG d   1       6.522   1.329  -9.938  0.00  0.00     0.029 H 
ATOM     37  H   LIG d   1       6.233  -0.426  -9.851  0.00  0.00     0.029 H 
ATOM     38  H   LIG d   1       4.172  -1.389 -10.871  0.00  0.00     0.032 H 
ATOM     39  H   LIG d   1       2.986  -0.337 -11.679  0.00  0.00     0.032 H 
ENDROOT
BRANCH  16  40
ATOM     40  C   LIG d   1       3.207  -0.149  -7.072  0.00  0.00     0.009 C 
ATOM     41  N   LIG d   1       3.017   1.029  -6.611  0.00  0.00    -0.295 NA
ATOM     42  H   LIG d   1       2.841  -1.008  -6.529  0.00  0.00     0.079 H 
BRANCH  41  43
ATOM     43  C   LIG d   1       2.302   1.212  -5.344  0.00  0.00     0.043 C 
ATOM     44  H   LIG d   1       2.908   1.817  -4.670  0.00  0.00     0.051 H 
ATOM     45  H   LIG d   1       1.355   1.716  -5.532  0.00  0.00     0.051 H 
BRANCH  43  46
ATOM     46  C   LIG d   1       2.037  -0.152  -4.706  0.00  0.00    -0.008 C 
ATOM     47  H   LIG d   1       1.010  -0.189  -4.342  0.00  0.00     0.033 H 
ATOM     48  H   LIG d   1       2.187  -0.937  -5.449  0.00  0.00     0.033 H 
BRANCH  46  49
ATOM     49  C   LIG d   1       2.986  -0.362  -3.555  0.00  0.00    -0.046 A 
ATOM     50  C   LIG d   1       3.484   0.726  -2.862  0.00  0.00    -0.059 A 
ATOM     51  C   LIG d   1       4.352   0.533  -1.804  0.00  0.00    -0.061 A 
ATOM     52  H   LIG d   1       3.192   1.726  -3.146  0.00  0.00     0.062 H 
ATOM     53  C   LIG d   1       4.729  -0.748  -1.444  0.00  0.00    -0.062 A 
ATOM     54  H   LIG d   1       4.737   1.382  -1.260  0.00  0.00     0.062 H 
ATOM     55  C   LIG d   1       4.235  -1.835  -2.139  0.00  0.00    -0.061 A 
ATOM     56  H   LIG d   1       5.408  -0.899  -0.618  0.00  0.00     0.062 H 
ATOM     57  C   LIG d   1       3.364  -1.643  -3.195  0.00  0.00    -0.059 A 
ATOM     58  H   LIG d   1       4.530  -2.836  -1.858  0.00  0.00     0.062 H 
ATOM     59  H   LIG d   1       2.978  -2.492  -3.739  0.00  0.00     0.062 H 
ENDBRANCH  46  49
ENDBRANCH  43  46
ENDBRANCH  41  43
ENDBRANCH  16  40
BRANCH  15  60
ATOM     60  O   LIG d   1       2.309   1.040  -9.501  0.00  0.00    -0.388 OA
ATOM     61  H   LIG d   1       2.902   1.775  -9.708  0.00  0.00     0.210 HD
ENDBRANCH  15  60
BRANCH   8  62
ATOM     62  O   LIG d   1       3.122  -5.121  -7.907  0.00  0.00    -0.388 OA
ATOM     63  H   LIG d   1       3.132  -5.898  -8.483  0.00  0.00     0.210 HD
ENDBRANCH   8  62
BRANCH  19  64
ATOM     64  O   LIG d   1       4.150   1.949 -10.982  0.00  0.00    -0.392 OA
ATOM     65  H   LIG d   1       4.719   2.664 -11.297  0.00  0.00     0.210 HD
ENDBRANCH  19  64
BRANCH   1  66
ATOM     66  C   LIG d   1       4.736  -4.456  -5.738  0.00  0.00    -0.056 C 
ATOM     67  H   LIG d   1       5.297  -3.799  -5.073  0.00  0.00     0.024 H 
ATOM     68  H   LIG d   1       3.683  -4.172  -5.726  0.00  0.00     0.024 H 
ATOM     69  H   LIG d   1       4.838  -5.488  -5.401  0.00  0.00     0.024 H 
ENDBRANCH   1  66
BRANCH  11  70
ATOM     70  C   LIG d   1       5.440  -6.814  -6.891  0.00  0.00    -0.022 A 
ATOM     71  C   LIG d   1       4.461  -7.828  -7.434  0.00  0.00     0.115 A 
ATOM     72  O   LIG d   1       4.228  -8.768  -6.380  0.00  0.00    -0.457 OA
ATOM     73  H   LIG d   1       3.529  -7.336  -7.712  0.00  0.00     0.075 H 
ATOM     74  H   LIG d   1       4.889  -8.336  -8.297  0.00  0.00     0.075 H 
ATOM     75  C   LIG d   1       4.957  -8.389  -5.315  0.00  0.00     0.332 A 
ATOM     76  C   LIG d   1       5.710  -7.173  -5.637  0.00  0.00     0.025 A 
ATOM     77  O   LIG d   1       4.987  -8.966  -4.246  0.00  0.00    -0.246 OA
ATOM     78  H   LIG d   1       6.376  -6.650  -4.965  0.00  0.00     0.069 H 
ENDBRANCH  11  70
TORSDOF 9
ENDMDL
MODEL 2
REMARK VINA RESULT:      -7.6      2.283      3.238
REMARK  9 active torsions:
REMARK  status: ('A' for Active; 'I' for Inactive)
REMARK    1  A    between atoms: C_1  and  C_2 
REMARK    2  A    between atoms: C_9  and  O_20 
REMARK    3  A    between atoms: C_12  and  C_14 
REMARK    4  A    between atoms: C_23  and  O_41 
REMARK    5  A    between atoms: C_24  and  C_31 
REMARK    6  A    between atoms: C_27  and  O_30 
REMARK    7  A    between atoms: N_32  and  C_33 
REMARK    8  A    between atoms: C_33  and  C_34 
REMARK    9  A    between atoms: C_34  and  C_35 
ROOT
ATOM      1  C   LIG d   1       6.469  -4.965  -5.650  0.00  0.00     0.004 C 
ATOM      2  C   LIG d   1       6.870  -3.966  -4.562  0.00  0.00    -0.044 C 
ATOM      3  C   LIG d   1       6.302  -2.581  -4.862  0.00  0.00    -0.048 C 
ATOM      4  C   LIG d   1       6.902  -2.082  -6.180  0.00  0.00    -0.022 C 
ATOM      5  H   LIG d   1       7.990  -2.085  -6.112  0.00  0.00     0.031 H 
ATOM      6  C   LIG d   1       6.455  -3.020  -7.301  0.00  0.00    -0.008 C 
ATOM      7  H   LIG d   1       5.366  -2.998  -7.359  0.00  0.00     0.033 H 
ATOM      8  C   LIG d   1       6.850  -4.433  -7.043  0.00  0.00     0.075 C 
ATOM      9  C   LIG d   1       8.378  -4.616  -7.092  0.00  0.00    -0.023 C 
ATOM     10  C   LIG d   1       8.600  -5.977  -6.395  0.00  0.00    -0.043 C 
ATOM     11  C   LIG d   1       7.373  -6.217  -5.496  0.00  0.00    -0.008 C 
ATOM     12  H   LIG d   1       7.685  -6.326  -4.457  0.00  0.00     0.035 H 
ATOM     13  C   LIG d   1       7.024  -2.529  -8.635  0.00  0.00    -0.045 C 
ATOM     14  C   LIG d   1       6.513  -1.114  -8.918  0.00  0.00    -0.023 C 
ATOM     15  C   LIG d   1       6.962  -0.177  -7.796  0.00  0.00     0.079 C 
ATOM     16  C   LIG d   1       6.406  -0.660  -6.454  0.00  0.00     0.038 C 
ATOM     17  C   LIG d   1       6.868   0.267  -5.328  0.00  0.00    -0.037 C 
ATOM     18  C   LIG d   1       8.397   0.267  -5.262  0.00  0.00    -0.026 C 
ATOM     19  C   LIG d   1       8.965   0.759  -6.595  0.00  0.00     0.058 C 
ATOM     20  H   LIG d   1      10.053   0.760  -6.547  0.00  0.00     0.059 H 
ATOM     21  C   LIG d   1       8.490  -0.160  -7.722  0.00  0.00     0.003 C 
ATOM     22  H   LIG d   1       6.487  -4.310  -3.601  0.00  0.00     0.027 H 
ATOM     23  H   LIG d   1       7.957  -3.906  -4.513  0.00  0.00     0.027 H 
ATOM     24  H   LIG d   1       5.217  -2.643  -4.954  0.00  0.00     0.027 H 
ATOM     25  H   LIG d   1       6.566  -1.895  -4.057  0.00  0.00     0.027 H 
ATOM     26  H   LIG d   1       8.728  -4.651  -8.124  0.00  0.00     0.029 H 
ATOM     27  H   LIG d   1       8.879  -3.818  -6.544  0.00  0.00     0.029 H 
ATOM     28  H   LIG d   1       8.678  -6.770  -7.139  0.00  0.00     0.027 H 
ATOM     29  H   LIG d   1       9.506  -5.944  -5.789  0.00  0.00     0.027 H 
ATOM     30  H   LIG d   1       8.112  -2.519  -8.585  0.00  0.00     0.027 H 
ATOM     31  H   LIG d   1       6.702  -3.197  -9.434  0.00  0.00     0.027 H 
ATOM     32  H   LIG d   1       6.920  -0.765  -9.867  0.00  0.00     0.029 H 
ATOM     33  H   LIG d   1       5.425  -1.124  -8.970  0.00  0.00     0.029 H 
ATOM     34  H   LIG d   1       6.512   1.279  -5.522  0.00  0.00     0.028 H 
ATOM     35  H   LIG d   1       6.463  -0.085  -4.379  0.00  0.00     0.028 H 
ATOM     36  H   LIG d   1       8.725   0.929  -4.460  0.00  0.00     0.029 H 
ATOM     37  H   LIG d   1       8.752  -0.745  -5.067  0.00  0.00     0.029 H 
ATOM     38  H   LIG d   1       8.855  -1.167  -7.522  0.00  0.00     0.032 H 
ATOM     39  H   LIG d   1       8.895   0.192  -8.672  0.00  0.00     0.032 H 
ENDROOT
BRANCH  16  40
ATOM     40  C   LIG d   1       4.900  -0.657  -6.520  0.00  0.00     0.009 C 
ATOM     41  N   LIG d   1       4.239   0.290  -5.971  0.00  0.00    -0.295 NA
ATOM     42  H   LIG d   1       4.381  -1.455  -7.030  0.00  0.00     0.079 H 
BRANCH  41  43
ATOM     43  C   LIG d   1       2.775   0.292  -6.035  0.00  0.00     0.043 C 
ATOM     44  H   LIG d   1       2.446   1.000  -6.796  0.00  0.00     0.051 H 
ATOM     45  H   LIG d   1       2.420  -0.705  -6.291  0.00  0.00     0.051 H 
BRANCH  43  46
ATOM     46  C   LIG d   1       2.206   0.704  -4.676  0.00  0.00    -0.008 C 
ATOM     47  H   LIG d   1       2.183   1.791  -4.606  0.00  0.00     0.033 H 
ATOM     48  H   LIG d   1       1.193   0.312  -4.573  0.00  0.00     0.033 H 
BRANCH  46  49
ATOM     49  C   LIG d   1       3.075   0.148  -3.578  0.00  0.00    -0.046 A 
ATOM     50  C   LIG d   1       3.075  -1.210  -3.317  0.00  0.00    -0.059 A 
ATOM     51  C   LIG d   1       3.875  -1.720  -2.312  0.00  0.00    -0.061 A 
ATOM     52  H   LIG d   1       2.453  -1.872  -3.901  0.00  0.00     0.062 H 
ATOM     53  C   LIG d   1       4.668  -0.871  -1.562  0.00  0.00    -0.062 A 
ATOM     54  H   LIG d   1       3.879  -2.780  -2.111  0.00  0.00     0.062 H 
ATOM     55  C   LIG d   1       4.664   0.486  -1.820  0.00  0.00    -0.061 A 
ATOM     56  H   LIG d   1       5.292  -1.269  -0.775  0.00  0.00     0.062 H 
ATOM     57  C   LIG d   1       3.867   0.996  -2.827  0.00  0.00    -0.059 A 
ATOM     58  H   LIG d   1       5.284   1.150  -1.233  0.00  0.00     0.062 H 
ATOM     59  H   LIG d   1       3.863   2.057  -3.029  0.00  0.00     0.062 H 
ENDBRANCH  46  49
ENDBRANCH  43  46
ENDBRANCH  41  43
ENDBRANCH  16  40
BRANCH  15  60
ATOM     60  O   LIG d   1       6.484   1.144  -8.059  0.00  0.00    -0.388 OA
ATOM     61  H   LIG d   1       6.789   1.807  -7.425  0.00  0.00     0.210 HD
ENDBRANCH  15  60
BRANCH   8  62
ATOM     62  O   LIG d   1       6.262  -5.268  -8.041  0.00  0.00    -0.388 OA
ATOM     63  H   LIG d   1       5.682  -5.956  -7.687  0.00  0.00     0.210 HD
ENDBRANCH   8  62
BRANCH  19  64
ATOM     64  O   LIG d   1       8.498   2.086  -6.850  0.00  0.00    -0.392 OA
ATOM     65  H   LIG d   1       9.201   2.717  -7.057  0.00  0.00     0.210 HD
ENDBRANCH  19  64
BRANCH   1  66
ATOM     66  C   LIG d   1       4.984  -5.322  -5.569  0.00  0.00    -0.056 C 
ATOM     67  H   LIG d   1       4.667  -5.775  -6.509  0.00  0.00     0.024 H 
ATOM     68  H   LIG d   1       4.824  -6.027  -4.753  0.00  0.00     0.024 H 
ATOM     69  H   LIG d   1       4.402  -4.418  -5.387  0.00  0.00     0.024 H 
ENDBRANCH   1  66
BRANCH  11  70
ATOM     70  C   LIG d   1       6.632  -7.448  -5.947  0.00  0.00    -0.022 A 
ATOM     71  C   LIG d   1       6.884  -8.238  -7.210  0.00  0.00     0.115 A 
ATOM     72  O   LIG d   1       5.942  -9.316  -7.206  0.00  0.00    -0.457 OA
ATOM     73  H   LIG d   1       6.728  -7.605  -8.084  0.00  0.00     0.075 H 
ATOM     74  H   LIG d   1       7.899  -8.632  -7.209  0.00  0.00     0.075 H 
ATOM     75  C   LIG d   1       5.194  -9.210  -6.093  0.00  0.00     0.332 A 
ATOM     76  C   LIG d   1       5.627  -8.047  -5.312  0.00  0.00     0.025 A 
ATOM     77  O   LIG d   1       4.293  -9.965  -5.781  0.00  0.00    -0.246 OA
ATOM     78  H   LIG d   1       5.199  -7.726  -4.374  0.00  0.00     0.069 H 
ENDBRANCH  11  70
TORSDOF 9
ENDMDL
MODEL 3
REMARK VINA RESULT:      -7.5      2.844      6.270
REMARK  9 active torsions:
REMARK  status: ('A' for Active; 'I' for Inactive)
REMARK    1  A    between atoms: C_1  and  C_2 
REMARK    2  A    between atoms: C_9  and  O_20 
REMARK    3  A    between atoms: C_12  and  C_14 
REMARK    4  A    between atoms: C_23  and  O_41 
REMARK    5  A    between atoms: C_24  and  C_31 
REMARK    6  A    between atoms: C_27  and  O_30 
REMARK    7  A    between atoms: N_32  and  C_33 
REMARK    8  A    between atoms: C_33  and  C_34 
REMARK    9  A    between atoms: C_34  and  C_35 
ROOT
ATOM      1  C   LIG d   1       5.534  -1.619  -5.835  0.00  0.00     0.004 C 
ATOM      2  C   LIG d   1       6.396  -1.421  -7.084  0.00  0.00    -0.044 C 
ATOM      3  C   LIG d   1       5.666  -1.918  -8.330  0.00  0.00    -0.048 C 
ATOM      4  C   LIG d   1       5.419  -3.423  -8.182  0.00  0.00    -0.022 C 
ATOM      5  H   LIG d   1       6.366  -3.936  -8.017  0.00  0.00     0.031 H 
ATOM      6  C   LIG d   1       4.497  -3.647  -6.984  0.00  0.00    -0.008 C 
ATOM      7  H   LIG d   1       3.554  -3.134  -7.171  0.00  0.00     0.033 H 
ATOM      8  C   LIG d   1       5.062  -3.080  -5.728  0.00  0.00     0.075 C 
ATOM      9  C   LIG d   1       6.326  -3.835  -5.278  0.00  0.00    -0.023 C 
ATOM     10  C   LIG d   1       6.980  -2.870  -4.263  0.00  0.00    -0.043 C 
ATOM     11  C   LIG d   1       6.457  -1.460  -4.597  0.00  0.00    -0.008 C 
ATOM     12  H   LIG d   1       7.290  -0.798  -4.835  0.00  0.00     0.035 H 
ATOM     13  C   LIG d   1       4.216  -5.144  -6.829  0.00  0.00    -0.045 C 
ATOM     14  C   LIG d   1       3.542  -5.671  -8.098  0.00  0.00    -0.023 C 
ATOM     15  C   LIG d   1       4.466  -5.446  -9.297  0.00  0.00     0.079 C 
ATOM     16  C   LIG d   1       4.761  -3.953  -9.459  0.00  0.00     0.038 C 
ATOM     17  C   LIG d   1       5.699  -3.729 -10.647  0.00  0.00    -0.037 C 
ATOM     18  C   LIG d   1       7.014  -4.473 -10.407  0.00  0.00    -0.026 C 
ATOM     19  C   LIG d   1       6.733  -5.969 -10.254  0.00  0.00     0.058 C 
ATOM     20  H   LIG d   1       7.670  -6.499 -10.085  0.00  0.00     0.059 H 
ATOM     21  C   LIG d   1       5.783  -6.192  -9.075  0.00  0.00     0.003 C 
ATOM     22  H   LIG d   1       6.620  -0.360  -7.200  0.00  0.00     0.027 H 
ATOM     23  H   LIG d   1       7.328  -1.973  -6.969  0.00  0.00     0.027 H 
ATOM     24  H   LIG d   1       4.712  -1.399  -8.427  0.00  0.00     0.027 H 
ATOM     25  H   LIG d   1       6.279  -1.732  -9.211  0.00  0.00     0.027 H 
ATOM     26  H   LIG d   1       6.060  -4.776  -4.796  0.00  0.00     0.029 H 
ATOM     27  H   LIG d   1       6.990  -4.011  -6.124  0.00  0.00     0.029 H 
ATOM     28  H   LIG d   1       6.693  -3.143  -3.248  0.00  0.00     0.027 H 
ATOM     29  H   LIG d   1       8.065  -2.899  -4.365  0.00  0.00     0.027 H 
ATOM     30  H   LIG d   1       5.153  -5.675  -6.668  0.00  0.00     0.027 H 
ATOM     31  H   LIG d   1       3.557  -5.303  -5.975  0.00  0.00     0.027 H 
ATOM     32  H   LIG d   1       3.344  -6.737  -7.988  0.00  0.00     0.029 H 
ATOM     33  H   LIG d   1       2.604  -5.141  -8.258  0.00  0.00     0.029 H 
ATOM     34  H   LIG d   1       5.229  -4.104 -11.556  0.00  0.00     0.028 H 
ATOM     35  H   LIG d   1       5.899  -2.663 -10.755  0.00  0.00     0.028 H 
ATOM     36  H   LIG d   1       7.681  -4.313 -11.254  0.00  0.00     0.029 H 
ATOM     37  H   LIG d   1       7.484  -4.096  -9.499  0.00  0.00     0.029 H 
ATOM     38  H   LIG d   1       6.264  -5.818  -8.171  0.00  0.00     0.032 H 
ATOM     39  H   LIG d   1       5.583  -7.258  -8.966  0.00  0.00     0.032 H 
ENDROOT
BRANCH  16  40
ATOM     40  C   LIG d   1       3.465  -3.222  -9.698  0.00  0.00     0.009 C 
ATOM     41  N   LIG d   1       3.107  -2.930 -10.890  0.00  0.00    -0.295 NA
ATOM     42  H   LIG d   1       2.840  -2.945  -8.862  0.00  0.00     0.079 H 
BRANCH  41  43
ATOM     43  C   LIG d   1       1.847  -2.218 -11.122  0.00  0.00     0.043 C 
ATOM     44  H   LIG d   1       1.215  -2.807 -11.788  0.00  0.00     0.051 H 
ATOM     45  H   LIG d   1       1.334  -2.070 -10.173  0.00  0.00     0.051 H 
BRANCH  43  46
ATOM     46  C   LIG d   1       2.138  -0.861 -11.763  0.00  0.00    -0.008 C 
ATOM     47  H   LIG d   1       2.812  -0.996 -12.609  0.00  0.00     0.033 H 
ATOM     48  H   LIG d   1       1.205  -0.415 -12.110  0.00  0.00     0.033 H 
BRANCH  46  49
ATOM     49  C   LIG d   1       2.782   0.047 -10.748  0.00  0.00    -0.046 A 
ATOM     50  C   LIG d   1       3.983   0.668 -11.038  0.00  0.00    -0.059 A 
ATOM     51  C   LIG d   1       4.572   1.503 -10.108  0.00  0.00    -0.061 A 
ATOM     52  H   LIG d   1       4.458   0.502 -11.994  0.00  0.00     0.062 H 
ATOM     53  C   LIG d   1       3.965   1.711  -8.884  0.00  0.00    -0.062 A 
ATOM     54  H   LIG d   1       5.507   1.992 -10.337  0.00  0.00     0.062 H 
ATOM     55  C   LIG d   1       2.767   1.087  -8.592  0.00  0.00    -0.061 A 
ATOM     56  H   LIG d   1       4.426   2.363  -8.156  0.00  0.00     0.062 H 
ATOM     57  C   LIG d   1       2.176   0.255  -9.523  0.00  0.00    -0.059 A 
ATOM     58  H   LIG d   1       2.292   1.250  -7.634  0.00  0.00     0.062 H 
ATOM     59  H   LIG d   1       1.240  -0.233  -9.295  0.00  0.00     0.062 H 
ENDBRANCH  46  49
ENDBRANCH  43  46
ENDBRANCH  41  43
ENDBRANCH  16  40
BRANCH  15  60
ATOM     60  O   LIG d   1       3.835  -5.937 -10.482  0.00  0.00    -0.388 OA
ATOM     61  H   LIG d   1       3.685  -5.261 -11.156  0.00  0.00     0.210 HD
ENDBRANCH  15  60
BRANCH   8  62
ATOM     62  O   LIG d   1       4.082  -3.181  -4.693  0.00  0.00    -0.388 OA
ATOM     63  H   LIG d   1       4.452  -3.351  -3.816  0.00  0.00     0.210 HD
ENDBRANCH   8  62
BRANCH  19  64
ATOM     64  O   LIG d   1       6.116  -6.462 -11.445  0.00  0.00    -0.392 OA
ATOM     65  H   LIG d   1       6.491  -6.101 -12.260  0.00  0.00     0.210 HD
ENDBRANCH  19  64
BRANCH   1  66
ATOM     66  C   LIG d   1       4.359  -0.641  -5.798  0.00  0.00    -0.056 C 
ATOM     67  H   LIG d   1       4.624   0.265  -6.344  0.00  0.00     0.024 H 
ATOM     68  H   LIG d   1       3.487  -1.103  -6.262  0.00  0.00     0.024 H 
ATOM     69  H   LIG d   1       4.129  -0.387  -4.764  0.00  0.00     0.024 H 
ENDBRANCH   1  66
BRANCH  11  70
ATOM     70  C   LIG d   1       5.673  -0.910  -3.435  0.00  0.00    -0.022 A 
ATOM     71  C   LIG d   1       4.848  -1.702  -2.449  0.00  0.00     0.115 A 
ATOM     72  O   LIG d   1       4.297  -0.754  -1.530  0.00  0.00    -0.457 OA
ATOM     73  H   LIG d   1       4.049  -2.230  -2.970  0.00  0.00     0.075 H 
ATOM     74  H   LIG d   1       5.481  -2.412  -1.917  0.00  0.00     0.075 H 
ATOM     75  C   LIG d   1       4.714   0.472  -1.896  0.00  0.00     0.332 A 
ATOM     76  C   LIG d   1       5.571   0.370  -3.082  0.00  0.00     0.025 A 
ATOM     77  O   LIG d   1       4.424   1.508  -1.330  0.00  0.00    -0.246 OA
ATOM     78  H   LIG d   1       6.042   1.200  -3.588  0.00  0.00     0.069 H 
ENDBRANCH  11  70
TORSDOF 9
ENDMDL
MODEL 4
REMARK VINA RESULT:      -7.4      3.236      5.042
REMARK  9 active torsions:
REMARK  status: ('A' for Active; 'I' for Inactive)
REMARK    1  A    between atoms: C_1  and  C_2 
REMARK    2  A    between atoms: C_9  and  O_20 
REMARK    3  A    between atoms: C_12  and  C_14 
REMARK    4  A    between atoms: C_23  and  O_41 
REMARK    5  A    between atoms: C_24  and  C_31 
REMARK    6  A    between atoms: C_27  and  O_30 
REMARK    7  A    between atoms: N_32  and  C_33 
REMARK    8  A    between atoms: C_33  and  C_34 
REMARK    9  A    between atoms: C_34  and  C_35 
ROOT
ATOM      1  C   LIG d   1       2.503  -3.525 -11.220  0.00  0.00     0.004 C 
ATOM      2  C   LIG d   1       4.024  -3.405 -11.349  0.00  0.00    -0.044 C 
ATOM      3  C   LIG d   1       4.653  -3.037 -10.008  0.00  0.00    -0.048 C 
ATOM      4  C   LIG d   1       4.124  -1.664  -9.580  0.00  0.00    -0.022 C 
ATOM      5  H   LIG d   1       4.334  -0.931 -10.358  0.00  0.00     0.031 H 
ATOM      6  C   LIG d   1       2.614  -1.772  -9.369  0.00  0.00    -0.008 C 
ATOM      7  H   LIG d   1       2.424  -2.504  -8.583  0.00  0.00     0.033 H 
ATOM      8  C   LIG d   1       1.910  -2.252 -10.591  0.00  0.00     0.075 C 
ATOM      9  C   LIG d   1       1.979  -1.221 -11.732  0.00  0.00    -0.023 C 
ATOM     10  C   LIG d   1       1.601  -2.043 -12.985  0.00  0.00    -0.043 C 
ATOM     11  C   LIG d   1       1.908  -3.516 -12.653  0.00  0.00    -0.008 C 
ATOM     12  H   LIG d   1       2.634  -3.916 -13.362  0.00  0.00     0.035 H 
ATOM     13  C   LIG d   1       2.063  -0.417  -8.918  0.00  0.00    -0.045 C 
ATOM     14  C   LIG d   1       2.734  -0.004  -7.606  0.00  0.00    -0.023 C 
ATOM     15  C   LIG d   1       4.245   0.104  -7.818  0.00  0.00     0.079 C 
ATOM     16  C   LIG d   1       4.808  -1.243  -8.277  0.00  0.00     0.038 C 
ATOM     17  C   LIG d   1       6.317  -1.132  -8.506  0.00  0.00    -0.037 C 
ATOM     18  C   LIG d   1       6.593  -0.084  -9.586  0.00  0.00    -0.026 C 
ATOM     19  C   LIG d   1       6.044   1.271  -9.134  0.00  0.00     0.058 C 
ATOM     20  H   LIG d   1       6.242   2.017  -9.903  0.00  0.00     0.059 H 
ATOM     21  C   LIG d   1       4.538   1.155  -8.890  0.00  0.00     0.003 C 
ATOM     22  H   LIG d   1       4.431  -4.358 -11.686  0.00  0.00     0.027 H 
ATOM     23  H   LIG d   1       4.262  -2.634 -12.081  0.00  0.00     0.027 H 
ATOM     24  H   LIG d   1       4.383  -3.783  -9.260  0.00  0.00     0.027 H 
ATOM     25  H   LIG d   1       5.737  -2.995 -10.112  0.00  0.00     0.027 H 
ATOM     26  H   LIG d   1       1.260  -0.418 -11.569  0.00  0.00     0.029 H 
ATOM     27  H   LIG d   1       2.988  -0.819 -11.827  0.00  0.00     0.029 H 
ATOM     28  H   LIG d   1       0.540  -1.924 -13.205  0.00  0.00     0.027 H 
ATOM     29  H   LIG d   1       2.198  -1.721 -13.838  0.00  0.00     0.027 H 
ATOM     30  H   LIG d   1       2.268   0.332  -9.683  0.00  0.00     0.027 H 
ATOM     31  H   LIG d   1       0.986  -0.496  -8.767  0.00  0.00     0.027 H 
ATOM     32  H   LIG d   1       2.342   0.962  -7.287  0.00  0.00     0.029 H 
ATOM     33  H   LIG d   1       2.526  -0.752  -6.842  0.00  0.00     0.029 H 
ATOM     34  H   LIG d   1       6.804  -0.835  -7.577  0.00  0.00     0.028 H 
ATOM     35  H   LIG d   1       6.707  -2.098  -8.828  0.00  0.00     0.028 H 
ATOM     36  H   LIG d   1       7.668  -0.005  -9.748  0.00  0.00     0.029 H 
ATOM     37  H   LIG d   1       6.107  -0.382 -10.515  0.00  0.00     0.029 H 
ATOM     38  H   LIG d   1       4.060   0.863  -9.825  0.00  0.00     0.032 H 
ATOM     39  H   LIG d   1       4.147   2.121  -8.569  0.00  0.00     0.032 H 
ENDROOT
BRANCH  16  40
ATOM     40  C   LIG d   1       4.537  -2.274  -7.211  0.00  0.00     0.009 C 
ATOM     41  N   LIG d   1       5.212  -2.262  -6.125  0.00  0.00    -0.295 NA
ATOM     42  H   LIG d   1       3.775  -3.023  -7.366  0.00  0.00     0.079 H 
BRANCH  41  43
ATOM     43  C   LIG d   1       4.948  -3.265  -5.089  0.00  0.00     0.043 C 
ATOM     44  H   LIG d   1       3.872  -3.382  -4.962  0.00  0.00     0.051 H 
ATOM     45  H   LIG d   1       5.384  -4.218  -5.386  0.00  0.00     0.051 H 
BRANCH  43  46
ATOM     46  C   LIG d   1       5.571  -2.809  -3.768  0.00  0.00    -0.008 C 
ATOM     47  H   LIG d   1       5.459  -3.597  -3.023  0.00  0.00     0.033 H 
ATOM     48  H   LIG d   1       6.630  -2.599  -3.919  0.00  0.00     0.033 H 
BRANCH  46  49
ATOM     49  C   LIG d   1       4.875  -1.561  -3.288  0.00  0.00    -0.046 A 
ATOM     50  C   LIG d   1       5.616  -0.459  -2.906  0.00  0.00    -0.059 A 
ATOM     51  C   LIG d   1       4.977   0.686  -2.470  0.00  0.00    -0.061 A 
ATOM     52  H   LIG d   1       6.694  -0.492  -2.953  0.00  0.00     0.062 H 
ATOM     53  C   LIG d   1       3.597   0.726  -2.406  0.00  0.00    -0.062 A 
ATOM     54  H   LIG d   1       5.556   1.549  -2.176  0.00  0.00     0.062 H 
ATOM     55  C   LIG d   1       2.856  -0.378  -2.784  0.00  0.00    -0.061 A 
ATOM     56  H   LIG d   1       3.098   1.620  -2.063  0.00  0.00     0.062 H 
ATOM     57  C   LIG d   1       3.494  -1.522  -3.224  0.00  0.00    -0.059 A 
ATOM     58  H   LIG d   1       1.776  -0.347  -2.734  0.00  0.00     0.062 H 
ATOM     59  H   LIG d   1       2.915  -2.384  -3.518  0.00  0.00     0.062 H 
ENDBRANCH  46  49
ENDBRANCH  43  46
ENDBRANCH  41  43
ENDBRANCH  16  40
BRANCH  15  60
ATOM     60  O   LIG d   1       4.871   0.487  -6.592  0.00  0.00    -0.388 OA
ATOM     61  H   LIG d   1       4.443   1.232  -6.148  0.00  0.00     0.210 HD
ENDBRANCH  15  60
BRANCH   8  62
ATOM     62  O   LIG d   1       0.537  -2.483 -10.274  0.00  0.00    -0.388 OA
ATOM     63  H   LIG d   1       0.243  -3.391 -10.433  0.00  0.00     0.210 HD
ENDBRANCH   8  62
BRANCH  19  64
ATOM     64  O   LIG d   1       6.682   1.661  -7.916  0.00  0.00    -0.392 OA
ATOM     65  H   LIG d   1       6.294   1.263  -7.125  0.00  0.00     0.210 HD
ENDBRANCH  19  64
BRANCH   1  66
ATOM     66  C   LIG d   1       2.100  -4.780 -10.444  0.00  0.00    -0.056 C 
ATOM     67  H   LIG d   1       1.526  -5.440 -11.095  0.00  0.00     0.024 H 
ATOM     68  H   LIG d   1       2.996  -5.297 -10.100  0.00  0.00     0.024 H 
ATOM     69  H   LIG d   1       1.491  -4.497  -9.585  0.00  0.00     0.024 H 
ENDBRANCH   1  66
BRANCH  11  70
ATOM     70  C   LIG d   1       0.642  -4.330 -12.692  0.00  0.00    -0.022 A 
ATOM     71  C   LIG d   1       0.540  -5.835 -12.775  0.00  0.00     0.115 A 
ATOM     72  O   LIG d   1      -0.857  -6.146 -12.782  0.00  0.00    -0.457 OA
ATOM     73  H   LIG d   1       1.009  -6.191 -13.693  0.00  0.00     0.075 H 
ATOM     74  H   LIG d   1       1.018  -6.291 -11.909  0.00  0.00     0.075 H 
ATOM     75  C   LIG d   1      -1.541  -4.989 -12.720  0.00  0.00     0.332 A 
ATOM     76  C   LIG d   1      -0.605  -3.861 -12.664  0.00  0.00     0.025 A 
ATOM     77  O   LIG d   1      -2.753  -4.892 -12.713  0.00  0.00    -0.246 OA
ATOM     78  H   LIG d   1      -0.881  -2.819 -12.610  0.00  0.00     0.069 H 
ENDBRANCH  11  70
TORSDOF 9
ENDMDL
MODEL 5
REMARK VINA RESULT:      -7.1      4.461      6.955
REMARK  9 active torsions:
REMARK  status: ('A' for Active; 'I' for Inactive)
REMARK    1  A    between atoms: C_1  and  C_2 
REMARK    2  A    between atoms: C_9  and  O_20 
REMARK    3  A    between atoms: C_12  and  C_14 
REMARK    4  A    between atoms: C_23  and  O_41 
REMARK    5  A    between atoms: C_24  and  C_31 
REMARK    6  A    between atoms: C_27  and  O_30 
REMARK    7  A    between atoms: N_32  and  C_33 
REMARK    8  A    between atoms: C_33  and  C_34 
REMARK    9  A    between atoms: C_34  and  C_35 
ROOT
ATOM      1  C   LIG d   1       8.992   0.908  -6.513  0.00  0.00     0.004 C 
ATOM      2  C   LIG d   1       8.359   0.703  -7.891  0.00  0.00    -0.044 C 
ATOM      3  C   LIG d   1       6.900   0.270  -7.757  0.00  0.00    -0.048 C 
ATOM      4  C   LIG d   1       6.856  -1.078  -7.031  0.00  0.00    -0.022 C 
ATOM      5  H   LIG d   1       7.463  -1.805  -7.570  0.00  0.00     0.031 H 
ATOM      6  C   LIG d   1       7.415  -0.887  -5.621  0.00  0.00    -0.008 C 
ATOM      7  H   LIG d   1       6.792  -0.163  -5.096  0.00  0.00     0.033 H 
ATOM      8  C   LIG d   1       8.801  -0.341  -5.636  0.00  0.00     0.075 C 
ATOM      9  C   LIG d   1       9.806  -1.350  -6.221  0.00  0.00    -0.023 C 
ATOM     10  C   LIG d   1      11.041  -0.480  -6.548  0.00  0.00    -0.043 C 
ATOM     11  C   LIG d   1      10.531   0.965  -6.708  0.00  0.00    -0.008 C 
ATOM     12  H   LIG d   1      10.768   1.338  -7.705  0.00  0.00     0.035 H 
ATOM     13  C   LIG d   1       7.360  -2.218  -4.866  0.00  0.00    -0.045 C 
ATOM     14  C   LIG d   1       5.910  -2.697  -4.780  0.00  0.00    -0.023 C 
ATOM     15  C   LIG d   1       5.352  -2.888  -6.191  0.00  0.00     0.079 C 
ATOM     16  C   LIG d   1       5.407  -1.566  -6.961  0.00  0.00     0.038 C 
ATOM     17  C   LIG d   1       4.865  -1.760  -8.379  0.00  0.00    -0.037 C 
ATOM     18  C   LIG d   1       5.716  -2.799  -9.113  0.00  0.00    -0.026 C 
ATOM     19  C   LIG d   1       5.660  -4.129  -8.359  0.00  0.00     0.058 C 
ATOM     20  H   LIG d   1       6.264  -4.869  -8.882  0.00  0.00     0.059 H 
ATOM     21  C   LIG d   1       6.188  -3.931  -6.936  0.00  0.00     0.003 C 
ATOM     22  H   LIG d   1       8.404   1.638  -8.450  0.00  0.00     0.027 H 
ATOM     23  H   LIG d   1       8.913  -0.064  -8.431  0.00  0.00     0.027 H 
ATOM     24  H   LIG d   1       6.350   1.014  -7.181  0.00  0.00     0.027 H 
ATOM     25  H   LIG d   1       6.457   0.167  -8.747  0.00  0.00     0.027 H 
ATOM     26  H   LIG d   1      10.057  -2.113  -5.485  0.00  0.00     0.029 H 
ATOM     27  H   LIG d   1       9.408  -1.807  -7.127  0.00  0.00     0.029 H 
ATOM     28  H   LIG d   1      11.762  -0.533  -5.732  0.00  0.00     0.027 H 
ATOM     29  H   LIG d   1      11.502  -0.817  -7.476  0.00  0.00     0.027 H 
ATOM     30  H   LIG d   1       7.958  -2.960  -5.393  0.00  0.00     0.027 H 
ATOM     31  H   LIG d   1       7.757  -2.080  -3.860  0.00  0.00     0.027 H 
ATOM     32  H   LIG d   1       5.872  -3.645  -4.244  0.00  0.00     0.029 H 
ATOM     33  H   LIG d   1       5.313  -1.955  -4.251  0.00  0.00     0.029 H 
ATOM     34  H   LIG d   1       3.833  -2.105  -8.329  0.00  0.00     0.028 H 
ATOM     35  H   LIG d   1       4.906  -0.812  -8.915  0.00  0.00     0.028 H 
ATOM     36  H   LIG d   1       5.329  -2.937 -10.123  0.00  0.00     0.029 H 
ATOM     37  H   LIG d   1       6.748  -2.453  -9.164  0.00  0.00     0.029 H 
ATOM     38  H   LIG d   1       7.221  -3.592  -6.997  0.00  0.00     0.032 H 
ATOM     39  H   LIG d   1       6.147  -4.879  -6.398  0.00  0.00     0.032 H 
ENDROOT
BRANCH  16  40
ATOM     40  C   LIG d   1       4.567  -0.545  -6.239  0.00  0.00     0.009 C 
ATOM     41  N   LIG d   1       3.339  -0.387  -6.557  0.00  0.00    -0.295 NA
ATOM     42  H   LIG d   1       5.003   0.054  -5.453  0.00  0.00     0.079 H 
BRANCH  41  43
ATOM     43  C   LIG d   1       2.522   0.606  -5.854  0.00  0.00     0.043 C 
ATOM     44  H   LIG d   1       3.154   1.434  -5.533  0.00  0.00     0.051 H 
ATOM     45  H   LIG d   1       1.748   0.980  -6.524  0.00  0.00     0.051 H 
BRANCH  43  46
ATOM     46  C   LIG d   1       1.870  -0.042  -4.632  0.00  0.00    -0.008 C 
ATOM     47  H   LIG d   1       1.016   0.558  -4.315  0.00  0.00     0.033 H 
ATOM     48  H   LIG d   1       1.531  -1.046  -4.890  0.00  0.00     0.033 H 
BRANCH  46  49
ATOM     49  C   LIG d   1       2.872  -0.122  -3.510  0.00  0.00    -0.046 A 
ATOM     50  C   LIG d   1       3.201  -1.349  -2.962  0.00  0.00    -0.059 A 
ATOM     51  C   LIG d   1       4.123  -1.422  -1.936  0.00  0.00    -0.061 A 
ATOM     52  H   LIG d   1       2.739  -2.249  -3.340  0.00  0.00     0.062 H 
ATOM     53  C   LIG d   1       4.711  -0.268  -1.451  0.00  0.00    -0.062 A 
ATOM     54  H   LIG d   1       4.384  -2.380  -1.512  0.00  0.00     0.062 H 
ATOM     55  C   LIG d   1       4.379   0.958  -1.995  0.00  0.00    -0.061 A 
ATOM     56  H   LIG d   1       5.430  -0.325  -0.647  0.00  0.00     0.062 H 
ATOM     57  C   LIG d   1       3.460   1.032  -3.024  0.00  0.00    -0.059 A 
ATOM     58  H   LIG d   1       4.838   1.860  -1.615  0.00  0.00     0.062 H 
ATOM     59  H   LIG d   1       3.199   1.989  -3.449  0.00  0.00     0.062 H 
ENDBRANCH  46  49
ENDBRANCH  43  46
ENDBRANCH  41  43
ENDBRANCH  16  40
BRANCH  15  60
ATOM     60  O   LIG d   1       3.996  -3.334  -6.111  0.00  0.00    -0.388 OA
ATOM     61  H   LIG d   1       3.433  -3.012  -6.828  0.00  0.00     0.210 HD
ENDBRANCH  15  60
BRANCH   8  62
ATOM     62  O   LIG d   1       9.193  -0.037  -4.297  0.00  0.00    -0.388 OA
ATOM     63  H   LIG d   1      10.070  -0.367  -4.059  0.00  0.00     0.210 HD
ENDBRANCH   8  62
BRANCH  19  64
ATOM     64  O   LIG d   1       4.306  -4.582  -8.292  0.00  0.00    -0.392 OA
ATOM     65  H   LIG d   1       3.715  -3.983  -7.815  0.00  0.00     0.210 HD
ENDBRANCH  19  64
BRANCH   1  66
ATOM     66  C   LIG d   1       8.458   2.168  -5.829  0.00  0.00    -0.056 C 
ATOM     67  H   LIG d   1       8.485   3.002  -6.531  0.00  0.00     0.024 H 
ATOM     68  H   LIG d   1       7.431   1.997  -5.505  0.00  0.00     0.024 H 
ATOM     69  H   LIG d   1       9.078   2.402  -4.963  0.00  0.00     0.024 H 
ENDBRANCH   1  66
BRANCH  11  70
ATOM     70  C   LIG d   1      11.152   1.852  -5.661  0.00  0.00    -0.022 A 
ATOM     71  C   LIG d   1      11.811   1.406  -4.377  0.00  0.00     0.115 A 
ATOM     72  O   LIG d   1      12.250   2.596  -3.714  0.00  0.00    -0.457 OA
ATOM     73  H   LIG d   1      11.093   0.871  -3.755  0.00  0.00     0.075 H 
ATOM     74  H   LIG d   1      12.665   0.767  -4.598  0.00  0.00     0.075 H 
ATOM     75  C   LIG d   1      11.904   3.649  -4.477  0.00  0.00     0.332 A 
ATOM     76  C   LIG d   1      11.222   3.182  -5.687  0.00  0.00     0.025 A 
ATOM     77  O   LIG d   1      12.123   4.813  -4.203  0.00  0.00    -0.246 OA
ATOM     78  H   LIG d   1      10.836   3.814  -6.473  0.00  0.00     0.069 H 
ENDBRANCH  11  70
TORSDOF 9
ENDMDL
MODEL 6
REMARK VINA RESULT:      -7.1      1.840      2.683
REMARK  9 active torsions:
REMARK  status: ('A' for Active; 'I' for Inactive)
REMARK    1  A    between atoms: C_1  and  C_2 
REMARK    2  A    between atoms: C_9  and  O_20 
REMARK    3  A    between atoms: C_12  and  C_14 
REMARK    4  A    between atoms: C_23  and  O_41 
REMARK    5  A    between atoms: C_24  and  C_31 
REMARK    6  A    between atoms: C_27  and  O_30 
REMARK    7  A    between atoms: N_32  and  C_33 
REMARK    8  A    between atoms: C_33  and  C_34 
REMARK    9  A    between atoms: C_34  and  C_35 
ROOT
ATOM      1  C   LIG d   1       6.770  -5.172  -6.647  0.00  0.00     0.004 C 
ATOM      2  C   LIG d   1       7.884  -4.483  -7.440  0.00  0.00    -0.044 C 
ATOM      3  C   LIG d   1       7.892  -2.980  -7.167  0.00  0.00    -0.048 C 
ATOM      4  C   LIG d   1       6.561  -2.390  -7.645  0.00  0.00    -0.022 C 
ATOM      5  H   LIG d   1       6.414  -2.626  -8.699  0.00  0.00     0.031 H 
ATOM      6  C   LIG d   1       5.434  -3.005  -6.818  0.00  0.00    -0.008 C 
ATOM      7  H   LIG d   1       5.595  -2.754  -5.769  0.00  0.00     0.033 H 
ATOM      8  C   LIG d   1       5.415  -4.492  -6.912  0.00  0.00     0.075 C 
ATOM      9  C   LIG d   1       5.042  -4.970  -8.327  0.00  0.00    -0.023 C 
ATOM     10  C   LIG d   1       5.491  -6.449  -8.337  0.00  0.00    -0.043 C 
ATOM     11  C   LIG d   1       6.572  -6.589  -7.249  0.00  0.00    -0.008 C 
ATOM     12  H   LIG d   1       7.505  -6.940  -7.691  0.00  0.00     0.035 H 
ATOM     13  C   LIG d   1       4.093  -2.414  -7.262  0.00  0.00    -0.045 C 
ATOM     14  C   LIG d   1       4.111  -0.898  -7.054  0.00  0.00    -0.023 C 
ATOM     15  C   LIG d   1       5.240  -0.283  -7.883  0.00  0.00     0.079 C 
ATOM     16  C   LIG d   1       6.586  -0.872  -7.455  0.00  0.00     0.038 C 
ATOM     17  C   LIG d   1       7.715  -0.270  -8.295  0.00  0.00    -0.037 C 
ATOM     18  C   LIG d   1       7.478  -0.592  -9.772  0.00  0.00    -0.026 C 
ATOM     19  C   LIG d   1       6.140   0.001 -10.216  0.00  0.00     0.058 C 
ATOM     20  H   LIG d   1       5.972  -0.228 -11.268  0.00  0.00     0.059 H 
ATOM     21  C   LIG d   1       5.013  -0.590  -9.365  0.00  0.00     0.003 C 
ATOM     22  H   LIG d   1       8.846  -4.905  -7.148  0.00  0.00     0.027 H 
ATOM     23  H   LIG d   1       7.726  -4.654  -8.504  0.00  0.00     0.027 H 
ATOM     24  H   LIG d   1       8.007  -2.804  -6.097  0.00  0.00     0.027 H 
ATOM     25  H   LIG d   1       8.715  -2.515  -7.709  0.00  0.00     0.027 H 
ATOM     26  H   LIG d   1       3.967  -4.894  -8.487  0.00  0.00     0.029 H 
ATOM     27  H   LIG d   1       5.585  -4.399  -9.080  0.00  0.00     0.029 H 
ATOM     28  H   LIG d   1       4.645  -7.098  -8.107  0.00  0.00     0.027 H 
ATOM     29  H   LIG d   1       5.906  -6.708  -9.311  0.00  0.00     0.027 H 
ATOM     30  H   LIG d   1       3.930  -2.634  -8.315  0.00  0.00     0.027 H 
ATOM     31  H   LIG d   1       3.290  -2.852  -6.669  0.00  0.00     0.027 H 
ATOM     32  H   LIG d   1       3.157  -0.477  -7.372  0.00  0.00     0.029 H 
ATOM     33  H   LIG d   1       4.272  -0.677  -6.000  0.00  0.00     0.029 H 
ATOM     34  H   LIG d   1       7.733   0.811  -8.157  0.00  0.00     0.028 H 
ATOM     35  H   LIG d   1       8.668  -0.694  -7.978  0.00  0.00     0.028 H 
ATOM     36  H   LIG d   1       8.282  -0.163 -10.370  0.00  0.00     0.029 H 
ATOM     37  H   LIG d   1       7.461  -1.674  -9.910  0.00  0.00     0.029 H 
ATOM     38  H   LIG d   1       4.999  -1.669  -9.514  0.00  0.00     0.032 H 
ATOM     39  H   LIG d   1       4.059  -0.167  -9.681  0.00  0.00     0.032 H 
ENDROOT
BRANCH  16  40
ATOM     40  C   LIG d   1       6.818  -0.551  -6.001  0.00  0.00     0.009 C 
ATOM     41  N   LIG d   1       7.108   0.644  -5.648  0.00  0.00    -0.295 NA
ATOM     42  H   LIG d   1       6.741  -1.330  -5.257  0.00  0.00     0.079 H 
BRANCH  41  43
ATOM     43  C   LIG d   1       7.334   0.955  -4.234  0.00  0.00     0.043 C 
ATOM     44  H   LIG d   1       8.371   1.259  -4.091  0.00  0.00     0.051 H 
ATOM     45  H   LIG d   1       6.672   1.765  -3.930  0.00  0.00     0.051 H 
BRANCH  43  46
ATOM     46  C   LIG d   1       7.045  -0.285  -3.386  0.00  0.00    -0.008 C 
ATOM     47  H   LIG d   1       7.364  -1.177  -3.926  0.00  0.00     0.033 H 
ATOM     48  H   LIG d   1       7.590  -0.217  -2.444  0.00  0.00     0.033 H 
BRANCH  46  49
ATOM     49  C   LIG d   1       5.566  -0.370  -3.107  0.00  0.00    -0.046 A 
ATOM     50  C   LIG d   1       4.922  -1.593  -3.155  0.00  0.00    -0.059 A 
ATOM     51  C   LIG d   1       3.568  -1.671  -2.896  0.00  0.00    -0.061 A 
ATOM     52  H   LIG d   1       5.480  -2.487  -3.392  0.00  0.00     0.062 H 
ATOM     53  C   LIG d   1       2.854  -0.525  -2.597  0.00  0.00    -0.062 A 
ATOM     54  H   LIG d   1       3.066  -2.626  -2.928  0.00  0.00     0.062 H 
ATOM     55  C   LIG d   1       3.496   0.697  -2.553  0.00  0.00    -0.061 A 
ATOM     56  H   LIG d   1       1.794  -0.586  -2.396  0.00  0.00     0.062 H 
ATOM     57  C   LIG d   1       4.852   0.776  -2.809  0.00  0.00    -0.059 A 
ATOM     58  H   LIG d   1       2.938   1.594  -2.320  0.00  0.00     0.062 H 
ATOM     59  H   LIG d   1       5.354   1.731  -2.775  0.00  0.00     0.062 H 
ENDBRANCH  46  49
ENDBRANCH  43  46
ENDBRANCH  41  43
ENDBRANCH  16  40
BRANCH  15  60
ATOM     60  O   LIG d   1       5.257   1.133  -7.688  0.00  0.00    -0.388 OA
ATOM     61  H   LIG d   1       5.180   1.643  -8.505  0.00  0.00     0.210 HD
ENDBRANCH  15  60
BRANCH   8  62
ATOM     62  O   LIG d   1       4.448  -5.002  -5.992  0.00  0.00    -0.388 OA
ATOM     63  H   LIG d   1       3.973  -5.781  -6.312  0.00  0.00     0.210 HD
ENDBRANCH   8  62
BRANCH  19  64
ATOM     64  O   LIG d   1       6.163   1.418 -10.035  0.00  0.00    -0.392 OA
ATOM     65  H   LIG d   1       6.536   1.904 -10.782  0.00  0.00     0.210 HD
ENDBRANCH  19  64
BRANCH   1  66
ATOM     66  C   LIG d   1       7.093  -5.228  -5.153  0.00  0.00    -0.056 C 
ATOM     67  H   LIG d   1       6.451  -4.529  -4.616  0.00  0.00     0.024 H 
ATOM     68  H   LIG d   1       6.919  -6.239  -4.782  0.00  0.00     0.024 H 
ATOM     69  H   LIG d   1       8.136  -4.957  -4.996  0.00  0.00     0.024 H 
ENDBRANCH   1  66
BRANCH  11  70
ATOM     70  C   LIG d   1       6.112  -7.545  -6.180  0.00  0.00    -0.022 A 
ATOM     71  C   LIG d   1       6.966  -8.169  -5.102  0.00  0.00     0.115 A 
ATOM     72  O   LIG d   1       6.094  -8.998  -4.326  0.00  0.00    -0.457 OA
ATOM     73  H   LIG d   1       7.756  -8.771  -5.551  0.00  0.00     0.075 H 
ATOM     74  H   LIG d   1       7.399  -7.393  -4.471  0.00  0.00     0.075 H 
ATOM     75  C   LIG d   1       4.860  -8.912  -4.854  0.00  0.00     0.332 A 
ATOM     76  C   LIG d   1       4.875  -8.006  -6.007  0.00  0.00     0.025 A 
ATOM     77  O   LIG d   1       3.879  -9.497  -4.438  0.00  0.00    -0.246 OA
ATOM     78  H   LIG d   1       4.021  -7.755  -6.619  0.00  0.00     0.069 H 
ENDBRANCH  11  70
TORSDOF 9
ENDMDL
MODEL 7
REMARK VINA RESULT:      -7.0      7.211     11.082
REMARK  9 active torsions:
REMARK  status: ('A' for Active; 'I' for Inactive)
REMARK    1  A    between atoms: C_1  and  C_2 
REMARK    2  A    between atoms: C_9  and  O_20 
REMARK    3  A    between atoms: C_12  and  C_14 
REMARK    4  A    between atoms: C_23  and  O_41 
REMARK    5  A    between atoms: C_24  and  C_31 
REMARK    6  A    between atoms: C_27  and  O_30 
REMARK    7  A    between atoms: N_32  and  C_33 
REMARK    8  A    between atoms: C_33  and  C_34 
REMARK    9  A    between atoms: C_34  and  C_35 
ROOT
ATOM      1  C   LIG d   1      10.647   4.994  -8.697  0.00  0.00     0.004 C 
ATOM      2  C   LIG d   1      11.557   3.939  -8.063  0.00  0.00    -0.044 C 
ATOM      3  C   LIG d   1      10.988   3.467  -6.727  0.00  0.00    -0.048 C 
ATOM      4  C   LIG d   1      10.939   4.661  -5.768  0.00  0.00    -0.022 C 
ATOM      5  H   LIG d   1      11.934   5.095  -5.672  0.00  0.00     0.031 H 
ATOM      6  C   LIG d   1       9.977   5.702  -6.339  0.00  0.00    -0.008 C 
ATOM      7  H   LIG d   1       8.987   5.252  -6.421  0.00  0.00     0.033 H 
ATOM      8  C   LIG d   1      10.372   6.140  -7.707  0.00  0.00     0.075 C 
ATOM      9  C   LIG d   1      11.693   6.930  -7.695  0.00  0.00    -0.023 C 
ATOM     10  C   LIG d   1      12.139   6.910  -9.175  0.00  0.00    -0.043 C 
ATOM     11  C   LIG d   1      11.453   5.693  -9.824  0.00  0.00    -0.008 C 
ATOM     12  H   LIG d   1      12.202   5.011 -10.226  0.00  0.00     0.035 H 
ATOM     13  C   LIG d   1       9.893   6.897  -5.386  0.00  0.00    -0.045 C 
ATOM     14  C   LIG d   1       9.385   6.427  -4.021  0.00  0.00    -0.023 C 
ATOM     15  C   LIG d   1      10.349   5.385  -3.450  0.00  0.00     0.079 C 
ATOM     16  C   LIG d   1      10.449   4.187  -4.398  0.00  0.00     0.038 C 
ATOM     17  C   LIG d   1      11.426   3.152  -3.836  0.00  0.00    -0.037 C 
ATOM     18  C   LIG d   1      12.811   3.786  -3.687  0.00  0.00    -0.026 C 
ATOM     19  C   LIG d   1      12.727   4.979  -2.734  0.00  0.00     0.058 C 
ATOM     20  H   LIG d   1      13.713   5.429  -2.628  0.00  0.00     0.059 H 
ATOM     21  C   LIG d   1      11.737   6.007  -3.289  0.00  0.00     0.003 C 
ATOM     22  H   LIG d   1      11.641   3.087  -8.738  0.00  0.00     0.027 H 
ATOM     23  H   LIG d   1      12.545   4.368  -7.901  0.00  0.00     0.027 H 
ATOM     24  H   LIG d   1       9.982   3.076  -6.876  0.00  0.00     0.027 H 
ATOM     25  H   LIG d   1      11.629   2.690  -6.311  0.00  0.00     0.027 H 
ATOM     26  H   LIG d   1      11.526   7.953  -7.358  0.00  0.00     0.029 H 
ATOM     27  H   LIG d   1      12.431   6.434  -7.065  0.00  0.00     0.029 H 
ATOM     28  H   LIG d   1      11.823   7.827  -9.673  0.00  0.00     0.027 H 
ATOM     29  H   LIG d   1      13.222   6.805  -9.238  0.00  0.00     0.027 H 
ATOM     30  H   LIG d   1      10.880   7.342  -5.273  0.00  0.00     0.027 H 
ATOM     31  H   LIG d   1       9.204   7.638  -5.794  0.00  0.00     0.027 H 
ATOM     32  H   LIG d   1       9.327   7.278  -3.343  0.00  0.00     0.029 H 
ATOM     33  H   LIG d   1       8.397   5.983  -4.134  0.00  0.00     0.029 H 
ATOM     34  H   LIG d   1      11.075   2.813  -2.861  0.00  0.00     0.028 H 
ATOM     35  H   LIG d   1      11.485   2.303  -4.516  0.00  0.00     0.028 H 
ATOM     36  H   LIG d   1      13.506   3.048  -3.287  0.00  0.00     0.029 H 
ATOM     37  H   LIG d   1      13.162   4.124  -4.663  0.00  0.00     0.029 H 
ATOM     38  H   LIG d   1      12.100   6.343  -4.260  0.00  0.00     0.032 H 
ATOM     39  H   LIG d   1      11.678   6.857  -2.609  0.00  0.00     0.032 H 
ENDROOT
BRANCH  16  40
ATOM     40  C   LIG d   1       9.085   3.563  -4.540  0.00  0.00     0.009 C 
ATOM     41  N   LIG d   1       8.805   2.486  -3.908  0.00  0.00    -0.295 NA
ATOM     42  H   LIG d   1       8.344   4.024  -5.176  0.00  0.00     0.079 H 
BRANCH  41  43
ATOM     43  C   LIG d   1       7.479   1.879  -4.048  0.00  0.00     0.043 C 
ATOM     44  H   LIG d   1       6.798   2.325  -3.322  0.00  0.00     0.051 H 
ATOM     45  H   LIG d   1       7.102   2.056  -5.054  0.00  0.00     0.051 H 
BRANCH  43  46
ATOM     46  C   LIG d   1       7.578   0.374  -3.797  0.00  0.00    -0.008 C 
ATOM     47  H   LIG d   1       7.757  -0.141  -4.741  0.00  0.00     0.033 H 
ATOM     48  H   LIG d   1       8.403   0.173  -3.112  0.00  0.00     0.033 H 
BRANCH  46  49
ATOM     49  C   LIG d   1       6.290  -0.121  -3.191  0.00  0.00    -0.046 A 
ATOM     50  C   LIG d   1       5.444   0.763  -2.548  0.00  0.00    -0.059 A 
ATOM     51  C   LIG d   1       4.261   0.309  -1.996  0.00  0.00    -0.061 A 
ATOM     52  H   LIG d   1       5.705   1.808  -2.481  0.00  0.00     0.062 H 
ATOM     53  C   LIG d   1       3.929  -1.031  -2.078  0.00  0.00    -0.062 A 
ATOM     54  H   LIG d   1       3.598   1.000  -1.498  0.00  0.00     0.062 H 
ATOM     55  C   LIG d   1       4.777  -1.915  -2.717  0.00  0.00    -0.061 A 
ATOM     56  H   LIG d   1       3.005  -1.386  -1.645  0.00  0.00     0.062 H 
ATOM     57  C   LIG d   1       5.958  -1.461  -3.273  0.00  0.00    -0.059 A 
ATOM     58  H   LIG d   1       4.517  -2.962  -2.781  0.00  0.00     0.062 H 
ATOM     59  H   LIG d   1       6.621  -2.152  -3.771  0.00  0.00     0.062 H 
ENDBRANCH  46  49
ENDBRANCH  43  46
ENDBRANCH  41  43
ENDBRANCH  16  40
BRANCH  15  60
ATOM     60  O   LIG d   1       9.874   4.945  -2.176  0.00  0.00    -0.388 OA
ATOM     61  H   LIG d   1      10.509   4.408  -1.684  0.00  0.00     0.210 HD
ENDBRANCH  15  60
BRANCH   8  62
ATOM     62  O   LIG d   1       9.347   6.981  -8.238  0.00  0.00    -0.388 OA
ATOM     63  H   LIG d   1       9.107   6.781  -9.153  0.00  0.00     0.210 HD
ENDBRANCH   8  62
BRANCH  19  64
ATOM     64  O   LIG d   1      12.266   4.536  -1.456  0.00  0.00    -0.392 OA
ATOM     65  H   LIG d   1      12.828   3.864  -1.046  0.00  0.00     0.210 HD
ENDBRANCH  19  64
BRANCH   1  66
ATOM     66  C   LIG d   1       9.350   4.378  -9.224  0.00  0.00    -0.056 C 
ATOM     67  H   LIG d   1       8.980   3.644  -8.507  0.00  0.00     0.024 H 
ATOM     68  H   LIG d   1       8.604   5.161  -9.359  0.00  0.00     0.024 H 
ATOM     69  H   LIG d   1       9.540   3.889 -10.179  0.00  0.00     0.024 H 
ENDBRANCH   1  66
BRANCH  11  70
ATOM     70  C   LIG d   1      10.523   6.147 -10.919  0.00  0.00    -0.022 A 
ATOM     71  C   LIG d   1      10.129   7.571 -11.235  0.00  0.00     0.115 A 
ATOM     72  O   LIG d   1       9.237   7.505 -12.352  0.00  0.00    -0.457 OA
ATOM     73  H   LIG d   1       9.626   8.018 -10.377  0.00  0.00     0.075 H 
ATOM     74  H   LIG d   1      11.012   8.153 -11.498  0.00  0.00     0.075 H 
ATOM     75  C   LIG d   1       9.085   6.210 -12.687  0.00  0.00     0.332 A 
ATOM     76  C   LIG d   1       9.887   5.369 -11.793  0.00  0.00     0.025 A 
ATOM     77  O   LIG d   1       8.386   5.800 -13.593  0.00  0.00    -0.246 OA
ATOM     78  H   LIG d   1       9.951   4.292 -11.836  0.00  0.00     0.069 H 
ENDBRANCH  11  70
TORSDOF 9
ENDMDL
MODEL 8
REMARK VINA RESULT:      -7.0      8.449     11.893
REMARK  9 active torsions:
REMARK  status: ('A' for Active; 'I' for Inactive)
REMARK    1  A    between atoms: C_1  and  C_2 
REMARK    2  A    between atoms: C_9  and  O_20 
REMARK    3  A    between atoms: C_12  and  C_14 
REMARK    4  A    between atoms: C_23  and  O_41 
REMARK    5  A    between atoms: C_24  and  C_31 
REMARK    6  A    between atoms: C_27  and  O_30 
REMARK    7  A    between atoms: N_32  and  C_33 
REMARK    8  A    between atoms: C_33  and  C_34 
REMARK    9  A    between atoms: C_34  and  C_35 
ROOT
ATOM      1  C   LIG d   1      10.257   7.129  -2.842  0.00  0.00     0.004 C 
ATOM      2  C   LIG d   1       9.657   7.066  -4.248  0.00  0.00    -0.044 C 
ATOM      3  C   LIG d   1       9.158   5.658  -4.562  0.00  0.00    -0.048 C 
ATOM      4  C   LIG d   1      10.353   4.700  -4.535  0.00  0.00    -0.022 C 
ATOM      5  H   LIG d   1      11.113   5.042  -5.237  0.00  0.00     0.031 H 
ATOM      6  C   LIG d   1      10.929   4.683  -3.120  0.00  0.00    -0.008 C 
ATOM      7  H   LIG d   1      10.157   4.331  -2.435  0.00  0.00     0.033 H 
ATOM      8  C   LIG d   1      11.332   6.042  -2.662  0.00  0.00     0.075 C 
ATOM      9  C   LIG d   1      12.529   6.583  -3.465  0.00  0.00    -0.023 C 
ATOM     10  C   LIG d   1      12.512   8.098  -3.161  0.00  0.00    -0.043 C 
ATOM     11  C   LIG d   1      11.072   8.445  -2.737  0.00  0.00    -0.008 C 
ATOM     12  H   LIG d   1      10.655   9.197  -3.407  0.00  0.00     0.035 H 
ATOM     13  C   LIG d   1      12.112   3.713  -3.061  0.00  0.00    -0.045 C 
ATOM     14  C   LIG d   1      11.639   2.307  -3.437  0.00  0.00    -0.023 C 
ATOM     15  C   LIG d   1      11.064   2.325  -4.854  0.00  0.00     0.079 C 
ATOM     16  C   LIG d   1       9.883   3.297  -4.929  0.00  0.00     0.038 C 
ATOM     17  C   LIG d   1       9.317   3.328  -6.350  0.00  0.00    -0.037 C 
ATOM     18  C   LIG d   1      10.405   3.790  -7.323  0.00  0.00    -0.026 C 
ATOM     19  C   LIG d   1      11.587   2.821  -7.265  0.00  0.00     0.058 C 
ATOM     20  H   LIG d   1      12.360   3.149  -7.958  0.00  0.00     0.059 H 
ATOM     21  C   LIG d   1      12.142   2.778  -5.839  0.00  0.00     0.003 C 
ATOM     22  H   LIG d   1       8.822   7.765  -4.313  0.00  0.00     0.027 H 
ATOM     23  H   LIG d   1      10.417   7.349  -4.976  0.00  0.00     0.027 H 
ATOM     24  H   LIG d   1       8.428   5.353  -3.812  0.00  0.00     0.027 H 
ATOM     25  H   LIG d   1       8.700   5.644  -5.551  0.00  0.00     0.027 H 
ATOM     26  H   LIG d   1      13.459   6.132  -3.119  0.00  0.00     0.029 H 
ATOM     27  H   LIG d   1      12.389   6.404  -4.531  0.00  0.00     0.029 H 
ATOM     28  H   LIG d   1      13.204   8.325  -2.350  0.00  0.00     0.027 H 
ATOM     29  H   LIG d   1      12.784   8.662  -4.053  0.00  0.00     0.027 H 
ATOM     30  H   LIG d   1      12.882   4.037  -3.760  0.00  0.00     0.027 H 
ATOM     31  H   LIG d   1      12.521   3.701  -2.050  0.00  0.00     0.027 H 
ATOM     32  H   LIG d   1      12.483   1.618  -3.397  0.00  0.00     0.029 H 
ATOM     33  H   LIG d   1      10.871   1.983  -2.737  0.00  0.00     0.029 H 
ATOM     34  H   LIG d   1       8.981   2.330  -6.629  0.00  0.00     0.028 H 
ATOM     35  H   LIG d   1       8.476   4.020  -6.390  0.00  0.00     0.028 H 
ATOM     36  H   LIG d   1      10.001   3.812  -8.335  0.00  0.00     0.029 H 
ATOM     37  H   LIG d   1      10.740   4.790  -7.044  0.00  0.00     0.029 H 
ATOM     38  H   LIG d   1      12.481   3.779  -5.573  0.00  0.00     0.032 H 
ATOM     39  H   LIG d   1      12.985   2.087  -5.799  0.00  0.00     0.032 H 
ENDROOT
BRANCH  16  40
ATOM     40  C   LIG d   1       8.812   2.839  -3.973  0.00  0.00     0.009 C 
ATOM     41  N   LIG d   1       7.911   2.021  -4.367  0.00  0.00    -0.295 NA
ATOM     42  H   LIG d   1       8.806   3.201  -2.956  0.00  0.00     0.079 H 
BRANCH  41  43
ATOM     43  C   LIG d   1       6.869   1.576  -3.437  0.00  0.00     0.043 C 
ATOM     44  H   LIG d   1       7.104   1.930  -2.433  0.00  0.00     0.051 H 
ATOM     45  H   LIG d   1       5.907   1.981  -3.749  0.00  0.00     0.051 H 
BRANCH  43  46
ATOM     46  C   LIG d   1       6.805   0.048  -3.437  0.00  0.00    -0.008 C 
ATOM     47  H   LIG d   1       7.129  -0.329  -4.407  0.00  0.00     0.033 H 
ATOM     48  H   LIG d   1       7.461  -0.344  -2.658  0.00  0.00     0.033 H 
BRANCH  46  49
ATOM     49  C   LIG d   1       5.390  -0.396  -3.173  0.00  0.00    -0.046 A 
ATOM     50  C   LIG d   1       4.338   0.469  -3.411  0.00  0.00    -0.059 A 
ATOM     51  C   LIG d   1       3.040   0.061  -3.172  0.00  0.00    -0.061 A 
ATOM     52  H   LIG d   1       4.531   1.463  -3.787  0.00  0.00     0.062 H 
ATOM     53  C   LIG d   1       2.793  -1.210  -2.687  0.00  0.00    -0.062 A 
ATOM     54  H   LIG d   1       2.218   0.734  -3.363  0.00  0.00     0.062 H 
ATOM     55  C   LIG d   1       3.845  -2.073  -2.445  0.00  0.00    -0.061 A 
ATOM     56  H   LIG d   1       1.778  -1.529  -2.499  0.00  0.00     0.062 H 
ATOM     57  C   LIG d   1       5.143  -1.667  -2.687  0.00  0.00    -0.059 A 
ATOM     58  H   LIG d   1       3.652  -3.067  -2.065  0.00  0.00     0.062 H 
ATOM     59  H   LIG d   1       5.965  -2.340  -2.497  0.00  0.00     0.062 H 
ENDBRANCH  46  49
ENDBRANCH  43  46
ENDBRANCH  41  43
ENDBRANCH  16  40
BRANCH  15  60
ATOM     60  O   LIG d   1      10.620   1.012  -5.204  0.00  0.00    -0.388 OA
ATOM     61  H   LIG d   1      11.215   0.307  -4.917  0.00  0.00     0.210 HD
ENDBRANCH  15  60
BRANCH   8  62
ATOM     62  O   LIG d   1      11.704   5.975  -1.285  0.00  0.00    -0.388 OA
ATOM     63  H   LIG d   1      11.195   6.562  -0.710  0.00  0.00     0.210 HD
ENDBRANCH   8  62
BRANCH  19  64
ATOM     64  O   LIG d   1      11.146   1.511  -7.630  0.00  0.00    -0.392 OA
ATOM     65  H   LIG d   1      10.290   1.495  -8.080  0.00  0.00     0.210 HD
ENDBRANCH  19  64
BRANCH   1  66
ATOM     66  C   LIG d   1       9.177   7.040  -1.763  0.00  0.00    -0.056 C 
ATOM     67  H   LIG d   1       9.052   8.016  -1.293  0.00  0.00     0.024 H 
ATOM     68  H   LIG d   1       8.235   6.732  -2.216  0.00  0.00     0.024 H 
ATOM     69  H   LIG d   1       9.474   6.310  -1.010  0.00  0.00     0.024 H 
ENDBRANCH   1  66
BRANCH  11  70
ATOM     70  C   LIG d   1      11.057   8.950  -1.318  0.00  0.00    -0.022 A 
ATOM     71  C   LIG d   1       9.967   9.765  -0.663  0.00  0.00     0.115 A 
ATOM     72  O   LIG d   1      10.394  10.003   0.683  0.00  0.00    -0.457 OA
ATOM     73  H   LIG d   1       9.840  10.711  -1.190  0.00  0.00     0.075 H 
ATOM     74  H   LIG d   1       9.032   9.207  -0.662  0.00  0.00     0.075 H 
ATOM     75  C   LIG d   1      11.597   9.422   0.846  0.00  0.00     0.332 A 
ATOM     76  C   LIG d   1      12.006   8.768  -0.401  0.00  0.00     0.025 A 
ATOM     77  O   LIG d   1      12.248   9.438   1.873  0.00  0.00    -0.246 OA
ATOM     78  H   LIG d   1      12.928   8.226  -0.552  0.00  0.00     0.069 H 
ENDBRANCH  11  70
TORSDOF 9
ENDMDL
MODEL 9
REMARK VINA RESULT:      -6.9      6.581      9.417
REMARK  9 active torsions:
REMARK  status: ('A' for Active; 'I' for Inactive)
REMARK    1  A    between atoms: C_1  and  C_2 
REMARK    2  A    between atoms: C_9  and  O_20 
REMARK    3  A    between atoms: C_12  and  C_14 
REMARK    4  A    between atoms: C_23  and  O_41 
REMARK    5  A    between atoms: C_24  and  C_31 
REMARK    6  A    between atoms: C_27  and  O_30 
REMARK    7  A    between atoms: N_32  and  C_33 
REMARK    8  A    between atoms: C_33  and  C_34 
REMARK    9  A    between atoms: C_34  and  C_35 
ROOT
ATOM      1  C   LIG d   1      10.121   3.080  -4.592  0.00  0.00     0.004 C 
ATOM      2  C   LIG d   1       9.407   2.999  -5.943  0.00  0.00    -0.044 C 
ATOM      3  C   LIG d   1       8.900   1.582  -6.204  0.00  0.00    -0.048 C 
ATOM      4  C   LIG d   1      10.104   0.637  -6.268  0.00  0.00    -0.022 C 
ATOM      5  H   LIG d   1      10.800   0.982  -7.033  0.00  0.00     0.031 H 
ATOM      6  C   LIG d   1      10.795   0.639  -4.905  0.00  0.00    -0.008 C 
ATOM      7  H   LIG d   1      10.086   0.286  -4.156  0.00  0.00     0.033 H 
ATOM      8  C   LIG d   1      11.219   2.007  -4.493  0.00  0.00     0.075 C 
ATOM      9  C   LIG d   1      12.340   2.553  -5.397  0.00  0.00    -0.023 C 
ATOM     10  C   LIG d   1      12.330   4.071  -5.104  0.00  0.00    -0.043 C 
ATOM     11  C   LIG d   1      10.927   4.406  -4.565  0.00  0.00    -0.008 C 
ATOM     12  H   LIG d   1      10.447   5.148  -5.205  0.00  0.00     0.035 H 
ATOM     13  C   LIG d   1      11.990  -0.317  -4.937  0.00  0.00    -0.045 C 
ATOM     14  C   LIG d   1      11.504  -1.731  -5.261  0.00  0.00    -0.023 C 
ATOM     15  C   LIG d   1      10.812  -1.732  -6.626  0.00  0.00     0.079 C 
ATOM     16  C   LIG d   1       9.619  -0.774  -6.611  0.00  0.00     0.038 C 
ATOM     17  C   LIG d   1       8.937  -0.761  -7.981  0.00  0.00    -0.037 C 
ATOM     18  C   LIG d   1       9.935  -0.296  -9.043  0.00  0.00    -0.026 C 
ATOM     19  C   LIG d   1      11.129  -1.252  -9.076  0.00  0.00     0.058 C 
ATOM     20  H   LIG d   1      11.838  -0.922  -9.833  0.00  0.00     0.059 H 
ATOM     21  C   LIG d   1      11.801  -1.276  -7.701  0.00  0.00     0.003 C 
ATOM     22  H   LIG d   1       8.562   3.688  -5.944  0.00  0.00     0.027 H 
ATOM     23  H   LIG d   1      10.101   3.283  -6.734  0.00  0.00     0.027 H 
ATOM     24  H   LIG d   1       8.238   1.277  -5.393  0.00  0.00     0.027 H 
ATOM     25  H   LIG d   1       8.362   1.555  -7.151  0.00  0.00     0.027 H 
ATOM     26  H   LIG d   1      13.300   2.115  -5.125  0.00  0.00     0.029 H 
ATOM     27  H   LIG d   1      12.114   2.363  -6.446  0.00  0.00     0.029 H 
ATOM     28  H   LIG d   1      13.085   4.312  -4.355  0.00  0.00     0.027 H 
ATOM     29  H   LIG d   1      12.521   4.630  -6.020  0.00  0.00     0.027 H 
ATOM     30  H   LIG d   1      12.696   0.008  -5.700  0.00  0.00     0.027 H 
ATOM     31  H   LIG d   1      12.481  -0.316  -3.964  0.00  0.00     0.027 H 
ATOM     32  H   LIG d   1      12.356  -2.411  -5.286  0.00  0.00     0.029 H 
ATOM     33  H   LIG d   1      10.799  -2.057  -4.497  0.00  0.00     0.029 H 
ATOM     34  H   LIG d   1       8.590  -1.765  -8.222  0.00  0.00     0.028 H 
ATOM     35  H   LIG d   1       8.087  -0.078  -7.956  0.00  0.00     0.028 H 
ATOM     36  H   LIG d   1       9.449  -0.287 -10.019  0.00  0.00     0.029 H 
ATOM     37  H   LIG d   1      10.281   0.710  -8.801  0.00  0.00     0.029 H 
ATOM     38  H   LIG d   1      12.149  -0.270  -7.471  0.00  0.00     0.032 H 
ATOM     39  H   LIG d   1      12.651  -1.959  -7.725  0.00  0.00     0.032 H 
ENDROOT
BRANCH  16  40
ATOM     40  C   LIG d   1       8.636  -1.235  -5.565  0.00  0.00     0.009 C 
ATOM     41  N   LIG d   1       7.678  -2.016  -5.891  0.00  0.00    -0.295 NA
ATOM     42  H   LIG d   1       8.741  -0.905  -4.543  0.00  0.00     0.079 H 
BRANCH  41  43
ATOM     43  C   LIG d   1       6.722  -2.465  -4.874  0.00  0.00     0.043 C 
ATOM     44  H   LIG d   1       5.724  -2.109  -5.132  0.00  0.00     0.051 H 
ATOM     45  H   LIG d   1       6.719  -3.553  -4.832  0.00  0.00     0.051 H 
BRANCH  43  46
ATOM     46  C   LIG d   1       7.126  -1.902  -3.510  0.00  0.00    -0.008 C 
ATOM     47  H   LIG d   1       7.228  -2.719  -2.796  0.00  0.00     0.033 H 
ATOM     48  H   LIG d   1       8.079  -1.379  -3.601  0.00  0.00     0.033 H 
BRANCH  46  49
ATOM     49  C   LIG d   1       6.069  -0.942  -3.029  0.00  0.00    -0.046 A 
ATOM     50  C   LIG d   1       4.911  -1.423  -2.447  0.00  0.00    -0.059 A 
ATOM     51  C   LIG d   1       3.944  -0.542  -2.003  0.00  0.00    -0.061 A 
ATOM     52  H   LIG d   1       4.765  -2.487  -2.338  0.00  0.00     0.062 H 
ATOM     53  C   LIG d   1       4.130   0.820  -2.147  0.00  0.00    -0.062 A 
ATOM     54  H   LIG d   1       3.042  -0.918  -1.544  0.00  0.00     0.062 H 
ATOM     55  C   LIG d   1       5.286   1.301  -2.733  0.00  0.00    -0.061 A 
ATOM     56  H   LIG d   1       3.373   1.509  -1.801  0.00  0.00     0.062 H 
ATOM     57  C   LIG d   1       6.255   0.421  -3.174  0.00  0.00    -0.059 A 
ATOM     58  H   LIG d   1       5.431   2.366  -2.846  0.00  0.00     0.062 H 
ATOM     59  H   LIG d   1       7.158   0.796  -3.632  0.00  0.00     0.062 H 
ENDBRANCH  46  49
ENDBRANCH  43  46
ENDBRANCH  41  43
ENDBRANCH  16  40
BRANCH  15  60
ATOM     60  O   LIG d   1      10.357  -3.053  -6.928  0.00  0.00    -0.388 OA
ATOM     61  H   LIG d   1       9.855  -3.117  -7.751  0.00  0.00     0.210 HD
ENDBRANCH  15  60
BRANCH   8  62
ATOM     62  O   LIG d   1      11.705   1.956  -3.151  0.00  0.00    -0.388 OA
ATOM     63  H   LIG d   1      11.484   1.139  -2.683  0.00  0.00     0.210 HD
ENDBRANCH   8  62
BRANCH  19  64
ATOM     64  O   LIG d   1      10.674  -2.570  -9.392  0.00  0.00    -0.392 OA
ATOM     65  H   LIG d   1       9.800  -2.595  -9.805  0.00  0.00     0.210 HD
ENDBRANCH  19  64
BRANCH   1  66
ATOM     66  C   LIG d   1       9.135   2.989  -3.426  0.00  0.00    -0.056 C 
ATOM     67  H   LIG d   1       9.687   2.905  -2.489  0.00  0.00     0.024 H 
ATOM     68  H   LIG d   1       8.516   3.886  -3.404  0.00  0.00     0.024 H 
ATOM     69  H   LIG d   1       8.500   2.113  -3.554  0.00  0.00     0.024 H 
ENDBRANCH   1  66
BRANCH  11  70
ATOM     70  C   LIG d   1      11.024   4.923  -3.154  0.00  0.00    -0.022 A 
ATOM     71  C   LIG d   1      12.205   4.784  -2.223  0.00  0.00     0.115 A 
ATOM     72  O   LIG d   1      11.835   5.431  -1.001  0.00  0.00    -0.457 OA
ATOM     73  H   LIG d   1      12.416   3.731  -2.042  0.00  0.00     0.075 H 
ATOM     74  H   LIG d   1      13.079   5.273  -2.652  0.00  0.00     0.075 H 
ATOM     75  C   LIG d   1      10.584   5.905  -1.144  0.00  0.00     0.332 A 
ATOM     76  C   LIG d   1      10.083   5.588  -2.485  0.00  0.00     0.025 A 
ATOM     77  O   LIG d   1       9.961   6.506  -0.290  0.00  0.00    -0.246 OA
ATOM     78  H   LIG d   1       9.108   5.849  -2.869  0.00  0.00     0.069 H 
ENDBRANCH  11  70
TORSDOF 9
ENDMDL
MODEL 10
REMARK VINA RESULT:      -6.8      3.138      5.989
REMARK  9 active torsions:
REMARK  status: ('A' for Active; 'I' for Inactive)
REMARK    1  A    between atoms: C_1  and  C_2 
REMARK    2  A    between atoms: C_9  and  O_20 
REMARK    3  A    between atoms: C_12  and  C_14 
REMARK    4  A    between atoms: C_23  and  O_41 
REMARK    5  A    between atoms: C_24  and  C_31 
REMARK    6  A    between atoms: C_27  and  O_30 
REMARK    7  A    between atoms: N_32  and  C_33 
REMARK    8  A    between atoms: C_33  and  C_34 
REMARK    9  A    between atoms: C_34  and  C_35 
ROOT
ATOM      1  C   LIG d   1       4.414  -2.280  -8.057  0.00  0.00     0.004 C 
ATOM      2  C   LIG d   1       4.429  -3.057  -6.738  0.00  0.00    -0.044 C 
ATOM      3  C   LIG d   1       5.274  -2.333  -5.692  0.00  0.00    -0.048 C 
ATOM      4  C   LIG d   1       6.720  -2.264  -6.195  0.00  0.00    -0.022 C 
ATOM      5  H   LIG d   1       7.083  -3.270  -6.407  0.00  0.00     0.031 H 
ATOM      6  C   LIG d   1       6.748  -1.428  -7.474  0.00  0.00    -0.008 C 
ATOM      7  H   LIG d   1       6.388  -0.425  -7.241  0.00  0.00     0.033 H 
ATOM      8  C   LIG d   1       5.849  -1.980  -8.526  0.00  0.00     0.075 C 
ATOM      9  C   LIG d   1       6.348  -3.340  -9.047  0.00  0.00    -0.023 C 
ATOM     10  C   LIG d   1       5.113  -3.926  -9.767  0.00  0.00    -0.043 C 
ATOM     11  C   LIG d   1       3.879  -3.233  -9.158  0.00  0.00    -0.008 C 
ATOM     12  H   LIG d   1       3.212  -3.975  -8.718  0.00  0.00     0.035 H 
ATOM     13  C   LIG d   1       8.187  -1.324  -7.985  0.00  0.00    -0.045 C 
ATOM     14  C   LIG d   1       9.060  -0.658  -6.920  0.00  0.00    -0.023 C 
ATOM     15  C   LIG d   1       9.032  -1.496  -5.640  0.00  0.00     0.079 C 
ATOM     16  C   LIG d   1       7.596  -1.615  -5.122  0.00  0.00     0.038 C 
ATOM     17  C   LIG d   1       7.564  -2.467  -3.852  0.00  0.00    -0.037 C 
ATOM     18  C   LIG d   1       8.098  -3.867  -4.163  0.00  0.00    -0.026 C 
ATOM     19  C   LIG d   1       9.537  -3.764  -4.672  0.00  0.00     0.058 C 
ATOM     20  H   LIG d   1       9.916  -4.760  -4.893  0.00  0.00     0.059 H 
ATOM     21  C   LIG d   1       9.570  -2.898  -5.934  0.00  0.00     0.003 C 
ATOM     22  H   LIG d   1       3.408  -3.155  -6.368  0.00  0.00     0.027 H 
ATOM     23  H   LIG d   1       4.844  -4.050  -6.911  0.00  0.00     0.027 H 
ATOM     24  H   LIG d   1       4.889  -1.324  -5.546  0.00  0.00     0.027 H 
ATOM     25  H   LIG d   1       5.240  -2.882  -4.751  0.00  0.00     0.027 H 
ATOM     26  H   LIG d   1       7.172  -3.203  -9.748  0.00  0.00     0.029 H 
ATOM     27  H   LIG d   1       6.650  -3.982  -8.219  0.00  0.00     0.029 H 
ATOM     28  H   LIG d   1       5.168  -3.717 -10.835  0.00  0.00     0.027 H 
ATOM     29  H   LIG d   1       5.057  -5.001  -9.600  0.00  0.00     0.027 H 
ATOM     30  H   LIG d   1       8.570  -2.322  -8.197  0.00  0.00     0.027 H 
ATOM     31  H   LIG d   1       8.206  -0.726  -8.896  0.00  0.00     0.027 H 
ATOM     32  H   LIG d   1      10.085  -0.587  -7.284  0.00  0.00     0.029 H 
ATOM     33  H   LIG d   1       8.678   0.340  -6.709  0.00  0.00     0.029 H 
ATOM     34  H   LIG d   1       8.187  -2.002  -3.087  0.00  0.00     0.028 H 
ATOM     35  H   LIG d   1       6.538  -2.540  -3.490  0.00  0.00     0.028 H 
ATOM     36  H   LIG d   1       8.075  -4.474  -3.258  0.00  0.00     0.029 H 
ATOM     37  H   LIG d   1       7.474  -4.332  -4.927  0.00  0.00     0.029 H 
ATOM     38  H   LIG d   1       8.950  -3.373  -6.693  0.00  0.00     0.032 H 
ATOM     39  H   LIG d   1      10.596  -2.824  -6.297  0.00  0.00     0.032 H 
ENDROOT
BRANCH  16  40
ATOM     40  C   LIG d   1       7.074  -0.235  -4.813  0.00  0.00     0.009 C 
ATOM     41  N   LIG d   1       7.077   0.195  -3.609  0.00  0.00    -0.295 NA
ATOM     42  H   LIG d   1       6.696   0.390  -5.609  0.00  0.00     0.079 H 
BRANCH  41  43
ATOM     43  C   LIG d   1       6.568   1.536  -3.309  0.00  0.00     0.043 C 
ATOM     44  H   LIG d   1       7.377   2.150  -2.913  0.00  0.00     0.051 H 
ATOM     45  H   LIG d   1       6.181   1.990  -4.220  0.00  0.00     0.051 H 
BRANCH  43  46
ATOM     46  C   LIG d   1       5.448   1.437  -2.272  0.00  0.00    -0.008 C 
ATOM     47  H   LIG d   1       5.835   0.979  -1.362  0.00  0.00     0.033 H 
ATOM     48  H   LIG d   1       5.073   2.435  -2.045  0.00  0.00     0.033 H 
BRANCH  46  49
ATOM     49  C   LIG d   1       4.328   0.592  -2.821  0.00  0.00    -0.046 A 
ATOM     50  C   LIG d   1       3.578   1.047  -3.890  0.00  0.00    -0.059 A 
ATOM     51  C   LIG d   1       2.553   0.270  -4.396  0.00  0.00    -0.061 A 
ATOM     52  H   LIG d   1       3.796   2.008  -4.332  0.00  0.00     0.062 H 
ATOM     53  C   LIG d   1       2.272  -0.958  -3.827  0.00  0.00    -0.062 A 
ATOM     54  H   LIG d   1       1.971   0.623  -5.234  0.00  0.00     0.062 H 
ATOM     55  C   LIG d   1       3.018  -1.411  -2.756  0.00  0.00    -0.061 A 
ATOM     56  H   LIG d   1       1.469  -1.565  -4.221  0.00  0.00     0.062 H 
ATOM     57  C   LIG d   1       4.045  -0.637  -2.252  0.00  0.00    -0.059 A 
ATOM     58  H   LIG d   1       2.797  -2.372  -2.311  0.00  0.00     0.062 H 
ATOM     59  H   LIG d   1       4.628  -0.990  -1.415  0.00  0.00     0.062 H 
ENDBRANCH  46  49
ENDBRANCH  43  46
ENDBRANCH  41  43
ENDBRANCH  16  40
BRANCH  15  60
ATOM     60  O   LIG d   1       9.846  -0.873  -4.645  0.00  0.00    -0.388 OA
ATOM     61  H   LIG d   1      10.050   0.054  -4.827  0.00  0.00     0.210 HD
ENDBRANCH  15  60
BRANCH   8  62
ATOM     62  O   LIG d   1       5.801  -1.065  -9.621  0.00  0.00    -0.388 OA
ATOM     63  H   LIG d   1       6.658  -0.679  -9.850  0.00  0.00     0.210 HD
ENDBRANCH   8  62
BRANCH  19  64
ATOM     64  O   LIG d   1      10.353  -3.154  -3.670  0.00  0.00    -0.392 OA
ATOM     65  H   LIG d   1      10.403  -2.190  -3.737  0.00  0.00     0.210 HD
ENDBRANCH  19  64
BRANCH   1  66
ATOM     66  C   LIG d   1       3.576  -1.005  -7.950  0.00  0.00    -0.056 C 
ATOM     67  H   LIG d   1       2.925  -0.925  -8.822  0.00  0.00     0.024 H 
ATOM     68  H   LIG d   1       2.968  -1.044  -7.046  0.00  0.00     0.024 H 
ATOM     69  H   LIG d   1       4.235  -0.138  -7.908  0.00  0.00     0.024 H 
ENDBRANCH   1  66
BRANCH  11  70
ATOM     70  C   LIG d   1       3.153  -2.445 -10.216  0.00  0.00    -0.022 A 
ATOM     71  C   LIG d   1       3.744  -1.886 -11.488  0.00  0.00     0.115 A 
ATOM     72  O   LIG d   1       2.677  -1.221 -12.172  0.00  0.00    -0.457 OA
ATOM     73  H   LIG d   1       4.538  -1.178 -11.252  0.00  0.00     0.075 H 
ATOM     74  H   LIG d   1       4.134  -2.695 -12.106  0.00  0.00     0.075 H 
ATOM     75  C   LIG d   1       1.565  -1.340 -11.422  0.00  0.00     0.332 A 
ATOM     76  C   LIG d   1       1.866  -2.102 -10.206  0.00  0.00     0.025 A 
ATOM     77  O   LIG d   1       0.476  -0.882 -11.709  0.00  0.00    -0.246 OA
ATOM     78  H   LIG d   1       1.158  -2.345  -9.427  0.00  0.00     0.069 H 
ENDBRANCH  11  70
TORSDOF 9
ENDMDL
