MODEL 1
REMARK VINA RESULT:      -6.6      0.000      0.000
REMARK  7 active torsions:
REMARK  status: ('A' for Active; 'I' for Inactive)
REMARK    1  A    between atoms: C_1  and  C_2 
REMARK    2  A    between atoms: C_2  and  C_3 
REMARK    3  A    between atoms: C_2  and  C_4 
REMARK    4  A    between atoms: C_4  and  C_5 
REMARK    5  A    between atoms: C_5  and  O_6 
REMARK    6  A    between atoms: O_6  and  C_7 
REMARK    7  A    between atoms: C_11  and  C_18 
ROOT
ATOM      1  C   LIG d   1       4.611  -1.950  -6.663  0.00  0.00     0.124 A 
ATOM      2  C   LIG d   1       4.018  -2.679  -7.692  0.00  0.00    -0.019 A 
ATOM      3  C   LIG d   1       3.586  -2.048  -8.824  0.00  0.00    -0.047 A 
ATOM      4  C   LIG d   1       3.751  -0.667  -8.955  0.00  0.00     0.025 A 
ATOM      5  C   LIG d   1       3.299   0.038 -10.166  0.00  0.00    -0.001 A 
ATOM      6  C   LIG d   1       3.492   1.406 -10.228  0.00  0.00     0.031 A 
ATOM      7  C   LIG d   1       4.104   2.067  -9.149  0.00  0.00     0.338 A 
ATOM      8  O   LIG d   1       4.271   3.273  -9.212  0.00  0.00    -0.245 OA
ATOM      9  O   LIG d   1       4.510   1.409  -8.052  0.00  0.00    -0.422 OA
ATOM     10  C   LIG d   1       4.353   0.073  -7.923  0.00  0.00     0.143 A 
ATOM     11  C   LIG d   1       4.781  -0.581  -6.777  0.00  0.00     0.023 A 
ATOM     12  H   LIG d   1       3.895  -3.747  -7.593  0.00  0.00     0.065 H 
ATOM     13  H   LIG d   1       3.124  -2.616  -9.617  0.00  0.00     0.063 H 
ATOM     14  H   LIG d   1       3.176   1.961 -11.097  0.00  0.00     0.070 H 
ATOM     15  H   LIG d   1       5.245  -0.024  -5.977  0.00  0.00     0.069 H 
ENDROOT
BRANCH   1  16
ATOM     16  O   LIG d   1       5.031  -2.590  -5.541  0.00  0.00    -0.492 OA
BRANCH  16  17
ATOM     17  C   LIG d   1       5.137  -1.807  -4.350  0.00  0.00     0.090 C 
ATOM     18  H   LIG d   1       4.756  -0.804  -4.539  0.00  0.00     0.070 H 
ATOM     19  H   LIG d   1       6.181  -1.747  -4.046  0.00  0.00     0.070 H 
BRANCH  17  20
ATOM     20  C   LIG d   1       4.318  -2.463  -3.235  0.00  0.00    -0.016 C 
ATOM     21  H   LIG d   1       3.645  -3.203  -3.667  0.00  0.00     0.030 H 
ATOM     22  H   LIG d   1       4.990  -2.950  -2.529  0.00  0.00     0.030 H 
BRANCH  20  23
ATOM     23  C   LIG d   1       3.501  -1.394  -2.507  0.00  0.00    -0.044 C 
ATOM     24  H   LIG d   1       2.866  -1.868  -1.759  0.00  0.00     0.030 H 
BRANCH  23  25
ATOM     25  C   LIG d   1       4.448  -0.407  -1.821  0.00  0.00    -0.063 C 
ATOM     26  H   LIG d   1       5.341  -0.275  -2.433  0.00  0.00     0.023 H 
ATOM     27  H   LIG d   1       3.947   0.553  -1.698  0.00  0.00     0.023 H 
ATOM     28  H   LIG d   1       4.733  -0.797  -0.844  0.00  0.00     0.023 H 
ENDBRANCH  23  25
BRANCH  23  29
ATOM     29  C   LIG d   1       2.627  -0.645  -3.515  0.00  0.00    -0.063 C 
ATOM     30  H   LIG d   1       1.673  -0.394  -3.053  0.00  0.00     0.023 H 
ATOM     31  H   LIG d   1       3.132   0.270  -3.825  0.00  0.00     0.023 H 
ATOM     32  H   LIG d   1       2.454  -1.277  -4.386  0.00  0.00     0.023 H 
ENDBRANCH  23  29
ENDBRANCH  20  23
ENDBRANCH  17  20
ENDBRANCH  16  17
ENDBRANCH   1  16
BRANCH   5  33
ATOM     33  C   LIG d   1       2.659  -0.693 -11.282  0.00  0.00    -0.017 A 
ATOM     34  C   LIG d   1       1.304  -1.017 -11.221  0.00  0.00    -0.054 A 
ATOM     35  C   LIG d   1       0.714  -1.699 -12.265  0.00  0.00    -0.061 A 
ATOM     36  H   LIG d   1       0.718  -0.736 -10.358  0.00  0.00     0.062 H 
ATOM     37  C   LIG d   1       1.462  -2.061 -13.370  0.00  0.00    -0.062 A 
ATOM     38  H   LIG d   1      -0.336  -1.952 -12.219  0.00  0.00     0.062 H 
ATOM     39  C   LIG d   1       2.807  -1.743 -13.436  0.00  0.00    -0.061 A 
ATOM     40  H   LIG d   1       0.995  -2.595 -14.185  0.00  0.00     0.062 H 
ATOM     41  C   LIG d   1       3.408  -1.056 -12.402  0.00  0.00    -0.054 A 
ATOM     42  H   LIG d   1       3.387  -2.028 -14.302  0.00  0.00     0.062 H 
ATOM     43  H   LIG d   1       4.457  -0.803 -12.457  0.00  0.00     0.062 H 
ENDBRANCH   5  33
TORSDOF 7
ENDMDL
MODEL 2
REMARK VINA RESULT:      -6.5      2.520      4.039
REMARK  7 active torsions:
REMARK  status: ('A' for Active; 'I' for Inactive)
REMARK    1  A    between atoms: C_1  and  C_2 
REMARK    2  A    between atoms: C_2  and  C_3 
REMARK    3  A    between atoms: C_2  and  C_4 
REMARK    4  A    between atoms: C_4  and  C_5 
REMARK    5  A    between atoms: C_5  and  O_6 
REMARK    6  A    between atoms: O_6  and  C_7 
REMARK    7  A    between atoms: C_11  and  C_18 
ROOT
ATOM      1  C   LIG d   1       5.838  -1.302  -4.510  0.00  0.00     0.124 A 
ATOM      2  C   LIG d   1       5.536  -0.449  -5.570  0.00  0.00    -0.019 A 
ATOM      3  C   LIG d   1       4.932  -0.933  -6.695  0.00  0.00    -0.047 A 
ATOM      4  C   LIG d   1       4.606  -2.289  -6.779  0.00  0.00     0.025 A 
ATOM      5  C   LIG d   1       3.950  -2.837  -7.978  0.00  0.00    -0.001 A 
ATOM      6  C   LIG d   1       3.656  -4.188  -7.993  0.00  0.00     0.031 A 
ATOM      7  C   LIG d   1       3.988  -4.981  -6.882  0.00  0.00     0.338 A 
ATOM      8  O   LIG d   1       3.725  -6.170  -6.903  0.00  0.00    -0.245 OA
ATOM      9  O   LIG d   1       4.586  -4.464  -5.797  0.00  0.00    -0.422 OA
ATOM     10  C   LIG d   1       4.903  -3.154  -5.712  0.00  0.00     0.143 A 
ATOM     11  C   LIG d   1       5.521  -2.648  -4.578  0.00  0.00     0.023 A 
ATOM     12  H   LIG d   1       5.785   0.600  -5.503  0.00  0.00     0.065 H 
ATOM     13  H   LIG d   1       4.704  -0.269  -7.515  0.00  0.00     0.063 H 
ATOM     14  H   LIG d   1       3.176  -4.630  -8.853  0.00  0.00     0.070 H 
ATOM     15  H   LIG d   1       5.754  -3.302  -3.751  0.00  0.00     0.069 H 
ENDROOT
BRANCH   1  16
ATOM     16  O   LIG d   1       6.443  -0.808  -3.400  0.00  0.00    -0.492 OA
BRANCH  16  17
ATOM     17  C   LIG d   1       5.776   0.255  -2.715  0.00  0.00     0.090 C 
ATOM     18  H   LIG d   1       5.396   0.973  -3.441  0.00  0.00     0.070 H 
ATOM     19  H   LIG d   1       6.476   0.752  -2.045  0.00  0.00     0.070 H 
BRANCH  17  20
ATOM     20  C   LIG d   1       4.610  -0.315  -1.904  0.00  0.00    -0.016 C 
ATOM     21  H   LIG d   1       4.549  -1.392  -2.062  0.00  0.00     0.030 H 
ATOM     22  H   LIG d   1       4.771  -0.112  -0.845  0.00  0.00     0.030 H 
BRANCH  20  23
ATOM     23  C   LIG d   1       3.305   0.342  -2.357  0.00  0.00    -0.044 C 
ATOM     24  H   LIG d   1       2.680   0.548  -1.488  0.00  0.00     0.030 H 
BRANCH  23  25
ATOM     25  C   LIG d   1       3.618   1.652  -3.082  0.00  0.00    -0.063 C 
ATOM     26  H   LIG d   1       4.329   1.462  -3.886  0.00  0.00     0.023 H 
ATOM     27  H   LIG d   1       2.700   2.066  -3.500  0.00  0.00     0.023 H 
ATOM     28  H   LIG d   1       4.049   2.363  -2.377  0.00  0.00     0.023 H 
ENDBRANCH  23  25
BRANCH  23  29
ATOM     29  C   LIG d   1       2.563  -0.601  -3.307  0.00  0.00    -0.063 C 
ATOM     30  H   LIG d   1       1.810  -1.159  -2.750  0.00  0.00     0.023 H 
ATOM     31  H   LIG d   1       2.078  -0.020  -4.090  0.00  0.00     0.023 H 
ATOM     32  H   LIG d   1       3.272  -1.297  -3.756  0.00  0.00     0.023 H 
ENDBRANCH  23  29
ENDBRANCH  20  23
ENDBRANCH  17  20
ENDBRANCH  16  17
ENDBRANCH   1  16
BRANCH   5  33
ATOM     33  C   LIG d   1       3.615  -1.970  -9.130  0.00  0.00    -0.017 A 
ATOM     34  C   LIG d   1       2.409  -1.268  -9.151  0.00  0.00    -0.054 A 
ATOM     35  C   LIG d   1       2.104  -0.462 -10.227  0.00  0.00    -0.061 A 
ATOM     36  H   LIG d   1       1.717  -1.357  -8.327  0.00  0.00     0.062 H 
ATOM     37  C   LIG d   1       2.990  -0.347 -11.283  0.00  0.00    -0.062 A 
ATOM     38  H   LIG d   1       1.171   0.082 -10.246  0.00  0.00     0.062 H 
ATOM     39  C   LIG d   1       4.187  -1.041 -11.269  0.00  0.00    -0.061 A 
ATOM     40  H   LIG d   1       2.746   0.286 -12.125  0.00  0.00     0.062 H 
ATOM     41  C   LIG d   1       4.507  -1.847 -10.196  0.00  0.00    -0.054 A 
ATOM     42  H   LIG d   1       4.874  -0.948 -12.097  0.00  0.00     0.062 H 
ATOM     43  H   LIG d   1       5.444  -2.384 -10.183  0.00  0.00     0.062 H 
ENDBRANCH   5  33
TORSDOF 7
ENDMDL
MODEL 3
REMARK VINA RESULT:      -6.4      2.207      7.278
REMARK  7 active torsions:
REMARK  status: ('A' for Active; 'I' for Inactive)
REMARK    1  A    between atoms: C_1  and  C_2 
REMARK    2  A    between atoms: C_2  and  C_3 
REMARK    3  A    between atoms: C_2  and  C_4 
REMARK    4  A    between atoms: C_4  and  C_5 
REMARK    5  A    between atoms: C_5  and  O_6 
REMARK    6  A    between atoms: O_6  and  C_7 
REMARK    7  A    between atoms: C_11  and  C_18 
ROOT
ATOM      1  C   LIG d   1       4.244  -1.277  -8.870  0.00  0.00     0.124 A 
ATOM      2  C   LIG d   1       3.589  -0.874  -7.708  0.00  0.00    -0.019 A 
ATOM      3  C   LIG d   1       4.242  -0.885  -6.509  0.00  0.00    -0.047 A 
ATOM      4  C   LIG d   1       5.577  -1.291  -6.449  0.00  0.00     0.025 A 
ATOM      5  C   LIG d   1       6.308  -1.307  -5.171  0.00  0.00    -0.001 A 
ATOM      6  C   LIG d   1       7.626  -1.721  -5.185  0.00  0.00     0.031 A 
ATOM      7  C   LIG d   1       8.217  -2.107  -6.400  0.00  0.00     0.338 A 
ATOM      8  O   LIG d   1       9.380  -2.470  -6.404  0.00  0.00    -0.245 OA
ATOM      9  O   LIG d   1       7.536  -2.086  -7.557  0.00  0.00    -0.422 OA
ATOM     10  C   LIG d   1       6.246  -1.694  -7.618  0.00  0.00     0.143 A 
ATOM     11  C   LIG d   1       5.566  -1.683  -8.828  0.00  0.00     0.023 A 
ATOM     12  H   LIG d   1       2.558  -0.557  -7.755  0.00  0.00     0.065 H 
ATOM     13  H   LIG d   1       3.729  -0.575  -5.611  0.00  0.00     0.063 H 
ATOM     14  H   LIG d   1       8.197  -1.748  -4.270  0.00  0.00     0.070 H 
ATOM     15  H   LIG d   1       6.069  -1.990  -9.733  0.00  0.00     0.069 H 
ENDROOT
BRANCH   1  16
ATOM     16  O   LIG d   1       3.580  -1.267 -10.055  0.00  0.00    -0.492 OA
BRANCH  16  17
ATOM     17  C   LIG d   1       2.869  -0.074 -10.390  0.00  0.00     0.090 C 
ATOM     18  H   LIG d   1       2.361   0.307  -9.504  0.00  0.00     0.070 H 
ATOM     19  H   LIG d   1       2.133  -0.295 -11.163  0.00  0.00     0.070 H 
BRANCH  17  20
ATOM     20  C   LIG d   1       3.852   0.978 -10.907  0.00  0.00    -0.016 C 
ATOM     21  H   LIG d   1       4.857   0.555 -10.930  0.00  0.00     0.030 H 
ATOM     22  H   LIG d   1       3.563   1.283 -11.913  0.00  0.00     0.030 H 
BRANCH  20  23
ATOM     23  C   LIG d   1       3.832   2.194  -9.979  0.00  0.00    -0.044 C 
ATOM     24  H   LIG d   1       3.724   3.102 -10.572  0.00  0.00     0.030 H 
BRANCH  23  25
ATOM     25  C   LIG d   1       2.653   2.076  -9.010  0.00  0.00    -0.063 C 
ATOM     26  H   LIG d   1       2.922   2.528  -8.055  0.00  0.00     0.023 H 
ATOM     27  H   LIG d   1       1.787   2.592  -9.426  0.00  0.00     0.023 H 
ATOM     28  H   LIG d   1       2.411   1.024  -8.859  0.00  0.00     0.023 H 
ENDBRANCH  23  25
BRANCH  23  29
ATOM     29  C   LIG d   1       5.139   2.254  -9.187  0.00  0.00    -0.063 C 
ATOM     30  H   LIG d   1       5.361   1.268  -8.778  0.00  0.00     0.023 H 
ATOM     31  H   LIG d   1       5.949   2.564  -9.845  0.00  0.00     0.023 H 
ATOM     32  H   LIG d   1       5.038   2.971  -8.372  0.00  0.00     0.023 H 
ENDBRANCH  23  29
ENDBRANCH  20  23
ENDBRANCH  17  20
ENDBRANCH  16  17
ENDBRANCH   1  16
BRANCH   5  33
ATOM     33  C   LIG d   1       5.651  -0.892  -3.911  0.00  0.00    -0.017 A 
ATOM     34  C   LIG d   1       5.728   0.434  -3.485  0.00  0.00    -0.054 A 
ATOM     35  C   LIG d   1       5.113   0.814  -2.310  0.00  0.00    -0.061 A 
ATOM     36  H   LIG d   1       6.267   1.162  -4.074  0.00  0.00     0.062 H 
ATOM     37  C   LIG d   1       4.422  -0.116  -1.555  0.00  0.00    -0.062 A 
ATOM     38  H   LIG d   1       5.171   1.841  -1.978  0.00  0.00     0.062 H 
ATOM     39  C   LIG d   1       4.344  -1.434  -1.971  0.00  0.00    -0.061 A 
ATOM     40  H   LIG d   1       3.943   0.186  -0.634  0.00  0.00     0.062 H 
ATOM     41  C   LIG d   1       4.949  -1.825  -3.147  0.00  0.00    -0.054 A 
ATOM     42  H   LIG d   1       3.803  -2.156  -1.377  0.00  0.00     0.062 H 
ATOM     43  H   LIG d   1       4.882  -2.852  -3.474  0.00  0.00     0.062 H 
ENDBRANCH   5  33
TORSDOF 7
ENDMDL
MODEL 4
REMARK VINA RESULT:      -6.2      5.260      8.077
REMARK  7 active torsions:
REMARK  status: ('A' for Active; 'I' for Inactive)
REMARK    1  A    between atoms: C_1  and  C_2 
REMARK    2  A    between atoms: C_2  and  C_3 
REMARK    3  A    between atoms: C_2  and  C_4 
REMARK    4  A    between atoms: C_4  and  C_5 
REMARK    5  A    between atoms: C_5  and  O_6 
REMARK    6  A    between atoms: O_6  and  C_7 
REMARK    7  A    between atoms: C_11  and  C_18 
ROOT
ATOM      1  C   LIG d   1       6.594  -0.134  -4.526  0.00  0.00     0.124 A 
ATOM      2  C   LIG d   1       6.888   0.800  -3.535  0.00  0.00    -0.019 A 
ATOM      3  C   LIG d   1       7.704   1.861  -3.807  0.00  0.00    -0.047 A 
ATOM      4  C   LIG d   1       8.238   2.016  -5.088  0.00  0.00     0.025 A 
ATOM      5  C   LIG d   1       9.117   3.153  -5.410  0.00  0.00    -0.001 A 
ATOM      6  C   LIG d   1       9.611   3.243  -6.698  0.00  0.00     0.031 A 
ATOM      7  C   LIG d   1       9.264   2.263  -7.643  0.00  0.00     0.338 A 
ATOM      8  O   LIG d   1       9.703   2.350  -8.776  0.00  0.00    -0.245 OA
ATOM      9  O   LIG d   1       8.461   1.233  -7.332  0.00  0.00    -0.422 OA
ATOM     10  C   LIG d   1       7.942   1.080  -6.094  0.00  0.00     0.143 A 
ATOM     11  C   LIG d   1       7.116   0.005  -5.801  0.00  0.00     0.023 A 
ATOM     12  H   LIG d   1       6.472   0.683  -2.546  0.00  0.00     0.065 H 
ATOM     13  H   LIG d   1       7.932   2.580  -3.034  0.00  0.00     0.063 H 
ATOM     14  H   LIG d   1      10.259   4.061  -6.976  0.00  0.00     0.070 H 
ATOM     15  H   LIG d   1       6.881  -0.720  -6.565  0.00  0.00     0.069 H 
ENDROOT
BRANCH   1  16
ATOM     16  O   LIG d   1       5.785  -1.186  -4.241  0.00  0.00    -0.492 OA
BRANCH  16  17
ATOM     17  C   LIG d   1       5.233  -1.242  -2.924  0.00  0.00     0.090 C 
ATOM     18  H   LIG d   1       5.335  -0.268  -2.446  0.00  0.00     0.070 H 
ATOM     19  H   LIG d   1       5.765  -1.991  -2.338  0.00  0.00     0.070 H 
BRANCH  17  20
ATOM     20  C   LIG d   1       3.752  -1.618  -3.007  0.00  0.00    -0.016 C 
ATOM     21  H   LIG d   1       3.561  -2.131  -3.950  0.00  0.00     0.030 H 
ATOM     22  H   LIG d   1       3.497  -2.275  -2.177  0.00  0.00     0.030 H 
BRANCH  20  23
ATOM     23  C   LIG d   1       2.900  -0.349  -2.935  0.00  0.00    -0.044 C 
ATOM     24  H   LIG d   1       1.974  -0.563  -2.402  0.00  0.00     0.030 H 
BRANCH  23  25
ATOM     25  C   LIG d   1       3.674   0.744  -2.195  0.00  0.00    -0.063 C 
ATOM     26  H   LIG d   1       4.494   0.293  -1.637  0.00  0.00     0.023 H 
ATOM     27  H   LIG d   1       4.074   1.457  -2.916  0.00  0.00     0.023 H 
ATOM     28  H   LIG d   1       3.005   1.259  -1.506  0.00  0.00     0.023 H 
ENDBRANCH  23  25
BRANCH  23  29
ATOM     29  C   LIG d   1       2.574   0.128  -4.352  0.00  0.00    -0.063 C 
ATOM     30  H   LIG d   1       3.481   0.500  -4.828  0.00  0.00     0.023 H 
ATOM     31  H   LIG d   1       2.174  -0.703  -4.932  0.00  0.00     0.023 H 
ATOM     32  H   LIG d   1       1.834   0.927  -4.305  0.00  0.00     0.023 H 
ENDBRANCH  23  29
ENDBRANCH  20  23
ENDBRANCH  17  20
ENDBRANCH  16  17
ENDBRANCH   1  16
BRANCH   5  33
ATOM     33  C   LIG d   1       9.461   4.166  -4.388  0.00  0.00    -0.017 A 
ATOM     34  C   LIG d   1       9.167   5.512  -4.610  0.00  0.00    -0.054 A 
ATOM     35  C   LIG d   1       9.490   6.452  -3.653  0.00  0.00    -0.061 A 
ATOM     36  H   LIG d   1       8.689   5.818  -5.529  0.00  0.00     0.062 H 
ATOM     37  C   LIG d   1      10.102   6.062  -2.476  0.00  0.00    -0.062 A 
ATOM     38  H   LIG d   1       9.263   7.494  -3.823  0.00  0.00     0.062 H 
ATOM     39  C   LIG d   1      10.397   4.729  -2.250  0.00  0.00    -0.061 A 
ATOM     40  H   LIG d   1      10.353   6.802  -1.729  0.00  0.00     0.062 H 
ATOM     41  C   LIG d   1      10.074   3.779  -3.196  0.00  0.00    -0.054 A 
ATOM     42  H   LIG d   1      10.876   4.431  -1.329  0.00  0.00     0.062 H 
ATOM     43  H   LIG d   1      10.299   2.738  -3.017  0.00  0.00     0.062 H 
ENDBRANCH   5  33
TORSDOF 7
ENDMDL
MODEL 5
REMARK VINA RESULT:      -6.2      5.614      8.660
REMARK  7 active torsions:
REMARK  status: ('A' for Active; 'I' for Inactive)
REMARK    1  A    between atoms: C_1  and  C_2 
REMARK    2  A    between atoms: C_2  and  C_3 
REMARK    3  A    between atoms: C_2  and  C_4 
REMARK    4  A    between atoms: C_4  and  C_5 
REMARK    5  A    between atoms: C_5  and  O_6 
REMARK    6  A    between atoms: O_6  and  C_7 
REMARK    7  A    between atoms: C_11  and  C_18 
ROOT
ATOM      1  C   LIG d   1       7.299   0.394  -4.943  0.00  0.00     0.124 A 
ATOM      2  C   LIG d   1       7.537   1.100  -3.766  0.00  0.00    -0.019 A 
ATOM      3  C   LIG d   1       8.248   2.266  -3.792  0.00  0.00    -0.047 A 
ATOM      4  C   LIG d   1       8.730   2.759  -5.006  0.00  0.00     0.025 A 
ATOM      5  C   LIG d   1       9.494   4.015  -5.064  0.00  0.00    -0.001 A 
ATOM      6  C   LIG d   1       9.941   4.444  -6.300  0.00  0.00     0.031 A 
ATOM      7  C   LIG d   1       9.656   3.677  -7.443  0.00  0.00     0.338 A 
ATOM      8  O   LIG d   1      10.053   4.062  -8.529  0.00  0.00    -0.245 OA
ATOM      9  O   LIG d   1       8.957   2.534  -7.372  0.00  0.00    -0.422 OA
ATOM     10  C   LIG d   1       8.489   2.054  -6.199  0.00  0.00     0.143 A 
ATOM     11  C   LIG d   1       7.770   0.868  -6.156  0.00  0.00     0.023 A 
ATOM     12  H   LIG d   1       7.161   0.721  -2.827  0.00  0.00     0.065 H 
ATOM     13  H   LIG d   1       8.433   2.807  -2.876  0.00  0.00     0.063 H 
ATOM     14  H   LIG d   1      10.506   5.360  -6.387  0.00  0.00     0.070 H 
ATOM     15  H   LIG d   1       7.579   0.319  -7.065  0.00  0.00     0.069 H 
ENDROOT
BRANCH   1  16
ATOM     16  O   LIG d   1       6.596  -0.767  -4.902  0.00  0.00    -0.492 OA
BRANCH  16  17
ATOM     17  C   LIG d   1       5.280  -0.709  -4.348  0.00  0.00     0.090 C 
ATOM     18  H   LIG d   1       4.571  -1.155  -5.045  0.00  0.00     0.070 H 
ATOM     19  H   LIG d   1       5.007   0.331  -4.168  0.00  0.00     0.070 H 
BRANCH  17  20
ATOM     20  C   LIG d   1       5.250  -1.479  -3.026  0.00  0.00    -0.016 C 
ATOM     21  H   LIG d   1       5.039  -2.530  -3.223  0.00  0.00     0.030 H 
ATOM     22  H   LIG d   1       6.216  -1.388  -2.530  0.00  0.00     0.030 H 
BRANCH  20  23
ATOM     23  C   LIG d   1       4.156  -0.901  -2.125  0.00  0.00    -0.044 C 
ATOM     24  H   LIG d   1       4.071  -1.507  -1.222  0.00  0.00     0.030 H 
BRANCH  23  25
ATOM     25  C   LIG d   1       4.518   0.536  -1.741  0.00  0.00    -0.063 C 
ATOM     26  H   LIG d   1       4.853   0.561  -0.704  0.00  0.00     0.023 H 
ATOM     27  H   LIG d   1       5.317   0.895  -2.390  0.00  0.00     0.023 H 
ATOM     28  H   LIG d   1       3.642   1.174  -1.856  0.00  0.00     0.023 H 
ENDBRANCH  23  25
BRANCH  23  29
ATOM     29  C   LIG d   1       2.822  -0.908  -2.872  0.00  0.00    -0.063 C 
ATOM     30  H   LIG d   1       2.631  -1.907  -3.266  0.00  0.00     0.023 H 
ATOM     31  H   LIG d   1       2.021  -0.629  -2.189  0.00  0.00     0.023 H 
ATOM     32  H   LIG d   1       2.863  -0.195  -3.696  0.00  0.00     0.023 H 
ENDBRANCH  23  29
ENDBRANCH  20  23
ENDBRANCH  17  20
ENDBRANCH  16  17
ENDBRANCH   1  16
BRANCH   5  33
ATOM     33  C   LIG d   1       9.775   4.796  -3.839  0.00  0.00    -0.017 A 
ATOM     34  C   LIG d   1      10.568   4.251  -2.828  0.00  0.00    -0.054 A 
ATOM     35  C   LIG d   1      10.826   4.984  -1.688  0.00  0.00    -0.061 A 
ATOM     36  H   LIG d   1      10.979   3.258  -2.938  0.00  0.00     0.062 H 
ATOM     37  C   LIG d   1      10.301   6.256  -1.546  0.00  0.00    -0.062 A 
ATOM     38  H   LIG d   1      11.440   4.564  -0.905  0.00  0.00     0.062 H 
ATOM     39  C   LIG d   1       9.513   6.801  -2.544  0.00  0.00    -0.061 A 
ATOM     40  H   LIG d   1      10.506   6.826  -0.651  0.00  0.00     0.062 H 
ATOM     41  C   LIG d   1       9.252   6.081  -3.692  0.00  0.00    -0.054 A 
ATOM     42  H   LIG d   1       9.106   7.795  -2.427  0.00  0.00     0.062 H 
ATOM     43  H   LIG d   1       8.642   6.510  -4.473  0.00  0.00     0.062 H 
ENDBRANCH   5  33
TORSDOF 7
ENDMDL
MODEL 6
REMARK VINA RESULT:      -6.0      1.661      7.481
REMARK  7 active torsions:
REMARK  status: ('A' for Active; 'I' for Inactive)
REMARK    1  A    between atoms: C_1  and  C_2 
REMARK    2  A    between atoms: C_2  and  C_3 
REMARK    3  A    between atoms: C_2  and  C_4 
REMARK    4  A    between atoms: C_4  and  C_5 
REMARK    5  A    between atoms: C_5  and  O_6 
REMARK    6  A    between atoms: O_6  and  C_7 
REMARK    7  A    between atoms: C_11  and  C_18 
ROOT
ATOM      1  C   LIG d   1       4.711  -1.012  -9.156  0.00  0.00     0.124 A 
ATOM      2  C   LIG d   1       4.608  -0.000  -8.203  0.00  0.00    -0.019 A 
ATOM      3  C   LIG d   1       4.581  -0.307  -6.872  0.00  0.00    -0.047 A 
ATOM      4  C   LIG d   1       4.669  -1.640  -6.464  0.00  0.00     0.025 A 
ATOM      5  C   LIG d   1       4.648  -1.998  -5.037  0.00  0.00    -0.001 A 
ATOM      6  C   LIG d   1       4.737  -3.337  -4.704  0.00  0.00     0.031 A 
ATOM      7  C   LIG d   1       4.844  -4.297  -5.725  0.00  0.00     0.338 A 
ATOM      8  O   LIG d   1       4.923  -5.475  -5.424  0.00  0.00    -0.245 OA
ATOM      9  O   LIG d   1       4.862  -3.952  -7.022  0.00  0.00    -0.422 OA
ATOM     10  C   LIG d   1       4.778  -2.664  -7.420  0.00  0.00     0.143 A 
ATOM     11  C   LIG d   1       4.798  -2.338  -8.769  0.00  0.00     0.023 A 
ATOM     12  H   LIG d   1       4.544   1.030  -8.518  0.00  0.00     0.065 H 
ATOM     13  H   LIG d   1       4.497   0.480  -6.138  0.00  0.00     0.063 H 
ATOM     14  H   LIG d   1       4.725  -3.642  -3.670  0.00  0.00     0.070 H 
ATOM     15  H   LIG d   1       4.882  -3.116  -9.512  0.00  0.00     0.069 H 
ENDROOT
BRANCH   1  16
ATOM     16  O   LIG d   1       4.731  -0.694 -10.476  0.00  0.00    -0.492 OA
BRANCH  16  17
ATOM     17  C   LIG d   1       3.576  -0.035 -11.002  0.00  0.00     0.090 C 
ATOM     18  H   LIG d   1       3.887   0.814 -11.609  0.00  0.00     0.070 H 
ATOM     19  H   LIG d   1       2.952   0.315 -10.181  0.00  0.00     0.070 H 
BRANCH  17  20
ATOM     20  C   LIG d   1       2.779  -1.016 -11.866  0.00  0.00    -0.016 C 
ATOM     21  H   LIG d   1       2.538  -0.546 -12.819  0.00  0.00     0.030 H 
ATOM     22  H   LIG d   1       3.375  -1.912 -12.042  0.00  0.00     0.030 H 
BRANCH  20  23
ATOM     23  C   LIG d   1       1.486  -1.396 -11.143  0.00  0.00    -0.044 C 
ATOM     24  H   LIG d   1       0.642  -1.281 -11.823  0.00  0.00     0.030 H 
BRANCH  23  25
ATOM     25  C   LIG d   1       1.571  -2.851 -10.678  0.00  0.00    -0.063 C 
ATOM     26  H   LIG d   1       1.947  -2.884  -9.655  0.00  0.00     0.023 H 
ATOM     27  H   LIG d   1       0.579  -3.304 -10.714  0.00  0.00     0.023 H 
ATOM     28  H   LIG d   1       2.246  -3.403 -11.332  0.00  0.00     0.023 H 
ENDBRANCH  23  25
BRANCH  23  29
ATOM     29  C   LIG d   1       1.291  -0.484  -9.930  0.00  0.00    -0.063 C 
ATOM     30  H   LIG d   1       1.373   0.557 -10.242  0.00  0.00     0.023 H 
ATOM     31  H   LIG d   1       0.306  -0.657  -9.500  0.00  0.00     0.023 H 
ATOM     32  H   LIG d   1       2.057  -0.701  -9.185  0.00  0.00     0.023 H 
ENDBRANCH  23  29
ENDBRANCH  20  23
ENDBRANCH  17  20
ENDBRANCH  16  17
ENDBRANCH   1  16
BRANCH   5  33
ATOM     33  C   LIG d   1       4.534  -0.958  -3.990  0.00  0.00    -0.017 A 
ATOM     34  C   LIG d   1       5.672  -0.279  -3.551  0.00  0.00    -0.054 A 
ATOM     35  C   LIG d   1       5.559   0.689  -2.575  0.00  0.00    -0.061 A 
ATOM     36  H   LIG d   1       6.638  -0.511  -3.975  0.00  0.00     0.062 H 
ATOM     37  C   LIG d   1       4.323   0.988  -2.032  0.00  0.00    -0.062 A 
ATOM     38  H   LIG d   1       6.438   1.216  -2.234  0.00  0.00     0.062 H 
ATOM     39  C   LIG d   1       3.191   0.317  -2.462  0.00  0.00    -0.061 A 
ATOM     40  H   LIG d   1       4.239   1.747  -1.268  0.00  0.00     0.062 H 
ATOM     41  C   LIG d   1       3.289  -0.650  -3.441  0.00  0.00    -0.054 A 
ATOM     42  H   LIG d   1       2.228   0.554  -2.033  0.00  0.00     0.062 H 
ATOM     43  H   LIG d   1       2.405  -1.168  -3.780  0.00  0.00     0.062 H 
ENDBRANCH   5  33
TORSDOF 7
ENDMDL
MODEL 7
REMARK VINA RESULT:      -5.9      1.901      3.385
REMARK  7 active torsions:
REMARK  status: ('A' for Active; 'I' for Inactive)
REMARK    1  A    between atoms: C_1  and  C_2 
REMARK    2  A    between atoms: C_2  and  C_3 
REMARK    3  A    between atoms: C_2  and  C_4 
REMARK    4  A    between atoms: C_4  and  C_5 
REMARK    5  A    between atoms: C_5  and  O_6 
REMARK    6  A    between atoms: O_6  and  C_7 
REMARK    7  A    between atoms: C_11  and  C_18 
ROOT
ATOM      1  C   LIG d   1       3.774  -0.334  -6.254  0.00  0.00     0.124 A 
ATOM      2  C   LIG d   1       2.925  -0.023  -7.313  0.00  0.00    -0.019 A 
ATOM      3  C   LIG d   1       2.827  -0.860  -8.388  0.00  0.00    -0.047 A 
ATOM      4  C   LIG d   1       3.574  -2.040  -8.420  0.00  0.00     0.025 A 
ATOM      5  C   LIG d   1       3.484  -2.963  -9.563  0.00  0.00    -0.001 A 
ATOM      6  C   LIG d   1       4.252  -4.111  -9.528  0.00  0.00     0.031 A 
ATOM      7  C   LIG d   1       5.081  -4.356  -8.420  0.00  0.00     0.338 A 
ATOM      8  O   LIG d   1       5.755  -5.371  -8.397  0.00  0.00    -0.245 OA
ATOM      9  O   LIG d   1       5.151  -3.503  -7.386  0.00  0.00    -0.422 OA
ATOM     10  C   LIG d   1       4.430  -2.362  -7.352  0.00  0.00     0.143 A 
ATOM     11  C   LIG d   1       4.522  -1.498  -6.270  0.00  0.00     0.023 A 
ATOM     12  H   LIG d   1       2.344   0.887  -7.287  0.00  0.00     0.065 H 
ATOM     13  H   LIG d   1       2.170  -0.613  -9.208  0.00  0.00     0.063 H 
ATOM     14  H   LIG d   1       4.216  -4.815 -10.346  0.00  0.00     0.070 H 
ATOM     15  H   LIG d   1       5.176  -1.735  -5.444  0.00  0.00     0.069 H 
ENDROOT
BRANCH   1  16
ATOM     16  O   LIG d   1       3.866   0.510  -5.194  0.00  0.00    -0.492 OA
BRANCH  16  17
ATOM     17  C   LIG d   1       2.691   0.684  -4.399  0.00  0.00     0.090 C 
ATOM     18  H   LIG d   1       1.810   0.462  -5.001  0.00  0.00     0.070 H 
ATOM     19  H   LIG d   1       2.640   1.714  -4.047  0.00  0.00     0.070 H 
BRANCH  17  20
ATOM     20  C   LIG d   1       2.742  -0.263  -3.199  0.00  0.00    -0.016 C 
ATOM     21  H   LIG d   1       2.091   0.114  -2.411  0.00  0.00     0.030 H 
ATOM     22  H   LIG d   1       2.408  -1.255  -3.504  0.00  0.00     0.030 H 
BRANCH  20  23
ATOM     23  C   LIG d   1       4.178  -0.347  -2.677  0.00  0.00    -0.044 C 
ATOM     24  H   LIG d   1       4.873  -0.309  -3.516  0.00  0.00     0.030 H 
BRANCH  23  25
ATOM     25  C   LIG d   1       4.449   0.831  -1.738  0.00  0.00    -0.063 C 
ATOM     26  H   LIG d   1       4.838   0.457  -0.791  0.00  0.00     0.023 H 
ATOM     27  H   LIG d   1       5.180   1.499  -2.194  0.00  0.00     0.023 H 
ATOM     28  H   LIG d   1       3.520   1.374  -1.561  0.00  0.00     0.023 H 
ENDBRANCH  23  25
BRANCH  23  29
ATOM     29  C   LIG d   1       4.369  -1.660  -1.916  0.00  0.00    -0.063 C 
ATOM     30  H   LIG d   1       3.706  -2.420  -2.330  0.00  0.00     0.023 H 
ATOM     31  H   LIG d   1       5.402  -1.990  -2.012  0.00  0.00     0.023 H 
ATOM     32  H   LIG d   1       4.133  -1.507  -0.863  0.00  0.00     0.023 H 
ENDBRANCH  23  29
ENDBRANCH  20  23
ENDBRANCH  17  20
ENDBRANCH  16  17
ENDBRANCH   1  16
BRANCH   5  33
ATOM     33  C   LIG d   1       2.599  -2.671 -10.712  0.00  0.00    -0.017 A 
ATOM     34  C   LIG d   1       1.296  -3.170 -10.737  0.00  0.00    -0.054 A 
ATOM     35  C   LIG d   1       0.477  -2.894 -11.812  0.00  0.00    -0.061 A 
ATOM     36  H   LIG d   1       0.931  -3.772  -9.918  0.00  0.00     0.062 H 
ATOM     37  C   LIG d   1       0.943  -2.125 -12.862  0.00  0.00    -0.062 A 
ATOM     38  H   LIG d   1      -0.533  -3.280 -11.834  0.00  0.00     0.062 H 
ATOM     39  C   LIG d   1       2.234  -1.628 -12.844  0.00  0.00    -0.061 A 
ATOM     40  H   LIG d   1       0.297  -1.911 -13.702  0.00  0.00     0.062 H 
ATOM     41  C   LIG d   1       3.063  -1.892 -11.773  0.00  0.00    -0.054 A 
ATOM     42  H   LIG d   1       2.593  -1.028 -13.667  0.00  0.00     0.062 H 
ATOM     43  H   LIG d   1       4.068  -1.498 -11.756  0.00  0.00     0.062 H 
ENDBRANCH   5  33
TORSDOF 7
ENDMDL
MODEL 8
REMARK VINA RESULT:      -5.9      5.634      8.313
REMARK  7 active torsions:
REMARK  status: ('A' for Active; 'I' for Inactive)
REMARK    1  A    between atoms: C_1  and  C_2 
REMARK    2  A    between atoms: C_2  and  C_3 
REMARK    3  A    between atoms: C_2  and  C_4 
REMARK    4  A    between atoms: C_4  and  C_5 
REMARK    5  A    between atoms: C_5  and  O_6 
REMARK    6  A    between atoms: O_6  and  C_7 
REMARK    7  A    between atoms: C_11  and  C_18 
ROOT
ATOM      1  C   LIG d   1       9.361  -4.566  -4.511  0.00  0.00     0.124 A 
ATOM      2  C   LIG d   1       9.216  -3.395  -3.769  0.00  0.00    -0.019 A 
ATOM      3  C   LIG d   1       8.000  -2.780  -3.682  0.00  0.00    -0.047 A 
ATOM      4  C   LIG d   1       6.894  -3.333  -4.331  0.00  0.00     0.025 A 
ATOM      5  C   LIG d   1       5.570  -2.694  -4.250  0.00  0.00    -0.001 A 
ATOM      6  C   LIG d   1       4.520  -3.295  -4.918  0.00  0.00     0.031 A 
ATOM      7  C   LIG d   1       4.747  -4.478  -5.641  0.00  0.00     0.338 A 
ATOM      8  O   LIG d   1       3.816  -5.003  -6.227  0.00  0.00    -0.245 OA
ATOM      9  O   LIG d   1       5.961  -5.048  -5.705  0.00  0.00    -0.422 OA
ATOM     10  C   LIG d   1       7.032  -4.516  -5.078  0.00  0.00     0.143 A 
ATOM     11  C   LIG d   1       8.276  -5.126  -5.161  0.00  0.00     0.023 A 
ATOM     12  H   LIG d   1      10.070  -2.970  -3.263  0.00  0.00     0.065 H 
ATOM     13  H   LIG d   1       7.893  -1.871  -3.108  0.00  0.00     0.063 H 
ATOM     14  H   LIG d   1       3.533  -2.859  -4.884  0.00  0.00     0.070 H 
ATOM     15  H   LIG d   1       8.394  -6.035  -5.731  0.00  0.00     0.069 H 
ENDROOT
BRANCH   1  16
ATOM     16  O   LIG d   1      10.578  -5.164  -4.594  0.00  0.00    -0.492 OA
BRANCH  16  17
ATOM     17  C   LIG d   1      11.356  -5.220  -3.396  0.00  0.00     0.090 C 
ATOM     18  H   LIG d   1      10.904  -4.579  -2.639  0.00  0.00     0.070 H 
ATOM     19  H   LIG d   1      12.369  -4.878  -3.604  0.00  0.00     0.070 H 
BRANCH  17  20
ATOM     20  C   LIG d   1      11.400  -6.662  -2.884  0.00  0.00    -0.016 C 
ATOM     21  H   LIG d   1      11.160  -7.344  -3.700  0.00  0.00     0.030 H 
ATOM     22  H   LIG d   1      12.398  -6.883  -2.506  0.00  0.00     0.030 H 
BRANCH  20  23
ATOM     23  C   LIG d   1      10.377  -6.834  -1.759  0.00  0.00    -0.044 C 
ATOM     24  H   LIG d   1      10.064  -5.854  -1.399  0.00  0.00     0.030 H 
BRANCH  23  25
ATOM     25  C   LIG d   1       9.161  -7.597  -2.288  0.00  0.00    -0.063 C 
ATOM     26  H   LIG d   1       8.530  -6.919  -2.863  0.00  0.00     0.023 H 
ATOM     27  H   LIG d   1       9.494  -8.415  -2.927  0.00  0.00     0.023 H 
ATOM     28  H   LIG d   1       8.592  -7.999  -1.449  0.00  0.00     0.023 H 
ENDBRANCH  23  25
BRANCH  23  29
ATOM     29  C   LIG d   1      11.011  -7.620  -0.609  0.00  0.00    -0.063 C 
ATOM     30  H   LIG d   1      11.503  -8.509  -1.004  0.00  0.00     0.023 H 
ATOM     31  H   LIG d   1      11.745  -6.995  -0.103  0.00  0.00     0.023 H 
ATOM     32  H   LIG d   1      10.237  -7.917   0.098  0.00  0.00     0.023 H 
ENDBRANCH  23  29
ENDBRANCH  20  23
ENDBRANCH  17  20
ENDBRANCH  16  17
ENDBRANCH   1  16
BRANCH   5  33
ATOM     33  C   LIG d   1       5.370  -1.448  -3.477  0.00  0.00    -0.017 A 
ATOM     34  C   LIG d   1       4.547  -1.447  -2.350  0.00  0.00    -0.054 A 
ATOM     35  C   LIG d   1       4.365  -0.282  -1.635  0.00  0.00    -0.061 A 
ATOM     36  H   LIG d   1       4.055  -2.356  -2.039  0.00  0.00     0.062 H 
ATOM     37  C   LIG d   1       4.995   0.883  -2.032  0.00  0.00    -0.062 A 
ATOM     38  H   LIG d   1       3.729  -0.279  -0.761  0.00  0.00     0.062 H 
ATOM     39  C   LIG d   1       5.811   0.890  -3.150  0.00  0.00    -0.061 A 
ATOM     40  H   LIG d   1       4.849   1.794  -1.468  0.00  0.00     0.062 H 
ATOM     41  C   LIG d   1       6.006  -0.270  -3.871  0.00  0.00    -0.054 A 
ATOM     42  H   LIG d   1       6.300   1.803  -3.455  0.00  0.00     0.062 H 
ATOM     43  H   LIG d   1       6.648  -0.266  -4.740  0.00  0.00     0.062 H 
ENDBRANCH   5  33
TORSDOF 7
ENDMDL
MODEL 9
REMARK VINA RESULT:      -5.7      6.449      9.559
REMARK  7 active torsions:
REMARK  status: ('A' for Active; 'I' for Inactive)
REMARK    1  A    between atoms: C_1  and  C_2 
REMARK    2  A    between atoms: C_2  and  C_3 
REMARK    3  A    between atoms: C_2  and  C_4 
REMARK    4  A    between atoms: C_4  and  C_5 
REMARK    5  A    between atoms: C_5  and  O_6 
REMARK    6  A    between atoms: O_6  and  C_7 
REMARK    7  A    between atoms: C_11  and  C_18 
ROOT
ATOM      1  C   LIG d   1       7.969   0.434  -4.705  0.00  0.00     0.124 A 
ATOM      2  C   LIG d   1       7.605   1.562  -3.974  0.00  0.00    -0.019 A 
ATOM      3  C   LIG d   1       8.532   2.519  -3.673  0.00  0.00    -0.047 A 
ATOM      4  C   LIG d   1       9.850   2.371  -4.110  0.00  0.00     0.025 A 
ATOM      5  C   LIG d   1      10.869   3.389  -3.804  0.00  0.00    -0.001 A 
ATOM      6  C   LIG d   1      12.154   3.177  -4.268  0.00  0.00     0.031 A 
ATOM      7  C   LIG d   1      12.441   2.015  -5.004  0.00  0.00     0.338 A 
ATOM      8  O   LIG d   1      13.576   1.836  -5.410  0.00  0.00    -0.245 OA
ATOM      9  O   LIG d   1      11.499   1.097  -5.274  0.00  0.00    -0.422 OA
ATOM     10  C   LIG d   1      10.224   1.237  -4.853  0.00  0.00     0.143 A 
ATOM     11  C   LIG d   1       9.272   0.272  -5.146  0.00  0.00     0.023 A 
ATOM     12  H   LIG d   1       6.585   1.679  -3.639  0.00  0.00     0.065 H 
ATOM     13  H   LIG d   1       8.245   3.390  -3.102  0.00  0.00     0.063 H 
ATOM     14  H   LIG d   1      12.930   3.898  -4.066  0.00  0.00     0.070 H 
ATOM     15  H   LIG d   1       9.546  -0.603  -5.716  0.00  0.00     0.069 H 
ENDROOT
BRANCH   1  16
ATOM     16  O   LIG d   1       7.039  -0.512  -4.993  0.00  0.00    -0.492 OA
BRANCH  16  17
ATOM     17  C   LIG d   1       5.814  -0.462  -4.257  0.00  0.00     0.090 C 
ATOM     18  H   LIG d   1       4.979  -0.665  -4.927  0.00  0.00     0.070 H 
ATOM     19  H   LIG d   1       5.695   0.527  -3.817  0.00  0.00     0.070 H 
BRANCH  17  20
ATOM     20  C   LIG d   1       5.844  -1.514  -3.146  0.00  0.00    -0.016 C 
ATOM     21  H   LIG d   1       5.651  -2.499  -3.574  0.00  0.00     0.030 H 
ATOM     22  H   LIG d   1       6.823  -1.510  -2.668  0.00  0.00     0.030 H 
BRANCH  20  23
ATOM     23  C   LIG d   1       4.767  -1.190  -2.109  0.00  0.00    -0.044 C 
ATOM     24  H   LIG d   1       5.049  -1.617  -1.146  0.00  0.00     0.030 H 
BRANCH  23  25
ATOM     25  C   LIG d   1       4.630   0.328  -1.974  0.00  0.00    -0.063 C 
ATOM     26  H   LIG d   1       3.597   0.579  -1.734  0.00  0.00     0.023 H 
ATOM     27  H   LIG d   1       5.285   0.683  -1.177  0.00  0.00     0.023 H 
ATOM     28  H   LIG d   1       4.912   0.803  -2.914  0.00  0.00     0.023 H 
ENDBRANCH  23  25
BRANCH  23  29
ATOM     29  C   LIG d   1       3.431  -1.784  -2.558  0.00  0.00    -0.063 C 
ATOM     30  H   LIG d   1       2.791  -0.990  -2.943  0.00  0.00     0.023 H 
ATOM     31  H   LIG d   1       3.605  -2.522  -3.340  0.00  0.00     0.023 H 
ATOM     32  H   LIG d   1       2.943  -2.264  -1.709  0.00  0.00     0.023 H 
ENDBRANCH  23  29
ENDBRANCH  20  23
ENDBRANCH  17  20
ENDBRANCH  16  17
ENDBRANCH   1  16
BRANCH   5  33
ATOM     33  C   LIG d   1      10.528   4.600  -3.026  0.00  0.00    -0.017 A 
ATOM     34  C   LIG d   1      10.844   4.673  -1.669  0.00  0.00    -0.054 A 
ATOM     35  C   LIG d   1      10.524   5.806  -0.950  0.00  0.00    -0.061 A 
ATOM     36  H   LIG d   1      11.338   3.844  -1.183  0.00  0.00     0.062 H 
ATOM     37  C   LIG d   1       9.892   6.868  -1.570  0.00  0.00    -0.062 A 
ATOM     38  H   LIG d   1      10.768   5.864   0.101  0.00  0.00     0.062 H 
ATOM     39  C   LIG d   1       9.574   6.801  -2.916  0.00  0.00    -0.061 A 
ATOM     40  H   LIG d   1       9.643   7.753  -1.003  0.00  0.00     0.062 H 
ATOM     41  C   LIG d   1       9.894   5.677  -3.648  0.00  0.00    -0.054 A 
ATOM     42  H   LIG d   1       9.080   7.634  -3.395  0.00  0.00     0.062 H 
ATOM     43  H   LIG d   1       9.651   5.628  -4.699  0.00  0.00     0.062 H 
ENDBRANCH   5  33
TORSDOF 7
ENDMDL
MODEL 10
REMARK VINA RESULT:      -5.6      5.438      8.065
REMARK  7 active torsions:
REMARK  status: ('A' for Active; 'I' for Inactive)
REMARK    1  A    between atoms: C_1  and  C_2 
REMARK    2  A    between atoms: C_2  and  C_3 
REMARK    3  A    between atoms: C_2  and  C_4 
REMARK    4  A    between atoms: C_4  and  C_5 
REMARK    5  A    between atoms: C_5  and  O_6 
REMARK    6  A    between atoms: O_6  and  C_7 
REMARK    7  A    between atoms: C_11  and  C_18 
ROOT
ATOM      1  C   LIG d   1       9.489   1.910  -4.339  0.00  0.00     0.124 A 
ATOM      2  C   LIG d   1       8.234   2.038  -3.747  0.00  0.00    -0.019 A 
ATOM      3  C   LIG d   1       7.321   1.026  -3.841  0.00  0.00    -0.047 A 
ATOM      4  C   LIG d   1       7.651  -0.146  -4.525  0.00  0.00     0.025 A 
ATOM      5  C   LIG d   1       6.689  -1.254  -4.637  0.00  0.00    -0.001 A 
ATOM      6  C   LIG d   1       7.082  -2.384  -5.329  0.00  0.00     0.031 A 
ATOM      7  C   LIG d   1       8.367  -2.438  -5.893  0.00  0.00     0.338 A 
ATOM      8  O   LIG d   1       8.707  -3.438  -6.501  0.00  0.00    -0.245 OA
ATOM      9  O   LIG d   1       9.233  -1.418  -5.781  0.00  0.00    -0.422 OA
ATOM     10  C   LIG d   1       8.917  -0.283  -5.120  0.00  0.00     0.143 A 
ATOM     11  C   LIG d   1       9.832   0.755  -5.021  0.00  0.00     0.023 A 
ATOM     12  H   LIG d   1       7.981   2.942  -3.215  0.00  0.00     0.065 H 
ATOM     13  H   LIG d   1       6.349   1.132  -3.384  0.00  0.00     0.063 H 
ATOM     14  H   LIG d   1       6.406  -3.219  -5.435  0.00  0.00     0.070 H 
ATOM     15  H   LIG d   1      10.808   0.662  -5.474  0.00  0.00     0.069 H 
ENDROOT
BRANCH   1  16
ATOM     16  O   LIG d   1      10.386   2.926  -4.243  0.00  0.00    -0.492 OA
BRANCH  16  17
ATOM     17  C   LIG d   1      10.933   3.187  -2.948  0.00  0.00     0.090 C 
ATOM     18  H   LIG d   1      11.858   2.624  -2.824  0.00  0.00     0.070 H 
ATOM     19  H   LIG d   1      10.218   2.884  -2.184  0.00  0.00     0.070 H 
BRANCH  17  20
ATOM     20  C   LIG d   1      11.223   4.683  -2.810  0.00  0.00    -0.016 C 
ATOM     21  H   LIG d   1      11.900   4.846  -1.971  0.00  0.00     0.030 H 
ATOM     22  H   LIG d   1      11.685   5.050  -3.727  0.00  0.00     0.030 H 
BRANCH  20  23
ATOM     23  C   LIG d   1       9.914   5.436  -2.562  0.00  0.00    -0.044 C 
ATOM     24  H   LIG d   1       9.119   4.721  -2.351  0.00  0.00     0.030 H 
BRANCH  23  25
ATOM     25  C   LIG d   1      10.086   6.375  -1.366  0.00  0.00    -0.063 C 
ATOM     26  H   LIG d   1      11.147   6.559  -1.198  0.00  0.00     0.023 H 
ATOM     27  H   LIG d   1       9.582   7.320  -1.571  0.00  0.00     0.023 H 
ATOM     28  H   LIG d   1       9.650   5.916  -0.479  0.00  0.00     0.023 H 
ENDBRANCH  23  25
BRANCH  23  29
ATOM     29  C   LIG d   1       9.551   6.252  -3.804  0.00  0.00    -0.063 C 
ATOM     30  H   LIG d   1      10.450   6.718  -4.208  0.00  0.00     0.023 H 
ATOM     31  H   LIG d   1       9.114   5.596  -4.555  0.00  0.00     0.023 H 
ATOM     32  H   LIG d   1       8.831   7.024  -3.533  0.00  0.00     0.023 H 
ENDBRANCH  23  29
ENDBRANCH  20  23
ENDBRANCH  17  20
ENDBRANCH  16  17
ENDBRANCH   1  16
BRANCH   5  33
ATOM     33  C   LIG d   1       5.343  -1.161  -4.029  0.00  0.00    -0.017 A 
ATOM     34  C   LIG d   1       4.328  -0.457  -4.678  0.00  0.00    -0.054 A 
ATOM     35  C   LIG d   1       3.076  -0.375  -4.105  0.00  0.00    -0.061 A 
ATOM     36  H   LIG d   1       4.522   0.023  -5.626  0.00  0.00     0.062 H 
ATOM     37  C   LIG d   1       2.825  -0.988  -2.891  0.00  0.00    -0.062 A 
ATOM     38  H   LIG d   1       2.288   0.170  -4.606  0.00  0.00     0.062 H 
ATOM     39  C   LIG d   1       3.828  -1.687  -2.242  0.00  0.00    -0.061 A 
ATOM     40  H   LIG d   1       1.842  -0.920  -2.446  0.00  0.00     0.062 H 
ATOM     41  C   LIG d   1       5.083  -1.782  -2.806  0.00  0.00    -0.054 A 
ATOM     42  H   LIG d   1       3.626  -2.163  -1.294  0.00  0.00     0.062 H 
ATOM     43  H   LIG d   1       5.863  -2.332  -2.302  0.00  0.00     0.062 H 
ENDBRANCH   5  33
TORSDOF 7
ENDMDL
