MODEL 1
REMARK VINA RESULT:      -7.0      0.000      0.000
REMARK  8 active torsions:
REMARK  status: ('A' for Active; 'I' for Inactive)
REMARK    1  A    between atoms: C_1  and  O_2 
REMARK    2  A    between atoms: O_2  and  C_3 
REMARK    3  A    between atoms: C_6  and  C_9 
REMARK    4  A    between atoms: C_14  and  C_15 
REMARK    5  A    between atoms: C_18  and  O_22 
REMARK    6  A    between atoms: C_20  and  O_21 
REMARK    7  A    between atoms: O_22  and  C_23 
REMARK    8  A    between atoms: C_23  and  C_24 
ROOT
ATOM      1  C   LIG d   1      11.154   3.769  -4.410  0.00  0.00     0.043 A 
ATOM      2  C   LIG d   1      10.184   4.259  -5.285  0.00  0.00    -0.046 A 
ATOM      3  C   LIG d   1       8.927   3.696  -5.305  0.00  0.00    -0.019 A 
ATOM      4  C   LIG d   1       8.621   2.640  -4.454  0.00  0.00     0.124 A 
ATOM      5  C   LIG d   1       9.579   2.146  -3.581  0.00  0.00     0.022 A 
ATOM      6  C   LIG d   1      10.846   2.701  -3.558  0.00  0.00     0.130 A 
ATOM      7  H   LIG d   1      10.419   5.079  -5.948  0.00  0.00     0.063 H 
ATOM      8  H   LIG d   1       8.177   4.076  -5.982  0.00  0.00     0.065 H 
ATOM      9  H   LIG d   1       9.336   1.326  -2.921  0.00  0.00     0.069 H 
ENDROOT
BRANCH   1  10
ATOM     10  C   LIG d   1      12.505   4.371  -4.387  0.00  0.00     0.085 A 
ATOM     11  C   LIG d   1      12.752   5.551  -3.655  0.00  0.00     0.026 A 
ATOM     12  C   LIG d   1      14.046   6.072  -3.670  0.00  0.00     0.039 A 
ATOM     13  N   LIG d   1      14.983   5.446  -4.364  0.00  0.00    -0.243 NA
ATOM     14  H   LIG d   1      14.279   6.974  -3.124  0.00  0.00     0.084 H 
ATOM     15  C   LIG d   1      14.713   4.344  -5.037  0.00  0.00     0.117 A 
ATOM     16  N   LIG d   1      13.509   3.814  -5.061  0.00  0.00    -0.235 NA
ATOM     17  H   LIG d   1      15.507   3.864  -5.591  0.00  0.00     0.105 H 
BRANCH  11  18
ATOM     18  C   LIG d   1      11.670   6.216  -2.893  0.00  0.00    -0.014 A 
ATOM     19  C   LIG d   1      11.326   5.757  -1.622  0.00  0.00    -0.051 A 
ATOM     20  C   LIG d   1      10.319   6.379  -0.915  0.00  0.00    -0.019 A 
ATOM     21  H   LIG d   1      11.848   4.915  -1.192  0.00  0.00     0.062 H 
ATOM     22  C   LIG d   1       9.647   7.462  -1.467  0.00  0.00     0.120 A 
ATOM     23  H   LIG d   1      10.051   6.023   0.069  0.00  0.00     0.065 H 
ATOM     24  C   LIG d   1       9.988   7.922  -2.731  0.00  0.00    -0.019 A 
ATOM     25  C   LIG d   1      10.998   7.308  -3.442  0.00  0.00    -0.051 A 
ATOM     26  H   LIG d   1       9.463   8.764  -3.159  0.00  0.00     0.065 H 
ATOM     27  H   LIG d   1      11.266   7.669  -4.424  0.00  0.00     0.062 H 
BRANCH  22  28
ATOM     28  O   LIG d   1       8.655   8.073  -0.767  0.00  0.00    -0.495 OA
BRANCH  28  29
ATOM     29  C   LIG d   1       8.668   9.502  -0.736  0.00  0.00     0.079 C 
ATOM     30  H   LIG d   1       7.697   9.880  -1.055  0.00  0.00     0.066 H 
ATOM     31  H   LIG d   1       8.877   9.841   0.278  0.00  0.00     0.066 H 
ATOM     32  H   LIG d   1       9.442   9.871  -1.410  0.00  0.00     0.066 H 
ENDBRANCH  28  29
ENDBRANCH  22  28
ENDBRANCH  11  18
ENDBRANCH   1  10
BRANCH   6  33
ATOM     33  O   LIG d   1      11.787   2.216  -2.707  0.00  0.00    -0.506 OA
ATOM     34  H   LIG d   1      12.480   2.852  -2.482  0.00  0.00     0.292 HD
ENDBRANCH   6  33
BRANCH   4  35
ATOM     35  O   LIG d   1       7.379   2.090  -4.478  0.00  0.00    -0.487 OA
BRANCH  35  36
ATOM     36  C   LIG d   1       7.301   0.663  -4.477  0.00  0.00     0.115 C 
ATOM     37  H   LIG d   1       7.054   0.313  -5.480  0.00  0.00     0.075 H 
ATOM     38  H   LIG d   1       8.262   0.246  -4.174  0.00  0.00     0.075 H 
BRANCH  36  39
ATOM     39  C   LIG d   1       6.233   0.219  -3.512  0.00  0.00    -0.010 A 
ATOM     40  C   LIG d   1       5.947  -1.126  -3.367  0.00  0.00    -0.055 A 
ATOM     41  C   LIG d   1       4.968  -1.534  -2.483  0.00  0.00    -0.061 A 
ATOM     42  H   LIG d   1       6.491  -1.858  -3.947  0.00  0.00     0.062 H 
ATOM     43  C   LIG d   1       4.272  -0.597  -1.741  0.00  0.00    -0.062 A 
ATOM     44  H   LIG d   1       4.745  -2.585  -2.370  0.00  0.00     0.062 H 
ATOM     45  C   LIG d   1       4.558   0.748  -1.885  0.00  0.00    -0.061 A 
ATOM     46  H   LIG d   1       3.506  -0.915  -1.050  0.00  0.00     0.062 H 
ATOM     47  C   LIG d   1       5.541   1.156  -2.767  0.00  0.00    -0.055 A 
ATOM     48  H   LIG d   1       4.014   1.480  -1.307  0.00  0.00     0.062 H 
ATOM     49  H   LIG d   1       5.767   2.206  -2.876  0.00  0.00     0.062 H 
ENDBRANCH  36  39
ENDBRANCH  35  36
ENDBRANCH   4  35
TORSDOF 8
ENDMDL
MODEL 2
REMARK VINA RESULT:      -6.9      7.328     10.523
REMARK  8 active torsions:
REMARK  status: ('A' for Active; 'I' for Inactive)
REMARK    1  A    between atoms: C_1  and  O_2 
REMARK    2  A    between atoms: O_2  and  C_3 
REMARK    3  A    between atoms: C_6  and  C_9 
REMARK    4  A    between atoms: C_14  and  C_15 
REMARK    5  A    between atoms: C_18  and  O_22 
REMARK    6  A    between atoms: C_20  and  O_21 
REMARK    7  A    between atoms: O_22  and  C_23 
REMARK    8  A    between atoms: C_23  and  C_24 
ROOT
ATOM      1  C   LIG d   1       5.082  -4.212  -7.612  0.00  0.00     0.043 A 
ATOM      2  C   LIG d   1       6.340  -3.610  -7.555  0.00  0.00    -0.046 A 
ATOM      3  C   LIG d   1       6.877  -3.251  -6.338  0.00  0.00    -0.019 A 
ATOM      4  C   LIG d   1       6.170  -3.488  -5.165  0.00  0.00     0.124 A 
ATOM      5  C   LIG d   1       4.920  -4.086  -5.212  0.00  0.00     0.022 A 
ATOM      6  C   LIG d   1       4.369  -4.444  -6.429  0.00  0.00     0.130 A 
ATOM      7  H   LIG d   1       6.891  -3.424  -8.465  0.00  0.00     0.063 H 
ATOM      8  H   LIG d   1       7.850  -2.786  -6.295  0.00  0.00     0.065 H 
ATOM      9  H   LIG d   1       4.374  -4.268  -4.297  0.00  0.00     0.069 H 
ENDROOT
BRANCH   1  10
ATOM     10  C   LIG d   1       4.503  -4.598  -8.917  0.00  0.00     0.085 A 
ATOM     11  C   LIG d   1       3.944  -3.625  -9.770  0.00  0.00     0.026 A 
ATOM     12  C   LIG d   1       3.413  -4.049 -10.988  0.00  0.00     0.039 A 
ATOM     13  N   LIG d   1       3.453  -5.336 -11.294  0.00  0.00    -0.243 NA
ATOM     14  H   LIG d   1       2.975  -3.337 -11.672  0.00  0.00     0.084 H 
ATOM     15  C   LIG d   1       3.984  -6.218 -10.469  0.00  0.00     0.117 A 
ATOM     16  N   LIG d   1       4.494  -5.872  -9.305  0.00  0.00    -0.235 NA
ATOM     17  H   LIG d   1       3.997  -7.259 -10.756  0.00  0.00     0.105 H 
BRANCH  11  18
ATOM     18  C   LIG d   1       3.922  -2.194  -9.384  0.00  0.00    -0.014 A 
ATOM     19  C   LIG d   1       4.953  -1.346  -9.787  0.00  0.00    -0.051 A 
ATOM     20  C   LIG d   1       4.929  -0.015  -9.427  0.00  0.00    -0.019 A 
ATOM     21  H   LIG d   1       5.770  -1.731 -10.380  0.00  0.00     0.062 H 
ATOM     22  C   LIG d   1       3.880   0.481  -8.664  0.00  0.00     0.120 A 
ATOM     23  H   LIG d   1       5.728   0.642  -9.737  0.00  0.00     0.065 H 
ATOM     24  C   LIG d   1       2.851  -0.361  -8.263  0.00  0.00    -0.019 A 
ATOM     25  C   LIG d   1       2.866  -1.692  -8.625  0.00  0.00    -0.051 A 
ATOM     26  H   LIG d   1       2.036   0.027  -7.670  0.00  0.00     0.065 H 
ATOM     27  H   LIG d   1       2.064  -2.345  -8.316  0.00  0.00     0.062 H 
BRANCH  22  28
ATOM     28  O   LIG d   1       3.859   1.793  -8.312  0.00  0.00    -0.495 OA
BRANCH  28  29
ATOM     29  C   LIG d   1       4.050   2.749  -9.357  0.00  0.00     0.079 C 
ATOM     30  H   LIG d   1       4.207   3.735  -8.922  0.00  0.00     0.066 H 
ATOM     31  H   LIG d   1       4.920   2.469  -9.951  0.00  0.00     0.066 H 
ATOM     32  H   LIG d   1       3.165   2.769  -9.994  0.00  0.00     0.066 H 
ENDBRANCH  28  29
ENDBRANCH  22  28
ENDBRANCH  11  18
ENDBRANCH   1  10
BRANCH   6  33
ATOM     33  O   LIG d   1       3.142  -5.025  -6.478  0.00  0.00    -0.506 OA
ATOM     34  H   LIG d   1       2.419  -4.441  -6.217  0.00  0.00     0.292 HD
ENDBRANCH   6  33
BRANCH   4  35
ATOM     35  O   LIG d   1       6.706  -3.133  -3.968  0.00  0.00    -0.487 OA
BRANCH  35  36
ATOM     36  C   LIG d   1       7.220  -1.805  -3.856  0.00  0.00     0.115 C 
ATOM     37  H   LIG d   1       8.133  -1.817  -3.259  0.00  0.00     0.075 H 
ATOM     38  H   LIG d   1       7.442  -1.416  -4.850  0.00  0.00     0.075 H 
BRANCH  36  39
ATOM     39  C   LIG d   1       6.196  -0.924  -3.189  0.00  0.00    -0.010 A 
ATOM     40  C   LIG d   1       5.172  -1.489  -2.452  0.00  0.00    -0.055 A 
ATOM     41  C   LIG d   1       4.233  -0.681  -1.841  0.00  0.00    -0.061 A 
ATOM     42  H   LIG d   1       5.107  -2.563  -2.356  0.00  0.00     0.062 H 
ATOM     43  C   LIG d   1       4.318   0.694  -1.965  0.00  0.00    -0.062 A 
ATOM     44  H   LIG d   1       3.433  -1.123  -1.265  0.00  0.00     0.062 H 
ATOM     45  C   LIG d   1       5.342   1.259  -2.700  0.00  0.00    -0.061 A 
ATOM     46  H   LIG d   1       3.583   1.325  -1.487  0.00  0.00     0.062 H 
ATOM     47  C   LIG d   1       6.284   0.451  -3.309  0.00  0.00    -0.055 A 
ATOM     48  H   LIG d   1       5.407   2.333  -2.798  0.00  0.00     0.062 H 
ATOM     49  H   LIG d   1       7.086   0.893  -3.880  0.00  0.00     0.062 H 
ENDBRANCH  36  39
ENDBRANCH  35  36
ENDBRANCH   4  35
TORSDOF 8
ENDMDL
MODEL 3
REMARK VINA RESULT:      -6.6      6.406      9.405
REMARK  8 active torsions:
REMARK  status: ('A' for Active; 'I' for Inactive)
REMARK    1  A    between atoms: C_1  and  O_2 
REMARK    2  A    between atoms: O_2  and  C_3 
REMARK    3  A    between atoms: C_6  and  C_9 
REMARK    4  A    between atoms: C_14  and  C_15 
REMARK    5  A    between atoms: C_18  and  O_22 
REMARK    6  A    between atoms: C_20  and  O_21 
REMARK    7  A    between atoms: O_22  and  C_23 
REMARK    8  A    between atoms: C_23  and  C_24 
ROOT
ATOM      1  C   LIG d   1       3.787   0.092  -9.512  0.00  0.00     0.043 A 
ATOM      2  C   LIG d   1       3.683  -0.848  -8.486  0.00  0.00    -0.046 A 
ATOM      3  C   LIG d   1       3.277  -0.455  -7.230  0.00  0.00    -0.019 A 
ATOM      4  C   LIG d   1       2.968   0.878  -6.980  0.00  0.00     0.124 A 
ATOM      5  C   LIG d   1       3.068   1.819  -7.993  0.00  0.00     0.022 A 
ATOM      6  C   LIG d   1       3.482   1.436  -9.257  0.00  0.00     0.130 A 
ATOM      7  H   LIG d   1       3.923  -1.884  -8.677  0.00  0.00     0.063 H 
ATOM      8  H   LIG d   1       3.196  -1.183  -6.437  0.00  0.00     0.065 H 
ATOM      9  H   LIG d   1       2.827   2.854  -7.794  0.00  0.00     0.069 H 
ENDROOT
BRANCH   1  10
ATOM     10  C   LIG d   1       4.224  -0.326 -10.861  0.00  0.00     0.085 A 
ATOM     11  C   LIG d   1       5.584  -0.586 -11.128  0.00  0.00     0.026 A 
ATOM     12  C   LIG d   1       5.935  -0.977 -12.419  0.00  0.00     0.039 A 
ATOM     13  N   LIG d   1       4.988  -1.091 -13.337  0.00  0.00    -0.243 NA
ATOM     14  H   LIG d   1       6.965  -1.186 -12.667  0.00  0.00     0.084 H 
ATOM     15  C   LIG d   1       3.725  -0.839 -13.050  0.00  0.00     0.117 A 
ATOM     16  N   LIG d   1       3.341  -0.460 -11.849  0.00  0.00    -0.235 NA
ATOM     17  H   LIG d   1       2.983  -0.942 -13.828  0.00  0.00     0.105 H 
BRANCH  11  18
ATOM     18  C   LIG d   1       6.609  -0.446 -10.067  0.00  0.00    -0.014 A 
ATOM     19  C   LIG d   1       7.099  -1.577  -9.415  0.00  0.00    -0.051 A 
ATOM     20  C   LIG d   1       8.053  -1.443  -8.429  0.00  0.00    -0.019 A 
ATOM     21  H   LIG d   1       6.731  -2.557  -9.682  0.00  0.00     0.062 H 
ATOM     22  C   LIG d   1       8.527  -0.184  -8.084  0.00  0.00     0.120 A 
ATOM     23  H   LIG d   1       8.432  -2.319  -7.922  0.00  0.00     0.065 H 
ATOM     24  C   LIG d   1       8.042   0.944  -8.733  0.00  0.00    -0.019 A 
ATOM     25  C   LIG d   1       7.091   0.817  -9.724  0.00  0.00    -0.051 A 
ATOM     26  H   LIG d   1       8.411   1.922  -8.463  0.00  0.00     0.065 H 
ATOM     27  H   LIG d   1       6.717   1.694 -10.231  0.00  0.00     0.062 H 
BRANCH  22  28
ATOM     28  O   LIG d   1       9.467  -0.056  -7.113  0.00  0.00    -0.495 OA
BRANCH  28  29
ATOM     29  C   LIG d   1       9.457   1.156  -6.355  0.00  0.00     0.079 C 
ATOM     30  H   LIG d   1       8.737   1.850  -6.790  0.00  0.00     0.066 H 
ATOM     31  H   LIG d   1       9.176   0.938  -5.325  0.00  0.00     0.066 H 
ATOM     32  H   LIG d   1      10.451   1.604  -6.375  0.00  0.00     0.066 H 
ENDBRANCH  28  29
ENDBRANCH  22  28
ENDBRANCH  11  18
ENDBRANCH   1  10
BRANCH   6  33
ATOM     33  O   LIG d   1       3.586   2.357 -10.249  0.00  0.00    -0.506 OA
ATOM     34  H   LIG d   1       2.742   2.600 -10.651  0.00  0.00     0.292 HD
ENDBRANCH   6  33
BRANCH   4  35
ATOM     35  O   LIG d   1       2.567   1.258  -5.740  0.00  0.00    -0.487 OA
BRANCH  35  36
ATOM     36  C   LIG d   1       2.024   0.243  -4.893  0.00  0.00     0.115 C 
ATOM     37  H   LIG d   1       1.039   0.550  -4.542  0.00  0.00     0.075 H 
ATOM     38  H   LIG d   1       1.936  -0.689  -5.453  0.00  0.00     0.075 H 
BRANCH  36  39
ATOM     39  C   LIG d   1       2.935   0.034  -3.711  0.00  0.00    -0.010 A 
ATOM     40  C   LIG d   1       3.223  -1.246  -3.277  0.00  0.00    -0.055 A 
ATOM     41  C   LIG d   1       4.059  -1.437  -2.193  0.00  0.00    -0.061 A 
ATOM     42  H   LIG d   1       2.794  -2.097  -3.785  0.00  0.00     0.062 H 
ATOM     43  C   LIG d   1       4.608  -0.347  -1.543  0.00  0.00    -0.062 A 
ATOM     44  H   LIG d   1       4.283  -2.437  -1.853  0.00  0.00     0.062 H 
ATOM     45  C   LIG d   1       4.321   0.933  -1.978  0.00  0.00    -0.061 A 
ATOM     46  H   LIG d   1       5.260  -0.496  -0.695  0.00  0.00     0.062 H 
ATOM     47  C   LIG d   1       3.489   1.124  -3.065  0.00  0.00    -0.055 A 
ATOM     48  H   LIG d   1       4.749   1.785  -1.469  0.00  0.00     0.062 H 
ATOM     49  H   LIG d   1       3.268   2.124  -3.407  0.00  0.00     0.062 H 
ENDBRANCH  36  39
ENDBRANCH  35  36
ENDBRANCH   4  35
TORSDOF 8
ENDMDL
MODEL 4
REMARK VINA RESULT:      -6.6      6.449      8.909
REMARK  8 active torsions:
REMARK  status: ('A' for Active; 'I' for Inactive)
REMARK    1  A    between atoms: C_1  and  O_2 
REMARK    2  A    between atoms: O_2  and  C_3 
REMARK    3  A    between atoms: C_6  and  C_9 
REMARK    4  A    between atoms: C_14  and  C_15 
REMARK    5  A    between atoms: C_18  and  O_22 
REMARK    6  A    between atoms: C_20  and  O_21 
REMARK    7  A    between atoms: O_22  and  C_23 
REMARK    8  A    between atoms: C_23  and  C_24 
ROOT
ATOM      1  C   LIG d   1       6.618  -3.592  -6.285  0.00  0.00     0.043 A 
ATOM      2  C   LIG d   1       6.965  -2.631  -7.235  0.00  0.00    -0.046 A 
ATOM      3  C   LIG d   1       6.051  -2.245  -8.190  0.00  0.00    -0.019 A 
ATOM      4  C   LIG d   1       4.780  -2.809  -8.210  0.00  0.00     0.124 A 
ATOM      5  C   LIG d   1       4.426  -3.765  -7.270  0.00  0.00     0.022 A 
ATOM      6  C   LIG d   1       5.340  -4.165  -6.310  0.00  0.00     0.130 A 
ATOM      7  H   LIG d   1       7.951  -2.190  -7.222  0.00  0.00     0.063 H 
ATOM      8  H   LIG d   1       6.320  -1.501  -8.924  0.00  0.00     0.065 H 
ATOM      9  H   LIG d   1       3.438  -4.202  -7.289  0.00  0.00     0.069 H 
ENDROOT
BRANCH   1  10
ATOM     10  C   LIG d   1       7.598  -4.008  -5.259  0.00  0.00     0.085 A 
ATOM     11  C   LIG d   1       7.790  -3.237  -4.094  0.00  0.00     0.026 A 
ATOM     12  C   LIG d   1       8.727  -3.680  -3.162  0.00  0.00     0.039 A 
ATOM     13  N   LIG d   1       9.395  -4.797  -3.402  0.00  0.00    -0.243 NA
ATOM     14  H   LIG d   1       8.906  -3.120  -2.256  0.00  0.00     0.084 H 
ATOM     15  C   LIG d   1       9.189  -5.493  -4.504  0.00  0.00     0.117 A 
ATOM     16  N   LIG d   1       8.320  -5.116  -5.419  0.00  0.00    -0.235 NA
ATOM     17  H   LIG d   1       9.755  -6.398  -4.663  0.00  0.00     0.105 H 
BRANCH  11  18
ATOM     18  C   LIG d   1       7.018  -1.992  -3.868  0.00  0.00    -0.014 A 
ATOM     19  C   LIG d   1       7.573  -0.756  -4.197  0.00  0.00    -0.051 A 
ATOM     20  C   LIG d   1       6.851   0.400  -3.986  0.00  0.00    -0.019 A 
ATOM     21  H   LIG d   1       8.567  -0.704  -4.616  0.00  0.00     0.062 H 
ATOM     22  C   LIG d   1       5.573   0.334  -3.447  0.00  0.00     0.120 A 
ATOM     23  H   LIG d   1       7.282   1.358  -4.239  0.00  0.00     0.065 H 
ATOM     24  C   LIG d   1       5.018  -0.895  -3.119  0.00  0.00    -0.019 A 
ATOM     25  C   LIG d   1       5.732  -2.056  -3.333  0.00  0.00    -0.051 A 
ATOM     26  H   LIG d   1       4.023  -0.943  -2.700  0.00  0.00     0.065 H 
ATOM     27  H   LIG d   1       5.297  -3.012  -3.082  0.00  0.00     0.062 H 
BRANCH  22  28
ATOM     28  O   LIG d   1       4.865   1.475  -3.241  0.00  0.00    -0.495 OA
BRANCH  28  29
ATOM     29  C   LIG d   1       3.717   1.383  -2.394  0.00  0.00     0.079 C 
ATOM     30  H   LIG d   1       2.814   1.445  -3.000  0.00  0.00     0.066 H 
ATOM     31  H   LIG d   1       3.734   0.432  -1.862  0.00  0.00     0.066 H 
ATOM     32  H   LIG d   1       3.731   2.202  -1.675  0.00  0.00     0.066 H 
ENDBRANCH  28  29
ENDBRANCH  22  28
ENDBRANCH  11  18
ENDBRANCH   1  10
BRANCH   6  33
ATOM     33  O   LIG d   1       4.997  -5.104  -5.392  0.00  0.00    -0.506 OA
ATOM     34  H   LIG d   1       5.195  -4.854  -4.479  0.00  0.00     0.292 HD
ENDBRANCH   6  33
BRANCH   4  35
ATOM     35  O   LIG d   1       3.883  -2.424  -9.153  0.00  0.00    -0.487 OA
BRANCH  35  36
ATOM     36  C   LIG d   1       2.809  -1.584  -8.724  0.00  0.00     0.115 C 
ATOM     37  H   LIG d   1       1.881  -1.912  -9.193  0.00  0.00     0.075 H 
ATOM     38  H   LIG d   1       2.710  -1.648  -7.640  0.00  0.00     0.075 H 
BRANCH  36  39
ATOM     39  C   LIG d   1       3.095  -0.159  -9.120  0.00  0.00    -0.010 A 
ATOM     40  C   LIG d   1       3.609   0.121 -10.372  0.00  0.00    -0.055 A 
ATOM     41  C   LIG d   1       3.871   1.428 -10.736  0.00  0.00    -0.061 A 
ATOM     42  H   LIG d   1       3.805  -0.683 -11.067  0.00  0.00     0.062 H 
ATOM     43  C   LIG d   1       3.620   2.456  -9.847  0.00  0.00    -0.062 A 
ATOM     44  H   LIG d   1       4.272   1.646 -11.715  0.00  0.00     0.062 H 
ATOM     45  C   LIG d   1       3.106   2.177  -8.595  0.00  0.00    -0.061 A 
ATOM     46  H   LIG d   1       3.826   3.478 -10.130  0.00  0.00     0.062 H 
ATOM     47  C   LIG d   1       2.839   0.870  -8.232  0.00  0.00    -0.055 A 
ATOM     48  H   LIG d   1       2.911   2.980  -7.900  0.00  0.00     0.062 H 
ATOM     49  H   LIG d   1       2.434   0.652  -7.256  0.00  0.00     0.062 H 
ENDBRANCH  36  39
ENDBRANCH  35  36
ENDBRANCH   4  35
TORSDOF 8
ENDMDL
MODEL 5
REMARK VINA RESULT:      -6.6      8.054     11.378
REMARK  8 active torsions:
REMARK  status: ('A' for Active; 'I' for Inactive)
REMARK    1  A    between atoms: C_1  and  O_2 
REMARK    2  A    between atoms: O_2  and  C_3 
REMARK    3  A    between atoms: C_6  and  C_9 
REMARK    4  A    between atoms: C_14  and  C_15 
REMARK    5  A    between atoms: C_18  and  O_22 
REMARK    6  A    between atoms: C_20  and  O_21 
REMARK    7  A    between atoms: O_22  and  C_23 
REMARK    8  A    between atoms: C_23  and  C_24 
ROOT
ATOM      1  C   LIG d   1       3.799  -0.466 -10.053  0.00  0.00     0.043 A 
ATOM      2  C   LIG d   1       2.536  -0.577  -9.472  0.00  0.00    -0.046 A 
ATOM      3  C   LIG d   1       2.318  -0.103  -8.198  0.00  0.00    -0.019 A 
ATOM      4  C   LIG d   1       3.356   0.490  -7.487  0.00  0.00     0.124 A 
ATOM      5  C   LIG d   1       4.616   0.605  -8.055  0.00  0.00     0.022 A 
ATOM      6  C   LIG d   1       4.845   0.125  -9.333  0.00  0.00     0.130 A 
ATOM      7  H   LIG d   1       1.727  -1.038 -10.022  0.00  0.00     0.063 H 
ATOM      8  H   LIG d   1       1.340  -0.189  -7.750  0.00  0.00     0.065 H 
ATOM      9  H   LIG d   1       5.419   1.066  -7.499  0.00  0.00     0.069 H 
ENDROOT
BRANCH   1  10
ATOM     10  C   LIG d   1       4.035  -0.975 -11.421  0.00  0.00     0.085 A 
ATOM     11  C   LIG d   1       4.117  -2.361 -11.667  0.00  0.00     0.026 A 
ATOM     12  C   LIG d   1       4.341  -2.781 -12.978  0.00  0.00     0.039 A 
ATOM     13  N   LIG d   1       4.466  -1.873 -13.932  0.00  0.00    -0.243 NA
ATOM     14  H   LIG d   1       4.411  -3.833 -13.212  0.00  0.00     0.084 H 
ATOM     15  C   LIG d   1       4.384  -0.584 -13.663  0.00  0.00     0.117 A 
ATOM     16  N   LIG d   1       4.179  -0.133 -12.443  0.00  0.00    -0.235 NA
ATOM     17  H   LIG d   1       4.492   0.125 -14.471  0.00  0.00     0.105 H 
BRANCH  11  18
ATOM     18  C   LIG d   1       3.971  -3.341 -10.566  0.00  0.00    -0.014 A 
ATOM     19  C   LIG d   1       2.793  -4.077 -10.437  0.00  0.00    -0.051 A 
ATOM     20  C   LIG d   1       2.660  -4.988  -9.411  0.00  0.00    -0.019 A 
ATOM     21  H   LIG d   1       1.986  -3.932 -11.140  0.00  0.00     0.062 H 
ATOM     22  C   LIG d   1       3.697  -5.175  -8.507  0.00  0.00     0.120 A 
ATOM     23  H   LIG d   1       1.747  -5.557  -9.310  0.00  0.00     0.065 H 
ATOM     24  C   LIG d   1       4.871  -4.445  -8.633  0.00  0.00    -0.019 A 
ATOM     25  C   LIG d   1       5.013  -3.535  -9.660  0.00  0.00    -0.051 A 
ATOM     26  H   LIG d   1       5.677  -4.591  -7.928  0.00  0.00     0.065 H 
ATOM     27  H   LIG d   1       5.928  -2.971  -9.760  0.00  0.00     0.062 H 
BRANCH  22  28
ATOM     28  O   LIG d   1       3.563  -6.074  -7.498  0.00  0.00    -0.495 OA
BRANCH  28  29
ATOM     29  C   LIG d   1       4.610  -6.119  -6.525  0.00  0.00     0.079 C 
ATOM     30  H   LIG d   1       5.566  -6.259  -7.028  0.00  0.00     0.066 H 
ATOM     31  H   LIG d   1       4.625  -5.185  -5.965  0.00  0.00     0.066 H 
ATOM     32  H   LIG d   1       4.433  -6.951  -5.842  0.00  0.00     0.066 H 
ENDBRANCH  28  29
ENDBRANCH  22  28
ENDBRANCH  11  18
ENDBRANCH   1  10
BRANCH   6  33
ATOM     33  O   LIG d   1       6.079   0.233  -9.890  0.00  0.00    -0.506 OA
ATOM     34  H   LIG d   1       6.751  -0.318  -9.467  0.00  0.00     0.292 HD
ENDBRANCH   6  33
BRANCH   4  35
ATOM     35  O   LIG d   1       3.135   0.957  -6.231  0.00  0.00    -0.487 OA
BRANCH  35  36
ATOM     36  C   LIG d   1       2.380   0.122  -5.351  0.00  0.00     0.115 C 
ATOM     37  H   LIG d   1       1.397   0.564  -5.186  0.00  0.00     0.075 H 
ATOM     38  H   LIG d   1       2.264  -0.866  -5.798  0.00  0.00     0.075 H 
BRANCH  36  39
ATOM     39  C   LIG d   1       3.101  -0.004  -4.034  0.00  0.00    -0.010 A 
ATOM     40  C   LIG d   1       3.383  -1.254  -3.516  0.00  0.00    -0.055 A 
ATOM     41  C   LIG d   1       4.045  -1.369  -2.308  0.00  0.00    -0.061 A 
ATOM     42  H   LIG d   1       3.085  -2.141  -4.056  0.00  0.00     0.062 H 
ATOM     43  C   LIG d   1       4.426  -0.233  -1.618  0.00  0.00    -0.062 A 
ATOM     44  H   LIG d   1       4.264  -2.346  -1.904  0.00  0.00     0.062 H 
ATOM     45  C   LIG d   1       4.146   1.017  -2.137  0.00  0.00    -0.061 A 
ATOM     46  H   LIG d   1       4.942  -0.323  -0.674  0.00  0.00     0.062 H 
ATOM     47  C   LIG d   1       3.488   1.132  -3.346  0.00  0.00    -0.055 A 
ATOM     48  H   LIG d   1       4.443   1.904  -1.597  0.00  0.00     0.062 H 
ATOM     49  H   LIG d   1       3.272   2.109  -3.753  0.00  0.00     0.062 H 
ENDBRANCH  36  39
ENDBRANCH  35  36
ENDBRANCH   4  35
TORSDOF 8
ENDMDL
MODEL 6
REMARK VINA RESULT:      -6.5      7.870     10.937
REMARK  8 active torsions:
REMARK  status: ('A' for Active; 'I' for Inactive)
REMARK    1  A    between atoms: C_1  and  O_2 
REMARK    2  A    between atoms: O_2  and  C_3 
REMARK    3  A    between atoms: C_6  and  C_9 
REMARK    4  A    between atoms: C_14  and  C_15 
REMARK    5  A    between atoms: C_18  and  O_22 
REMARK    6  A    between atoms: C_20  and  O_21 
REMARK    7  A    between atoms: O_22  and  C_23 
REMARK    8  A    between atoms: C_23  and  C_24 
ROOT
ATOM      1  C   LIG d   1       2.668  -0.568  -9.744  0.00  0.00     0.043 A 
ATOM      2  C   LIG d   1       2.703   0.817  -9.573  0.00  0.00    -0.046 A 
ATOM      3  C   LIG d   1       2.847   1.352  -8.313  0.00  0.00    -0.019 A 
ATOM      4  C   LIG d   1       2.959   0.516  -7.207  0.00  0.00     0.124 A 
ATOM      5  C   LIG d   1       2.925  -0.861  -7.367  0.00  0.00     0.022 A 
ATOM      6  C   LIG d   1       2.775  -1.408  -8.629  0.00  0.00     0.130 A 
ATOM      7  H   LIG d   1       2.616   1.469 -10.431  0.00  0.00     0.063 H 
ATOM      8  H   LIG d   1       2.874   2.423  -8.182  0.00  0.00     0.065 H 
ATOM      9  H   LIG d   1       3.013  -1.506  -6.504  0.00  0.00     0.069 H 
ENDROOT
BRANCH   1  10
ATOM     10  C   LIG d   1       2.514  -1.145 -11.097  0.00  0.00     0.085 A 
ATOM     11  C   LIG d   1       3.639  -1.592 -11.819  0.00  0.00     0.026 A 
ATOM     12  C   LIG d   1       3.430  -2.128 -13.090  0.00  0.00     0.039 A 
ATOM     13  N   LIG d   1       2.197  -2.196 -13.565  0.00  0.00    -0.243 NA
ATOM     14  H   LIG d   1       4.264  -2.482 -13.679  0.00  0.00     0.084 H 
ATOM     15  C   LIG d   1       1.168  -1.767 -12.859  0.00  0.00     0.117 A 
ATOM     16  N   LIG d   1       1.310  -1.248 -11.657  0.00  0.00    -0.235 NA
ATOM     17  H   LIG d   1       0.178  -1.841 -13.283  0.00  0.00     0.105 H 
BRANCH  11  18
ATOM     18  C   LIG d   1       5.001  -1.495 -11.246  0.00  0.00    -0.014 A 
ATOM     19  C   LIG d   1       5.618  -2.627 -10.713  0.00  0.00    -0.051 A 
ATOM     20  C   LIG d   1       6.886  -2.533 -10.180  0.00  0.00    -0.019 A 
ATOM     21  H   LIG d   1       5.101  -3.576 -10.717  0.00  0.00     0.062 H 
ATOM     22  C   LIG d   1       7.550  -1.313 -10.174  0.00  0.00     0.120 A 
ATOM     23  H   LIG d   1       7.363  -3.409  -9.766  0.00  0.00     0.065 H 
ATOM     24  C   LIG d   1       6.940  -0.185 -10.705  0.00  0.00    -0.019 A 
ATOM     25  C   LIG d   1       5.673  -0.273 -11.244  0.00  0.00    -0.051 A 
ATOM     26  H   LIG d   1       7.458   0.763 -10.698  0.00  0.00     0.065 H 
ATOM     27  H   LIG d   1       5.200   0.604 -11.660  0.00  0.00     0.062 H 
BRANCH  22  28
ATOM     28  O   LIG d   1       8.800  -1.225  -9.649  0.00  0.00    -0.495 OA
BRANCH  28  29
ATOM     29  C   LIG d   1       8.911  -0.703  -8.323  0.00  0.00     0.079 C 
ATOM     30  H   LIG d   1       9.901  -0.269  -8.186  0.00  0.00     0.066 H 
ATOM     31  H   LIG d   1       8.152   0.064  -8.170  0.00  0.00     0.066 H 
ATOM     32  H   LIG d   1       8.765  -1.509  -7.603  0.00  0.00     0.066 H 
ENDBRANCH  28  29
ENDBRANCH  22  28
ENDBRANCH  11  18
ENDBRANCH   1  10
BRANCH   6  33
ATOM     33  O   LIG d   1       2.736  -2.756  -8.787  0.00  0.00    -0.506 OA
ATOM     34  H   LIG d   1       2.805  -3.047  -9.706  0.00  0.00     0.292 HD
ENDBRANCH   6  33
BRANCH   4  35
ATOM     35  O   LIG d   1       3.102   1.051  -5.967  0.00  0.00    -0.487 OA
BRANCH  35  36
ATOM     36  C   LIG d   1       2.230   0.563  -4.945  0.00  0.00     0.115 C 
ATOM     37  H   LIG d   1       1.541   1.354  -4.647  0.00  0.00     0.075 H 
ATOM     38  H   LIG d   1       1.663  -0.287  -5.327  0.00  0.00     0.075 H 
BRANCH  36  39
ATOM     39  C   LIG d   1       3.044   0.130  -3.754  0.00  0.00    -0.010 A 
ATOM     40  C   LIG d   1       3.659   1.076  -2.956  0.00  0.00    -0.055 A 
ATOM     41  C   LIG d   1       4.406   0.679  -1.863  0.00  0.00    -0.061 A 
ATOM     42  H   LIG d   1       3.556   2.126  -3.187  0.00  0.00     0.062 H 
ATOM     43  C   LIG d   1       4.537  -0.665  -1.567  0.00  0.00    -0.062 A 
ATOM     44  H   LIG d   1       4.887   1.418  -1.240  0.00  0.00     0.062 H 
ATOM     45  C   LIG d   1       3.921  -1.611  -2.364  0.00  0.00    -0.061 A 
ATOM     46  H   LIG d   1       5.121  -0.976  -0.713  0.00  0.00     0.062 H 
ATOM     47  C   LIG d   1       3.170  -1.214  -3.455  0.00  0.00    -0.055 A 
ATOM     48  H   LIG d   1       4.024  -2.661  -2.133  0.00  0.00     0.062 H 
ATOM     49  H   LIG d   1       2.686  -1.953  -4.075  0.00  0.00     0.062 H 
ENDBRANCH  36  39
ENDBRANCH  35  36
ENDBRANCH   4  35
TORSDOF 8
ENDMDL
MODEL 7
REMARK VINA RESULT:      -6.3      7.377      9.812
REMARK  8 active torsions:
REMARK  status: ('A' for Active; 'I' for Inactive)
REMARK    1  A    between atoms: C_1  and  O_2 
REMARK    2  A    between atoms: O_2  and  C_3 
REMARK    3  A    between atoms: C_6  and  C_9 
REMARK    4  A    between atoms: C_14  and  C_15 
REMARK    5  A    between atoms: C_18  and  O_22 
REMARK    6  A    between atoms: C_20  and  O_21 
REMARK    7  A    between atoms: O_22  and  C_23 
REMARK    8  A    between atoms: C_23  and  C_24 
ROOT
ATOM      1  C   LIG d   1       5.709  -2.368  -7.309  0.00  0.00     0.043 A 
ATOM      2  C   LIG d   1       6.251  -1.099  -7.518  0.00  0.00    -0.046 A 
ATOM      3  C   LIG d   1       5.449  -0.072  -7.963  0.00  0.00    -0.019 A 
ATOM      4  C   LIG d   1       4.098  -0.294  -8.204  0.00  0.00     0.124 A 
ATOM      5  C   LIG d   1       3.550  -1.551  -7.999  0.00  0.00     0.022 A 
ATOM      6  C   LIG d   1       4.349  -2.592  -7.558  0.00  0.00     0.130 A 
ATOM      7  H   LIG d   1       7.301  -0.924  -7.332  0.00  0.00     0.063 H 
ATOM      8  H   LIG d   1       5.869   0.909  -8.125  0.00  0.00     0.065 H 
ATOM      9  H   LIG d   1       2.499  -1.719  -8.188  0.00  0.00     0.069 H 
ENDROOT
BRANCH   1  10
ATOM     10  C   LIG d   1       6.568  -3.473  -6.831  0.00  0.00     0.085 A 
ATOM     11  C   LIG d   1       6.755  -3.691  -5.451  0.00  0.00     0.026 A 
ATOM     12  C   LIG d   1       7.576  -4.749  -5.061  0.00  0.00     0.039 A 
ATOM     13  N   LIG d   1       8.142  -5.500  -5.991  0.00  0.00    -0.243 NA
ATOM     14  H   LIG d   1       7.746  -4.953  -4.014  0.00  0.00     0.084 H 
ATOM     15  C   LIG d   1       7.944  -5.265  -7.274  0.00  0.00     0.117 A 
ATOM     16  N   LIG d   1       7.184  -4.277  -7.696  0.00  0.00    -0.235 NA
ATOM     17  H   LIG d   1       8.426  -5.901  -8.002  0.00  0.00     0.105 H 
BRANCH  11  18
ATOM     18  C   LIG d   1       6.098  -2.823  -4.445  0.00  0.00    -0.014 A 
ATOM     19  C   LIG d   1       6.774  -1.719  -3.927  0.00  0.00    -0.051 A 
ATOM     20  C   LIG d   1       6.160  -0.913  -2.993  0.00  0.00    -0.019 A 
ATOM     21  H   LIG d   1       7.778  -1.496  -4.259  0.00  0.00     0.062 H 
ATOM     22  C   LIG d   1       4.870  -1.199  -2.566  0.00  0.00     0.120 A 
ATOM     23  H   LIG d   1       6.684  -0.058  -2.590  0.00  0.00     0.065 H 
ATOM     24  C   LIG d   1       4.194  -2.297  -3.081  0.00  0.00    -0.019 A 
ATOM     25  C   LIG d   1       4.800  -3.104  -4.021  0.00  0.00    -0.051 A 
ATOM     26  H   LIG d   1       3.191  -2.518  -2.747  0.00  0.00     0.065 H 
ATOM     27  H   LIG d   1       4.272  -3.956  -4.424  0.00  0.00     0.062 H 
BRANCH  22  28
ATOM     28  O   LIG d   1       4.268  -0.402  -1.646  0.00  0.00    -0.495 OA
BRANCH  28  29
ATOM     29  C   LIG d   1       4.555   0.997  -1.711  0.00  0.00     0.079 C 
ATOM     30  H   LIG d   1       5.074   1.304  -0.804  0.00  0.00     0.066 H 
ATOM     31  H   LIG d   1       5.185   1.198  -2.577  0.00  0.00     0.066 H 
ATOM     32  H   LIG d   1       3.622   1.553  -1.802  0.00  0.00     0.066 H 
ENDBRANCH  28  29
ENDBRANCH  22  28
ENDBRANCH  11  18
ENDBRANCH   1  10
BRANCH   6  33
ATOM     33  O   LIG d   1       3.815  -3.825  -7.361  0.00  0.00    -0.506 OA
ATOM     34  H   LIG d   1       3.438  -4.222  -8.157  0.00  0.00     0.292 HD
ENDBRANCH   6  33
BRANCH   4  35
ATOM     35  O   LIG d   1       3.312   0.723  -8.642  0.00  0.00    -0.487 OA
BRANCH  35  36
ATOM     36  C   LIG d   1       3.644   1.302  -9.906  0.00  0.00     0.115 C 
ATOM     37  H   LIG d   1       3.044   2.199 -10.063  0.00  0.00     0.075 H 
ATOM     38  H   LIG d   1       4.702   1.565  -9.919  0.00  0.00     0.075 H 
BRANCH  36  39
ATOM     39  C   LIG d   1       3.359   0.310 -11.003  0.00  0.00    -0.010 A 
ATOM     40  C   LIG d   1       2.145  -0.351 -11.041  0.00  0.00    -0.055 A 
ATOM     41  C   LIG d   1       1.884  -1.261 -12.047  0.00  0.00    -0.061 A 
ATOM     42  H   LIG d   1       1.401  -0.156 -10.282  0.00  0.00     0.062 H 
ATOM     43  C   LIG d   1       2.837  -1.511 -13.018  0.00  0.00    -0.062 A 
ATOM     44  H   LIG d   1       0.936  -1.777 -12.076  0.00  0.00     0.062 H 
ATOM     45  C   LIG d   1       4.049  -0.849 -12.981  0.00  0.00    -0.061 A 
ATOM     46  H   LIG d   1       2.633  -2.222 -13.804  0.00  0.00     0.062 H 
ATOM     47  C   LIG d   1       4.310   0.064 -11.977  0.00  0.00    -0.055 A 
ATOM     48  H   LIG d   1       4.794  -1.045 -13.739  0.00  0.00     0.062 H 
ATOM     49  H   LIG d   1       5.256   0.583 -11.951  0.00  0.00     0.062 H 
ENDBRANCH  36  39
ENDBRANCH  35  36
ENDBRANCH   4  35
TORSDOF 8
ENDMDL
MODEL 8
REMARK VINA RESULT:      -6.2      5.180      7.835
REMARK  8 active torsions:
REMARK  status: ('A' for Active; 'I' for Inactive)
REMARK    1  A    between atoms: C_1  and  O_2 
REMARK    2  A    between atoms: O_2  and  C_3 
REMARK    3  A    between atoms: C_6  and  C_9 
REMARK    4  A    between atoms: C_14  and  C_15 
REMARK    5  A    between atoms: C_18  and  O_22 
REMARK    6  A    between atoms: C_20  and  O_21 
REMARK    7  A    between atoms: O_22  and  C_23 
REMARK    8  A    between atoms: C_23  and  C_24 
ROOT
ATOM      1  C   LIG d   1      10.208  11.505  -2.940  0.00  0.00     0.043 A 
ATOM      2  C   LIG d   1      11.405  11.118  -3.544  0.00  0.00    -0.046 A 
ATOM      3  C   LIG d   1      11.398  10.604  -4.821  0.00  0.00    -0.019 A 
ATOM      4  C   LIG d   1      10.200  10.471  -5.514  0.00  0.00     0.124 A 
ATOM      5  C   LIG d   1       9.005  10.852  -4.922  0.00  0.00     0.022 A 
ATOM      6  C   LIG d   1       9.001  11.364  -3.637  0.00  0.00     0.130 A 
ATOM      7  H   LIG d   1      12.338  11.220  -3.008  0.00  0.00     0.063 H 
ATOM      8  H   LIG d   1      12.325  10.305  -5.287  0.00  0.00     0.065 H 
ATOM      9  H   LIG d   1       8.076  10.747  -5.465  0.00  0.00     0.069 H 
ENDROOT
BRANCH   1  10
ATOM     10  C   LIG d   1      10.213  12.057  -1.568  0.00  0.00     0.085 A 
ATOM     11  C   LIG d   1      10.247  11.199  -0.449  0.00  0.00     0.026 A 
ATOM     12  C   LIG d   1      10.250  11.778   0.820  0.00  0.00     0.039 A 
ATOM     13  N   LIG d   1      10.222  13.097   0.925  0.00  0.00    -0.243 NA
ATOM     14  H   LIG d   1      10.275  11.159   1.704  0.00  0.00     0.084 H 
ATOM     15  C   LIG d   1      10.191  13.868  -0.146  0.00  0.00     0.117 A 
ATOM     16  N   LIG d   1      10.181  13.373  -1.365  0.00  0.00    -0.235 NA
ATOM     17  H   LIG d   1      10.168  14.939  -0.016  0.00  0.00     0.105 H 
BRANCH  11  18
ATOM     18  C   LIG d   1      10.277   9.728  -0.617  0.00  0.00    -0.014 A 
ATOM     19  C   LIG d   1      11.477   9.032  -0.471  0.00  0.00    -0.051 A 
ATOM     20  C   LIG d   1      11.502   7.662  -0.627  0.00  0.00    -0.019 A 
ATOM     21  H   LIG d   1      12.386   9.567  -0.236  0.00  0.00     0.062 H 
ATOM     22  C   LIG d   1      10.334   6.975  -0.930  0.00  0.00     0.120 A 
ATOM     23  H   LIG d   1      12.431   7.124  -0.516  0.00  0.00     0.065 H 
ATOM     24  C   LIG d   1       9.138   7.664  -1.075  0.00  0.00    -0.019 A 
ATOM     25  C   LIG d   1       9.105   9.034  -0.915  0.00  0.00    -0.051 A 
ATOM     26  H   LIG d   1       8.230   7.128  -1.311  0.00  0.00     0.065 H 
ATOM     27  H   LIG d   1       8.173   9.569  -1.023  0.00  0.00     0.062 H 
BRANCH  22  28
ATOM     28  O   LIG d   1      10.362   5.626  -1.083  0.00  0.00    -0.495 OA
BRANCH  28  29
ATOM     29  C   LIG d   1      11.645   5.017  -1.244  0.00  0.00     0.079 C 
ATOM     30  H   LIG d   1      12.421   5.777  -1.153  0.00  0.00     0.066 H 
ATOM     31  H   LIG d   1      11.787   4.259  -0.475  0.00  0.00     0.066 H 
ATOM     32  H   LIG d   1      11.705   4.553  -2.229  0.00  0.00     0.066 H 
ENDBRANCH  28  29
ENDBRANCH  22  28
ENDBRANCH  11  18
ENDBRANCH   1  10
BRANCH   6  33
ATOM     33  O   LIG d   1       7.832  11.734  -3.054  0.00  0.00    -0.506 OA
ATOM     34  H   LIG d   1       7.738  12.687  -2.929  0.00  0.00     0.292 HD
ENDBRANCH   6  33
BRANCH   4  35
ATOM     35  O   LIG d   1      10.199   9.964  -6.774  0.00  0.00    -0.487 OA
BRANCH  35  36
ATOM     36  C   LIG d   1       9.340   8.851  -7.026  0.00  0.00     0.115 C 
ATOM     37  H   LIG d   1       8.328   9.091  -6.697  0.00  0.00     0.075 H 
ATOM     38  H   LIG d   1       9.332   8.632  -8.094  0.00  0.00     0.075 H 
BRANCH  36  39
ATOM     39  C   LIG d   1       9.841   7.647  -6.271  0.00  0.00    -0.010 A 
ATOM     40  C   LIG d   1      11.031   7.047  -6.636  0.00  0.00    -0.055 A 
ATOM     41  C   LIG d   1      11.491   5.944  -5.943  0.00  0.00    -0.061 A 
ATOM     42  H   LIG d   1      11.602   7.442  -7.464  0.00  0.00     0.062 H 
ATOM     43  C   LIG d   1      10.760   5.439  -4.884  0.00  0.00    -0.062 A 
ATOM     44  H   LIG d   1      12.421   5.475  -6.230  0.00  0.00     0.062 H 
ATOM     45  C   LIG d   1       9.571   6.040  -4.517  0.00  0.00    -0.061 A 
ATOM     46  H   LIG d   1      11.119   4.576  -4.342  0.00  0.00     0.062 H 
ATOM     47  C   LIG d   1       9.113   7.146  -5.207  0.00  0.00    -0.055 A 
ATOM     48  H   LIG d   1       8.999   5.645  -3.690  0.00  0.00     0.062 H 
ATOM     49  H   LIG d   1       8.185   7.617  -4.918  0.00  0.00     0.062 H 
ENDBRANCH  36  39
ENDBRANCH  35  36
ENDBRANCH   4  35
TORSDOF 8
ENDMDL
MODEL 9
REMARK VINA RESULT:      -6.2      6.624      9.369
REMARK  8 active torsions:
REMARK  status: ('A' for Active; 'I' for Inactive)
REMARK    1  A    between atoms: C_1  and  O_2 
REMARK    2  A    between atoms: O_2  and  C_3 
REMARK    3  A    between atoms: C_6  and  C_9 
REMARK    4  A    between atoms: C_14  and  C_15 
REMARK    5  A    between atoms: C_18  and  O_22 
REMARK    6  A    between atoms: C_20  and  O_21 
REMARK    7  A    between atoms: O_22  and  C_23 
REMARK    8  A    between atoms: C_23  and  C_24 
ROOT
ATOM      1  C   LIG d   1       4.456  -1.800  -8.457  0.00  0.00     0.043 A 
ATOM      2  C   LIG d   1       5.573  -2.634  -8.398  0.00  0.00    -0.046 A 
ATOM      3  C   LIG d   1       6.121  -2.968  -7.179  0.00  0.00    -0.019 A 
ATOM      4  C   LIG d   1       5.561  -2.477  -6.004  0.00  0.00     0.124 A 
ATOM      5  C   LIG d   1       4.452  -1.647  -6.053  0.00  0.00     0.022 A 
ATOM      6  C   LIG d   1       3.898  -1.301  -7.273  0.00  0.00     0.130 A 
ATOM      7  H   LIG d   1       6.010  -3.016  -9.310  0.00  0.00     0.063 H 
ATOM      8  H   LIG d   1       6.984  -3.613  -7.135  0.00  0.00     0.065 H 
ATOM      9  H   LIG d   1       4.021  -1.268  -5.137  0.00  0.00     0.069 H 
ENDROOT
BRANCH   1  10
ATOM     10  C   LIG d   1       3.867  -1.440  -9.765  0.00  0.00     0.085 A 
ATOM     11  C   LIG d   1       4.431  -0.412 -10.548  0.00  0.00     0.026 A 
ATOM     12  C   LIG d   1       3.831  -0.117 -11.772  0.00  0.00     0.039 A 
ATOM     13  N   LIG d   1       2.767  -0.806 -12.149  0.00  0.00    -0.243 NA
ATOM     14  H   LIG d   1       4.231   0.663 -12.404  0.00  0.00     0.084 H 
ATOM     15  C   LIG d   1       2.266  -1.761 -11.389  0.00  0.00     0.117 A 
ATOM     16  N   LIG d   1       2.790  -2.076 -10.222  0.00  0.00    -0.235 NA
ATOM     17  H   LIG d   1       1.396  -2.300 -11.733  0.00  0.00     0.105 H 
BRANCH  11  18
ATOM     18  C   LIG d   1       5.625   0.333 -10.084  0.00  0.00    -0.014 A 
ATOM     19  C   LIG d   1       6.899  -0.067 -10.488  0.00  0.00    -0.051 A 
ATOM     20  C   LIG d   1       8.007   0.629 -10.054  0.00  0.00    -0.019 A 
ATOM     21  H   LIG d   1       7.016  -0.921 -11.139  0.00  0.00     0.062 H 
ATOM     22  C   LIG d   1       7.858   1.726  -9.216  0.00  0.00     0.120 A 
ATOM     23  H   LIG d   1       8.994   0.318 -10.366  0.00  0.00     0.065 H 
ATOM     24  C   LIG d   1       6.591   2.127  -8.813  0.00  0.00    -0.019 A 
ATOM     25  C   LIG d   1       5.477   1.439  -9.248  0.00  0.00    -0.051 A 
ATOM     26  H   LIG d   1       6.477   2.980  -8.161  0.00  0.00     0.065 H 
ATOM     27  H   LIG d   1       4.492   1.754  -8.937  0.00  0.00     0.062 H 
BRANCH  22  28
ATOM     28  O   LIG d   1       8.952   2.409  -8.792  0.00  0.00    -0.495 OA
BRANCH  28  29
ATOM     29  C   LIG d   1       8.922   3.832  -8.927  0.00  0.00     0.079 C 
ATOM     30  H   LIG d   1       9.865   4.176  -9.352  0.00  0.00     0.066 H 
ATOM     31  H   LIG d   1       8.101   4.116  -9.585  0.00  0.00     0.066 H 
ATOM     32  H   LIG d   1       8.778   4.285  -7.946  0.00  0.00     0.066 H 
ENDBRANCH  28  29
ENDBRANCH  22  28
ENDBRANCH  11  18
ENDBRANCH   1  10
BRANCH   6  33
ATOM     33  O   LIG d   1       2.814  -0.485  -7.323  0.00  0.00    -0.506 OA
ATOM     34  H   LIG d   1       3.013   0.417  -7.609  0.00  0.00     0.292 HD
ENDBRANCH   6  33
BRANCH   4  35
ATOM     35  O   LIG d   1       6.105  -2.811  -4.806  0.00  0.00    -0.487 OA
BRANCH  35  36
ATOM     36  C   LIG d   1       6.928  -1.830  -4.170  0.00  0.00     0.115 C 
ATOM     37  H   LIG d   1       7.658  -2.327  -3.531  0.00  0.00     0.075 H 
ATOM     38  H   LIG d   1       7.448  -1.245  -4.929  0.00  0.00     0.075 H 
BRANCH  36  39
ATOM     39  C   LIG d   1       6.068  -0.918  -3.334  0.00  0.00    -0.010 A 
ATOM     40  C   LIG d   1       5.105  -1.449  -2.498  0.00  0.00    -0.055 A 
ATOM     41  C   LIG d   1       4.316  -0.613  -1.731  0.00  0.00    -0.061 A 
ATOM     42  H   LIG d   1       4.968  -2.520  -2.444  0.00  0.00     0.062 H 
ATOM     43  C   LIG d   1       4.491   0.757  -1.800  0.00  0.00    -0.062 A 
ATOM     44  H   LIG d   1       3.563  -1.029  -1.078  0.00  0.00     0.062 H 
ATOM     45  C   LIG d   1       5.455   1.289  -2.636  0.00  0.00    -0.061 A 
ATOM     46  H   LIG d   1       3.875   1.411  -1.202  0.00  0.00     0.062 H 
ATOM     47  C   LIG d   1       6.247   0.452  -3.399  0.00  0.00    -0.055 A 
ATOM     48  H   LIG d   1       5.591   2.359  -2.691  0.00  0.00     0.062 H 
ATOM     49  H   LIG d   1       7.003   0.868  -4.049  0.00  0.00     0.062 H 
ENDBRANCH  36  39
ENDBRANCH  35  36
ENDBRANCH   4  35
TORSDOF 8
ENDMDL
MODEL 10
REMARK VINA RESULT:      -6.2      8.691     12.457
REMARK  8 active torsions:
REMARK  status: ('A' for Active; 'I' for Inactive)
REMARK    1  A    between atoms: C_1  and  O_2 
REMARK    2  A    between atoms: O_2  and  C_3 
REMARK    3  A    between atoms: C_6  and  C_9 
REMARK    4  A    between atoms: C_14  and  C_15 
REMARK    5  A    between atoms: C_18  and  O_22 
REMARK    6  A    between atoms: C_20  and  O_21 
REMARK    7  A    between atoms: O_22  and  C_23 
REMARK    8  A    between atoms: C_23  and  C_24 
ROOT
ATOM      1  C   LIG d   1       2.272  -2.396  -9.707  0.00  0.00     0.043 A 
ATOM      2  C   LIG d   1       3.292  -2.938  -8.925  0.00  0.00    -0.046 A 
ATOM      3  C   LIG d   1       3.835  -2.204  -7.894  0.00  0.00    -0.019 A 
ATOM      4  C   LIG d   1       3.367  -0.922  -7.627  0.00  0.00     0.124 A 
ATOM      5  C   LIG d   1       2.354  -0.374  -8.399  0.00  0.00     0.022 A 
ATOM      6  C   LIG d   1       1.806  -1.101  -9.441  0.00  0.00     0.130 A 
ATOM      7  H   LIG d   1       3.658  -3.934  -9.130  0.00  0.00     0.063 H 
ATOM      8  H   LIG d   1       4.624  -2.625  -7.290  0.00  0.00     0.065 H 
ATOM      9  H   LIG d   1       1.994   0.623  -8.188  0.00  0.00     0.069 H 
ENDROOT
BRANCH   1  10
ATOM     10  C   LIG d   1       1.687  -3.182 -10.814  0.00  0.00     0.085 A 
ATOM     11  C   LIG d   1       2.342  -3.263 -12.060  0.00  0.00     0.026 A 
ATOM     12  C   LIG d   1       1.742  -4.019 -13.067  0.00  0.00     0.039 A 
ATOM     13  N   LIG d   1       0.594  -4.627 -12.817  0.00  0.00    -0.243 NA
ATOM     14  H   LIG d   1       2.209  -4.109 -14.037  0.00  0.00     0.084 H 
ATOM     15  C   LIG d   1       0.010  -4.527 -11.638  0.00  0.00     0.117 A 
ATOM     16  N   LIG d   1       0.530  -3.822 -10.656  0.00  0.00    -0.235 NA
ATOM     17  H   LIG d   1      -0.928  -5.038 -11.476  0.00  0.00     0.105 H 
BRANCH  11  18
ATOM     18  C   LIG d   1       3.628  -2.565 -12.293  0.00  0.00    -0.014 A 
ATOM     19  C   LIG d   1       3.639  -1.209 -12.616  0.00  0.00    -0.051 A 
ATOM     20  C   LIG d   1       4.838  -0.563 -12.831  0.00  0.00    -0.019 A 
ATOM     21  H   LIG d   1       2.709  -0.665 -12.698  0.00  0.00     0.062 H 
ATOM     22  C   LIG d   1       6.034  -1.261 -12.726  0.00  0.00     0.120 A 
ATOM     23  H   LIG d   1       4.847   0.488 -13.083  0.00  0.00     0.065 H 
ATOM     24  C   LIG d   1       6.026  -2.611 -12.403  0.00  0.00    -0.019 A 
ATOM     25  C   LIG d   1       4.831  -3.262 -12.182  0.00  0.00    -0.051 A 
ATOM     26  H   LIG d   1       6.958  -3.152 -12.323  0.00  0.00     0.065 H 
ATOM     27  H   LIG d   1       4.826  -4.312 -11.927  0.00  0.00     0.062 H 
BRANCH  22  28
ATOM     28  O   LIG d   1       7.213  -0.621 -12.938  0.00  0.00    -0.495 OA
BRANCH  28  29
ATOM     29  C   LIG d   1       7.833  -0.807 -14.212  0.00  0.00     0.079 C 
ATOM     30  H   LIG d   1       8.741  -1.397 -14.091  0.00  0.00     0.066 H 
ATOM     31  H   LIG d   1       7.145  -1.329 -14.877  0.00  0.00     0.066 H 
ATOM     32  H   LIG d   1       8.085   0.164 -14.638  0.00  0.00     0.066 H 
ENDBRANCH  28  29
ENDBRANCH  22  28
ENDBRANCH  11  18
ENDBRANCH   1  10
BRANCH   6  33
ATOM     33  O   LIG d   1       0.816  -0.565 -10.200  0.00  0.00    -0.506 OA
ATOM     34  H   LIG d   1       0.013  -1.101 -10.237  0.00  0.00     0.292 HD
ENDBRANCH   6  33
BRANCH   4  35
ATOM     35  O   LIG d   1       3.906  -0.203  -6.609  0.00  0.00    -0.487 OA
BRANCH  35  36
ATOM     36  C   LIG d   1       3.006   0.290  -5.615  0.00  0.00     0.115 C 
ATOM     37  H   LIG d   1       2.957   1.378  -5.677  0.00  0.00     0.075 H 
ATOM     38  H   LIG d   1       2.013  -0.128  -5.784  0.00  0.00     0.075 H 
BRANCH  36  39
ATOM     39  C   LIG d   1       3.495  -0.112  -4.248  0.00  0.00    -0.010 A 
ATOM     40  C   LIG d   1       3.744   0.852  -3.290  0.00  0.00    -0.055 A 
ATOM     41  C   LIG d   1       4.192   0.483  -2.037  0.00  0.00    -0.061 A 
ATOM     42  H   LIG d   1       3.587   1.896  -3.522  0.00  0.00     0.062 H 
ATOM     43  C   LIG d   1       4.393  -0.853  -1.740  0.00  0.00    -0.062 A 
ATOM     44  H   LIG d   1       4.387   1.237  -1.289  0.00  0.00     0.062 H 
ATOM     45  C   LIG d   1       4.144  -1.817  -2.697  0.00  0.00    -0.061 A 
ATOM     46  H   LIG d   1       4.744  -1.142  -0.761  0.00  0.00     0.062 H 
ATOM     47  C   LIG d   1       3.690  -1.449  -3.950  0.00  0.00    -0.055 A 
ATOM     48  H   LIG d   1       4.301  -2.861  -2.466  0.00  0.00     0.062 H 
ATOM     49  H   LIG d   1       3.492  -2.203  -4.696  0.00  0.00     0.062 H 
ENDBRANCH  36  39
ENDBRANCH  35  36
ENDBRANCH   4  35
TORSDOF 8
ENDMDL
