MODEL 1
REMARK VINA RESULT:      -6.4      0.000      0.000
REMARK  2 active torsions:
REMARK  status: ('A' for Active; 'I' for Inactive)
REMARK    1  A    between atoms: CB_1  and  CA_2 
REMARK       I    between atoms: N_9  and  C_16 
REMARK       I    between atoms: C_16  and  N_18 
REMARK    2  A    between atoms: N_18  and  C_19 
ROOT
ATOM      1  CA  ALA d   2       4.796   1.334  -2.489  0.00  0.00     0.097 C 
ATOM      2  HA  ALA d   2       5.012   2.253  -1.942  0.00  0.00     0.059 H 
ATOM      3  C   ALA d   2       5.956   1.000  -3.401  0.00  0.00     0.236 C 
ATOM      4  O   ALA d   2       7.050   1.502  -3.247  0.00  0.00    -0.274 OA
ATOM      5  N   ALA d   2       3.586   1.519  -3.311  0.00  0.00    -0.303 N 
ATOM      6  H   ALA d   2       2.987   2.268  -3.169  0.00  0.00     0.149 HD
ATOM      7  N   UNK d   1       5.711   0.108  -4.415  0.00  0.00    -0.285 N 
ATOM      8  C   UNK d   1       6.747  -0.104  -5.405  0.00  0.00     0.031 C 
ATOM      9  C   UNK d   1       6.497  -1.308  -6.293  0.00  0.00     0.032 C 
ATOM     10  N   UNK d   1       5.077  -1.443  -6.592  0.00  0.00    -0.282 N 
ATOM     11  C   UNK d   1       4.086  -1.461  -5.528  0.00  0.00     0.043 C 
ATOM     12  C   UNK d   1       4.391  -0.495  -4.421  0.00  0.00     0.118 C 
ATOM     13  H   UNK d   1       4.339  -1.072  -3.498  0.00  0.00     0.061 H 
ATOM     14  C   UNK d   1       3.350   0.589  -4.280  0.00  0.00     0.236 C 
ATOM     15  O   UNK d   1       2.364   0.629  -4.985  0.00  0.00    -0.274 OA
ATOM     16  C   UNK d   1       4.676  -1.551  -7.874  0.00  0.00     0.302 C 
ATOM     17  O   UNK d   1       5.500  -1.626  -8.765  0.00  0.00    -0.253 OA
ATOM     18  N   UNK d   1       3.361  -1.578  -8.169  0.00  0.00    -0.296 N 
ATOM     19  H   UNK d   1       7.699  -0.239  -4.892  0.00  0.00     0.048 H 
ATOM     20  H   UNK d   1       6.814   0.785  -6.034  0.00  0.00     0.048 H 
ATOM     21  H   UNK d   1       6.845  -2.207  -5.784  0.00  0.00     0.048 H 
ATOM     22  H   UNK d   1       7.050  -1.188  -7.225  0.00  0.00     0.048 H 
ATOM     23  H   UNK d   1       4.038  -2.467  -5.112  0.00  0.00     0.049 H 
ATOM     24  H   UNK d   1       3.113  -1.213  -5.951  0.00  0.00     0.049 H 
ATOM     25  H   UNK d   1       2.704  -1.446  -7.468  0.00  0.00     0.150 HD
ENDROOT
BRANCH  18  26
ATOM     26  C   UNK d   1       2.924  -1.806  -9.548  0.00  0.00     0.025 C 
ATOM     27  C   UNK d   1       2.540  -3.276  -9.724  0.00  0.00    -0.035 C 
ATOM     28  C   UNK d   1       2.084  -3.515 -11.166  0.00  0.00    -0.051 C 
ATOM     29  H   UNK d   1       3.403  -3.906  -9.508  0.00  0.00     0.028 H 
ATOM     30  H   UNK d   1       1.728  -3.525  -9.041  0.00  0.00     0.028 H 
ATOM     31  C   UNK d   1       0.873  -2.631 -11.471  0.00  0.00    -0.053 C 
ATOM     32  H   UNK d   1       2.896  -3.267 -11.849  0.00  0.00     0.027 H 
ATOM     33  H   UNK d   1       1.811  -4.563 -11.292  0.00  0.00     0.027 H 
ATOM     34  C   UNK d   1       1.257  -1.161 -11.294  0.00  0.00    -0.051 C 
ATOM     35  H   UNK d   1       0.548  -2.802 -12.497  0.00  0.00     0.026 H 
ATOM     36  H   UNK d   1       0.061  -2.879 -10.787  0.00  0.00     0.026 H 
ATOM     37  C   UNK d   1       1.713  -0.922  -9.854  0.00  0.00    -0.035 C 
ATOM     38  H   UNK d   1       2.069  -0.913 -11.977  0.00  0.00     0.027 H 
ATOM     39  H   UNK d   1       0.394  -0.531 -11.511  0.00  0.00     0.027 H 
ATOM     40  H   UNK d   1       0.901  -1.171  -9.169  0.00  0.00     0.028 H 
ATOM     41  H   UNK d   1       1.987   0.125  -9.728  0.00  0.00     0.028 H 
ATOM     42  H   UNK d   1       3.736  -1.558 -10.232  0.00  0.00     0.050 H 
ENDBRANCH  18  26
BRANCH   1  43
ATOM     43  CB  ALA d   2       4.574   0.188  -1.499  0.00  0.00    -0.038 C 
ATOM     44  HB1 ALA d   2       5.527  -0.095  -1.052  0.00  0.00     0.025 H 
ATOM     45  HB2 ALA d   2       3.887   0.512  -0.716  0.00  0.00     0.025 H 
ATOM     46  HB3 ALA d   2       4.150  -0.668  -2.022  0.00  0.00     0.025 H 
ENDBRANCH   1  43
TORSDOF 2
ENDMDL
MODEL 2
REMARK VINA RESULT:      -6.3      2.434      7.506
REMARK  2 active torsions:
REMARK  status: ('A' for Active; 'I' for Inactive)
REMARK    1  A    between atoms: CB_1  and  CA_2 
REMARK       I    between atoms: N_9  and  C_16 
REMARK       I    between atoms: C_16  and  N_18 
REMARK    2  A    between atoms: N_18  and  C_19 
ROOT
ATOM      1  CA  ALA d   2       2.283  -2.548 -12.870  0.00  0.00     0.097 C 
ATOM      2  HA  ALA d   2       2.639  -3.065 -13.761  0.00  0.00     0.059 H 
ATOM      3  C   ALA d   2       3.092  -1.288 -12.655  0.00  0.00     0.236 C 
ATOM      4  O   ALA d   2       3.764  -0.805 -13.542  0.00  0.00    -0.274 OA
ATOM      5  N   ALA d   2       2.445  -3.421 -11.693  0.00  0.00    -0.303 N 
ATOM      6  H   ALA d   2       2.619  -4.370 -11.785  0.00  0.00     0.149 HD
ATOM      7  N   UNK d   1       3.036  -0.721 -11.407  0.00  0.00    -0.285 N 
ATOM      8  C   UNK d   1       3.927   0.385 -11.117  0.00  0.00     0.031 C 
ATOM      9  C   UNK d   1       3.581   1.121  -9.837  0.00  0.00     0.032 C 
ATOM     10  N   UNK d   1       3.116   0.189  -8.815  0.00  0.00    -0.282 N 
ATOM     11  C   UNK d   1       2.043  -0.751  -9.093  0.00  0.00     0.043 C 
ATOM     12  C   UNK d   1       2.113  -1.338 -10.472  0.00  0.00     0.118 C 
ATOM     13  H   UNK d   1       1.126  -1.193 -10.910  0.00  0.00     0.061 H 
ATOM     14  C   UNK d   1       2.338  -2.831 -10.467  0.00  0.00     0.236 C 
ATOM     15  O   UNK d   1       2.418  -3.466  -9.437  0.00  0.00    -0.274 OA
ATOM     16  C   UNK d   1       3.691   0.200  -7.597  0.00  0.00     0.302 C 
ATOM     17  O   UNK d   1       4.528   1.040  -7.326  0.00  0.00    -0.253 OA
ATOM     18  N   UNK d   1       3.339  -0.721  -6.677  0.00  0.00    -0.296 N 
ATOM     19  H   UNK d   1       3.890   1.090 -11.947  0.00  0.00     0.048 H 
ATOM     20  H   UNK d   1       4.943  -0.001 -11.033  0.00  0.00     0.048 H 
ATOM     21  H   UNK d   1       2.796   1.849 -10.042  0.00  0.00     0.048 H 
ATOM     22  H   UNK d   1       4.466   1.641  -9.471  0.00  0.00     0.048 H 
ATOM     23  H   UNK d   1       1.089  -0.237  -8.979  0.00  0.00     0.049 H 
ATOM     24  H   UNK d   1       2.090  -1.561  -8.365  0.00  0.00     0.049 H 
ATOM     25  H   UNK d   1       2.726  -1.434  -6.916  0.00  0.00     0.150 HD
ENDROOT
BRANCH  18  26
ATOM     26  C   UNK d   1       3.881  -0.643  -5.319  0.00  0.00     0.025 C 
ATOM     27  C   UNK d   1       2.814  -0.085  -4.375  0.00  0.00    -0.035 C 
ATOM     28  C   UNK d   1       3.380  -0.004  -2.956  0.00  0.00    -0.051 C 
ATOM     29  H   UNK d   1       2.521   0.911  -4.707  0.00  0.00     0.028 H 
ATOM     30  H   UNK d   1       1.943  -0.741  -4.382  0.00  0.00     0.028 H 
ATOM     31  C   UNK d   1       3.792  -1.402  -2.490  0.00  0.00    -0.053 C 
ATOM     32  H   UNK d   1       4.250   0.652  -2.949  0.00  0.00     0.027 H 
ATOM     33  H   UNK d   1       2.620   0.394  -2.283  0.00  0.00     0.027 H 
ATOM     34  C   UNK d   1       4.859  -1.960  -3.434  0.00  0.00    -0.051 C 
ATOM     35  H   UNK d   1       4.194  -1.344  -1.479  0.00  0.00     0.026 H 
ATOM     36  H   UNK d   1       2.921  -2.058  -2.497  0.00  0.00     0.026 H 
ATOM     37  C   UNK d   1       4.293  -2.041  -4.853  0.00  0.00    -0.035 C 
ATOM     38  H   UNK d   1       5.729  -1.304  -3.427  0.00  0.00     0.027 H 
ATOM     39  H   UNK d   1       5.152  -2.957  -3.102  0.00  0.00     0.027 H 
ATOM     40  H   UNK d   1       3.422  -2.698  -4.860  0.00  0.00     0.028 H 
ATOM     41  H   UNK d   1       5.053  -2.439  -5.526  0.00  0.00     0.028 H 
ATOM     42  H   UNK d   1       4.751   0.013  -5.311  0.00  0.00     0.050 H 
ENDBRANCH  18  26
BRANCH   1  43
ATOM     43  CB  ALA d   2       0.806  -2.188 -13.042  0.00  0.00    -0.038 C 
ATOM     44  HB1 ALA d   2       0.635  -1.827 -14.056  0.00  0.00     0.025 H 
ATOM     45  HB2 ALA d   2       0.192  -3.072 -12.863  0.00  0.00     0.025 H 
ATOM     46  HB3 ALA d   2       0.535  -1.409 -12.329  0.00  0.00     0.025 H 
ENDBRANCH   1  43
TORSDOF 2
ENDMDL
MODEL 3
REMARK VINA RESULT:      -6.3      2.314      7.305
REMARK  2 active torsions:
REMARK  status: ('A' for Active; 'I' for Inactive)
REMARK    1  A    between atoms: CB_1  and  CA_2 
REMARK       I    between atoms: N_9  and  C_16 
REMARK       I    between atoms: C_16  and  N_18 
REMARK    2  A    between atoms: N_18  and  C_19 
ROOT
ATOM      1  CA  ALA d   2       1.205  -2.230 -11.344  0.00  0.00     0.097 C 
ATOM      2  HA  ALA d   2       0.254  -2.441 -11.834  0.00  0.00     0.059 H 
ATOM      3  C   ALA d   2       1.750  -3.497 -10.723  0.00  0.00     0.236 C 
ATOM      4  O   ALA d   2       1.340  -4.592 -11.049  0.00  0.00    -0.274 OA
ATOM      5  N   ALA d   2       1.003  -1.231 -10.278  0.00  0.00    -0.303 N 
ATOM      6  H   ALA d   2       0.190  -0.706 -10.224  0.00  0.00     0.149 HD
ATOM      7  N   UNK d   1       2.726  -3.350  -9.770  0.00  0.00    -0.285 N 
ATOM      8  C   UNK d   1       3.148  -4.527  -9.036  0.00  0.00     0.031 C 
ATOM      9  C   UNK d   1       4.418  -4.316  -8.234  0.00  0.00     0.032 C 
ATOM     10  N   UNK d   1       4.451  -2.973  -7.665  0.00  0.00    -0.282 N 
ATOM     11  C   UNK d   1       4.253  -1.801  -8.501  0.00  0.00     0.043 C 
ATOM     12  C   UNK d   1       3.199  -1.996  -9.551  0.00  0.00     0.118 C 
ATOM     13  H   UNK d   1       3.658  -1.701 -10.494  0.00  0.00     0.061 H 
ATOM     14  C   UNK d   1       2.012  -1.080  -9.373  0.00  0.00     0.236 C 
ATOM     15  O   UNK d   1       1.961  -0.260  -8.481  0.00  0.00    -0.274 OA
ATOM     16  C   UNK d   1       4.669  -2.818  -6.344  0.00  0.00     0.302 C 
ATOM     17  O   UNK d   1       4.924  -3.784  -5.651  0.00  0.00    -0.253 OA
ATOM     18  N   UNK d   1       4.605  -1.590  -5.791  0.00  0.00    -0.296 N 
ATOM     19  H   UNK d   1       3.313  -5.339  -9.744  0.00  0.00     0.048 H 
ATOM     20  H   UNK d   1       2.349  -4.816  -8.354  0.00  0.00     0.048 H 
ATOM     21  H   UNK d   1       5.281  -4.452  -8.885  0.00  0.00     0.048 H 
ATOM     22  H   UNK d   1       4.459  -5.048  -7.428  0.00  0.00     0.048 H 
ATOM     23  H   UNK d   1       5.195  -1.557  -8.992  0.00  0.00     0.049 H 
ATOM     24  H   UNK d   1       3.964  -0.963  -7.867  0.00  0.00     0.049 H 
ATOM     25  H   UNK d   1       4.331  -0.831  -6.327  0.00  0.00     0.150 HD
ENDROOT
BRANCH  18  26
ATOM     26  C   UNK d   1       4.948  -1.405  -4.379  0.00  0.00     0.025 C 
ATOM     27  C   UNK d   1       5.417   0.034  -4.154  0.00  0.00    -0.035 C 
ATOM     28  C   UNK d   1       5.777   0.228  -2.679  0.00  0.00    -0.051 C 
ATOM     29  H   UNK d   1       6.294   0.231  -4.770  0.00  0.00     0.028 H 
ATOM     30  H   UNK d   1       4.619   0.724  -4.427  0.00  0.00     0.028 H 
ATOM     31  C   UNK d   1       4.545  -0.049  -1.813  0.00  0.00    -0.053 C 
ATOM     32  H   UNK d   1       6.575  -0.461  -2.406  0.00  0.00     0.027 H 
ATOM     33  H   UNK d   1       6.111   1.253  -2.518  0.00  0.00     0.027 H 
ATOM     34  C   UNK d   1       4.077  -1.487  -2.039  0.00  0.00    -0.051 C 
ATOM     35  H   UNK d   1       4.802   0.090  -0.763  0.00  0.00     0.026 H 
ATOM     36  H   UNK d   1       3.747   0.641  -2.086  0.00  0.00     0.026 H 
ATOM     37  C   UNK d   1       3.718  -1.682  -3.513  0.00  0.00    -0.035 C 
ATOM     38  H   UNK d   1       4.875  -2.177  -1.766  0.00  0.00     0.027 H 
ATOM     39  H   UNK d   1       3.199  -1.685  -1.422  0.00  0.00     0.027 H 
ATOM     40  H   UNK d   1       2.919  -0.991  -3.787  0.00  0.00     0.028 H 
ATOM     41  H   UNK d   1       3.384  -2.707  -3.674  0.00  0.00     0.028 H 
ATOM     42  H   UNK d   1       5.747  -2.094  -4.105  0.00  0.00     0.050 H 
ENDBRANCH  18  26
BRANCH   1  43
ATOM     43  CB  ALA d   2       2.203  -1.689 -12.371  0.00  0.00    -0.038 C 
ATOM     44  HB1 ALA d   2       3.089  -1.318 -11.856  0.00  0.00     0.025 H 
ATOM     45  HB2 ALA d   2       2.489  -2.489 -13.055  0.00  0.00     0.025 H 
ATOM     46  HB3 ALA d   2       1.743  -0.878 -12.934  0.00  0.00     0.025 H 
ENDBRANCH   1  43
TORSDOF 2
ENDMDL
MODEL 4
REMARK VINA RESULT:      -6.2      5.167      7.470
REMARK  2 active torsions:
REMARK  status: ('A' for Active; 'I' for Inactive)
REMARK    1  A    between atoms: CB_1  and  CA_2 
REMARK       I    between atoms: N_9  and  C_16 
REMARK       I    between atoms: C_16  and  N_18 
REMARK    2  A    between atoms: N_18  and  C_19 
ROOT
ATOM      1  CA  ALA d   2      11.869   5.628  -4.835  0.00  0.00     0.097 C 
ATOM      2  HA  ALA d   2      12.107   6.684  -4.964  0.00  0.00     0.059 H 
ATOM      3  C   ALA d   2      11.182   5.107  -6.079  0.00  0.00     0.236 C 
ATOM      4  O   ALA d   2      11.235   5.706  -7.133  0.00  0.00    -0.274 OA
ATOM      5  N   ALA d   2      10.958   5.462  -3.688  0.00  0.00    -0.303 N 
ATOM      6  H   ALA d   2      10.818   6.173  -3.045  0.00  0.00     0.149 HD
ATOM      7  N   UNK d   1      10.491   3.928  -5.957  0.00  0.00    -0.285 N 
ATOM      8  C   UNK d   1       9.684   3.489  -7.078  0.00  0.00     0.031 C 
ATOM      9  C   UNK d   1       9.210   2.053  -6.957  0.00  0.00     0.032 C 
ATOM     10  N   UNK d   1       8.883   1.733  -5.573  0.00  0.00    -0.282 N 
ATOM     11  C   UNK d   1       9.835   1.980  -4.503  0.00  0.00     0.043 C 
ATOM     12  C   UNK d   1      10.596   3.262  -4.672  0.00  0.00     0.118 C 
ATOM     13  H   UNK d   1      11.649   3.001  -4.574  0.00  0.00     0.061 H 
ATOM     14  C   UNK d   1      10.321   4.260  -3.574  0.00  0.00     0.236 C 
ATOM     15  O   UNK d   1       9.581   4.009  -2.646  0.00  0.00    -0.274 OA
ATOM     16  C   UNK d   1       7.680   1.201  -5.281  0.00  0.00     0.302 C 
ATOM     17  O   UNK d   1       6.911   0.909  -6.177  0.00  0.00    -0.253 OA
ATOM     18  N   UNK d   1       7.329   0.992  -3.997  0.00  0.00    -0.296 N 
ATOM     19  H   UNK d   1      10.271   3.588  -7.991  0.00  0.00     0.048 H 
ATOM     20  H   UNK d   1       8.811   4.139  -7.154  0.00  0.00     0.048 H 
ATOM     21  H   UNK d   1       9.999   1.385  -7.304  0.00  0.00     0.048 H 
ATOM     22  H   UNK d   1       8.325   1.914  -7.576  0.00  0.00     0.048 H 
ATOM     23  H   UNK d   1      10.546   1.154  -4.468  0.00  0.00     0.049 H 
ATOM     24  H   UNK d   1       9.297   2.015  -3.556  0.00  0.00     0.049 H 
ATOM     25  H   UNK d   1       7.911   1.291  -3.281  0.00  0.00     0.150 HD
ENDROOT
BRANCH  18  26
ATOM     26  C   UNK d   1       6.069   0.314  -3.683  0.00  0.00     0.025 C 
ATOM     27  C   UNK d   1       6.356  -1.136  -3.288  0.00  0.00    -0.035 C 
ATOM     28  C   UNK d   1       5.040  -1.845  -2.961  0.00  0.00    -0.051 C 
ATOM     29  H   UNK d   1       6.847  -1.647  -4.116  0.00  0.00     0.028 H 
ATOM     30  H   UNK d   1       7.005  -1.153  -2.413  0.00  0.00     0.028 H 
ATOM     31  C   UNK d   1       4.349  -1.127  -1.800  0.00  0.00    -0.053 C 
ATOM     32  H   UNK d   1       4.391  -1.829  -3.836  0.00  0.00     0.027 H 
ATOM     33  H   UNK d   1       5.244  -2.879  -2.680  0.00  0.00     0.027 H 
ATOM     34  C   UNK d   1       4.063   0.323  -2.195  0.00  0.00    -0.051 C 
ATOM     35  H   UNK d   1       3.412  -1.633  -1.566  0.00  0.00     0.026 H 
ATOM     36  H   UNK d   1       4.998  -1.144  -0.924  0.00  0.00     0.026 H 
ATOM     37  C   UNK d   1       5.378   1.031  -2.522  0.00  0.00    -0.035 C 
ATOM     38  H   UNK d   1       3.414   0.340  -3.070  0.00  0.00     0.027 H 
ATOM     39  H   UNK d   1       3.570   0.834  -1.367  0.00  0.00     0.027 H 
ATOM     40  H   UNK d   1       6.028   1.015  -1.646  0.00  0.00     0.028 H 
ATOM     41  H   UNK d   1       5.174   2.065  -2.804  0.00  0.00     0.028 H 
ATOM     42  H   UNK d   1       5.420   0.330  -4.558  0.00  0.00     0.050 H 
ENDBRANCH  18  26
BRANCH   1  43
ATOM     43  CB  ALA d   2      13.155   4.837  -4.589  0.00  0.00    -0.038 C 
ATOM     44  HB1 ALA d   2      14.015   5.442  -4.876  0.00  0.00     0.025 H 
ATOM     45  HB2 ALA d   2      13.228   4.582  -3.531  0.00  0.00     0.025 H 
ATOM     46  HB3 ALA d   2      13.140   3.923  -5.181  0.00  0.00     0.025 H 
ENDBRANCH   1  43
TORSDOF 2
ENDMDL
MODEL 5
REMARK VINA RESULT:      -6.2      4.730      7.937
REMARK  2 active torsions:
REMARK  status: ('A' for Active; 'I' for Inactive)
REMARK    1  A    between atoms: CB_1  and  CA_2 
REMARK       I    between atoms: N_9  and  C_16 
REMARK       I    between atoms: C_16  and  N_18 
REMARK    2  A    between atoms: N_18  and  C_19 
ROOT
ATOM      1  CA  ALA d   2       5.778  -8.633  -6.479  0.00  0.00     0.097 C 
ATOM      2  HA  ALA d   2       5.623  -9.697  -6.302  0.00  0.00     0.059 H 
ATOM      3  C   ALA d   2       7.095  -8.203  -5.870  0.00  0.00     0.236 C 
ATOM      4  O   ALA d   2       7.948  -9.011  -5.566  0.00  0.00    -0.274 OA
ATOM      5  N   ALA d   2       4.692  -7.862  -5.847  0.00  0.00    -0.303 N 
ATOM      6  H   ALA d   2       3.876  -8.290  -5.545  0.00  0.00     0.149 HD
ATOM      7  N   UNK d   1       7.277  -6.858  -5.672  0.00  0.00    -0.285 N 
ATOM      8  C   UNK d   1       8.450  -6.426  -4.939  0.00  0.00     0.031 C 
ATOM      9  C   UNK d   1       8.709  -4.935  -5.035  0.00  0.00     0.032 C 
ATOM     10  N   UNK d   1       7.454  -4.192  -5.028  0.00  0.00    -0.282 N 
ATOM     11  C   UNK d   1       6.386  -4.520  -5.958  0.00  0.00     0.043 C 
ATOM     12  C   UNK d   1       6.224  -5.996  -6.177  0.00  0.00     0.118 C 
ATOM     13  H   UNK d   1       6.232  -6.142  -7.256  0.00  0.00     0.061 H 
ATOM     14  C   UNK d   1       4.889  -6.519  -5.706  0.00  0.00     0.236 C 
ATOM     15  O   UNK d   1       4.042  -5.790  -5.234  0.00  0.00    -0.274 OA
ATOM     16  C   UNK d   1       7.281  -3.188  -4.146  0.00  0.00     0.302 C 
ATOM     17  O   UNK d   1       8.199  -2.848  -3.424  0.00  0.00    -0.253 OA
ATOM     18  N   UNK d   1       6.091  -2.560  -4.065  0.00  0.00    -0.296 N 
ATOM     19  H   UNK d   1       9.319  -6.957  -5.327  0.00  0.00     0.048 H 
ATOM     20  H   UNK d   1       8.321  -6.691  -3.889  0.00  0.00     0.048 H 
ATOM     21  H   UNK d   1       9.247  -4.722  -5.958  0.00  0.00     0.048 H 
ATOM     22  H   UNK d   1       9.316  -4.620  -4.186  0.00  0.00     0.048 H 
ATOM     23  H   UNK d   1       6.598  -4.045  -6.916  0.00  0.00     0.049 H 
ATOM     24  H   UNK d   1       5.449  -4.119  -5.572  0.00  0.00     0.049 H 
ATOM     25  H   UNK d   1       5.339  -2.878  -4.587  0.00  0.00     0.150 HD
ENDROOT
BRANCH  18  26
ATOM     26  C   UNK d   1       5.936  -1.398  -3.186  0.00  0.00     0.025 C 
ATOM     27  C   UNK d   1       6.076  -0.116  -4.008  0.00  0.00    -0.035 C 
ATOM     28  C   UNK d   1       5.914   1.098  -3.090  0.00  0.00    -0.051 C 
ATOM     29  H   UNK d   1       7.060  -0.089  -4.475  0.00  0.00     0.028 H 
ATOM     30  H   UNK d   1       5.306  -0.092  -4.780  0.00  0.00     0.028 H 
ATOM     31  C   UNK d   1       4.531   1.061  -2.434  0.00  0.00    -0.053 C 
ATOM     32  H   UNK d   1       6.682   1.076  -2.319  0.00  0.00     0.027 H 
ATOM     33  H   UNK d   1       6.013   2.012  -3.676  0.00  0.00     0.027 H 
ATOM     34  C   UNK d   1       4.392  -0.222  -1.613  0.00  0.00    -0.051 C 
ATOM     35  H   UNK d   1       4.416   1.926  -1.781  0.00  0.00     0.026 H 
ATOM     36  H   UNK d   1       3.762   1.084  -3.206  0.00  0.00     0.026 H 
ATOM     37  C   UNK d   1       4.554  -1.436  -2.530  0.00  0.00    -0.035 C 
ATOM     38  H   UNK d   1       5.161  -0.245  -0.841  0.00  0.00     0.027 H 
ATOM     39  H   UNK d   1       3.407  -0.249  -1.145  0.00  0.00     0.027 H 
ATOM     40  H   UNK d   1       3.785  -1.413  -3.303  0.00  0.00     0.028 H 
ATOM     41  H   UNK d   1       4.455  -2.350  -1.945  0.00  0.00     0.028 H 
ATOM     42  H   UNK d   1       6.705  -1.420  -2.414  0.00  0.00     0.050 H 
ENDBRANCH  18  26
BRANCH   1  43
ATOM     43  CB  ALA d   2       5.794  -8.359  -7.984  0.00  0.00    -0.038 C 
ATOM     44  HB1 ALA d   2       6.638  -7.713  -8.227  0.00  0.00     0.025 H 
ATOM     45  HB2 ALA d   2       5.890  -9.301  -8.524  0.00  0.00     0.025 H 
ATOM     46  HB3 ALA d   2       4.865  -7.867  -8.275  0.00  0.00     0.025 H 
ENDBRANCH   1  43
TORSDOF 2
ENDMDL
MODEL 6
REMARK VINA RESULT:      -5.7      4.327      6.998
REMARK  2 active torsions:
REMARK  status: ('A' for Active; 'I' for Inactive)
REMARK    1  A    between atoms: CB_1  and  CA_2 
REMARK       I    between atoms: N_9  and  C_16 
REMARK       I    between atoms: C_16  and  N_18 
REMARK    2  A    between atoms: N_18  and  C_19 
ROOT
ATOM      1  CA  ALA d   2      10.722   4.898  -7.490  0.00  0.00     0.097 C 
ATOM      2  HA  ALA d   2      10.904   5.916  -7.834  0.00  0.00     0.059 H 
ATOM      3  C   ALA d   2       9.749   4.212  -8.424  0.00  0.00     0.236 C 
ATOM      4  O   ALA d   2       9.524   4.644  -9.535  0.00  0.00    -0.274 OA
ATOM      5  N   ALA d   2      10.135   4.930  -6.137  0.00  0.00    -0.303 N 
ATOM      6  H   ALA d   2      10.153   5.734  -5.596  0.00  0.00     0.149 HD
ATOM      7  N   UNK d   1       9.129   3.083  -7.953  0.00  0.00    -0.285 N 
ATOM      8  C   UNK d   1       8.070   2.500  -8.752  0.00  0.00     0.031 C 
ATOM      9  C   UNK d   1       7.664   1.111  -8.298  0.00  0.00     0.032 C 
ATOM     10  N   UNK d   1       7.704   1.012  -6.843  0.00  0.00    -0.282 N 
ATOM     11  C   UNK d   1       8.893   1.393  -6.100  0.00  0.00     0.043 C 
ATOM     12  C   UNK d   1       9.567   2.616  -6.650  0.00  0.00     0.118 C 
ATOM     13  H   UNK d   1      10.614   2.347  -6.784  0.00  0.00     0.061 H 
ATOM     14  C   UNK d   1       9.566   3.776  -5.684  0.00  0.00     0.236 C 
ATOM     15  O   UNK d   1       9.090   3.686  -4.572  0.00  0.00    -0.274 OA
ATOM     16  C   UNK d   1       6.623   0.560  -6.179  0.00  0.00     0.302 C 
ATOM     17  O   UNK d   1       5.655   0.155  -6.795  0.00  0.00    -0.253 OA
ATOM     18  N   UNK d   1       6.613   0.556  -4.831  0.00  0.00    -0.296 N 
ATOM     19  H   UNK d   1       8.404   2.445  -9.788  0.00  0.00     0.048 H 
ATOM     20  H   UNK d   1       7.197   3.152  -8.702  0.00  0.00     0.048 H 
ATOM     21  H   UNK d   1       8.347   0.378  -8.727  0.00  0.00     0.048 H 
ATOM     22  H   UNK d   1       6.651   0.901  -8.643  0.00  0.00     0.048 H 
ATOM     23  H   UNK d   1       9.601   0.565  -6.121  0.00  0.00     0.049 H 
ATOM     24  H   UNK d   1       8.613   1.585  -5.065  0.00  0.00     0.049 H 
ATOM     25  H   UNK d   1       7.353   0.945  -4.340  0.00  0.00     0.150 HD
ENDROOT
BRANCH  18  26
ATOM     26  C   UNK d   1       5.484  -0.035  -4.108  0.00  0.00     0.025 C 
ATOM     27  C   UNK d   1       5.759  -1.520  -3.863  0.00  0.00    -0.035 C 
ATOM     28  C   UNK d   1       4.579  -2.139  -3.108  0.00  0.00    -0.051 C 
ATOM     29  H   UNK d   1       5.886  -2.029  -4.818  0.00  0.00     0.028 H 
ATOM     30  H   UNK d   1       6.667  -1.629  -3.269  0.00  0.00     0.028 H 
ATOM     31  C   UNK d   1       4.401  -1.424  -1.767  0.00  0.00    -0.053 C 
ATOM     32  H   UNK d   1       3.672  -2.031  -3.701  0.00  0.00     0.027 H 
ATOM     33  H   UNK d   1       4.775  -3.197  -2.933  0.00  0.00     0.027 H 
ATOM     34  C   UNK d   1       4.126   0.061  -2.014  0.00  0.00    -0.051 C 
ATOM     35  H   UNK d   1       3.561  -1.865  -1.230  0.00  0.00     0.026 H 
ATOM     36  H   UNK d   1       5.309  -1.532  -1.173  0.00  0.00     0.026 H 
ATOM     37  C   UNK d   1       5.305   0.679  -2.767  0.00  0.00    -0.035 C 
ATOM     38  H   UNK d   1       3.219   0.169  -2.607  0.00  0.00     0.027 H 
ATOM     39  H   UNK d   1       3.999   0.570  -1.058  0.00  0.00     0.027 H 
ATOM     40  H   UNK d   1       6.214   0.571  -2.174  0.00  0.00     0.028 H 
ATOM     41  H   UNK d   1       5.110   1.737  -2.943  0.00  0.00     0.028 H 
ATOM     42  H   UNK d   1       4.576   0.072  -4.702  0.00  0.00     0.050 H 
ENDBRANCH  18  26
BRANCH   1  43
ATOM     43  CB  ALA d   2      12.040   4.122  -7.460  0.00  0.00    -0.038 C 
ATOM     44  HB1 ALA d   2      12.187   3.694  -6.468  0.00  0.00     0.025 H 
ATOM     45  HB2 ALA d   2      12.007   3.320  -8.199  0.00  0.00     0.025 H 
ATOM     46  HB3 ALA d   2      12.865   4.795  -7.691  0.00  0.00     0.025 H 
ENDBRANCH   1  43
TORSDOF 2
ENDMDL
MODEL 7
REMARK VINA RESULT:      -5.5      4.964      7.702
REMARK  2 active torsions:
REMARK  status: ('A' for Active; 'I' for Inactive)
REMARK    1  A    between atoms: CB_1  and  CA_2 
REMARK       I    between atoms: N_9  and  C_16 
REMARK       I    between atoms: C_16  and  N_18 
REMARK    2  A    between atoms: N_18  and  C_19 
ROOT
ATOM      1  CA  ALA d   2      10.946   1.057  -9.823  0.00  0.00     0.097 C 
ATOM      2  HA  ALA d   2      11.834   0.690 -10.340  0.00  0.00     0.059 H 
ATOM      3  C   ALA d   2      11.360   1.867  -8.614  0.00  0.00     0.236 C 
ATOM      4  O   ALA d   2      12.487   2.297  -8.493  0.00  0.00    -0.274 OA
ATOM      5  N   ALA d   2      10.129  -0.084  -9.371  0.00  0.00    -0.303 N 
ATOM      6  H   ALA d   2      10.278  -0.980  -9.710  0.00  0.00     0.149 HD
ATOM      7  N   UNK d   1      10.400   2.087  -7.658  0.00  0.00    -0.285 N 
ATOM      8  C   UNK d   1      10.804   2.711  -6.414  0.00  0.00     0.031 C 
ATOM      9  C   UNK d   1       9.638   3.175  -5.563  0.00  0.00     0.032 C 
ATOM     10  N   UNK d   1       8.527   2.234  -5.653  0.00  0.00    -0.282 N 
ATOM     11  C   UNK d   1       8.001   1.820  -6.943  0.00  0.00     0.043 C 
ATOM     12  C   UNK d   1       9.067   1.610  -7.977  0.00  0.00     0.118 C 
ATOM     13  H   UNK d   1       8.759   2.189  -8.847  0.00  0.00     0.061 H 
ATOM     14  C   UNK d   1       9.155   0.180  -8.453  0.00  0.00     0.236 C 
ATOM     15  O   UNK d   1       8.404  -0.681  -8.045  0.00  0.00    -0.274 OA
ATOM     16  C   UNK d   1       7.982   1.741  -4.524  0.00  0.00     0.302 C 
ATOM     17  O   UNK d   1       8.355   2.148  -3.440  0.00  0.00    -0.253 OA
ATOM     18  N   UNK d   1       7.021   0.798  -4.595  0.00  0.00    -0.296 N 
ATOM     19  H   UNK d   1      11.434   3.571  -6.643  0.00  0.00     0.048 H 
ATOM     20  H   UNK d   1      11.391   1.993  -5.840  0.00  0.00     0.048 H 
ATOM     21  H   UNK d   1       9.308   4.155  -5.910  0.00  0.00     0.048 H 
ATOM     22  H   UNK d   1       9.959   3.252  -4.525  0.00  0.00     0.048 H 
ATOM     23  H   UNK d   1       7.311   2.583  -7.302  0.00  0.00     0.049 H 
ATOM     24  H   UNK d   1       7.451   0.888  -6.814  0.00  0.00     0.049 H 
ATOM     25  H   UNK d   1       6.775   0.422  -5.454  0.00  0.00     0.150 HD
ENDROOT
BRANCH  18  26
ATOM     26  C   UNK d   1       6.351   0.342  -3.375  0.00  0.00     0.025 C 
ATOM     27  C   UNK d   1       5.250   1.335  -2.997  0.00  0.00    -0.035 C 
ATOM     28  C   UNK d   1       4.550   0.859  -1.722  0.00  0.00    -0.051 C 
ATOM     29  H   UNK d   1       5.690   2.317  -2.825  0.00  0.00     0.028 H 
ATOM     30  H   UNK d   1       4.524   1.399  -3.808  0.00  0.00     0.028 H 
ATOM     31  C   UNK d   1       3.933  -0.521  -1.964  0.00  0.00    -0.053 C 
ATOM     32  H   UNK d   1       5.275   0.795  -0.912  0.00  0.00     0.027 H 
ATOM     33  H   UNK d   1       3.766   1.566  -1.453  0.00  0.00     0.027 H 
ATOM     34  C   UNK d   1       5.035  -1.513  -2.342  0.00  0.00    -0.051 C 
ATOM     35  H   UNK d   1       3.434  -0.859  -1.056  0.00  0.00     0.026 H 
ATOM     36  H   UNK d   1       3.207  -0.457  -2.775  0.00  0.00     0.026 H 
ATOM     37  C   UNK d   1       5.734  -1.037  -3.616  0.00  0.00    -0.035 C 
ATOM     38  H   UNK d   1       5.760  -1.576  -1.532  0.00  0.00     0.027 H 
ATOM     39  H   UNK d   1       4.595  -2.496  -2.515  0.00  0.00     0.027 H 
ATOM     40  H   UNK d   1       5.009  -0.973  -4.428  0.00  0.00     0.028 H 
ATOM     41  H   UNK d   1       6.519  -1.744  -3.886  0.00  0.00     0.028 H 
ATOM     42  H   UNK d   1       7.077   0.279  -2.564  0.00  0.00     0.050 H 
ENDBRANCH  18  26
BRANCH   1  43
ATOM     43  CB  ALA d   2      10.125   1.932 -10.773  0.00  0.00    -0.038 C 
ATOM     44  HB1 ALA d   2       9.067   1.842 -10.526  0.00  0.00     0.025 H 
ATOM     45  HB2 ALA d   2      10.434   2.973 -10.667  0.00  0.00     0.025 H 
ATOM     46  HB3 ALA d   2      10.287   1.608 -11.800  0.00  0.00     0.025 H 
ENDBRANCH   1  43
TORSDOF 2
ENDMDL
MODEL 8
REMARK VINA RESULT:      -5.5     11.000     13.585
REMARK  2 active torsions:
REMARK  status: ('A' for Active; 'I' for Inactive)
REMARK    1  A    between atoms: CB_1  and  CA_2 
REMARK       I    between atoms: N_9  and  C_16 
REMARK       I    between atoms: C_16  and  N_18 
REMARK    2  A    between atoms: N_18  and  C_19 
ROOT
ATOM      1  CA  ALA d   2       4.764 -11.199  -3.677  0.00  0.00     0.097 C 
ATOM      2  HA  ALA d   2       4.148 -11.982  -4.122  0.00  0.00     0.059 H 
ATOM      3  C   ALA d   2       6.111 -11.159  -4.364  0.00  0.00     0.236 C 
ATOM      4  O   ALA d   2       6.290 -11.684  -5.443  0.00  0.00    -0.274 OA
ATOM      5  N   ALA d   2       4.971 -11.486  -2.245  0.00  0.00    -0.303 N 
ATOM      6  H   ALA d   2       4.432 -12.141  -1.776  0.00  0.00     0.149 HD
ATOM      7  N   UNK d   1       7.123 -10.507  -3.706  0.00  0.00    -0.285 N 
ATOM      8  C   UNK d   1       8.462 -10.594  -4.252  0.00  0.00     0.031 C 
ATOM      9  C   UNK d   1       9.434  -9.609  -3.631  0.00  0.00     0.032 C 
ATOM     10  N   UNK d   1       9.169  -9.452  -2.206  0.00  0.00    -0.282 N 
ATOM     11  C   UNK d   1       7.837  -9.127  -1.724  0.00  0.00     0.043 C 
ATOM     12  C   UNK d   1       6.748  -9.834  -2.476  0.00  0.00     0.118 C 
ATOM     13  H   UNK d   1       6.043  -9.060  -2.780  0.00  0.00     0.061 H 
ATOM     14  C   UNK d   1       5.957 -10.786  -1.612  0.00  0.00     0.236 C 
ATOM     15  O   UNK d   1       6.183 -10.920  -0.428  0.00  0.00    -0.274 OA
ATOM     16  C   UNK d   1      10.174  -9.612  -1.322  0.00  0.00     0.302 C 
ATOM     17  O   UNK d   1      11.309  -9.796  -1.718  0.00  0.00    -0.253 OA
ATOM     18  N   UNK d   1       9.922  -9.565   0.001  0.00  0.00    -0.296 N 
ATOM     19  H   UNK d   1       8.415 -10.409  -5.325  0.00  0.00     0.048 H 
ATOM     20  H   UNK d   1       8.838 -11.605  -4.090  0.00  0.00     0.048 H 
ATOM     21  H   UNK d   1       9.331  -8.643  -4.124  0.00  0.00     0.048 H 
ATOM     22  H   UNK d   1      10.452  -9.974  -3.768  0.00  0.00     0.048 H 
ATOM     23  H   UNK d   1       7.684  -8.052  -1.815  0.00  0.00     0.049 H 
ATOM     24  H   UNK d   1       7.769  -9.400  -0.671  0.00  0.00     0.049 H 
ATOM     25  H   UNK d   1       9.008  -9.491   0.318  0.00  0.00     0.150 HD
ENDROOT
BRANCH  18  26
ATOM     26  C   UNK d   1      11.027  -9.628   0.960  0.00  0.00     0.025 C 
ATOM     27  C   UNK d   1      11.059  -8.341   1.786  0.00  0.00    -0.035 C 
ATOM     28  C   UNK d   1      12.215  -8.406   2.787  0.00  0.00    -0.051 C 
ATOM     29  H   UNK d   1      11.202  -7.488   1.123  0.00  0.00     0.028 H 
ATOM     30  H   UNK d   1      10.118  -8.230   2.324  0.00  0.00     0.028 H 
ATOM     31  C   UNK d   1      12.016  -9.604   3.718  0.00  0.00    -0.053 C 
ATOM     32  H   UNK d   1      13.156  -8.516   2.250  0.00  0.00     0.027 H 
ATOM     33  H   UNK d   1      12.238  -7.488   3.376  0.00  0.00     0.027 H 
ATOM     34  C   UNK d   1      11.983 -10.891   2.892  0.00  0.00    -0.051 C 
ATOM     35  H   UNK d   1      12.838  -9.650   4.432  0.00  0.00     0.026 H 
ATOM     36  H   UNK d   1      11.074  -9.494   4.256  0.00  0.00     0.026 H 
ATOM     37  C   UNK d   1      10.829 -10.826   1.891  0.00  0.00    -0.035 C 
ATOM     38  H   UNK d   1      12.924 -11.002   2.354  0.00  0.00     0.027 H 
ATOM     39  H   UNK d   1      11.841 -11.745   3.555  0.00  0.00     0.027 H 
ATOM     40  H   UNK d   1       9.886 -10.716   2.428  0.00  0.00     0.028 H 
ATOM     41  H   UNK d   1      10.806 -11.743   1.302  0.00  0.00     0.028 H 
ATOM     42  H   UNK d   1      11.969  -9.738   0.422  0.00  0.00     0.050 H 
ENDBRANCH  18  26
BRANCH   1  43
ATOM     43  CB  ALA d   2       4.066  -9.846  -3.833  0.00  0.00    -0.038 C 
ATOM     44  HB1 ALA d   2       2.994  -9.970  -3.679  0.00  0.00     0.025 H 
ATOM     45  HB2 ALA d   2       4.460  -9.146  -3.096  0.00  0.00     0.025 H 
ATOM     46  HB3 ALA d   2       4.246  -9.457  -4.835  0.00  0.00     0.025 H 
ENDBRANCH   1  43
TORSDOF 2
ENDMDL
MODEL 9
REMARK VINA RESULT:      -5.4      4.696      7.409
REMARK  2 active torsions:
REMARK  status: ('A' for Active; 'I' for Inactive)
REMARK    1  A    between atoms: CB_1  and  CA_2 
REMARK       I    between atoms: N_9  and  C_16 
REMARK       I    between atoms: C_16  and  N_18 
REMARK    2  A    between atoms: N_18  and  C_19 
ROOT
ATOM      1  CA  ALA d   2      13.261  -1.573  -5.381  0.00  0.00     0.097 C 
ATOM      2  HA  ALA d   2      14.248  -1.870  -5.026  0.00  0.00     0.059 H 
ATOM      3  C   ALA d   2      12.934  -0.186  -4.874  0.00  0.00     0.236 C 
ATOM      4  O   ALA d   2      13.796   0.556  -4.453  0.00  0.00    -0.274 OA
ATOM      5  N   ALA d   2      12.247  -2.514  -4.871  0.00  0.00    -0.303 N 
ATOM      6  H   ALA d   2      12.496  -3.370  -4.489  0.00  0.00     0.149 HD
ATOM      7  N   UNK d   1      11.615   0.191  -4.908  0.00  0.00    -0.285 N 
ATOM      8  C   UNK d   1      11.245   1.442  -4.277  0.00  0.00     0.031 C 
ATOM      9  C   UNK d   1       9.843   1.904  -4.626  0.00  0.00     0.032 C 
ATOM     10  N   UNK d   1       8.935   0.767  -4.724  0.00  0.00    -0.282 N 
ATOM     11  C   UNK d   1       9.252  -0.372  -5.569  0.00  0.00     0.043 C 
ATOM     12  C   UNK d   1      10.704  -0.749  -5.534  0.00  0.00     0.118 C 
ATOM     13  H   UNK d   1      11.024  -0.805  -6.574  0.00  0.00     0.061 H 
ATOM     14  C   UNK d   1      10.942  -2.125  -4.961  0.00  0.00     0.236 C 
ATOM     15  O   UNK d   1      10.031  -2.841  -4.605  0.00  0.00    -0.274 OA
ATOM     16  C   UNK d   1       7.786   0.773  -4.021  0.00  0.00     0.302 C 
ATOM     17  O   UNK d   1       7.469   1.758  -3.381  0.00  0.00    -0.253 OA
ATOM     18  N   UNK d   1       6.986  -0.312  -4.027  0.00  0.00    -0.296 N 
ATOM     19  H   UNK d   1      11.953   2.212  -4.584  0.00  0.00     0.048 H 
ATOM     20  H   UNK d   1      11.313   1.319  -3.196  0.00  0.00     0.048 H 
ATOM     21  H   UNK d   1       9.866   2.430  -5.580  0.00  0.00     0.048 H 
ATOM     22  H   UNK d   1       9.486   2.583  -3.852  0.00  0.00     0.048 H 
ATOM     23  H   UNK d   1       8.977  -0.134  -6.596  0.00  0.00     0.049 H 
ATOM     24  H   UNK d   1       8.661  -1.227  -5.240  0.00  0.00     0.049 H 
ATOM     25  H   UNK d   1       7.272  -1.122  -4.477  0.00  0.00     0.150 HD
ENDROOT
BRANCH  18  26
ATOM     26  C   UNK d   1       5.686  -0.267  -3.354  0.00  0.00     0.025 C 
ATOM     27  C   UNK d   1       4.594   0.051  -4.376  0.00  0.00    -0.035 C 
ATOM     28  C   UNK d   1       3.235   0.099  -3.673  0.00  0.00    -0.051 C 
ATOM     29  H   UNK d   1       4.797   1.018  -4.837  0.00  0.00     0.028 H 
ATOM     30  H   UNK d   1       4.578  -0.722  -5.145  0.00  0.00     0.028 H 
ATOM     31  C   UNK d   1       2.949  -1.258  -3.025  0.00  0.00    -0.053 C 
ATOM     32  H   UNK d   1       3.250   0.871  -2.905  0.00  0.00     0.027 H 
ATOM     33  H   UNK d   1       2.456   0.325  -4.402  0.00  0.00     0.027 H 
ATOM     34  C   UNK d   1       4.042  -1.576  -2.003  0.00  0.00    -0.051 C 
ATOM     35  H   UNK d   1       1.981  -1.224  -2.525  0.00  0.00     0.026 H 
ATOM     36  H   UNK d   1       2.933  -2.031  -3.794  0.00  0.00     0.026 H 
ATOM     37  C   UNK d   1       5.399  -1.623  -2.706  0.00  0.00    -0.035 C 
ATOM     38  H   UNK d   1       4.057  -0.803  -1.235  0.00  0.00     0.027 H 
ATOM     39  H   UNK d   1       3.837  -2.543  -1.542  0.00  0.00     0.027 H 
ATOM     40  H   UNK d   1       5.385  -2.396  -3.475  0.00  0.00     0.028 H 
ATOM     41  H   UNK d   1       6.178  -1.849  -1.978  0.00  0.00     0.028 H 
ATOM     42  H   UNK d   1       5.701   0.507  -2.586  0.00  0.00     0.050 H 
ENDBRANCH  18  26
BRANCH   1  43
ATOM     43  CB  ALA d   2      13.243  -1.580  -6.911  0.00  0.00    -0.038 C 
ATOM     44  HB1 ALA d   2      14.026  -2.241  -7.282  0.00  0.00     0.025 H 
ATOM     45  HB2 ALA d   2      12.273  -1.935  -7.262  0.00  0.00     0.025 H 
ATOM     46  HB3 ALA d   2      13.414  -0.570  -7.282  0.00  0.00     0.025 H 
ENDBRANCH   1  43
TORSDOF 2
ENDMDL
MODEL 10
REMARK VINA RESULT:      -5.4      2.799      3.307
REMARK  2 active torsions:
REMARK  status: ('A' for Active; 'I' for Inactive)
REMARK    1  A    between atoms: CB_1  and  CA_2 
REMARK       I    between atoms: N_9  and  C_16 
REMARK       I    between atoms: C_16  and  N_18 
REMARK    2  A    between atoms: N_18  and  C_19 
ROOT
ATOM      1  CA  ALA d   2       4.936   1.417  -2.978  0.00  0.00     0.097 C 
ATOM      2  HA  ALA d   2       4.969   2.507  -3.005  0.00  0.00     0.059 H 
ATOM      3  C   ALA d   2       6.299   0.859  -3.324  0.00  0.00     0.236 C 
ATOM      4  O   ALA d   2       7.298   1.547  -3.279  0.00  0.00    -0.274 OA
ATOM      5  N   ALA d   2       3.959   0.926  -3.967  0.00  0.00    -0.303 N 
ATOM      6  H   ALA d   2       3.310   1.519  -4.376  0.00  0.00     0.149 HD
ATOM      7  N   UNK d   1       6.352  -0.460  -3.697  0.00  0.00    -0.285 N 
ATOM      8  C   UNK d   1       7.609  -0.980  -4.196  0.00  0.00     0.031 C 
ATOM      9  C   UNK d   1       7.642  -2.494  -4.294  0.00  0.00     0.032 C 
ATOM     10  N   UNK d   1       6.346  -3.011  -4.719  0.00  0.00    -0.282 N 
ATOM     11  C   UNK d   1       5.126  -2.635  -4.024  0.00  0.00     0.043 C 
ATOM     12  C   UNK d   1       5.103  -1.194  -3.605  0.00  0.00     0.118 C 
ATOM     13  H   UNK d   1       4.852  -1.195  -2.545  0.00  0.00     0.061 H 
ATOM     14  C   UNK d   1       4.012  -0.401  -4.281  0.00  0.00     0.236 C 
ATOM     15  O   UNK d   1       3.230  -0.911  -5.054  0.00  0.00    -0.274 OA
ATOM     16  C   UNK d   1       6.279  -3.848  -5.773  0.00  0.00     0.302 C 
ATOM     17  O   UNK d   1       7.301  -4.238  -6.306  0.00  0.00    -0.253 OA
ATOM     18  N   UNK d   1       5.080  -4.255  -6.236  0.00  0.00    -0.296 N 
ATOM     19  H   UNK d   1       8.410  -0.656  -3.531  0.00  0.00     0.048 H 
ATOM     20  H   UNK d   1       7.789  -0.563  -5.187  0.00  0.00     0.048 H 
ATOM     21  H   UNK d   1       7.893  -2.911  -3.319  0.00  0.00     0.048 H 
ATOM     22  H   UNK d   1       8.401  -2.791  -5.017  0.00  0.00     0.048 H 
ATOM     23  H   UNK d   1       5.022  -3.259  -3.137  0.00  0.00     0.049 H 
ATOM     24  H   UNK d   1       4.277  -2.821  -4.681  0.00  0.00     0.049 H 
ATOM     25  H   UNK d   1       4.266  -3.888  -5.858  0.00  0.00     0.150 HD
ENDROOT
BRANCH  18  26
ATOM     26  C   UNK d   1       5.009  -5.249  -7.308  0.00  0.00     0.025 C 
ATOM     27  C   UNK d   1       4.540  -6.587  -6.732  0.00  0.00    -0.035 C 
ATOM     28  C   UNK d   1       4.465  -7.627  -7.853  0.00  0.00    -0.051 C 
ATOM     29  H   UNK d   1       5.246  -6.922  -5.972  0.00  0.00     0.028 H 
ATOM     30  H   UNK d   1       3.554  -6.464  -6.284  0.00  0.00     0.028 H 
ATOM     31  C   UNK d   1       3.475  -7.155  -8.920  0.00  0.00    -0.053 C 
ATOM     32  H   UNK d   1       5.451  -7.749  -8.301  0.00  0.00     0.027 H 
ATOM     33  H   UNK d   1       4.132  -8.580  -7.442  0.00  0.00     0.027 H 
ATOM     34  C   UNK d   1       3.944  -5.818  -9.496  0.00  0.00    -0.051 C 
ATOM     35  H   UNK d   1       3.422  -7.897  -9.718  0.00  0.00     0.026 H 
ATOM     36  H   UNK d   1       2.489  -7.033  -8.472  0.00  0.00     0.026 H 
ATOM     37  C   UNK d   1       4.019  -4.779  -8.376  0.00  0.00    -0.035 C 
ATOM     38  H   UNK d   1       4.930  -5.941  -9.944  0.00  0.00     0.027 H 
ATOM     39  H   UNK d   1       3.238  -5.482 -10.256  0.00  0.00     0.027 H 
ATOM     40  H   UNK d   1       3.032  -4.656  -7.927  0.00  0.00     0.028 H 
ATOM     41  H   UNK d   1       4.353  -3.826  -8.786  0.00  0.00     0.028 H 
ATOM     42  H   UNK d   1       5.995  -5.373  -7.756  0.00  0.00     0.050 H 
ENDBRANCH  18  26
BRANCH   1  43
ATOM     43  CB  ALA d   2       4.529   0.950  -1.579  0.00  0.00    -0.038 C 
ATOM     44  HB1 ALA d   2       4.027  -0.015  -1.650  0.00  0.00     0.025 H 
ATOM     45  HB2 ALA d   2       5.418   0.852  -0.955  0.00  0.00     0.025 H 
ATOM     46  HB3 ALA d   2       3.852   1.679  -1.134  0.00  0.00     0.025 H 
ENDBRANCH   1  43
TORSDOF 2
ENDMDL
