MODEL 1
REMARK VINA RESULT:      -5.8      0.000      0.000
REMARK  8 active torsions:
REMARK  status: ('A' for Active; 'I' for Inactive)
REMARK    1  A    between atoms: C_1  and  C_2 
REMARK    2  A    between atoms: C_2  and  O_4 
REMARK    3  A    between atoms: O_4  and  C_5 
REMARK    4  A    between atoms: C_5  and  C_7 
REMARK    5  A    between atoms: C_5  and  C_18 
REMARK    6  A    between atoms: C_9  and  C_12 
REMARK    7  A    between atoms: C_20  and  O_25 
REMARK    8  A    between atoms: O_25  and  C_26 
ROOT
ATOM      1  C   LIG d   1       5.708  -1.160  -6.026  0.00  0.00     0.175 C 
ATOM      2  H   LIG d   1       5.055  -0.385  -5.625  0.00  0.00     0.080 H 
ENDROOT
BRANCH   1   3
ATOM      3  O   LIG d   1       7.070  -0.826  -5.748  0.00  0.00    -0.455 OA
BRANCH   3   4
ATOM      4  C   LIG d   1       7.324   0.440  -5.381  0.00  0.00     0.304 C 
ATOM      5  O   LIG d   1       7.374   1.313  -6.216  0.00  0.00    -0.251 OA
BRANCH   4   6
ATOM      6  C   LIG d   1       7.549   0.774  -3.929  0.00  0.00     0.033 C 
ATOM      7  H   LIG d   1       6.766   0.316  -3.325  0.00  0.00     0.034 H 
ATOM      8  H   LIG d   1       8.521   0.394  -3.615  0.00  0.00     0.034 H 
ATOM      9  H   LIG d   1       7.523   1.857  -3.798  0.00  0.00     0.034 H 
ENDBRANCH   4   6
ENDBRANCH   3   4
ENDBRANCH   1   3
BRANCH   1  10
ATOM     10  C   LIG d   1       5.369  -2.501  -5.373  0.00  0.00     0.130 A 
ATOM     11  H   LIG d   1       5.155  -3.321  -6.059  0.00  0.00     0.066 H 
ATOM     12  O   LIG d   1       6.009  -2.819  -4.134  0.00  0.00    -0.359 OA
ATOM     13  C   LIG d   1       4.623  -2.475  -4.037  0.00  0.00     0.114 A 
ATOM     14  H   LIG d   1       3.913  -3.278  -3.836  0.00  0.00     0.067 H 
BRANCH  13  15
ATOM     15  C   LIG d   1       4.270  -1.131  -3.455  0.00  0.00    -0.016 A 
ATOM     16  C   LIG d   1       4.820  -0.732  -2.251  0.00  0.00    -0.056 A 
ATOM     17  C   LIG d   1       4.500   0.503  -1.719  0.00  0.00    -0.061 A 
ATOM     18  H   LIG d   1       5.503  -1.385  -1.727  0.00  0.00     0.062 H 
ATOM     19  C   LIG d   1       3.623   1.336  -2.388  0.00  0.00    -0.062 A 
ATOM     20  H   LIG d   1       4.933   0.816  -0.781  0.00  0.00     0.062 H 
ATOM     21  C   LIG d   1       3.069   0.936  -3.589  0.00  0.00    -0.061 A 
ATOM     22  H   LIG d   1       3.371   2.300  -1.972  0.00  0.00     0.062 H 
ATOM     23  C   LIG d   1       3.392  -0.298  -4.122  0.00  0.00    -0.056 A 
ATOM     24  H   LIG d   1       2.383   1.587  -4.112  0.00  0.00     0.062 H 
ATOM     25  H   LIG d   1       2.960  -0.611  -5.062  0.00  0.00     0.062 H 
ENDBRANCH  13  15
ENDBRANCH   1  10
BRANCH   1  26
ATOM     26  C   LIG d   1       5.508  -1.263  -7.538  0.00  0.00     0.199 A 
ATOM     27  H   LIG d   1       6.455  -1.105  -8.056  0.00  0.00     0.086 H 
ATOM     28  O   LIG d   1       4.965  -2.545  -7.881  0.00  0.00    -0.446 OA
ATOM     29  C   LIG d   1       3.770  -2.341  -8.469  0.00  0.00     0.336 A 
ATOM     30  C   LIG d   1       3.475  -0.964  -8.545  0.00  0.00     0.064 A 
ATOM     31  O   LIG d   1       3.044  -3.226  -8.880  0.00  0.00    -0.245 OA
ATOM     32  C   LIG d   1       4.482  -0.255  -8.001  0.00  0.00     0.148 A 
ATOM     33  H   LIG d   1       2.578  -0.542  -8.973  0.00  0.00     0.072 H 
BRANCH  32  34
ATOM     34  O   LIG d   1       4.559   1.087  -7.892  0.00  0.00    -0.495 OA
BRANCH  34  35
ATOM     35  C   LIG d   1       4.796   1.824  -9.093  0.00  0.00     0.079 C 
ATOM     36  H   LIG d   1       5.742   2.358  -9.011  0.00  0.00     0.066 H 
ATOM     37  H   LIG d   1       4.836   1.138  -9.939  0.00  0.00     0.066 H 
ATOM     38  H   LIG d   1       3.987   2.540  -9.244  0.00  0.00     0.066 H 
ENDBRANCH  34  35
ENDBRANCH  32  34
ENDBRANCH   1  26
TORSDOF 8
ENDMDL
MODEL 2
REMARK VINA RESULT:      -5.7      1.651      5.428
REMARK  8 active torsions:
REMARK  status: ('A' for Active; 'I' for Inactive)
REMARK    1  A    between atoms: C_1  and  C_2 
REMARK    2  A    between atoms: C_2  and  O_4 
REMARK    3  A    between atoms: O_4  and  C_5 
REMARK    4  A    between atoms: C_5  and  C_7 
REMARK    5  A    between atoms: C_5  and  C_18 
REMARK    6  A    between atoms: C_9  and  C_12 
REMARK    7  A    between atoms: C_20  and  O_25 
REMARK    8  A    between atoms: O_25  and  C_26 
ROOT
ATOM      1  C   LIG d   1       4.986  -0.820  -6.088  0.00  0.00     0.175 C 
ATOM      2  H   LIG d   1       4.634   0.138  -6.469  0.00  0.00     0.080 H 
ENDROOT
BRANCH   1   3
ATOM      3  O   LIG d   1       4.145  -1.243  -5.012  0.00  0.00    -0.455 OA
BRANCH   3   4
ATOM      4  C   LIG d   1       3.311  -0.327  -4.495  0.00  0.00     0.304 C 
ATOM      5  O   LIG d   1       3.154   0.732  -5.055  0.00  0.00    -0.251 OA
BRANCH   4   6
ATOM      6  C   LIG d   1       2.569  -0.620  -3.216  0.00  0.00     0.033 C 
ATOM      7  H   LIG d   1       1.972   0.247  -2.936  0.00  0.00     0.034 H 
ATOM      8  H   LIG d   1       1.917  -1.480  -3.363  0.00  0.00     0.034 H 
ATOM      9  H   LIG d   1       3.286  -0.838  -2.423  0.00  0.00     0.034 H 
ENDBRANCH   4   6
ENDBRANCH   3   4
ENDBRANCH   1   3
BRANCH   1  10
ATOM     10  C   LIG d   1       4.941  -1.861  -7.208  0.00  0.00     0.130 A 
ATOM     11  H   LIG d   1       5.646  -2.688  -7.115  0.00  0.00     0.066 H 
ATOM     12  O   LIG d   1       3.676  -2.130  -7.818  0.00  0.00    -0.359 OA
ATOM     13  C   LIG d   1       4.593  -1.377  -8.618  0.00  0.00     0.114 A 
ATOM     14  H   LIG d   1       5.067  -1.883  -9.460  0.00  0.00     0.067 H 
BRANCH  13  15
ATOM     15  C   LIG d   1       4.319   0.092  -8.808  0.00  0.00    -0.016 A 
ATOM     16  C   LIG d   1       5.359   0.959  -9.090  0.00  0.00    -0.056 A 
ATOM     17  C   LIG d   1       5.107   2.307  -9.269  0.00  0.00    -0.061 A 
ATOM     18  H   LIG d   1       6.368   0.582  -9.174  0.00  0.00     0.062 H 
ATOM     19  C   LIG d   1       3.817   2.789  -9.157  0.00  0.00    -0.062 A 
ATOM     20  H   LIG d   1       5.919   2.982  -9.493  0.00  0.00     0.062 H 
ATOM     21  C   LIG d   1       2.778   1.924  -8.869  0.00  0.00    -0.061 A 
ATOM     22  H   LIG d   1       3.620   3.841  -9.293  0.00  0.00     0.062 H 
ATOM     23  C   LIG d   1       3.030   0.575  -8.694  0.00  0.00    -0.056 A 
ATOM     24  H   LIG d   1       1.769   2.301  -8.781  0.00  0.00     0.062 H 
ATOM     25  H   LIG d   1       2.218  -0.101  -8.470  0.00  0.00     0.062 H 
ENDBRANCH  13  15
ENDBRANCH   1  10
BRANCH   1  26
ATOM     26  C   LIG d   1       6.422  -0.673  -5.584  0.00  0.00     0.199 A 
ATOM     27  H   LIG d   1       7.125  -1.017  -6.343  0.00  0.00     0.086 H 
ATOM     28  O   LIG d   1       6.691   0.693  -5.242  0.00  0.00    -0.446 OA
ATOM     29  C   LIG d   1       6.998   0.736  -3.931  0.00  0.00     0.336 A 
ATOM     30  C   LIG d   1       6.952  -0.554  -3.362  0.00  0.00     0.064 A 
ATOM     31  O   LIG d   1       7.279   1.750  -3.321  0.00  0.00    -0.245 OA
ATOM     32  C   LIG d   1       6.610  -1.453  -4.303  0.00  0.00     0.148 A 
ATOM     33  H   LIG d   1       7.158  -0.785  -2.327  0.00  0.00     0.072 H 
BRANCH  32  34
ATOM     34  O   LIG d   1       6.465  -2.783  -4.137  0.00  0.00    -0.495 OA
BRANCH  34  35
ATOM     35  C   LIG d   1       7.565  -3.610  -4.522  0.00  0.00     0.079 C 
ATOM     36  H   LIG d   1       7.194  -4.585  -4.838  0.00  0.00     0.066 H 
ATOM     37  H   LIG d   1       8.103  -3.140  -5.345  0.00  0.00     0.066 H 
ATOM     38  H   LIG d   1       8.238  -3.737  -3.673  0.00  0.00     0.066 H 
ENDBRANCH  34  35
ENDBRANCH  32  34
ENDBRANCH   1  26
TORSDOF 8
ENDMDL
MODEL 3
REMARK VINA RESULT:      -5.7      1.746      4.151
REMARK  8 active torsions:
REMARK  status: ('A' for Active; 'I' for Inactive)
REMARK    1  A    between atoms: C_1  and  C_2 
REMARK    2  A    between atoms: C_2  and  O_4 
REMARK    3  A    between atoms: O_4  and  C_5 
REMARK    4  A    between atoms: C_5  and  C_7 
REMARK    5  A    between atoms: C_5  and  C_18 
REMARK    6  A    between atoms: C_9  and  C_12 
REMARK    7  A    between atoms: C_20  and  O_25 
REMARK    8  A    between atoms: O_25  and  C_26 
ROOT
ATOM      1  C   LIG d   1       6.780  -0.669  -5.579  0.00  0.00     0.175 C 
ATOM      2  H   LIG d   1       5.800  -0.943  -5.189  0.00  0.00     0.080 H 
ENDROOT
BRANCH   1   3
ATOM      3  O   LIG d   1       6.621   0.043  -6.808  0.00  0.00    -0.455 OA
BRANCH   3   4
ATOM      4  C   LIG d   1       5.365   0.274  -7.221  0.00  0.00     0.304 C 
ATOM      5  O   LIG d   1       5.158   1.057  -8.119  0.00  0.00    -0.251 OA
BRANCH   4   6
ATOM      6  C   LIG d   1       4.212  -0.442  -6.565  0.00  0.00     0.033 C 
ATOM      7  H   LIG d   1       4.263  -1.504  -6.800  0.00  0.00     0.034 H 
ATOM      8  H   LIG d   1       4.266  -0.304  -5.486  0.00  0.00     0.034 H 
ATOM      9  H   LIG d   1       3.272  -0.032  -6.938  0.00  0.00     0.034 H 
ENDBRANCH   4   6
ENDBRANCH   3   4
ENDBRANCH   1   3
BRANCH   1  10
ATOM     10  C   LIG d   1       7.502   0.219  -4.565  0.00  0.00     0.130 A 
ATOM     11  H   LIG d   1       8.589   0.136  -4.553  0.00  0.00     0.066 H 
ATOM     12  O   LIG d   1       6.928   1.495  -4.269  0.00  0.00    -0.359 OA
ATOM     13  C   LIG d   1       6.794   0.509  -3.239  0.00  0.00     0.114 A 
ATOM     14  H   LIG d   1       7.411   0.619  -2.347  0.00  0.00     0.067 H 
BRANCH  13  15
ATOM     15  C   LIG d   1       5.434  -0.101  -3.022  0.00  0.00    -0.016 A 
ATOM     16  C   LIG d   1       4.300   0.685  -3.114  0.00  0.00    -0.056 A 
ATOM     17  C   LIG d   1       3.052   0.124  -2.919  0.00  0.00    -0.061 A 
ATOM     18  H   LIG d   1       4.390   1.737  -3.343  0.00  0.00     0.062 H 
ATOM     19  C   LIG d   1       2.938  -1.221  -2.622  0.00  0.00    -0.062 A 
ATOM     20  H   LIG d   1       2.166   0.737  -2.995  0.00  0.00     0.062 H 
ATOM     21  C   LIG d   1       4.071  -2.006  -2.523  0.00  0.00    -0.061 A 
ATOM     22  H   LIG d   1       1.964  -1.659  -2.466  0.00  0.00     0.062 H 
ATOM     23  C   LIG d   1       5.319  -1.445  -2.723  0.00  0.00    -0.056 A 
ATOM     24  H   LIG d   1       3.982  -3.057  -2.291  0.00  0.00     0.062 H 
ATOM     25  H   LIG d   1       6.206  -2.059  -2.647  0.00  0.00     0.062 H 
ENDBRANCH  13  15
ENDBRANCH   1  10
BRANCH   1  26
ATOM     26  C   LIG d   1       7.602  -1.935  -5.827  0.00  0.00     0.199 A 
ATOM     27  H   LIG d   1       8.117  -1.869  -6.785  0.00  0.00     0.086 H 
ATOM     28  O   LIG d   1       8.550  -2.125  -4.768  0.00  0.00    -0.446 OA
ATOM     29  C   LIG d   1       8.269  -3.300  -4.171  0.00  0.00     0.336 A 
ATOM     30  C   LIG d   1       7.163  -3.924  -4.785  0.00  0.00     0.064 A 
ATOM     31  O   LIG d   1       8.888  -3.761  -3.231  0.00  0.00    -0.245 OA
ATOM     32  C   LIG d   1       6.710  -3.155  -5.792  0.00  0.00     0.148 A 
ATOM     33  H   LIG d   1       6.743  -4.874  -4.491  0.00  0.00     0.072 H 
BRANCH  32  34
ATOM     34  O   LIG d   1       5.670  -3.419  -6.607  0.00  0.00    -0.495 OA
BRANCH  34  35
ATOM     35  C   LIG d   1       4.581  -4.160  -6.051  0.00  0.00     0.079 C 
ATOM     36  H   LIG d   1       4.534  -5.143  -6.519  0.00  0.00     0.066 H 
ATOM     37  H   LIG d   1       4.730  -4.274  -4.977  0.00  0.00     0.066 H 
ATOM     38  H   LIG d   1       3.648  -3.627  -6.234  0.00  0.00     0.066 H 
ENDBRANCH  34  35
ENDBRANCH  32  34
ENDBRANCH   1  26
TORSDOF 8
ENDMDL
MODEL 4
REMARK VINA RESULT:      -5.7      1.093      1.568
REMARK  8 active torsions:
REMARK  status: ('A' for Active; 'I' for Inactive)
REMARK    1  A    between atoms: C_1  and  C_2 
REMARK    2  A    between atoms: C_2  and  O_4 
REMARK    3  A    between atoms: O_4  and  C_5 
REMARK    4  A    between atoms: C_5  and  C_7 
REMARK    5  A    between atoms: C_5  and  C_18 
REMARK    6  A    between atoms: C_9  and  C_12 
REMARK    7  A    between atoms: C_20  and  O_25 
REMARK    8  A    between atoms: O_25  and  C_26 
ROOT
ATOM      1  C   LIG d   1       5.605  -1.057  -6.145  0.00  0.00     0.175 C 
ATOM      2  H   LIG d   1       5.123  -0.252  -5.592  0.00  0.00     0.080 H 
ENDROOT
BRANCH   1   3
ATOM      3  O   LIG d   1       7.022  -0.965  -5.984  0.00  0.00    -0.455 OA
BRANCH   3   4
ATOM      4  C   LIG d   1       7.487   0.066  -5.261  0.00  0.00     0.304 C 
ATOM      5  O   LIG d   1       6.717   0.867  -4.785  0.00  0.00    -0.251 OA
BRANCH   4   6
ATOM      6  C   LIG d   1       8.970   0.227  -5.043  0.00  0.00     0.033 C 
ATOM      7  H   LIG d   1       9.257  -0.269  -4.116  0.00  0.00     0.034 H 
ATOM      8  H   LIG d   1       9.510  -0.220  -5.878  0.00  0.00     0.034 H 
ATOM      9  H   LIG d   1       9.214   1.288  -4.978  0.00  0.00     0.034 H 
ENDBRANCH   4   6
ENDBRANCH   3   4
ENDBRANCH   1   3
BRANCH   1  10
ATOM     10  C   LIG d   1       5.119  -2.406  -5.610  0.00  0.00     0.130 A 
ATOM     11  H   LIG d   1       4.827  -3.137  -6.365  0.00  0.00     0.066 H 
ATOM     12  O   LIG d   1       5.705  -2.893  -4.401  0.00  0.00    -0.359 OA
ATOM     13  C   LIG d   1       4.362  -2.414  -4.279  0.00  0.00     0.114 A 
ATOM     14  H   LIG d   1       3.569  -3.151  -4.150  0.00  0.00     0.067 H 
BRANCH  13  15
ATOM     15  C   LIG d   1       4.147  -1.093  -3.586  0.00  0.00    -0.016 A 
ATOM     16  C   LIG d   1       3.308  -0.147  -4.146  0.00  0.00    -0.056 A 
ATOM     17  C   LIG d   1       3.107   1.063  -3.508  0.00  0.00    -0.061 A 
ATOM     18  H   LIG d   1       2.808  -0.355  -5.080  0.00  0.00     0.062 H 
ATOM     19  C   LIG d   1       3.751   1.329  -2.315  0.00  0.00    -0.062 A 
ATOM     20  H   LIG d   1       2.449   1.799  -3.943  0.00  0.00     0.062 H 
ATOM     21  C   LIG d   1       4.594   0.386  -1.758  0.00  0.00    -0.061 A 
ATOM     22  H   LIG d   1       3.596   2.275  -1.818  0.00  0.00     0.062 H 
ATOM     23  C   LIG d   1       4.792  -0.825  -2.394  0.00  0.00    -0.056 A 
ATOM     24  H   LIG d   1       5.098   0.595  -0.825  0.00  0.00     0.062 H 
ATOM     25  H   LIG d   1       5.450  -1.563  -1.959  0.00  0.00     0.062 H 
ENDBRANCH  13  15
ENDBRANCH   1  10
BRANCH   1  26
ATOM     26  C   LIG d   1       5.253  -0.940  -7.629  0.00  0.00     0.199 A 
ATOM     27  H   LIG d   1       6.029  -1.402  -8.238  0.00  0.00     0.086 H 
ATOM     28  O   LIG d   1       3.985  -1.557  -7.888  0.00  0.00    -0.446 OA
ATOM     29  C   LIG d   1       3.155  -0.607  -8.363  0.00  0.00     0.336 A 
ATOM     30  C   LIG d   1       3.810   0.640  -8.441  0.00  0.00     0.064 A 
ATOM     31  O   LIG d   1       1.998  -0.800  -8.683  0.00  0.00    -0.245 OA
ATOM     32  C   LIG d   1       5.080   0.512  -8.013  0.00  0.00     0.148 A 
ATOM     33  H   LIG d   1       3.361   1.558  -8.789  0.00  0.00     0.072 H 
BRANCH  32  34
ATOM     34  O   LIG d   1       6.010   1.485  -7.941  0.00  0.00    -0.495 OA
BRANCH  34  35
ATOM     35  C   LIG d   1       7.139   1.369  -8.810  0.00  0.00     0.079 C 
ATOM     36  H   LIG d   1       7.703   2.302  -8.798  0.00  0.00     0.066 H 
ATOM     37  H   LIG d   1       7.777   0.553  -8.471  0.00  0.00     0.066 H 
ATOM     38  H   LIG d   1       6.797   1.165  -9.824  0.00  0.00     0.066 H 
ENDBRANCH  34  35
ENDBRANCH  32  34
ENDBRANCH   1  26
TORSDOF 8
ENDMDL
MODEL 5
REMARK VINA RESULT:      -5.7      1.381      2.482
REMARK  8 active torsions:
REMARK  status: ('A' for Active; 'I' for Inactive)
REMARK    1  A    between atoms: C_1  and  C_2 
REMARK    2  A    between atoms: C_2  and  O_4 
REMARK    3  A    between atoms: O_4  and  C_5 
REMARK    4  A    between atoms: C_5  and  C_7 
REMARK    5  A    between atoms: C_5  and  C_18 
REMARK    6  A    between atoms: C_9  and  C_12 
REMARK    7  A    between atoms: C_20  and  O_25 
REMARK    8  A    between atoms: O_25  and  C_26 
ROOT
ATOM      1  C   LIG d   1       4.868  -0.879  -6.495  0.00  0.00     0.175 C 
ATOM      2  H   LIG d   1       5.024  -0.198  -5.660  0.00  0.00     0.080 H 
ENDROOT
BRANCH   1   3
ATOM      3  O   LIG d   1       5.930  -0.726  -7.440  0.00  0.00    -0.455 OA
BRANCH   3   4
ATOM      4  C   LIG d   1       6.820   0.250  -7.203  0.00  0.00     0.304 C 
ATOM      5  O   LIG d   1       6.642   1.355  -7.659  0.00  0.00    -0.251 OA
BRANCH   4   6
ATOM      6  C   LIG d   1       8.044  -0.032  -6.368  0.00  0.00     0.033 C 
ATOM      7  H   LIG d   1       8.933   0.029  -6.994  0.00  0.00     0.034 H 
ATOM      8  H   LIG d   1       8.112   0.701  -5.565  0.00  0.00     0.034 H 
ATOM      9  H   LIG d   1       7.968  -1.033  -5.941  0.00  0.00     0.034 H 
ENDBRANCH   4   6
ENDBRANCH   3   4
ENDBRANCH   1   3
BRANCH   1  10
ATOM     10  C   LIG d   1       4.848  -2.320  -5.981  0.00  0.00     0.130 A 
ATOM     11  H   LIG d   1       4.425  -3.059  -6.662  0.00  0.00     0.066 H 
ATOM     12  O   LIG d   1       5.913  -2.736  -5.124  0.00  0.00    -0.359 OA
ATOM     13  C   LIG d   1       4.651  -2.538  -4.479  0.00  0.00     0.114 A 
ATOM     14  H   LIG d   1       4.097  -3.423  -4.163  0.00  0.00     0.067 H 
BRANCH  13  15
ATOM     15  C   LIG d   1       4.488  -1.320  -3.608  0.00  0.00    -0.016 A 
ATOM     16  C   LIG d   1       5.604  -0.650  -3.141  0.00  0.00    -0.056 A 
ATOM     17  C   LIG d   1       5.455   0.471  -2.345  0.00  0.00    -0.061 A 
ATOM     18  H   LIG d   1       6.592  -1.000  -3.401  0.00  0.00     0.062 H 
ATOM     19  C   LIG d   1       4.190   0.916  -2.009  0.00  0.00    -0.062 A 
ATOM     20  H   LIG d   1       6.326   0.996  -1.984  0.00  0.00     0.062 H 
ATOM     21  C   LIG d   1       3.075   0.242  -2.470  0.00  0.00    -0.061 A 
ATOM     22  H   LIG d   1       4.074   1.789  -1.385  0.00  0.00     0.062 H 
ATOM     23  C   LIG d   1       3.224  -0.875  -3.270  0.00  0.00    -0.056 A 
ATOM     24  H   LIG d   1       2.087   0.591  -2.208  0.00  0.00     0.062 H 
ATOM     25  H   LIG d   1       2.352  -1.401  -3.632  0.00  0.00     0.062 H 
ENDBRANCH  13  15
ENDBRANCH   1  10
BRANCH   1  26
ATOM     26  C   LIG d   1       3.534  -0.560  -7.172  0.00  0.00     0.199 A 
ATOM     27  H   LIG d   1       2.753  -1.220  -6.796  0.00  0.00     0.086 H 
ATOM     28  O   LIG d   1       3.177   0.810  -6.944  0.00  0.00    -0.446 OA
ATOM     29  C   LIG d   1       3.101   1.420  -8.143  0.00  0.00     0.336 A 
ATOM     30  C   LIG d   1       3.390   0.516  -9.187  0.00  0.00     0.064 A 
ATOM     31  O   LIG d   1       2.819   2.592  -8.303  0.00  0.00    -0.245 OA
ATOM     32  C   LIG d   1       3.662  -0.698  -8.672  0.00  0.00     0.148 A 
ATOM     33  H   LIG d   1       3.395   0.762 -10.238  0.00  0.00     0.072 H 
BRANCH  32  34
ATOM     34  O   LIG d   1       3.982  -1.813  -9.358  0.00  0.00    -0.495 OA
BRANCH  34  35
ATOM     35  C   LIG d   1       3.085  -2.921  -9.253  0.00  0.00     0.079 C 
ATOM     36  H   LIG d   1       3.657  -3.841  -9.139  0.00  0.00     0.066 H 
ATOM     37  H   LIG d   1       2.437  -2.783  -8.388  0.00  0.00     0.066 H 
ATOM     38  H   LIG d   1       2.477  -2.981 -10.157  0.00  0.00     0.066 H 
ENDBRANCH  34  35
ENDBRANCH  32  34
ENDBRANCH   1  26
TORSDOF 8
ENDMDL
MODEL 6
REMARK VINA RESULT:      -5.4      1.711      3.696
REMARK  8 active torsions:
REMARK  status: ('A' for Active; 'I' for Inactive)
REMARK    1  A    between atoms: C_1  and  C_2 
REMARK    2  A    between atoms: C_2  and  O_4 
REMARK    3  A    between atoms: O_4  and  C_5 
REMARK    4  A    between atoms: C_5  and  C_7 
REMARK    5  A    between atoms: C_5  and  C_18 
REMARK    6  A    between atoms: C_9  and  C_12 
REMARK    7  A    between atoms: C_20  and  O_25 
REMARK    8  A    between atoms: O_25  and  C_26 
ROOT
ATOM      1  C   LIG d   1       5.314  -0.830  -6.331  0.00  0.00     0.175 C 
ATOM      2  H   LIG d   1       4.900  -1.138  -5.372  0.00  0.00     0.080 H 
ENDROOT
BRANCH   1   3
ATOM      3  O   LIG d   1       4.517   0.224  -6.878  0.00  0.00    -0.455 OA
BRANCH   3   4
ATOM      4  C   LIG d   1       3.196   0.167  -6.652  0.00  0.00     0.304 C 
ATOM      5  O   LIG d   1       2.435  -0.042  -7.567  0.00  0.00    -0.251 OA
BRANCH   4   6
ATOM      6  C   LIG d   1       2.659   0.365  -5.257  0.00  0.00     0.033 C 
ATOM      7  H   LIG d   1       3.030   1.308  -4.855  0.00  0.00     0.034 H 
ATOM      8  H   LIG d   1       1.570   0.385  -5.287  0.00  0.00     0.034 H 
ATOM      9  H   LIG d   1       2.991  -0.456  -4.621  0.00  0.00     0.034 H 
ENDBRANCH   4   6
ENDBRANCH   3   4
ENDBRANCH   1   3
BRANCH   1  10
ATOM     10  C   LIG d   1       6.748  -0.333  -6.132  0.00  0.00     0.130 A 
ATOM     11  H   LIG d   1       7.498  -0.779  -6.786  0.00  0.00     0.066 H 
ATOM     12  O   LIG d   1       6.932   1.028  -5.738  0.00  0.00    -0.359 OA
ATOM     13  C   LIG d   1       7.177   0.057  -4.716  0.00  0.00     0.114 A 
ATOM     14  H   LIG d   1       8.212  -0.129  -4.429  0.00  0.00     0.067 H 
BRANCH  13  15
ATOM     15  C   LIG d   1       6.159  -0.075  -3.612  0.00  0.00    -0.016 A 
ATOM     16  C   LIG d   1       5.760  -1.329  -3.186  0.00  0.00    -0.056 A 
ATOM     17  C   LIG d   1       4.830  -1.450  -2.171  0.00  0.00    -0.061 A 
ATOM     18  H   LIG d   1       6.178  -2.213  -3.645  0.00  0.00     0.062 H 
ATOM     19  C   LIG d   1       4.292  -0.318  -1.588  0.00  0.00    -0.062 A 
ATOM     20  H   LIG d   1       4.521  -2.429  -1.836  0.00  0.00     0.062 H 
ATOM     21  C   LIG d   1       4.687   0.934  -2.018  0.00  0.00    -0.061 A 
ATOM     22  H   LIG d   1       3.564  -0.413  -0.797  0.00  0.00     0.062 H 
ATOM     23  C   LIG d   1       5.620   1.056  -3.030  0.00  0.00    -0.056 A 
ATOM     24  H   LIG d   1       4.266   1.819  -1.561  0.00  0.00     0.062 H 
ATOM     25  H   LIG d   1       5.930   2.035  -3.365  0.00  0.00     0.062 H 
ENDBRANCH  13  15
ENDBRANCH   1  10
BRANCH   1  26
ATOM     26  C   LIG d   1       5.315  -2.019  -7.293  0.00  0.00     0.199 A 
ATOM     27  H   LIG d   1       4.308  -2.426  -7.390  0.00  0.00     0.086 H 
ATOM     28  O   LIG d   1       5.813  -1.619  -8.576  0.00  0.00    -0.446 OA
ATOM     29  C   LIG d   1       6.920  -2.344  -8.832  0.00  0.00     0.336 A 
ATOM     30  C   LIG d   1       7.197  -3.230  -7.769  0.00  0.00     0.064 A 
ATOM     31  O   LIG d   1       7.589  -2.249  -9.843  0.00  0.00    -0.245 OA
ATOM     32  C   LIG d   1       6.268  -3.086  -6.806  0.00  0.00     0.148 A 
ATOM     33  H   LIG d   1       8.029  -3.917  -7.734  0.00  0.00     0.072 H 
BRANCH  32  34
ATOM     34  O   LIG d   1       6.201  -3.760  -5.640  0.00  0.00    -0.495 OA
BRANCH  34  35
ATOM     35  C   LIG d   1       4.974  -4.430  -5.346  0.00  0.00     0.079 C 
ATOM     36  H   LIG d   1       4.372  -4.500  -6.252  0.00  0.00     0.066 H 
ATOM     37  H   LIG d   1       5.187  -5.431  -4.972  0.00  0.00     0.066 H 
ATOM     38  H   LIG d   1       4.426  -3.868  -4.589  0.00  0.00     0.066 H 
ENDBRANCH  34  35
ENDBRANCH  32  34
ENDBRANCH   1  26
TORSDOF 8
ENDMDL
MODEL 7
REMARK VINA RESULT:      -5.4      1.652      3.195
REMARK  8 active torsions:
REMARK  status: ('A' for Active; 'I' for Inactive)
REMARK    1  A    between atoms: C_1  and  C_2 
REMARK    2  A    between atoms: C_2  and  O_4 
REMARK    3  A    between atoms: O_4  and  C_5 
REMARK    4  A    between atoms: C_5  and  C_7 
REMARK    5  A    between atoms: C_5  and  C_18 
REMARK    6  A    between atoms: C_9  and  C_12 
REMARK    7  A    between atoms: C_20  and  O_25 
REMARK    8  A    between atoms: O_25  and  C_26 
ROOT
ATOM      1  C   LIG d   1       5.332  -1.426  -6.842  0.00  0.00     0.175 C 
ATOM      2  H   LIG d   1       4.502  -1.346  -6.141  0.00  0.00     0.080 H 
ENDROOT
BRANCH   1   3
ATOM      3  O   LIG d   1       5.054  -0.639  -8.002  0.00  0.00    -0.455 OA
BRANCH   3   4
ATOM      4  C   LIG d   1       4.106   0.304  -7.885  0.00  0.00     0.304 C 
ATOM      5  O   LIG d   1       4.371   1.460  -8.117  0.00  0.00    -0.251 OA
BRANCH   4   6
ATOM      6  C   LIG d   1       2.710  -0.079  -7.464  0.00  0.00     0.033 C 
ATOM      7  H   LIG d   1       2.049   0.780  -7.573  0.00  0.00     0.034 H 
ATOM      8  H   LIG d   1       2.353  -0.895  -8.092  0.00  0.00     0.034 H 
ATOM      9  H   LIG d   1       2.721  -0.399  -6.422  0.00  0.00     0.034 H 
ENDBRANCH   4   6
ENDBRANCH   3   4
ENDBRANCH   1   3
BRANCH   1  10
ATOM     10  C   LIG d   1       6.613  -0.919  -6.177  0.00  0.00     0.130 A 
ATOM     11  H   LIG d   1       7.544  -1.329  -6.568  0.00  0.00     0.066 H 
ATOM     12  O   LIG d   1       6.627   0.430  -5.702  0.00  0.00    -0.359 OA
ATOM     13  C   LIG d   1       6.555  -0.576  -4.686  0.00  0.00     0.114 A 
ATOM     14  H   LIG d   1       7.447  -0.759  -4.088  0.00  0.00     0.067 H 
BRANCH  13  15
ATOM     15  C   LIG d   1       5.240  -0.764  -3.974  0.00  0.00    -0.016 A 
ATOM     16  C   LIG d   1       4.258   0.205  -4.068  0.00  0.00    -0.056 A 
ATOM     17  C   LIG d   1       3.050   0.031  -3.418  0.00  0.00    -0.061 A 
ATOM     18  H   LIG d   1       4.433   1.096  -4.653  0.00  0.00     0.062 H 
ATOM     19  C   LIG d   1       2.829  -1.107  -2.666  0.00  0.00    -0.062 A 
ATOM     20  H   LIG d   1       2.282   0.785  -3.496  0.00  0.00     0.062 H 
ATOM     21  C   LIG d   1       3.813  -2.072  -2.566  0.00  0.00    -0.061 A 
ATOM     22  H   LIG d   1       1.887  -1.242  -2.156  0.00  0.00     0.062 H 
ATOM     23  C   LIG d   1       5.018  -1.900  -3.220  0.00  0.00    -0.056 A 
ATOM     24  H   LIG d   1       3.639  -2.962  -1.978  0.00  0.00     0.062 H 
ATOM     25  H   LIG d   1       5.788  -2.655  -3.143  0.00  0.00     0.062 H 
ENDBRANCH  13  15
ENDBRANCH   1  10
BRANCH   1  26
ATOM     26  C   LIG d   1       5.515  -2.889  -7.252  0.00  0.00     0.199 A 
ATOM     27  H   LIG d   1       6.559  -3.084  -7.495  0.00  0.00     0.086 H 
ATOM     28  O   LIG d   1       5.081  -3.757  -6.197  0.00  0.00    -0.446 OA
ATOM     29  C   LIG d   1       4.068  -4.508  -6.673  0.00  0.00     0.336 A 
ATOM     30  C   LIG d   1       3.794  -4.187  -8.020  0.00  0.00     0.064 A 
ATOM     31  O   LIG d   1       3.472  -5.351  -6.030  0.00  0.00    -0.245 OA
ATOM     32  C   LIG d   1       4.630  -3.216  -8.433  0.00  0.00     0.148 A 
ATOM     33  H   LIG d   1       3.029  -4.649  -8.626  0.00  0.00     0.072 H 
BRANCH  32  34
ATOM     34  O   LIG d   1       4.670  -2.650  -9.655  0.00  0.00    -0.495 OA
BRANCH  34  35
ATOM     35  C   LIG d   1       3.459  -2.659 -10.415  0.00  0.00     0.079 C 
ATOM     36  H   LIG d   1       3.223  -3.680 -10.711  0.00  0.00     0.066 H 
ATOM     37  H   LIG d   1       2.647  -2.257  -9.809  0.00  0.00     0.066 H 
ATOM     38  H   LIG d   1       3.586  -2.043 -11.306  0.00  0.00     0.066 H 
ENDBRANCH  34  35
ENDBRANCH  32  34
ENDBRANCH   1  26
TORSDOF 8
ENDMDL
MODEL 8
REMARK VINA RESULT:      -5.2      1.613      2.909
REMARK  8 active torsions:
REMARK  status: ('A' for Active; 'I' for Inactive)
REMARK    1  A    between atoms: C_1  and  C_2 
REMARK    2  A    between atoms: C_2  and  O_4 
REMARK    3  A    between atoms: O_4  and  C_5 
REMARK    4  A    between atoms: C_5  and  C_7 
REMARK    5  A    between atoms: C_5  and  C_18 
REMARK    6  A    between atoms: C_9  and  C_12 
REMARK    7  A    between atoms: C_20  and  O_25 
REMARK    8  A    between atoms: O_25  and  C_26 
ROOT
ATOM      1  C   LIG d   1       5.238  -0.624  -6.760  0.00  0.00     0.175 C 
ATOM      2  H   LIG d   1       4.599  -0.880  -5.915  0.00  0.00     0.080 H 
ENDROOT
BRANCH   1   3
ATOM      3  O   LIG d   1       4.690   0.504  -7.447  0.00  0.00    -0.455 OA
BRANCH   3   4
ATOM      4  C   LIG d   1       3.453   0.888  -7.096  0.00  0.00     0.304 C 
ATOM      5  O   LIG d   1       2.892   1.762  -7.716  0.00  0.00    -0.251 OA
BRANCH   4   6
ATOM      6  C   LIG d   1       2.761   0.233  -5.928  0.00  0.00     0.033 C 
ATOM      7  H   LIG d   1       1.702   0.112  -6.153  0.00  0.00     0.034 H 
ATOM      8  H   LIG d   1       3.208  -0.744  -5.743  0.00  0.00     0.034 H 
ATOM      9  H   LIG d   1       2.875   0.858  -5.042  0.00  0.00     0.034 H 
ENDBRANCH   4   6
ENDBRANCH   3   4
ENDBRANCH   1   3
BRANCH   1  10
ATOM     10  C   LIG d   1       6.639  -0.279  -6.252  0.00  0.00     0.130 A 
ATOM     11  H   LIG d   1       7.460  -0.517  -6.929  0.00  0.00     0.066 H 
ATOM     12  O   LIG d   1       6.779   0.871  -5.414  0.00  0.00    -0.359 OA
ATOM     13  C   LIG d   1       6.900  -0.390  -4.748  0.00  0.00     0.114 A 
ATOM     14  H   LIG d   1       7.894  -0.703  -4.427  0.00  0.00     0.067 H 
BRANCH  13  15
ATOM     15  C   LIG d   1       5.760  -0.834  -3.868  0.00  0.00    -0.016 A 
ATOM     16  C   LIG d   1       5.116   0.081  -3.056  0.00  0.00    -0.056 A 
ATOM     17  C   LIG d   1       4.067  -0.326  -2.252  0.00  0.00    -0.061 A 
ATOM     18  H   LIG d   1       5.431   1.114  -3.052  0.00  0.00     0.062 H 
ATOM     19  C   LIG d   1       3.668  -1.649  -2.255  0.00  0.00    -0.062 A 
ATOM     20  H   LIG d   1       3.562   0.390  -1.621  0.00  0.00     0.062 H 
ATOM     21  C   LIG d   1       4.315  -2.565  -3.062  0.00  0.00    -0.061 A 
ATOM     22  H   LIG d   1       2.851  -1.967  -1.625  0.00  0.00     0.062 H 
ATOM     23  C   LIG d   1       5.361  -2.157  -3.869  0.00  0.00    -0.056 A 
ATOM     24  H   LIG d   1       4.003  -3.599  -3.063  0.00  0.00     0.062 H 
ATOM     25  H   LIG d   1       5.867  -2.873  -4.501  0.00  0.00     0.062 H 
ENDBRANCH  13  15
ENDBRANCH   1  10
BRANCH   1  26
ATOM     26  C   LIG d   1       5.320  -1.813  -7.718  0.00  0.00     0.199 A 
ATOM     27  H   LIG d   1       6.125  -2.484  -7.417  0.00  0.00     0.086 H 
ATOM     28  O   LIG d   1       4.072  -2.517  -7.743  0.00  0.00    -0.446 OA
ATOM     29  C   LIG d   1       3.597  -2.467  -9.003  0.00  0.00     0.336 A 
ATOM     30  C   LIG d   1       4.478  -1.755  -9.844  0.00  0.00     0.064 A 
ATOM     31  O   LIG d   1       2.551  -2.970  -9.367  0.00  0.00    -0.245 OA
ATOM     32  C   LIG d   1       5.539  -1.331  -9.133  0.00  0.00     0.148 A 
ATOM     33  H   LIG d   1       4.323  -1.576 -10.898  0.00  0.00     0.072 H 
BRANCH  32  34
ATOM     34  O   LIG d   1       6.587  -0.619  -9.593  0.00  0.00    -0.495 OA
BRANCH  34  35
ATOM     35  C   LIG d   1       7.840  -1.300  -9.696  0.00  0.00     0.079 C 
ATOM     36  H   LIG d   1       7.977  -1.944  -8.828  0.00  0.00     0.066 H 
ATOM     37  H   LIG d   1       7.851  -1.904 -10.603  0.00  0.00     0.066 H 
ATOM     38  H   LIG d   1       8.648  -0.569  -9.737  0.00  0.00     0.066 H 
ENDBRANCH  34  35
ENDBRANCH  32  34
ENDBRANCH   1  26
TORSDOF 8
ENDMDL
MODEL 9
REMARK VINA RESULT:      -5.1      2.068      5.062
REMARK  8 active torsions:
REMARK  status: ('A' for Active; 'I' for Inactive)
REMARK    1  A    between atoms: C_1  and  C_2 
REMARK    2  A    between atoms: C_2  and  O_4 
REMARK    3  A    between atoms: O_4  and  C_5 
REMARK    4  A    between atoms: C_5  and  C_7 
REMARK    5  A    between atoms: C_5  and  C_18 
REMARK    6  A    between atoms: C_9  and  C_12 
REMARK    7  A    between atoms: C_20  and  O_25 
REMARK    8  A    between atoms: O_25  and  C_26 
ROOT
ATOM      1  C   LIG d   1       4.570  -0.912  -6.464  0.00  0.00     0.175 C 
ATOM      2  H   LIG d   1       4.520  -0.974  -7.550  0.00  0.00     0.080 H 
ENDROOT
BRANCH   1   3
ATOM      3  O   LIG d   1       5.629  -0.029  -6.085  0.00  0.00    -0.455 OA
BRANCH   3   4
ATOM      4  C   LIG d   1       6.417   0.433  -7.068  0.00  0.00     0.304 C 
ATOM      5  O   LIG d   1       7.089   1.422  -6.889  0.00  0.00    -0.251 OA
BRANCH   4   6
ATOM      6  C   LIG d   1       6.464  -0.278  -8.396  0.00  0.00     0.033 C 
ATOM      7  H   LIG d   1       5.570  -0.889  -8.513  0.00  0.00     0.034 H 
ATOM      8  H   LIG d   1       6.512   0.456  -9.199  0.00  0.00     0.034 H 
ATOM      9  H   LIG d   1       7.348  -0.917  -8.433  0.00  0.00     0.034 H 
ENDBRANCH   4   6
ENDBRANCH   3   4
ENDBRANCH   1   3
BRANCH   1  10
ATOM     10  C   LIG d   1       3.242  -0.376  -5.923  0.00  0.00     0.130 A 
ATOM     11  H   LIG d   1       2.742  -1.005  -5.188  0.00  0.00     0.066 H 
ATOM     12  O   LIG d   1       3.099   1.041  -5.795  0.00  0.00    -0.359 OA
ATOM     13  C   LIG d   1       2.367   0.447  -6.872  0.00  0.00     0.114 A 
ATOM     14  H   LIG d   1       1.285   0.363  -6.765  0.00  0.00     0.067 H 
BRANCH  13  15
ATOM     15  C   LIG d   1       2.869   0.672  -8.274  0.00  0.00    -0.016 A 
ATOM     16  C   LIG d   1       3.436   1.885  -8.620  0.00  0.00    -0.056 A 
ATOM     17  C   LIG d   1       3.901   2.090  -9.906  0.00  0.00    -0.061 A 
ATOM     18  H   LIG d   1       3.518   2.671  -7.884  0.00  0.00     0.062 H 
ATOM     19  C   LIG d   1       3.792   1.085 -10.848  0.00  0.00    -0.062 A 
ATOM     20  H   LIG d   1       4.347   3.035 -10.174  0.00  0.00     0.062 H 
ATOM     21  C   LIG d   1       3.220  -0.125 -10.504  0.00  0.00    -0.061 A 
ATOM     22  H   LIG d   1       4.152   1.246 -11.853  0.00  0.00     0.062 H 
ATOM     23  C   LIG d   1       2.759  -0.332  -9.218  0.00  0.00    -0.056 A 
ATOM     24  H   LIG d   1       3.134  -0.911 -11.241  0.00  0.00     0.062 H 
ATOM     25  H   LIG d   1       2.312  -1.279  -8.949  0.00  0.00     0.062 H 
ENDBRANCH  13  15
ENDBRANCH   1  10
BRANCH   1  26
ATOM     26  C   LIG d   1       4.833  -2.302  -5.883  0.00  0.00     0.199 A 
ATOM     27  H   LIG d   1       3.895  -2.841  -5.757  0.00  0.00     0.086 H 
ATOM     28  O   LIG d   1       5.716  -3.038  -6.740  0.00  0.00    -0.446 OA
ATOM     29  C   LIG d   1       6.826  -3.330  -6.034  0.00  0.00     0.336 A 
ATOM     30  C   LIG d   1       6.734  -2.822  -4.721  0.00  0.00     0.064 A 
ATOM     31  O   LIG d   1       7.777  -3.950  -6.469  0.00  0.00    -0.245 OA
ATOM     32  C   LIG d   1       5.557  -2.189  -4.561  0.00  0.00     0.148 A 
ATOM     33  H   LIG d   1       7.493  -2.924  -3.960  0.00  0.00     0.072 H 
BRANCH  32  34
ATOM     34  O   LIG d   1       5.113  -1.577  -3.445  0.00  0.00    -0.495 OA
BRANCH  34  35
ATOM     35  C   LIG d   1       4.036  -2.204  -2.745  0.00  0.00     0.079 C 
ATOM     36  H   LIG d   1       4.381  -2.530  -1.764  0.00  0.00     0.066 H 
ATOM     37  H   LIG d   1       3.218  -1.494  -2.627  0.00  0.00     0.066 H 
ATOM     38  H   LIG d   1       3.688  -3.068  -3.313  0.00  0.00     0.066 H 
ENDBRANCH  34  35
ENDBRANCH  32  34
ENDBRANCH   1  26
TORSDOF 8
ENDMDL
