MODEL 1
REMARK VINA RESULT:      -7.5      0.000      0.000
REMARK  14 active torsions:
REMARK  status: ('A' for Active; 'I' for Inactive)
REMARK    1  A    between atoms: C_1  and  C_2 
REMARK    2  A    between atoms: C_2  and  C_4 
REMARK    3  A    between atoms: C_2  and  C_18 
REMARK    4  A    between atoms: C_4  and  C_5 
REMARK    5  A    between atoms: C_5  and  C_6 
REMARK       I    between atoms: C_6  and  N_8 
REMARK    6  A    between atoms: N_8  and  C_9 
REMARK    7  A    between atoms: C_9  and  C_10 
REMARK    8  A    between atoms: C_10  and  S_11 
REMARK    9  A    between atoms: S_11  and  C_12 
REMARK   10  A    between atoms: C_24  and  C_47 
REMARK   11  A    between atoms: C_25  and  O_46 
REMARK   12  A    between atoms: C_32  and  O_45 
REMARK   13  A    between atoms: C_37  and  C_44 
REMARK   14  A    between atoms: C_40  and  O_43 
ROOT
ATOM      1  C   LIG d   1       9.479   3.992  -4.941  0.00  0.00    -0.030 C 
ATOM      2  H   LIG d   1       8.456   4.334  -5.103  0.00  0.00     0.031 H 
ATOM      3  C   LIG d   1       9.518   2.937  -3.807  0.00  0.00    -0.049 C 
ATOM      4  C   LIG d   1      10.351   3.563  -2.656  0.00  0.00    -0.049 C 
ATOM      5  C   LIG d   1      10.208   5.068  -2.908  0.00  0.00    -0.028 C 
ATOM      6  H   LIG d   1       9.221   5.412  -2.600  0.00  0.00     0.031 H 
ATOM      7  C   LIG d   1      10.351   5.145  -4.453  0.00  0.00     0.000 C 
ATOM      8  C   LIG d   1       9.934   6.538  -4.882  0.00  0.00     0.061 C 
ATOM      9  H   LIG d   1       9.954   6.612  -5.969  0.00  0.00     0.060 H 
ATOM     10  C   LIG d   1      10.942   7.525  -4.270  0.00  0.00    -0.023 C 
ATOM     11  C   LIG d   1      10.997   7.393  -2.752  0.00  0.00    -0.028 C 
ATOM     12  H   LIG d   1      10.030   7.680  -2.339  0.00  0.00     0.031 H 
ATOM     13  C   LIG d   1      11.286   5.947  -2.301  0.00  0.00    -0.008 C 
ATOM     14  H   LIG d   1      12.263   5.641  -2.674  0.00  0.00     0.033 H 
ATOM     15  C   LIG d   1      11.245   5.863  -0.774  0.00  0.00     0.059 C 
ATOM     16  H   LIG d   1      11.447   4.839  -0.461  0.00  0.00     0.060 H 
ATOM     17  C   LIG d   1      12.303   6.796  -0.184  0.00  0.00    -0.023 C 
ATOM     18  C   LIG d   1      12.018   8.234  -0.621  0.00  0.00    -0.031 C 
ATOM     19  H   LIG d   1      12.771   8.899  -0.198  0.00  0.00     0.031 H 
ATOM     20  C   LIG d   1      12.072   8.321  -2.184  0.00  0.00    -0.026 C 
ATOM     21  C   LIG d   1      11.784   9.760  -2.619  0.00  0.00    -0.045 C 
ATOM     22  C   LIG d   1      10.405  10.179  -2.106  0.00  0.00    -0.026 C 
ATOM     23  C   LIG d   1      10.382  10.095  -0.578  0.00  0.00     0.056 C 
ATOM     24  H   LIG d   1      11.140  10.762  -0.166  0.00  0.00     0.059 H 
ATOM     25  C   LIG d   1      10.632   8.652  -0.127  0.00  0.00    -0.023 C 
ATOM     26  H   LIG d   1       8.508   2.720  -3.462  0.00  0.00     0.027 H 
ATOM     27  H   LIG d   1       9.997   2.025  -4.162  0.00  0.00     0.027 H 
ATOM     28  H   LIG d   1       9.934   3.293  -1.686  0.00  0.00     0.027 H 
ATOM     29  H   LIG d   1      11.395   3.259  -2.725  0.00  0.00     0.027 H 
ATOM     30  H   LIG d   1      11.932   7.324  -4.682  0.00  0.00     0.029 H 
ATOM     31  H   LIG d   1      10.648   8.542  -4.530  0.00  0.00     0.029 H 
ATOM     32  H   LIG d   1      12.273   6.735   0.904  0.00  0.00     0.029 H 
ATOM     33  H   LIG d   1      13.289   6.497  -0.538  0.00  0.00     0.029 H 
ATOM     34  H   LIG d   1      12.543  10.423  -2.206  0.00  0.00     0.027 H 
ATOM     35  H   LIG d   1      11.801   9.820  -3.708  0.00  0.00     0.027 H 
ATOM     36  H   LIG d   1      10.199  11.204  -2.416  0.00  0.00     0.029 H 
ATOM     37  H   LIG d   1       9.646   9.515  -2.518  0.00  0.00     0.029 H 
ATOM     38  H   LIG d   1       9.879   7.986  -0.549  0.00  0.00     0.029 H 
ATOM     39  H   LIG d   1      10.600   8.590   0.961  0.00  0.00     0.029 H 
ENDROOT
BRANCH   1  40
ATOM     40  C   LIG d   1      10.051   3.404  -6.232  0.00  0.00    -0.040 C 
ATOM     41  H   LIG d   1      11.137   3.495  -6.223  0.00  0.00     0.030 H 
BRANCH  40  42
ATOM     42  C   LIG d   1       9.486   4.165  -7.433  0.00  0.00    -0.062 C 
ATOM     43  H   LIG d   1      10.145   4.029  -8.292  0.00  0.00     0.023 H 
ATOM     44  H   LIG d   1       8.494   3.781  -7.673  0.00  0.00     0.023 H 
ATOM     45  H   LIG d   1       9.417   5.225  -7.192  0.00  0.00     0.023 H 
ENDBRANCH  40  42
BRANCH  40  46
ATOM     46  C   LIG d   1       9.664   1.927  -6.336  0.00  0.00    -0.042 C 
ATOM     47  H   LIG d   1      10.443   1.384  -6.871  0.00  0.00     0.027 H 
ATOM     48  H   LIG d   1       9.554   1.510  -5.335  0.00  0.00     0.027 H 
BRANCH  46  49
ATOM     49  C   LIG d   1       8.340   1.798  -7.091  0.00  0.00     0.024 C 
ATOM     50  H   LIG d   1       7.816   2.754  -7.073  0.00  0.00     0.036 H 
ATOM     51  H   LIG d   1       8.537   1.510  -8.124  0.00  0.00     0.036 H 
BRANCH  49  52
ATOM     52  C   LIG d   1       7.486   0.745  -6.431  0.00  0.00     0.213 C 
ATOM     53  O   LIG d   1       7.953   0.049  -5.555  0.00  0.00    -0.276 OA
ATOM     54  N   LIG d   1       6.205   0.578  -6.814  0.00  0.00    -0.315 N 
ATOM     55  H   LIG d   1       5.833   1.136  -7.515  0.00  0.00     0.149 HD
BRANCH  54  56
ATOM     56  C   LIG d   1       5.375  -0.445  -6.173  0.00  0.00     0.021 C 
ATOM     57  H   LIG d   1       5.809  -1.428  -6.352  0.00  0.00     0.047 H 
ATOM     58  H   LIG d   1       5.332  -0.256  -5.100  0.00  0.00     0.047 H 
BRANCH  56  59
ATOM     59  C   LIG d   1       3.963  -0.395  -6.758  0.00  0.00     0.014 C 
ATOM     60  H   LIG d   1       3.970   0.189  -7.678  0.00  0.00     0.040 H 
ATOM     61  H   LIG d   1       3.622  -1.408  -6.973  0.00  0.00     0.040 H 
BRANCH  59  62
ATOM     62  S   LIG d   1       2.840   0.378  -5.560  0.00  0.00    -0.124 SA
BRANCH  62  63
ATOM     63  C   LIG d   1       3.484  -0.111  -3.995  0.00  0.00     0.008 A 
ATOM     64  C   LIG d   1       3.448  -1.447  -3.613  0.00  0.00    -0.048 A 
ATOM     65  C   LIG d   1       3.959  -1.827  -2.388  0.00  0.00    -0.061 A 
ATOM     66  H   LIG d   1       3.023  -2.187  -4.275  0.00  0.00     0.063 H 
ATOM     67  C   LIG d   1       4.498  -0.879  -1.537  0.00  0.00    -0.062 A 
ATOM     68  H   LIG d   1       3.936  -2.866  -2.093  0.00  0.00     0.062 H 
ATOM     69  C   LIG d   1       4.531   0.452  -1.911  0.00  0.00    -0.061 A 
ATOM     70  H   LIG d   1       4.893  -1.179  -0.578  0.00  0.00     0.062 H 
ATOM     71  C   LIG d   1       4.027   0.839  -3.137  0.00  0.00    -0.048 A 
ATOM     72  H   LIG d   1       4.953   1.190  -1.245  0.00  0.00     0.062 H 
ATOM     73  H   LIG d   1       4.054   1.879  -3.429  0.00  0.00     0.063 H 
ENDBRANCH  62  63
ENDBRANCH  59  62
ENDBRANCH  56  59
ENDBRANCH  54  56
ENDBRANCH  49  52
ENDBRANCH  46  49
ENDBRANCH  40  46
ENDBRANCH   1  40
BRANCH   7  74
ATOM     74  C   LIG d   1      11.807   4.895  -4.851  0.00  0.00    -0.057 C 
ATOM     75  H   LIG d   1      11.867   4.730  -5.926  0.00  0.00     0.024 H 
ATOM     76  H   LIG d   1      12.410   5.763  -4.582  0.00  0.00     0.024 H 
ATOM     77  H   LIG d   1      12.181   4.015  -4.326  0.00  0.00     0.024 H 
ENDBRANCH   7  74
BRANCH   8  78
ATOM     78  O   LIG d   1       8.619   6.822  -4.400  0.00  0.00    -0.391 OA
ATOM     79  H   LIG d   1       7.953   6.895  -5.096  0.00  0.00     0.210 HD
ENDBRANCH   8  78
BRANCH  15  80
ATOM     80  O   LIG d   1       9.951   6.255  -0.311  0.00  0.00    -0.392 OA
ATOM     81  H   LIG d   1       9.339   5.518  -0.183  0.00  0.00     0.210 HD
ENDBRANCH  15  80
BRANCH  20  82
ATOM     82  C   LIG d   1      13.446   7.890  -2.703  0.00  0.00    -0.059 C 
ATOM     83  H   LIG d   1      13.866   8.684  -3.320  0.00  0.00     0.024 H 
ATOM     84  H   LIG d   1      14.107   7.696  -1.859  0.00  0.00     0.024 H 
ATOM     85  H   LIG d   1      13.341   6.983  -3.299  0.00  0.00     0.024 H 
ENDBRANCH  20  82
BRANCH  23  86
ATOM     86  O   LIG d   1       9.093  10.485  -0.099  0.00  0.00    -0.392 OA
ATOM     87  H   LIG d   1       8.477  10.745  -0.797  0.00  0.00     0.210 HD
ENDBRANCH  23  86
TORSDOF 14
ENDMDL
MODEL 2
REMARK VINA RESULT:      -7.5      1.748      2.151
REMARK  14 active torsions:
REMARK  status: ('A' for Active; 'I' for Inactive)
REMARK    1  A    between atoms: C_1  and  C_2 
REMARK    2  A    between atoms: C_2  and  C_4 
REMARK    3  A    between atoms: C_2  and  C_18 
REMARK    4  A    between atoms: C_4  and  C_5 
REMARK    5  A    between atoms: C_5  and  C_6 
REMARK       I    between atoms: C_6  and  N_8 
REMARK    6  A    between atoms: N_8  and  C_9 
REMARK    7  A    between atoms: C_9  and  C_10 
REMARK    8  A    between atoms: C_10  and  S_11 
REMARK    9  A    between atoms: S_11  and  C_12 
REMARK   10  A    between atoms: C_24  and  C_47 
REMARK   11  A    between atoms: C_25  and  O_46 
REMARK   12  A    between atoms: C_32  and  O_45 
REMARK   13  A    between atoms: C_37  and  C_44 
REMARK   14  A    between atoms: C_40  and  O_43 
ROOT
ATOM      1  C   LIG d   1       9.619   5.870  -5.592  0.00  0.00    -0.030 C 
ATOM      2  H   LIG d   1       8.725   6.449  -5.825  0.00  0.00     0.031 H 
ATOM      3  C   LIG d   1       9.249   4.634  -4.734  0.00  0.00    -0.049 C 
ATOM      4  C   LIG d   1       9.941   4.833  -3.358  0.00  0.00    -0.049 C 
ATOM      5  C   LIG d   1      10.120   6.353  -3.281  0.00  0.00    -0.028 C 
ATOM      6  H   LIG d   1       9.169   6.836  -3.056  0.00  0.00     0.031 H 
ATOM      7  C   LIG d   1      10.571   6.692  -4.729  0.00  0.00     0.000 C 
ATOM      8  C   LIG d   1      10.501   8.198  -4.889  0.00  0.00     0.061 C 
ATOM      9  H   LIG d   1      10.744   8.474  -5.914  0.00  0.00     0.060 H 
ATOM     10  C   LIG d   1      11.530   8.808  -3.923  0.00  0.00    -0.023 C 
ATOM     11  C   LIG d   1      11.265   8.380  -2.484  0.00  0.00    -0.028 C 
ATOM     12  H   LIG d   1      10.304   8.783  -2.168  0.00  0.00     0.031 H 
ATOM     13  C   LIG d   1      11.199   6.846  -2.335  0.00  0.00    -0.008 C 
ATOM     14  H   LIG d   1      12.160   6.414  -2.615  0.00  0.00     0.033 H 
ATOM     15  C   LIG d   1      10.848   6.481  -0.891  0.00  0.00     0.059 C 
ATOM     16  H   LIG d   1      10.800   5.398  -0.792  0.00  0.00     0.060 H 
ATOM     17  C   LIG d   1      11.921   7.034   0.048  0.00  0.00    -0.023 C 
ATOM     18  C   LIG d   1      11.987   8.556  -0.089  0.00  0.00    -0.031 C 
ATOM     19  H   LIG d   1      12.751   8.949   0.583  0.00  0.00     0.031 H 
ATOM     20  C   LIG d   1      12.358   8.927  -1.565  0.00  0.00    -0.026 C 
ATOM     21  C   LIG d   1      12.421  10.450  -1.701  0.00  0.00    -0.045 C 
ATOM     22  C   LIG d   1      11.066  11.051  -1.321  0.00  0.00    -0.026 C 
ATOM     23  C   LIG d   1      10.732  10.683   0.126  0.00  0.00     0.056 C 
ATOM     24  H   LIG d   1      11.502  11.078   0.789  0.00  0.00     0.059 H 
ATOM     25  C   LIG d   1      10.629   9.160   0.271  0.00  0.00    -0.023 C 
ATOM     26  H   LIG d   1       8.168   4.577  -4.605  0.00  0.00     0.027 H 
ATOM     27  H   LIG d   1       9.617   3.725  -5.210  0.00  0.00     0.027 H 
ATOM     28  H   LIG d   1       9.302   4.478  -2.550  0.00  0.00     0.027 H 
ATOM     29  H   LIG d   1      10.908   4.330  -3.335  0.00  0.00     0.027 H 
ATOM     30  H   LIG d   1      12.530   8.482  -4.215  0.00  0.00     0.029 H 
ATOM     31  H   LIG d   1      11.479   9.895  -3.987  0.00  0.00     0.029 H 
ATOM     32  H   LIG d   1      11.671   6.773   1.077  0.00  0.00     0.029 H 
ATOM     33  H   LIG d   1      12.888   6.603  -0.211  0.00  0.00     0.029 H 
ATOM     34  H   LIG d   1      13.192  10.843  -1.038  0.00  0.00     0.027 H 
ATOM     35  H   LIG d   1      12.660  10.714  -2.732  0.00  0.00     0.027 H 
ATOM     36  H   LIG d   1      11.110  12.136  -1.419  0.00  0.00     0.029 H 
ATOM     37  H   LIG d   1      10.295  10.657  -1.983  0.00  0.00     0.029 H 
ATOM     38  H   LIG d   1       9.866   8.765  -0.400  0.00  0.00     0.029 H 
ATOM     39  H   LIG d   1      10.376   8.899   1.299  0.00  0.00     0.029 H 
ENDROOT
BRANCH   1  40
ATOM     40  C   LIG d   1      10.316   5.431  -6.880  0.00  0.00    -0.040 C 
ATOM     41  H   LIG d   1      11.390   5.590  -6.785  0.00  0.00     0.030 H 
BRANCH  40  42
ATOM     42  C   LIG d   1       9.782   6.253  -8.055  0.00  0.00    -0.062 C 
ATOM     43  H   LIG d   1      10.309   7.206  -8.103  0.00  0.00     0.023 H 
ATOM     44  H   LIG d   1       9.939   5.704  -8.984  0.00  0.00     0.023 H 
ATOM     45  H   LIG d   1       8.716   6.434  -7.916  0.00  0.00     0.023 H 
ENDBRANCH  40  42
BRANCH  40  46
ATOM     46  C   LIG d   1      10.042   3.946  -7.130  0.00  0.00    -0.042 C 
ATOM     47  H   LIG d   1      10.987   3.411  -7.209  0.00  0.00     0.027 H 
ATOM     48  H   LIG d   1       9.463   3.540  -6.300  0.00  0.00     0.027 H 
BRANCH  46  49
ATOM     49  C   LIG d   1       9.252   3.784  -8.430  0.00  0.00     0.024 C 
ATOM     50  H   LIG d   1       8.718   4.709  -8.649  0.00  0.00     0.036 H 
ATOM     51  H   LIG d   1       9.939   3.558  -9.246  0.00  0.00     0.036 H 
BRANCH  49  52
ATOM     52  C   LIG d   1       8.263   2.657  -8.279  0.00  0.00     0.213 C 
ATOM     53  O   LIG d   1       7.407   2.485  -9.120  0.00  0.00    -0.276 OA
ATOM     54  N   LIG d   1       8.331   1.840  -7.209  0.00  0.00    -0.315 N 
ATOM     55  H   LIG d   1       9.016   1.978  -6.537  0.00  0.00     0.149 HD
BRANCH  54  56
ATOM     56  C   LIG d   1       7.370   0.744  -7.061  0.00  0.00     0.021 C 
ATOM     57  H   LIG d   1       6.362   1.152  -6.994  0.00  0.00     0.047 H 
ATOM     58  H   LIG d   1       7.437   0.084  -7.927  0.00  0.00     0.047 H 
BRANCH  56  59
ATOM     59  C   LIG d   1       7.688  -0.045  -5.791  0.00  0.00     0.014 C 
ATOM     60  H   LIG d   1       6.971  -0.858  -5.677  0.00  0.00     0.040 H 
ATOM     61  H   LIG d   1       8.696  -0.456  -5.861  0.00  0.00     0.040 H 
BRANCH  59  62
ATOM     62  S   LIG d   1       7.586   1.058  -4.353  0.00  0.00    -0.124 SA
BRANCH  62  63
ATOM     63  C   LIG d   1       6.291   0.368  -3.378  0.00  0.00     0.008 A 
ATOM     64  C   LIG d   1       5.458   1.199  -2.638  0.00  0.00    -0.048 A 
ATOM     65  C   LIG d   1       4.440   0.656  -1.880  0.00  0.00    -0.061 A 
ATOM     66  H   LIG d   1       5.606   2.269  -2.659  0.00  0.00     0.063 H 
ATOM     67  C   LIG d   1       4.255  -0.715  -1.848  0.00  0.00    -0.062 A 
ATOM     68  H   LIG d   1       3.790   1.302  -1.309  0.00  0.00     0.062 H 
ATOM     69  C   LIG d   1       5.085  -1.545  -2.579  0.00  0.00    -0.061 A 
ATOM     70  H   LIG d   1       3.461  -1.136  -1.251  0.00  0.00     0.062 H 
ATOM     71  C   LIG d   1       6.102  -1.008  -3.344  0.00  0.00    -0.048 A 
ATOM     72  H   LIG d   1       4.937  -2.615  -2.552  0.00  0.00     0.062 H 
ATOM     73  H   LIG d   1       6.749  -1.658  -3.915  0.00  0.00     0.063 H 
ENDBRANCH  62  63
ENDBRANCH  59  62
ENDBRANCH  56  59
ENDBRANCH  54  56
ENDBRANCH  49  52
ENDBRANCH  46  49
ENDBRANCH  40  46
ENDBRANCH   1  40
BRANCH   7  74
ATOM     74  C   LIG d   1      12.008   6.216  -4.947  0.00  0.00    -0.057 C 
ATOM     75  H   LIG d   1      12.047   5.130  -4.867  0.00  0.00     0.024 H 
ATOM     76  H   LIG d   1      12.344   6.519  -5.939  0.00  0.00     0.024 H 
ATOM     77  H   LIG d   1      12.657   6.660  -4.192  0.00  0.00     0.024 H 
ENDBRANCH   7  74
BRANCH   8  78
ATOM     78  O   LIG d   1       9.189   8.661  -4.559  0.00  0.00    -0.391 OA
ATOM     79  H   LIG d   1       8.478   8.150  -4.968  0.00  0.00     0.210 HD
ENDBRANCH   8  78
BRANCH  15  80
ATOM     80  O   LIG d   1       9.580   7.047  -0.553  0.00  0.00    -0.392 OA
ATOM     81  H   LIG d   1       9.252   7.689  -1.197  0.00  0.00     0.210 HD
ENDBRANCH  15  80
BRANCH  20  82
ATOM     82  C   LIG d   1      13.707   8.318  -1.954  0.00  0.00    -0.059 C 
ATOM     83  H   LIG d   1      14.388   9.111  -2.260  0.00  0.00     0.024 H 
ATOM     84  H   LIG d   1      14.126   7.789  -1.099  0.00  0.00     0.024 H 
ATOM     85  H   LIG d   1      13.566   7.621  -2.779  0.00  0.00     0.024 H 
ENDBRANCH  20  82
BRANCH  23  86
ATOM     86  O   LIG d   1       9.466  11.242   0.480  0.00  0.00    -0.392 OA
ATOM     87  H   LIG d   1       8.846  10.603   0.856  0.00  0.00     0.210 HD
ENDBRANCH  23  86
TORSDOF 14
ENDMDL
MODEL 3
REMARK VINA RESULT:      -7.4      2.126      2.743
REMARK  14 active torsions:
REMARK  status: ('A' for Active; 'I' for Inactive)
REMARK    1  A    between atoms: C_1  and  C_2 
REMARK    2  A    between atoms: C_2  and  C_4 
REMARK    3  A    between atoms: C_2  and  C_18 
REMARK    4  A    between atoms: C_4  and  C_5 
REMARK    5  A    between atoms: C_5  and  C_6 
REMARK       I    between atoms: C_6  and  N_8 
REMARK    6  A    between atoms: N_8  and  C_9 
REMARK    7  A    between atoms: C_9  and  C_10 
REMARK    8  A    between atoms: C_10  and  S_11 
REMARK    9  A    between atoms: S_11  and  C_12 
REMARK   10  A    between atoms: C_24  and  C_47 
REMARK   11  A    between atoms: C_25  and  O_46 
REMARK   12  A    between atoms: C_32  and  O_45 
REMARK   13  A    between atoms: C_37  and  C_44 
REMARK   14  A    between atoms: C_40  and  O_43 
ROOT
ATOM      1  C   LIG d   1      10.644   4.276  -4.358  0.00  0.00    -0.030 C 
ATOM      2  H   LIG d   1       9.802   4.279  -5.050  0.00  0.00     0.031 H 
ATOM      3  C   LIG d   1      10.220   3.662  -3.000  0.00  0.00    -0.049 C 
ATOM      4  C   LIG d   1      10.339   4.799  -1.949  0.00  0.00    -0.049 C 
ATOM      5  C   LIG d   1      10.210   6.067  -2.800  0.00  0.00    -0.028 C 
ATOM      6  H   LIG d   1       9.172   6.224  -3.092  0.00  0.00     0.031 H 
ATOM      7  C   LIG d   1      11.073   5.705  -4.040  0.00  0.00     0.000 C 
ATOM      8  C   LIG d   1      10.800   6.747  -5.107  0.00  0.00     0.061 C 
ATOM      9  H   LIG d   1      11.335   6.491  -6.021  0.00  0.00     0.060 H 
ATOM     10  C   LIG d   1      11.301   8.097  -4.566  0.00  0.00    -0.023 C 
ATOM     11  C   LIG d   1      10.628   8.451  -3.244  0.00  0.00    -0.028 C 
ATOM     12  H   LIG d   1       9.562   8.592  -3.419  0.00  0.00     0.031 H 
ATOM     13  C   LIG d   1      10.784   7.333  -2.192  0.00  0.00    -0.008 C 
ATOM     14  H   LIG d   1      11.842   7.189  -1.973  0.00  0.00     0.033 H 
ATOM     15  C   LIG d   1      10.019   7.708  -0.922  0.00  0.00     0.059 C 
ATOM     16  H   LIG d   1      10.130   6.915  -0.183  0.00  0.00     0.060 H 
ATOM     17  C   LIG d   1      10.579   9.015  -0.357  0.00  0.00    -0.023 C 
ATOM     18  C   LIG d   1      10.421  10.130  -1.393  0.00  0.00    -0.031 C 
ATOM     19  H   LIG d   1      10.819  11.061  -0.989  0.00  0.00     0.031 H 
ATOM     20  C   LIG d   1      11.214   9.749  -2.689  0.00  0.00    -0.026 C 
ATOM     21  C   LIG d   1      11.053  10.864  -3.725  0.00  0.00    -0.045 C 
ATOM     22  C   LIG d   1       9.568  11.052  -4.041  0.00  0.00    -0.026 C 
ATOM     23  C   LIG d   1       8.818  11.433  -2.762  0.00  0.00     0.056 C 
ATOM     24  H   LIG d   1       9.225  12.363  -2.366  0.00  0.00     0.059 H 
ATOM     25  C   LIG d   1       8.939  10.309  -1.727  0.00  0.00    -0.023 C 
ATOM     26  H   LIG d   1       9.191   3.308  -3.054  0.00  0.00     0.027 H 
ATOM     27  H   LIG d   1      10.885   2.839  -2.738  0.00  0.00     0.027 H 
ATOM     28  H   LIG d   1       9.530   4.738  -1.222  0.00  0.00     0.027 H 
ATOM     29  H   LIG d   1      11.309   4.765  -1.452  0.00  0.00     0.027 H 
ATOM     30  H   LIG d   1      12.380   8.041  -4.414  0.00  0.00     0.029 H 
ATOM     31  H   LIG d   1      11.085   8.876  -5.297  0.00  0.00     0.029 H 
ATOM     32  H   LIG d   1      10.034   9.281   0.549  0.00  0.00     0.029 H 
ATOM     33  H   LIG d   1      11.636   8.885  -0.121  0.00  0.00     0.029 H 
ATOM     34  H   LIG d   1      11.461  11.793  -3.325  0.00  0.00     0.027 H 
ATOM     35  H   LIG d   1      11.588  10.594  -4.636  0.00  0.00     0.027 H 
ATOM     36  H   LIG d   1       9.452  11.846  -4.779  0.00  0.00     0.029 H 
ATOM     37  H   LIG d   1       9.160  10.124  -4.438  0.00  0.00     0.029 H 
ATOM     38  H   LIG d   1       8.542   9.376  -2.130  0.00  0.00     0.029 H 
ATOM     39  H   LIG d   1       8.392  10.574  -0.822  0.00  0.00     0.029 H 
ENDROOT
BRANCH   1  40
ATOM     40  C   LIG d   1      11.815   3.491  -4.953  0.00  0.00    -0.040 C 
ATOM     41  H   LIG d   1      12.729   4.076  -4.859  0.00  0.00     0.030 H 
BRANCH  40  42
ATOM     42  C   LIG d   1      11.540   3.207  -6.430  0.00  0.00    -0.062 C 
ATOM     43  H   LIG d   1      11.240   2.165  -6.551  0.00  0.00     0.023 H 
ATOM     44  H   LIG d   1      10.741   3.858  -6.784  0.00  0.00     0.023 H 
ATOM     45  H   LIG d   1      12.444   3.393  -7.010  0.00  0.00     0.023 H 
ENDBRANCH  40  42
BRANCH  40  46
ATOM     46  C   LIG d   1      11.977   2.168  -4.200  0.00  0.00    -0.042 C 
ATOM     47  H   LIG d   1      12.705   2.293  -3.400  0.00  0.00     0.027 H 
ATOM     48  H   LIG d   1      11.018   1.873  -3.775  0.00  0.00     0.027 H 
BRANCH  46  49
ATOM     49  C   LIG d   1      12.461   1.087  -5.168  0.00  0.00     0.024 C 
ATOM     50  H   LIG d   1      12.416   1.466  -6.189  0.00  0.00     0.036 H 
ATOM     51  H   LIG d   1      13.490   0.817  -4.925  0.00  0.00     0.036 H 
BRANCH  49  52
ATOM     52  C   LIG d   1      11.580  -0.129  -5.044  0.00  0.00     0.213 C 
ATOM     53  O   LIG d   1      12.040  -1.172  -4.633  0.00  0.00    -0.276 OA
ATOM     54  N   LIG d   1      10.279  -0.056  -5.389  0.00  0.00    -0.315 N 
ATOM     55  H   LIG d   1       9.911   0.779  -5.718  0.00  0.00     0.149 HD
BRANCH  54  56
ATOM     56  C   LIG d   1       9.421  -1.238  -5.269  0.00  0.00     0.021 C 
ATOM     57  H   LIG d   1       9.638  -1.928  -6.083  0.00  0.00     0.047 H 
ATOM     58  H   LIG d   1       9.613  -1.729  -4.314  0.00  0.00     0.047 H 
BRANCH  56  59
ATOM     59  C   LIG d   1       7.954  -0.811  -5.338  0.00  0.00     0.014 C 
ATOM     60  H   LIG d   1       7.709  -0.514  -6.358  0.00  0.00     0.040 H 
ATOM     61  H   LIG d   1       7.318  -1.646  -5.040  0.00  0.00     0.040 H 
BRANCH  59  62
ATOM     62  S   LIG d   1       7.678   0.588  -4.216  0.00  0.00    -0.124 SA
BRANCH  62  63
ATOM     63  C   LIG d   1       6.245   0.125  -3.302  0.00  0.00     0.008 A 
ATOM     64  C   LIG d   1       5.448   1.102  -2.714  0.00  0.00    -0.048 A 
ATOM     65  C   LIG d   1       4.323   0.736  -2.004  0.00  0.00    -0.061 A 
ATOM     66  H   LIG d   1       5.708   2.145  -2.817  0.00  0.00     0.063 H 
ATOM     67  C   LIG d   1       3.993  -0.601  -1.867  0.00  0.00    -0.062 A 
ATOM     68  H   LIG d   1       3.701   1.494  -1.552  0.00  0.00     0.062 H 
ATOM     69  C   LIG d   1       4.787  -1.575  -2.445  0.00  0.00    -0.061 A 
ATOM     70  H   LIG d   1       3.115  -0.884  -1.307  0.00  0.00     0.062 H 
ATOM     71  C   LIG d   1       5.911  -1.216  -3.162  0.00  0.00    -0.048 A 
ATOM     72  H   LIG d   1       4.526  -2.618  -2.337  0.00  0.00     0.062 H 
ATOM     73  H   LIG d   1       6.529  -1.978  -3.614  0.00  0.00     0.063 H 
ENDBRANCH  62  63
ENDBRANCH  59  62
ENDBRANCH  56  59
ENDBRANCH  54  56
ENDBRANCH  49  52
ENDBRANCH  46  49
ENDBRANCH  40  46
ENDBRANCH   1  40
BRANCH   7  74
ATOM     74  C   LIG d   1      12.555   5.728  -3.663  0.00  0.00    -0.057 C 
ATOM     75  H   LIG d   1      12.915   4.707  -3.542  0.00  0.00     0.024 H 
ATOM     76  H   LIG d   1      13.123   6.223  -4.451  0.00  0.00     0.024 H 
ATOM     77  H   LIG d   1      12.684   6.272  -2.726  0.00  0.00     0.024 H 
ENDBRANCH   7  74
BRANCH   8  78
ATOM     78  O   LIG d   1       9.397   6.818  -5.369  0.00  0.00    -0.391 OA
ATOM     79  H   LIG d   1       9.176   7.234  -6.213  0.00  0.00     0.210 HD
ENDBRANCH   8  78
BRANCH  15  80
ATOM     80  O   LIG d   1       8.635   7.878  -1.233  0.00  0.00    -0.392 OA
ATOM     81  H   LIG d   1       8.068   7.169  -0.902  0.00  0.00     0.210 HD
ENDBRANCH  15  80
BRANCH  20  82
ATOM     82  C   LIG d   1      12.699   9.547  -2.375  0.00  0.00    -0.059 C 
ATOM     83  H   LIG d   1      13.074   8.690  -2.934  0.00  0.00     0.024 H 
ATOM     84  H   LIG d   1      13.255  10.439  -2.662  0.00  0.00     0.024 H 
ATOM     85  H   LIG d   1      12.824   9.368  -1.308  0.00  0.00     0.024 H 
ENDBRANCH  20  82
BRANCH  23  86
ATOM     86  O   LIG d   1       7.431  11.607  -3.057  0.00  0.00    -0.392 OA
ATOM     87  H   LIG d   1       6.840  11.105  -2.479  0.00  0.00     0.210 HD
ENDBRANCH  23  86
TORSDOF 14
ENDMDL
MODEL 4
REMARK VINA RESULT:      -7.1      5.481     10.630
REMARK  14 active torsions:
REMARK  status: ('A' for Active; 'I' for Inactive)
REMARK    1  A    between atoms: C_1  and  C_2 
REMARK    2  A    between atoms: C_2  and  C_4 
REMARK    3  A    between atoms: C_2  and  C_18 
REMARK    4  A    between atoms: C_4  and  C_5 
REMARK    5  A    between atoms: C_5  and  C_6 
REMARK       I    between atoms: C_6  and  N_8 
REMARK    6  A    between atoms: N_8  and  C_9 
REMARK    7  A    between atoms: C_9  and  C_10 
REMARK    8  A    between atoms: C_10  and  S_11 
REMARK    9  A    between atoms: S_11  and  C_12 
REMARK   10  A    between atoms: C_24  and  C_47 
REMARK   11  A    between atoms: C_25  and  O_46 
REMARK   12  A    between atoms: C_32  and  O_45 
REMARK   13  A    between atoms: C_37  and  C_44 
REMARK   14  A    between atoms: C_40  and  O_43 
ROOT
ATOM      1  C   LIG d   1       3.443  -1.275  -4.984  0.00  0.00    -0.030 C 
ATOM      2  H   LIG d   1       2.924  -2.232  -5.055  0.00  0.00     0.031 H 
ATOM      3  C   LIG d   1       2.421  -0.118  -4.854  0.00  0.00    -0.049 C 
ATOM      4  C   LIG d   1       2.579   0.752  -6.130  0.00  0.00    -0.049 C 
ATOM      5  C   LIG d   1       3.175  -0.231  -7.144  0.00  0.00    -0.028 C 
ATOM      6  H   LIG d   1       2.407  -0.914  -7.506  0.00  0.00     0.031 H 
ATOM      7  C   LIG d   1       4.211  -0.994  -6.272  0.00  0.00     0.000 C 
ATOM      8  C   LIG d   1       4.672  -2.202  -7.064  0.00  0.00     0.061 C 
ATOM      9  H   LIG d   1       5.350  -2.805  -6.460  0.00  0.00     0.060 H 
ATOM     10  C   LIG d   1       5.404  -1.679  -8.311  0.00  0.00    -0.023 C 
ATOM     11  C   LIG d   1       4.507  -0.768  -9.141  0.00  0.00    -0.028 C 
ATOM     12  H   LIG d   1       3.671  -1.353  -9.525  0.00  0.00     0.031 H 
ATOM     13  C   LIG d   1       3.922   0.391  -8.309  0.00  0.00    -0.008 C 
ATOM     14  H   LIG d   1       4.734   1.013  -7.935  0.00  0.00     0.033 H 
ATOM     15  C   LIG d   1       2.967   1.217  -9.172  0.00  0.00     0.059 C 
ATOM     16  H   LIG d   1       2.554   2.033  -8.580  0.00  0.00     0.060 H 
ATOM     17  C   LIG d   1       3.729   1.790 -10.369  0.00  0.00    -0.023 C 
ATOM     18  C   LIG d   1       4.306   0.645 -11.203  0.00  0.00    -0.031 C 
ATOM     19  H   LIG d   1       4.847   1.054 -12.057  0.00  0.00     0.031 H 
ATOM     20  C   LIG d   1       5.292  -0.194 -10.321  0.00  0.00    -0.026 C 
ATOM     21  C   LIG d   1       5.867  -1.340 -11.157  0.00  0.00    -0.045 C 
ATOM     22  C   LIG d   1       4.723  -2.219 -11.666  0.00  0.00    -0.026 C 
ATOM     23  C   LIG d   1       3.781  -1.380 -12.533  0.00  0.00     0.056 C 
ATOM     24  H   LIG d   1       4.332  -0.975 -13.381  0.00  0.00     0.059 H 
ATOM     25  C   LIG d   1       3.168  -0.249 -11.699  0.00  0.00    -0.023 C 
ATOM     26  H   LIG d   1       1.409  -0.518  -4.795  0.00  0.00     0.027 H 
ATOM     27  H   LIG d   1       2.641   0.476  -3.966  0.00  0.00     0.027 H 
ATOM     28  H   LIG d   1       1.610   1.117  -6.470  0.00  0.00     0.027 H 
ATOM     29  H   LIG d   1       3.263   1.581  -5.950  0.00  0.00     0.027 H 
ATOM     30  H   LIG d   1       6.288  -1.121  -7.997  0.00  0.00     0.029 H 
ATOM     31  H   LIG d   1       5.717  -2.526  -8.922  0.00  0.00     0.029 H 
ATOM     32  H   LIG d   1       3.048   2.379 -10.983  0.00  0.00     0.029 H 
ATOM     33  H   LIG d   1       4.540   2.425 -10.013  0.00  0.00     0.029 H 
ATOM     34  H   LIG d   1       6.417  -0.931 -12.004  0.00  0.00     0.027 H 
ATOM     35  H   LIG d   1       6.539  -1.938 -10.540  0.00  0.00     0.027 H 
ATOM     36  H   LIG d   1       5.131  -3.036 -12.261  0.00  0.00     0.029 H 
ATOM     37  H   LIG d   1       4.171  -2.626 -10.819  0.00  0.00     0.029 H 
ATOM     38  H   LIG d   1       2.627  -0.656 -10.845  0.00  0.00     0.029 H 
ATOM     39  H   LIG d   1       2.485   0.340 -12.313  0.00  0.00     0.029 H 
ENDROOT
BRANCH   1  40
ATOM     40  C   LIG d   1       4.397  -1.278  -3.789  0.00  0.00    -0.040 C 
ATOM     41  H   LIG d   1       5.268  -0.664  -4.017  0.00  0.00     0.030 H 
BRANCH  40  42
ATOM     42  C   LIG d   1       4.846  -2.711  -3.497  0.00  0.00    -0.062 C 
ATOM     43  H   LIG d   1       5.759  -2.926  -4.051  0.00  0.00     0.023 H 
ATOM     44  H   LIG d   1       5.035  -2.822  -2.429  0.00  0.00     0.023 H 
ATOM     45  H   LIG d   1       4.063  -3.406  -3.802  0.00  0.00     0.023 H 
ENDBRANCH  40  42
BRANCH  40  46
ATOM     46  C   LIG d   1       3.681  -0.707  -2.562  0.00  0.00    -0.042 C 
ATOM     47  H   LIG d   1       2.858  -0.071  -2.886  0.00  0.00     0.027 H 
ATOM     48  H   LIG d   1       3.291  -1.526  -1.957  0.00  0.00     0.027 H 
BRANCH  46  49
ATOM     49  C   LIG d   1       4.668   0.116  -1.732  0.00  0.00     0.024 C 
ATOM     50  H   LIG d   1       4.126   0.662  -0.959  0.00  0.00     0.036 H 
ATOM     51  H   LIG d   1       5.394  -0.551  -1.265  0.00  0.00     0.036 H 
BRANCH  49  52
ATOM     52  C   LIG d   1       5.385   1.093  -2.628  0.00  0.00     0.213 C 
ATOM     53  O   LIG d   1       4.796   2.057  -3.067  0.00  0.00    -0.276 OA
ATOM     54  N   LIG d   1       6.680   0.893  -2.941  0.00  0.00    -0.315 N 
ATOM     55  H   LIG d   1       7.151   0.121  -2.589  0.00  0.00     0.149 HD
BRANCH  54  56
ATOM     56  C   LIG d   1       7.379   1.842  -3.812  0.00  0.00     0.021 C 
ATOM     57  H   LIG d   1       6.901   1.855  -4.791  0.00  0.00     0.047 H 
ATOM     58  H   LIG d   1       7.334   2.839  -3.372  0.00  0.00     0.047 H 
BRANCH  56  59
ATOM     59  C   LIG d   1       8.839   1.416  -3.962  0.00  0.00     0.014 C 
ATOM     60  H   LIG d   1       9.489   2.189  -3.550  0.00  0.00     0.040 H 
ATOM     61  H   LIG d   1       9.003   0.480  -3.426  0.00  0.00     0.040 H 
BRANCH  59  62
ATOM     62  S   LIG d   1       9.222   1.178  -5.720  0.00  0.00    -0.124 SA
BRANCH  62  63
ATOM     63  C   LIG d   1       8.893  -0.530  -6.001  0.00  0.00     0.008 A 
ATOM     64  C   LIG d   1       8.548  -1.357  -4.937  0.00  0.00    -0.048 A 
ATOM     65  C   LIG d   1       8.284  -2.693  -5.162  0.00  0.00    -0.061 A 
ATOM     66  H   LIG d   1       8.483  -0.952  -3.938  0.00  0.00     0.063 H 
ATOM     67  C   LIG d   1       8.373  -3.213  -6.441  0.00  0.00    -0.062 A 
ATOM     68  H   LIG d   1       8.012  -3.334  -4.337  0.00  0.00     0.062 H 
ATOM     69  C   LIG d   1       8.722  -2.394  -7.500  0.00  0.00    -0.061 A 
ATOM     70  H   LIG d   1       8.171  -4.259  -6.612  0.00  0.00     0.062 H 
ATOM     71  C   LIG d   1       8.981  -1.055  -7.284  0.00  0.00    -0.048 A 
ATOM     72  H   LIG d   1       8.790  -2.803  -8.498  0.00  0.00     0.062 H 
ATOM     73  H   LIG d   1       9.252  -0.417  -8.113  0.00  0.00     0.063 H 
ENDBRANCH  62  63
ENDBRANCH  59  62
ENDBRANCH  56  59
ENDBRANCH  54  56
ENDBRANCH  49  52
ENDBRANCH  46  49
ENDBRANCH  40  46
ENDBRANCH   1  40
BRANCH   7  74
ATOM     74  C   LIG d   1       5.405  -0.085  -5.975  0.00  0.00    -0.057 C 
ATOM     75  H   LIG d   1       6.331  -0.630  -6.158  0.00  0.00     0.024 H 
ATOM     76  H   LIG d   1       5.365   0.791  -6.622  0.00  0.00     0.024 H 
ATOM     77  H   LIG d   1       5.370   0.231  -4.932  0.00  0.00     0.024 H 
ENDBRANCH   7  74
BRANCH   8  78
ATOM     78  O   LIG d   1       3.543  -2.987  -7.455  0.00  0.00    -0.391 OA
ATOM     79  H   LIG d   1       3.249  -3.615  -6.781  0.00  0.00     0.210 HD
ENDBRANCH   8  78
BRANCH  15  80
ATOM     80  O   LIG d   1       1.904   0.383  -9.638  0.00  0.00    -0.392 OA
ATOM     81  H   LIG d   1       1.040   0.603  -9.266  0.00  0.00     0.210 HD
ENDBRANCH  15  80
BRANCH  20  82
ATOM     82  C   LIG d   1       6.431   0.685  -9.798  0.00  0.00    -0.059 C 
ATOM     83  H   LIG d   1       6.549   1.551 -10.449  0.00  0.00     0.024 H 
ATOM     84  H   LIG d   1       6.196   1.020  -8.788  0.00  0.00     0.024 H 
ATOM     85  H   LIG d   1       7.356   0.111  -9.784  0.00  0.00     0.024 H 
ENDBRANCH  20  82
BRANCH  23  86
ATOM     86  O   LIG d   1       2.712  -2.201 -13.007  0.00  0.00    -0.392 OA
ATOM     87  H   LIG d   1       2.987  -2.875 -13.643  0.00  0.00     0.210 HD
ENDBRANCH  23  86
TORSDOF 14
ENDMDL
MODEL 5
REMARK VINA RESULT:      -7.0      2.120      3.248
REMARK  14 active torsions:
REMARK  status: ('A' for Active; 'I' for Inactive)
REMARK    1  A    between atoms: C_1  and  C_2 
REMARK    2  A    between atoms: C_2  and  C_4 
REMARK    3  A    between atoms: C_2  and  C_18 
REMARK    4  A    between atoms: C_4  and  C_5 
REMARK    5  A    between atoms: C_5  and  C_6 
REMARK       I    between atoms: C_6  and  N_8 
REMARK    6  A    between atoms: N_8  and  C_9 
REMARK    7  A    between atoms: C_9  and  C_10 
REMARK    8  A    between atoms: C_10  and  S_11 
REMARK    9  A    between atoms: S_11  and  C_12 
REMARK   10  A    between atoms: C_24  and  C_47 
REMARK   11  A    between atoms: C_25  and  O_46 
REMARK   12  A    between atoms: C_32  and  O_45 
REMARK   13  A    between atoms: C_37  and  C_44 
REMARK   14  A    between atoms: C_40  and  O_43 
ROOT
ATOM      1  C   LIG d   1      10.687   4.649  -4.337  0.00  0.00    -0.030 C 
ATOM      2  H   LIG d   1      11.577   4.559  -4.960  0.00  0.00     0.031 H 
ATOM      3  C   LIG d   1       9.551   5.352  -5.122  0.00  0.00    -0.049 C 
ATOM      4  C   LIG d   1       9.275   6.691  -4.387  0.00  0.00    -0.049 C 
ATOM      5  C   LIG d   1      10.598   6.965  -3.664  0.00  0.00    -0.028 C 
ATOM      6  H   LIG d   1      11.350   7.318  -4.369  0.00  0.00     0.031 H 
ATOM      7  C   LIG d   1      10.969   5.550  -3.139  0.00  0.00     0.000 C 
ATOM      8  C   LIG d   1      12.405   5.605  -2.655  0.00  0.00     0.061 C 
ATOM      9  H   LIG d   1      12.729   4.613  -2.342  0.00  0.00     0.060 H 
ATOM     10  C   LIG d   1      12.449   6.573  -1.461  0.00  0.00    -0.023 C 
ATOM     11  C   LIG d   1      11.929   7.954  -1.846  0.00  0.00    -0.028 C 
ATOM     12  H   LIG d   1      12.598   8.387  -2.590  0.00  0.00     0.031 H 
ATOM     13  C   LIG d   1      10.518   7.894  -2.467  0.00  0.00    -0.008 C 
ATOM     14  H   LIG d   1       9.818   7.493  -1.735  0.00  0.00     0.033 H 
ATOM     15  C   LIG d   1      10.088   9.294  -2.908  0.00  0.00     0.059 C 
ATOM     16  H   LIG d   1       9.092   9.247  -3.348  0.00  0.00     0.060 H 
ATOM     17  C   LIG d   1      10.066  10.226  -1.696  0.00  0.00    -0.023 C 
ATOM     18  C   LIG d   1      11.464  10.296  -1.079  0.00  0.00    -0.031 C 
ATOM     19  H   LIG d   1      11.449  10.962  -0.216  0.00  0.00     0.031 H 
ATOM     20  C   LIG d   1      11.899   8.863  -0.618  0.00  0.00    -0.026 C 
ATOM     21  C   LIG d   1      13.299   8.935  -0.003  0.00  0.00    -0.045 C 
ATOM     22  C   LIG d   1      14.281   9.485  -1.040  0.00  0.00    -0.026 C 
ATOM     23  C   LIG d   1      13.840  10.888  -1.466  0.00  0.00     0.056 C 
ATOM     24  H   LIG d   1      13.826  11.544  -0.596  0.00  0.00     0.059 H 
ATOM     25  C   LIG d   1      12.454  10.828  -2.118  0.00  0.00    -0.023 C 
ATOM     26  H   LIG d   1       9.868   5.544  -6.147  0.00  0.00     0.027 H 
ATOM     27  H   LIG d   1       8.655   4.731  -5.118  0.00  0.00     0.027 H 
ATOM     28  H   LIG d   1       9.054   7.484  -5.101  0.00  0.00     0.027 H 
ATOM     29  H   LIG d   1       8.461   6.578  -3.672  0.00  0.00     0.027 H 
ATOM     30  H   LIG d   1      11.834   6.172  -0.655  0.00  0.00     0.029 H 
ATOM     31  H   LIG d   1      13.478   6.663  -1.113  0.00  0.00     0.029 H 
ATOM     32  H   LIG d   1       9.758  11.224  -2.010  0.00  0.00     0.029 H 
ATOM     33  H   LIG d   1       9.361   9.845  -0.957  0.00  0.00     0.029 H 
ATOM     34  H   LIG d   1      13.281   9.592   0.866  0.00  0.00     0.027 H 
ATOM     35  H   LIG d   1      13.614   7.936   0.302  0.00  0.00     0.027 H 
ATOM     36  H   LIG d   1      15.278   9.536  -0.603  0.00  0.00     0.029 H 
ATOM     37  H   LIG d   1      14.297   8.830  -1.909  0.00  0.00     0.029 H 
ATOM     38  H   LIG d   1      12.468  10.161  -2.981  0.00  0.00     0.029 H 
ATOM     39  H   LIG d   1      12.146  11.825  -2.435  0.00  0.00     0.029 H 
ENDROOT
BRANCH   1  40
ATOM     40  C   LIG d   1      10.230   3.268  -3.865  0.00  0.00    -0.040 C 
ATOM     41  H   LIG d   1       9.954   3.316  -2.812  0.00  0.00     0.030 H 
BRANCH  40  42
ATOM     42  C   LIG d   1      11.370   2.263  -4.048  0.00  0.00    -0.062 C 
ATOM     43  H   LIG d   1      12.273   2.790  -4.358  0.00  0.00     0.023 H 
ATOM     44  H   LIG d   1      11.556   1.748  -3.105  0.00  0.00     0.023 H 
ATOM     45  H   LIG d   1      11.093   1.536  -4.811  0.00  0.00     0.023 H 
ENDBRANCH  40  42
BRANCH  40  46
ATOM     46  C   LIG d   1       9.019   2.822  -4.688  0.00  0.00    -0.042 C 
ATOM     47  H   LIG d   1       8.520   3.696  -5.103  0.00  0.00     0.027 H 
ATOM     48  H   LIG d   1       9.351   2.174  -5.499  0.00  0.00     0.027 H 
BRANCH  46  49
ATOM     49  C   LIG d   1       8.046   2.056  -3.789  0.00  0.00     0.024 C 
ATOM     50  H   LIG d   1       8.549   1.777  -2.863  0.00  0.00     0.036 H 
ATOM     51  H   LIG d   1       7.188   2.689  -3.562  0.00  0.00     0.036 H 
BRANCH  49  52
ATOM     52  C   LIG d   1       7.579   0.812  -4.501  0.00  0.00     0.213 C 
ATOM     53  O   LIG d   1       6.790   0.899  -5.418  0.00  0.00    -0.276 OA
ATOM     54  N   LIG d   1       8.037  -0.396  -4.119  0.00  0.00    -0.315 N 
ATOM     55  H   LIG d   1       8.669  -0.464  -3.385  0.00  0.00     0.149 HD
BRANCH  54  56
ATOM     56  C   LIG d   1       7.584  -1.605  -4.810  0.00  0.00     0.021 C 
ATOM     57  H   LIG d   1       6.890  -1.331  -5.604  0.00  0.00     0.047 H 
ATOM     58  H   LIG d   1       8.443  -2.121  -5.240  0.00  0.00     0.047 H 
BRANCH  56  59
ATOM     59  C   LIG d   1       6.881  -2.528  -3.814  0.00  0.00     0.014 C 
ATOM     60  H   LIG d   1       7.277  -3.539  -3.911  0.00  0.00     0.040 H 
ATOM     61  H   LIG d   1       7.052  -2.166  -2.799  0.00  0.00     0.040 H 
BRANCH  59  62
ATOM     62  S   LIG d   1       5.098  -2.542  -4.157  0.00  0.00    -0.124 SA
BRANCH  62  63
ATOM     63  C   LIG d   1       4.523  -1.019  -3.484  0.00  0.00     0.008 A 
ATOM     64  C   LIG d   1       4.967  -0.597  -2.236  0.00  0.00    -0.048 A 
ATOM     65  C   LIG d   1       4.518   0.601  -1.715  0.00  0.00    -0.061 A 
ATOM     66  H   LIG d   1       5.664  -1.203  -1.678  0.00  0.00     0.063 H 
ATOM     67  C   LIG d   1       3.620   1.375  -2.428  0.00  0.00    -0.062 A 
ATOM     68  H   LIG d   1       4.867   0.931  -0.748  0.00  0.00     0.062 H 
ATOM     69  C   LIG d   1       3.172   0.954  -3.667  0.00  0.00    -0.061 A 
ATOM     70  H   LIG d   1       3.268   2.308  -2.016  0.00  0.00     0.062 H 
ATOM     71  C   LIG d   1       3.621  -0.239  -4.198  0.00  0.00    -0.048 A 
ATOM     72  H   LIG d   1       2.471   1.561  -4.222  0.00  0.00     0.062 H 
ATOM     73  H   LIG d   1       3.270  -0.566  -5.166  0.00  0.00     0.063 H 
ENDBRANCH  62  63
ENDBRANCH  59  62
ENDBRANCH  56  59
ENDBRANCH  54  56
ENDBRANCH  49  52
ENDBRANCH  46  49
ENDBRANCH  40  46
ENDBRANCH   1  40
BRANCH   7  74
ATOM     74  C   LIG d   1      10.048   5.171  -1.978  0.00  0.00    -0.057 C 
ATOM     75  H   LIG d   1       9.370   4.379  -2.297  0.00  0.00     0.024 H 
ATOM     76  H   LIG d   1      10.647   4.820  -1.138  0.00  0.00     0.024 H 
ATOM     77  H   LIG d   1       9.469   6.044  -1.673  0.00  0.00     0.024 H 
ENDBRANCH   7  74
BRANCH   8  78
ATOM     78  O   LIG d   1      13.253   6.084  -3.702  0.00  0.00    -0.391 OA
ATOM     79  H   LIG d   1      13.645   6.949  -3.525  0.00  0.00     0.210 HD
ENDBRANCH   8  78
BRANCH  15  80
ATOM     80  O   LIG d   1      11.012   9.793  -3.877  0.00  0.00    -0.392 OA
ATOM     81  H   LIG d   1      11.180  10.742  -3.808  0.00  0.00     0.210 HD
ENDBRANCH  15  80
BRANCH  20  82
ATOM     82  C   LIG d   1      10.913   8.303   0.410  0.00  0.00    -0.059 C 
ATOM     83  H   LIG d   1      11.298   8.477   1.415  0.00  0.00     0.024 H 
ATOM     84  H   LIG d   1       9.950   8.802   0.298  0.00  0.00     0.024 H 
ATOM     85  H   LIG d   1      10.788   7.233   0.248  0.00  0.00     0.024 H 
ENDBRANCH  20  82
BRANCH  23  86
ATOM     86  O   LIG d   1      14.756  11.401  -2.435  0.00  0.00    -0.392 OA
ATOM     87  H   LIG d   1      14.444  12.196  -2.888  0.00  0.00     0.210 HD
ENDBRANCH  23  86
TORSDOF 14
ENDMDL
MODEL 6
REMARK VINA RESULT:      -7.0      4.539     10.867
REMARK  14 active torsions:
REMARK  status: ('A' for Active; 'I' for Inactive)
REMARK    1  A    between atoms: C_1  and  C_2 
REMARK    2  A    between atoms: C_2  and  C_4 
REMARK    3  A    between atoms: C_2  and  C_18 
REMARK    4  A    between atoms: C_4  and  C_5 
REMARK    5  A    between atoms: C_5  and  C_6 
REMARK       I    between atoms: C_6  and  N_8 
REMARK    6  A    between atoms: N_8  and  C_9 
REMARK    7  A    between atoms: C_9  and  C_10 
REMARK    8  A    between atoms: C_10  and  S_11 
REMARK    9  A    between atoms: S_11  and  C_12 
REMARK   10  A    between atoms: C_24  and  C_47 
REMARK   11  A    between atoms: C_25  and  O_46 
REMARK   12  A    between atoms: C_32  and  O_45 
REMARK   13  A    between atoms: C_37  and  C_44 
REMARK   14  A    between atoms: C_40  and  O_43 
ROOT
ATOM      1  C   LIG d   1       3.498  -1.297  -5.036  0.00  0.00    -0.030 C 
ATOM      2  H   LIG d   1       2.943  -2.233  -5.115  0.00  0.00     0.031 H 
ATOM      3  C   LIG d   1       2.519  -0.104  -4.901  0.00  0.00    -0.049 C 
ATOM      4  C   LIG d   1       2.714   0.768  -6.171  0.00  0.00    -0.049 C 
ATOM      5  C   LIG d   1       3.277  -0.229  -7.189  0.00  0.00    -0.028 C 
ATOM      6  H   LIG d   1       2.485  -0.880  -7.559  0.00  0.00     0.031 H 
ATOM      7  C   LIG d   1       4.280  -1.036  -6.319  0.00  0.00     0.000 C 
ATOM      8  C   LIG d   1       4.699  -2.255  -7.117  0.00  0.00     0.061 C 
ATOM      9  H   LIG d   1       5.351  -2.887  -6.514  0.00  0.00     0.060 H 
ATOM     10  C   LIG d   1       5.455  -1.752  -8.358  0.00  0.00    -0.023 C 
ATOM     11  C   LIG d   1       4.595  -0.803  -9.186  0.00  0.00    -0.028 C 
ATOM     12  H   LIG d   1       3.740  -1.353  -9.576  0.00  0.00     0.031 H 
ATOM     13  C   LIG d   1       4.051   0.372  -8.348  0.00  0.00    -0.008 C 
ATOM     14  H   LIG d   1       4.884   0.961  -7.967  0.00  0.00     0.033 H 
ATOM     15  C   LIG d   1       3.131   1.239  -9.209  0.00  0.00     0.059 C 
ATOM     16  H   LIG d   1       2.746   2.065  -8.612  0.00  0.00     0.060 H 
ATOM     17  C   LIG d   1       3.918   1.790 -10.399  0.00  0.00    -0.023 C 
ATOM     18  C   LIG d   1       4.455   0.630 -11.239  0.00  0.00    -0.031 C 
ATOM     19  H   LIG d   1       5.014   1.024 -12.088  0.00  0.00     0.031 H 
ATOM     20  C   LIG d   1       5.406  -0.250 -10.358  0.00  0.00    -0.026 C 
ATOM     21  C   LIG d   1       5.941  -1.412 -11.200  0.00  0.00    -0.045 C 
ATOM     22  C   LIG d   1       4.767  -2.244 -11.719  0.00  0.00    -0.026 C 
ATOM     23  C   LIG d   1       3.860  -1.365 -12.583  0.00  0.00     0.056 C 
ATOM     24  H   LIG d   1       4.429  -0.975 -13.427  0.00  0.00     0.059 H 
ATOM     25  C   LIG d   1       3.286  -0.217 -11.745  0.00  0.00    -0.023 C 
ATOM     26  H   LIG d   1       1.492  -0.465  -4.849  0.00  0.00     0.027 H 
ATOM     27  H   LIG d   1       2.757   0.476  -4.009  0.00  0.00     0.027 H 
ATOM     28  H   LIG d   1       1.761   1.172  -6.512  0.00  0.00     0.027 H 
ATOM     29  H   LIG d   1       3.428   1.571  -5.983  0.00  0.00     0.027 H 
ATOM     30  H   LIG d   1       6.357  -1.230  -8.037  0.00  0.00     0.029 H 
ATOM     31  H   LIG d   1       5.738  -2.606  -8.973  0.00  0.00     0.029 H 
ATOM     32  H   LIG d   1       3.262   2.409 -11.012  0.00  0.00     0.029 H 
ATOM     33  H   LIG d   1       4.751   2.393 -10.036  0.00  0.00     0.029 H 
ATOM     34  H   LIG d   1       6.509  -1.019 -12.042  0.00  0.00     0.027 H 
ATOM     35  H   LIG d   1       6.587  -2.038 -10.585  0.00  0.00     0.027 H 
ATOM     36  H   LIG d   1       5.146  -3.072 -12.318  0.00  0.00     0.029 H 
ATOM     37  H   LIG d   1       4.197  -2.636 -10.877  0.00  0.00     0.029 H 
ATOM     38  H   LIG d   1       2.727  -0.610 -10.895  0.00  0.00     0.029 H 
ATOM     39  H   LIG d   1       2.629   0.401 -12.357  0.00  0.00     0.029 H 
ENDROOT
BRANCH   1  40
ATOM     40  C   LIG d   1       4.446  -1.343  -3.837  0.00  0.00    -0.040 C 
ATOM     41  H   LIG d   1       5.336  -0.754  -4.055  0.00  0.00     0.030 H 
BRANCH  40  42
ATOM     42  C   LIG d   1       4.849  -2.792  -3.560  0.00  0.00    -0.062 C 
ATOM     43  H   LIG d   1       3.976  -3.355  -3.227  0.00  0.00     0.023 H 
ATOM     44  H   LIG d   1       5.244  -3.241  -4.472  0.00  0.00     0.023 H 
ATOM     45  H   LIG d   1       5.613  -2.815  -2.783  0.00  0.00     0.023 H 
ENDBRANCH  40  42
BRANCH  40  46
ATOM     46  C   LIG d   1       3.742  -0.765  -2.607  0.00  0.00    -0.042 C 
ATOM     47  H   LIG d   1       2.917  -0.129  -2.926  0.00  0.00     0.027 H 
ATOM     48  H   LIG d   1       3.358  -1.579  -1.993  0.00  0.00     0.027 H 
BRANCH  46  49
ATOM     49  C   LIG d   1       4.738   0.062  -1.791  0.00  0.00     0.024 C 
ATOM     50  H   LIG d   1       4.213   0.571  -0.982  0.00  0.00     0.036 H 
ATOM     51  H   LIG d   1       5.500  -0.597  -1.372  0.00  0.00     0.036 H 
BRANCH  49  52
ATOM     52  C   LIG d   1       5.394   1.083  -2.684  0.00  0.00     0.213 C 
ATOM     53  O   LIG d   1       4.763   2.043  -3.072  0.00  0.00    -0.276 OA
ATOM     54  N   LIG d   1       6.681   0.929  -3.053  0.00  0.00    -0.315 N 
ATOM     55  H   LIG d   1       7.185   0.160  -2.742  0.00  0.00     0.149 HD
BRANCH  54  56
ATOM     56  C   LIG d   1       7.319   1.921  -3.922  0.00  0.00     0.021 C 
ATOM     57  H   LIG d   1       7.013   1.750  -4.953  0.00  0.00     0.047 H 
ATOM     58  H   LIG d   1       7.015   2.922  -3.614  0.00  0.00     0.047 H 
BRANCH  56  59
ATOM     59  C   LIG d   1       8.839   1.792  -3.812  0.00  0.00     0.014 C 
ATOM     60  H   LIG d   1       9.269   2.762  -3.559  0.00  0.00     0.040 H 
ATOM     61  H   LIG d   1       9.087   1.070  -3.033  0.00  0.00     0.040 H 
BRANCH  59  62
ATOM     62  S   LIG d   1       9.514   1.226  -5.398  0.00  0.00    -0.124 SA
BRANCH  62  63
ATOM     63  C   LIG d   1       9.527   2.676  -6.398  0.00  0.00     0.008 A 
ATOM     64  C   LIG d   1       9.158   2.603  -7.737  0.00  0.00    -0.048 A 
ATOM     65  C   LIG d   1       9.163   3.742  -8.516  0.00  0.00    -0.061 A 
ATOM     66  H   LIG d   1       8.864   1.656  -8.164  0.00  0.00     0.063 H 
ATOM     67  C   LIG d   1       9.545   4.955  -7.970  0.00  0.00    -0.062 A 
ATOM     68  H   LIG d   1       8.871   3.686  -9.554  0.00  0.00     0.062 H 
ATOM     69  C   LIG d   1       9.919   5.030  -6.640  0.00  0.00    -0.061 A 
ATOM     70  H   LIG d   1       9.552   5.843  -8.583  0.00  0.00     0.062 H 
ATOM     71  C   LIG d   1       9.910   3.896  -5.853  0.00  0.00    -0.048 A 
ATOM     72  H   LIG d   1      10.216   5.978  -6.216  0.00  0.00     0.062 H 
ATOM     73  H   LIG d   1      10.202   3.956  -4.814  0.00  0.00     0.063 H 
ENDBRANCH  62  63
ENDBRANCH  59  62
ENDBRANCH  56  59
ENDBRANCH  54  56
ENDBRANCH  49  52
ENDBRANCH  46  49
ENDBRANCH  40  46
ENDBRANCH   1  40
BRANCH   7  74
ATOM     74  C   LIG d   1       5.506  -0.175  -6.011  0.00  0.00    -0.057 C 
ATOM     75  H   LIG d   1       5.569   0.639  -6.733  0.00  0.00     0.024 H 
ATOM     76  H   LIG d   1       5.416   0.238  -5.006  0.00  0.00     0.024 H 
ATOM     77  H   LIG d   1       6.406  -0.787  -6.074  0.00  0.00     0.024 H 
ENDBRANCH   7  74
BRANCH   8  78
ATOM     78  O   LIG d   1       3.543  -2.995  -7.517  0.00  0.00    -0.391 OA
ATOM     79  H   LIG d   1       3.022  -3.339  -6.779  0.00  0.00     0.210 HD
ENDBRANCH   8  78
BRANCH  15  80
ATOM     80  O   LIG d   1       2.040   0.448  -9.684  0.00  0.00    -0.392 OA
ATOM     81  H   LIG d   1       2.309  -0.330 -10.191  0.00  0.00     0.210 HD
ENDBRANCH  15  80
BRANCH  20  82
ATOM     82  C   LIG d   1       6.575   0.582  -9.825  0.00  0.00    -0.059 C 
ATOM     83  H   LIG d   1       6.844   1.341 -10.560  0.00  0.00     0.024 H 
ATOM     84  H   LIG d   1       6.281   1.065  -8.894  0.00  0.00     0.024 H 
ATOM     85  H   LIG d   1       7.430  -0.068  -9.644  0.00  0.00     0.024 H 
ENDBRANCH  20  82
BRANCH  23  86
ATOM     86  O   LIG d   1       2.763  -2.143 -13.067  0.00  0.00    -0.392 OA
ATOM     87  H   LIG d   1       2.131  -1.642 -13.600  0.00  0.00     0.210 HD
ENDBRANCH  23  86
TORSDOF 14
ENDMDL
MODEL 7
REMARK VINA RESULT:      -6.9      1.760      2.738
REMARK  14 active torsions:
REMARK  status: ('A' for Active; 'I' for Inactive)
REMARK    1  A    between atoms: C_1  and  C_2 
REMARK    2  A    between atoms: C_2  and  C_4 
REMARK    3  A    between atoms: C_2  and  C_18 
REMARK    4  A    between atoms: C_4  and  C_5 
REMARK    5  A    between atoms: C_5  and  C_6 
REMARK       I    between atoms: C_6  and  N_8 
REMARK    6  A    between atoms: N_8  and  C_9 
REMARK    7  A    between atoms: C_9  and  C_10 
REMARK    8  A    between atoms: C_10  and  S_11 
REMARK    9  A    between atoms: S_11  and  C_12 
REMARK   10  A    between atoms: C_24  and  C_47 
REMARK   11  A    between atoms: C_25  and  O_46 
REMARK   12  A    between atoms: C_32  and  O_45 
REMARK   13  A    between atoms: C_37  and  C_44 
REMARK   14  A    between atoms: C_40  and  O_43 
ROOT
ATOM      1  C   LIG d   1      10.768   3.891  -3.823  0.00  0.00    -0.030 C 
ATOM      2  H   LIG d   1      11.001   3.231  -2.987  0.00  0.00     0.031 H 
ATOM      3  C   LIG d   1      11.990   4.011  -4.768  0.00  0.00    -0.049 C 
ATOM      4  C   LIG d   1      12.445   5.495  -4.710  0.00  0.00    -0.049 C 
ATOM      5  C   LIG d   1      11.912   5.963  -3.351  0.00  0.00    -0.028 C 
ATOM      6  H   LIG d   1      12.532   5.571  -2.545  0.00  0.00     0.031 H 
ATOM      7  C   LIG d   1      10.504   5.307  -3.321  0.00  0.00     0.000 C 
ATOM      8  C   LIG d   1       9.970   5.436  -1.908  0.00  0.00     0.061 C 
ATOM      9  H   LIG d   1       9.011   4.926  -1.825  0.00  0.00     0.060 H 
ATOM     10  C   LIG d   1       9.794   6.937  -1.621  0.00  0.00    -0.023 C 
ATOM     11  C   LIG d   1      11.104   7.695  -1.802  0.00  0.00    -0.028 C 
ATOM     12  H   LIG d   1      11.819   7.345  -1.058  0.00  0.00     0.031 H 
ATOM     13  C   LIG d   1      11.727   7.461  -3.194  0.00  0.00    -0.008 C 
ATOM     14  H   LIG d   1      11.046   7.830  -3.960  0.00  0.00     0.033 H 
ATOM     15  C   LIG d   1      13.076   8.177  -3.284  0.00  0.00     0.059 C 
ATOM     16  H   LIG d   1      13.513   8.006  -4.267  0.00  0.00     0.060 H 
ATOM     17  C   LIG d   1      12.871   9.677  -3.069  0.00  0.00    -0.023 C 
ATOM     18  C   LIG d   1      12.260   9.918  -1.687  0.00  0.00    -0.031 C 
ATOM     19  H   LIG d   1      12.117  10.988  -1.533  0.00  0.00     0.031 H 
ATOM     20  C   LIG d   1      10.874   9.193  -1.600  0.00  0.00    -0.026 C 
ATOM     21  C   LIG d   1      10.266   9.433  -0.216  0.00  0.00    -0.045 C 
ATOM     22  C   LIG d   1      11.218   8.899   0.856  0.00  0.00    -0.026 C 
ATOM     23  C   LIG d   1      12.560   9.629   0.756  0.00  0.00     0.056 C 
ATOM     24  H   LIG d   1      12.405  10.697   0.909  0.00  0.00     0.059 H 
ATOM     25  C   LIG d   1      13.200   9.368  -0.612  0.00  0.00    -0.023 C 
ATOM     26  H   LIG d   1      12.793   3.359  -4.427  0.00  0.00     0.027 H 
ATOM     27  H   LIG d   1      11.702   3.748  -5.786  0.00  0.00     0.027 H 
ATOM     28  H   LIG d   1      13.532   5.566  -4.744  0.00  0.00     0.027 H 
ATOM     29  H   LIG d   1      11.995   6.069  -5.519  0.00  0.00     0.027 H 
ATOM     30  H   LIG d   1       9.048   7.344  -2.304  0.00  0.00     0.029 H 
ATOM     31  H   LIG d   1       9.445   7.065  -0.596  0.00  0.00     0.029 H 
ATOM     32  H   LIG d   1      13.833  10.187  -3.134  0.00  0.00     0.029 H 
ATOM     33  H   LIG d   1      12.201  10.066  -3.835  0.00  0.00     0.029 H 
ATOM     34  H   LIG d   1      10.112  10.501  -0.067  0.00  0.00     0.027 H 
ATOM     35  H   LIG d   1       9.309   8.914  -0.145  0.00  0.00     0.027 H 
ATOM     36  H   LIG d   1      10.785   9.069   1.842  0.00  0.00     0.029 H 
ATOM     37  H   LIG d   1      11.373   7.832   0.706  0.00  0.00     0.029 H 
ATOM     38  H   LIG d   1      13.343   8.298  -0.767  0.00  0.00     0.029 H 
ATOM     39  H   LIG d   1      14.162   9.876  -0.677  0.00  0.00     0.029 H 
ENDROOT
BRANCH   1  40
ATOM     40  C   LIG d   1       9.554   3.366  -4.590  0.00  0.00    -0.040 C 
ATOM     41  H   LIG d   1       8.917   4.201  -4.878  0.00  0.00     0.030 H 
BRANCH  40  42
ATOM     42  C   LIG d   1       8.764   2.406  -3.699  0.00  0.00    -0.062 C 
ATOM     43  H   LIG d   1       7.697   2.527  -3.889  0.00  0.00     0.023 H 
ATOM     44  H   LIG d   1       9.057   1.379  -3.920  0.00  0.00     0.023 H 
ATOM     45  H   LIG d   1       8.973   2.626  -2.652  0.00  0.00     0.023 H 
ENDBRANCH  40  42
BRANCH  40  46
ATOM     46  C   LIG d   1      10.023   2.627  -5.846  0.00  0.00    -0.042 C 
ATOM     47  H   LIG d   1      11.042   2.927  -6.084  0.00  0.00     0.027 H 
ATOM     48  H   LIG d   1       9.994   1.552  -5.666  0.00  0.00     0.027 H 
BRANCH  46  49
ATOM     49  C   LIG d   1       9.101   2.974  -7.016  0.00  0.00     0.024 C 
ATOM     50  H   LIG d   1       8.374   3.720  -6.697  0.00  0.00     0.036 H 
ATOM     51  H   LIG d   1       9.694   3.371  -7.840  0.00  0.00     0.036 H 
BRANCH  49  52
ATOM     52  C   LIG d   1       8.379   1.731  -7.471  0.00  0.00     0.213 C 
ATOM     53  O   LIG d   1       8.856   1.038  -8.343  0.00  0.00    -0.276 OA
ATOM     54  N   LIG d   1       7.202   1.392  -6.908  0.00  0.00    -0.315 N 
ATOM     55  H   LIG d   1       6.821   1.947  -6.211  0.00  0.00     0.149 HD
BRANCH  54  56
ATOM     56  C   LIG d   1       6.499   0.184  -7.350  0.00  0.00     0.021 C 
ATOM     57  H   LIG d   1       5.447   0.416  -7.512  0.00  0.00     0.047 H 
ATOM     58  H   LIG d   1       6.941  -0.171  -8.282  0.00  0.00     0.047 H 
BRANCH  56  59
ATOM     59  C   LIG d   1       6.626  -0.899  -6.279  0.00  0.00     0.014 C 
ATOM     60  H   LIG d   1       7.169  -1.752  -6.686  0.00  0.00     0.040 H 
ATOM     61  H   LIG d   1       7.167  -0.501  -5.420  0.00  0.00     0.040 H 
BRANCH  59  62
ATOM     62  S   LIG d   1       4.970  -1.429  -5.756  0.00  0.00    -0.124 SA
BRANCH  62  63
ATOM     63  C   LIG d   1       4.666  -0.494  -4.294  0.00  0.00     0.008 A 
ATOM     64  C   LIG d   1       3.395  -0.478  -3.730  0.00  0.00    -0.048 A 
ATOM     65  C   LIG d   1       3.162   0.251  -2.580  0.00  0.00    -0.061 A 
ATOM     66  H   LIG d   1       2.594  -1.038  -4.188  0.00  0.00     0.063 H 
ATOM     67  C   LIG d   1       4.187   0.974  -1.997  0.00  0.00    -0.062 A 
ATOM     68  H   LIG d   1       2.176   0.259  -2.139  0.00  0.00     0.062 H 
ATOM     69  C   LIG d   1       5.450   0.965  -2.559  0.00  0.00    -0.061 A 
ATOM     70  H   LIG d   1       3.999   1.546  -1.101  0.00  0.00     0.062 H 
ATOM     71  C   LIG d   1       5.693   0.234  -3.705  0.00  0.00    -0.048 A 
ATOM     72  H   LIG d   1       6.249   1.530  -2.101  0.00  0.00     0.062 H 
ATOM     73  H   LIG d   1       6.681   0.227  -4.143  0.00  0.00     0.063 H 
ENDBRANCH  62  63
ENDBRANCH  59  62
ENDBRANCH  56  59
ENDBRANCH  54  56
ENDBRANCH  49  52
ENDBRANCH  46  49
ENDBRANCH  40  46
ENDBRANCH   1  40
BRANCH   7  74
ATOM     74  C   LIG d   1       9.574   6.035  -4.293  0.00  0.00    -0.057 C 
ATOM     75  H   LIG d   1       9.187   5.327  -5.025  0.00  0.00     0.024 H 
ATOM     76  H   LIG d   1       8.744   6.475  -3.740  0.00  0.00     0.024 H 
ATOM     77  H   LIG d   1      10.127   6.823  -4.805  0.00  0.00     0.024 H 
ENDBRANCH   7  74
BRANCH   8  78
ATOM     78  O   LIG d   1      10.902   4.870  -0.983  0.00  0.00    -0.391 OA
ATOM     79  H   LIG d   1      11.710   4.535  -1.395  0.00  0.00     0.210 HD
ENDBRANCH   8  78
BRANCH  15  80
ATOM     80  O   LIG d   1      13.953   7.666  -2.278  0.00  0.00    -0.392 OA
ATOM     81  H   LIG d   1      14.262   6.765  -2.447  0.00  0.00     0.210 HD
ENDBRANCH  15  80
BRANCH  20  82
ATOM     82  C   LIG d   1       9.922   9.715  -2.680  0.00  0.00    -0.059 C 
ATOM     83  H   LIG d   1       9.621  10.733  -2.435  0.00  0.00     0.024 H 
ATOM     84  H   LIG d   1      10.429   9.708  -3.644  0.00  0.00     0.024 H 
ATOM     85  H   LIG d   1       9.041   9.076  -2.727  0.00  0.00     0.024 H 
ENDBRANCH  20  82
BRANCH  23  86
ATOM     86  O   LIG d   1      13.449   9.129   1.757  0.00  0.00    -0.392 OA
ATOM     87  H   LIG d   1      14.277   9.622   1.828  0.00  0.00     0.210 HD
ENDBRANCH  23  86
TORSDOF 14
ENDMDL
MODEL 8
REMARK VINA RESULT:      -6.6      3.856     11.332
REMARK  14 active torsions:
REMARK  status: ('A' for Active; 'I' for Inactive)
REMARK    1  A    between atoms: C_1  and  C_2 
REMARK    2  A    between atoms: C_2  and  C_4 
REMARK    3  A    between atoms: C_2  and  C_18 
REMARK    4  A    between atoms: C_4  and  C_5 
REMARK    5  A    between atoms: C_5  and  C_6 
REMARK       I    between atoms: C_6  and  N_8 
REMARK    6  A    between atoms: N_8  and  C_9 
REMARK    7  A    between atoms: C_9  and  C_10 
REMARK    8  A    between atoms: C_10  and  S_11 
REMARK    9  A    between atoms: S_11  and  C_12 
REMARK   10  A    between atoms: C_24  and  C_47 
REMARK   11  A    between atoms: C_25  and  O_46 
REMARK   12  A    between atoms: C_32  and  O_45 
REMARK   13  A    between atoms: C_37  and  C_44 
REMARK   14  A    between atoms: C_40  and  O_43 
ROOT
ATOM      1  C   LIG d   1       3.538  -1.061  -5.363  0.00  0.00    -0.030 C 
ATOM      2  H   LIG d   1       2.922  -1.954  -5.255  0.00  0.00     0.031 H 
ATOM      3  C   LIG d   1       2.645   0.202  -5.440  0.00  0.00    -0.049 C 
ATOM      4  C   LIG d   1       2.860   0.806  -6.854  0.00  0.00    -0.049 C 
ATOM      5  C   LIG d   1       3.326  -0.402  -7.675  0.00  0.00    -0.028 C 
ATOM      6  H   LIG d   1       2.483  -1.053  -7.903  0.00  0.00     0.031 H 
ATOM      7  C   LIG d   1       4.299  -1.100  -6.685  0.00  0.00     0.000 C 
ATOM      8  C   LIG d   1       4.613  -2.473  -7.245  0.00  0.00     0.061 C 
ATOM      9  H   LIG d   1       5.239  -3.025  -6.545  0.00  0.00     0.060 H 
ATOM     10  C   LIG d   1       5.364  -2.265  -8.571  0.00  0.00    -0.023 C 
ATOM     11  C   LIG d   1       4.545  -1.429  -9.549  0.00  0.00    -0.028 C 
ATOM     12  H   LIG d   1       3.644  -1.982  -9.815  0.00  0.00     0.031 H 
ATOM     13  C   LIG d   1       4.104  -0.083  -8.938  0.00  0.00    -0.008 C 
ATOM     14  H   LIG d   1       4.985   0.506  -8.689  0.00  0.00     0.033 H 
ATOM     15  C   LIG d   1       3.218   0.670  -9.933  0.00  0.00     0.059 C 
ATOM     16  H   LIG d   1       2.907   1.618  -9.496  0.00  0.00     0.060 H 
ATOM     17  C   LIG d   1       4.006   0.932 -11.218  0.00  0.00    -0.023 C 
ATOM     18  C   LIG d   1       4.441  -0.399 -11.833  0.00  0.00    -0.031 C 
ATOM     19  H   LIG d   1       5.000  -0.211 -12.750  0.00  0.00     0.031 H 
ATOM     20  C   LIG d   1       5.356  -1.164 -10.817  0.00  0.00    -0.026 C 
ATOM     21  C   LIG d   1       5.789  -2.497 -11.433  0.00  0.00    -0.045 C 
ATOM     22  C   LIG d   1       4.548  -3.328 -11.768  0.00  0.00    -0.026 C 
ATOM     23  C   LIG d   1       3.676  -2.564 -12.767  0.00  0.00     0.056 C 
ATOM     24  H   LIG d   1       4.245  -2.379 -13.679  0.00  0.00     0.059 H 
ATOM     25  C   LIG d   1       3.204  -1.242 -12.151  0.00  0.00    -0.023 C 
ATOM     26  H   LIG d   1       1.598  -0.070  -5.304  0.00  0.00     0.027 H 
ATOM     27  H   LIG d   1       2.946   0.920  -4.677  0.00  0.00     0.027 H 
ATOM     28  H   LIG d   1       1.926   1.205  -7.250  0.00  0.00     0.027 H 
ATOM     29  H   LIG d   1       3.630   1.577  -6.832  0.00  0.00     0.027 H 
ATOM     30  H   LIG d   1       6.308  -1.757  -8.369  0.00  0.00     0.029 H 
ATOM     31  H   LIG d   1       5.572  -3.237  -9.019  0.00  0.00     0.029 H 
ATOM     32  H   LIG d   1       3.374   1.470 -11.926  0.00  0.00     0.029 H 
ATOM     33  H   LIG d   1       4.887   1.532 -10.988  0.00  0.00     0.029 H 
ATOM     34  H   LIG d   1       6.357  -2.309 -12.344  0.00  0.00     0.027 H 
ATOM     35  H   LIG d   1       6.410  -3.041 -10.722  0.00  0.00     0.027 H 
ATOM     36  H   LIG d   1       4.854  -4.277 -12.206  0.00  0.00     0.029 H 
ATOM     37  H   LIG d   1       3.979  -3.514 -10.858  0.00  0.00     0.029 H 
ATOM     38  H   LIG d   1       2.645  -1.428 -11.234  0.00  0.00     0.029 H 
ATOM     39  H   LIG d   1       2.571  -0.705 -12.858  0.00  0.00     0.029 H 
ENDROOT
BRANCH   1  40
ATOM     40  C   LIG d   1       4.516  -0.948  -4.192  0.00  0.00    -0.040 C 
ATOM     41  H   LIG d   1       5.538  -0.944  -4.571  0.00  0.00     0.030 H 
BRANCH  40  42
ATOM     42  C   LIG d   1       4.326  -2.140  -3.252  0.00  0.00    -0.062 C 
ATOM     43  H   LIG d   1       4.638  -3.055  -3.757  0.00  0.00     0.023 H 
ATOM     44  H   LIG d   1       4.929  -1.996  -2.356  0.00  0.00     0.023 H 
ATOM     45  H   LIG d   1       3.275  -2.219  -2.974  0.00  0.00     0.023 H 
ENDBRANCH  40  42
BRANCH  40  46
ATOM     46  C   LIG d   1       4.251   0.352  -3.429  0.00  0.00    -0.042 C 
ATOM     47  H   LIG d   1       4.107   1.166  -4.137  0.00  0.00     0.027 H 
ATOM     48  H   LIG d   1       3.355   0.238  -2.819  0.00  0.00     0.027 H 
BRANCH  46  49
ATOM     49  C   LIG d   1       5.446   0.665  -2.525  0.00  0.00     0.024 C 
ATOM     50  H   LIG d   1       5.289   1.626  -2.035  0.00  0.00     0.036 H 
ATOM     51  H   LIG d   1       5.545  -0.116  -1.771  0.00  0.00     0.036 H 
BRANCH  49  52
ATOM     52  C   LIG d   1       6.702   0.724  -3.356  0.00  0.00     0.213 C 
ATOM     53  O   LIG d   1       7.403  -0.259  -3.464  0.00  0.00    -0.276 OA
ATOM     54  N   LIG d   1       7.044   1.869  -3.979  0.00  0.00    -0.315 N 
ATOM     55  H   LIG d   1       6.482   2.655  -3.892  0.00  0.00     0.149 HD
BRANCH  54  56
ATOM     56  C   LIG d   1       8.265   1.927  -4.787  0.00  0.00     0.021 C 
ATOM     57  H   LIG d   1       8.942   1.131  -4.480  0.00  0.00     0.047 H 
ATOM     58  H   LIG d   1       8.009   1.800  -5.840  0.00  0.00     0.047 H 
BRANCH  56  59
ATOM     59  C   LIG d   1       8.944   3.282  -4.587  0.00  0.00     0.014 C 
ATOM     60  H   LIG d   1       9.384   3.612  -5.528  0.00  0.00     0.040 H 
ATOM     61  H   LIG d   1       8.207   4.014  -4.254  0.00  0.00     0.040 H 
BRANCH  59  62
ATOM     62  S   LIG d   1      10.247   3.126  -3.333  0.00  0.00    -0.124 SA
BRANCH  62  63
ATOM     63  C   LIG d   1      10.233   4.682  -2.507  0.00  0.00     0.008 A 
ATOM     64  C   LIG d   1      10.885   4.830  -1.288  0.00  0.00    -0.048 A 
ATOM     65  C   LIG d   1      10.877   6.052  -0.647  0.00  0.00    -0.061 A 
ATOM     66  H   LIG d   1      11.400   3.990  -0.846  0.00  0.00     0.063 H 
ATOM     67  C   LIG d   1      10.212   7.127  -1.210  0.00  0.00    -0.062 A 
ATOM     68  H   LIG d   1      11.388   6.169   0.297  0.00  0.00     0.062 H 
ATOM     69  C   LIG d   1       9.558   6.982  -2.420  0.00  0.00    -0.061 A 
ATOM     70  H   LIG d   1      10.204   8.080  -0.704  0.00  0.00     0.062 H 
ATOM     71  C   LIG d   1       9.566   5.764  -3.070  0.00  0.00    -0.048 A 
ATOM     72  H   LIG d   1       9.040   7.823  -2.858  0.00  0.00     0.062 H 
ATOM     73  H   LIG d   1       9.055   5.652  -4.015  0.00  0.00     0.063 H 
ENDBRANCH  62  63
ENDBRANCH  59  62
ENDBRANCH  56  59
ENDBRANCH  54  56
ENDBRANCH  49  52
ENDBRANCH  46  49
ENDBRANCH  40  46
ENDBRANCH   1  40
BRANCH   7  74
ATOM     74  C   LIG d   1       5.587  -0.284  -6.564  0.00  0.00    -0.057 C 
ATOM     75  H   LIG d   1       6.309  -0.634  -7.302  0.00  0.00     0.024 H 
ATOM     76  H   LIG d   1       5.368   0.769  -6.742  0.00  0.00     0.024 H 
ATOM     77  H   LIG d   1       6.003  -0.406  -5.563  0.00  0.00     0.024 H 
ENDBRANCH   7  74
BRANCH   8  78
ATOM     78  O   LIG d   1       3.400  -3.191  -7.480  0.00  0.00    -0.391 OA
ATOM     79  H   LIG d   1       2.769  -3.146  -6.749  0.00  0.00     0.210 HD
ENDBRANCH   8  78
BRANCH  15  80
ATOM     80  O   LIG d   1       2.064  -0.118 -10.233  0.00  0.00    -0.392 OA
ATOM     81  H   LIG d   1       1.993  -0.926  -9.708  0.00  0.00     0.210 HD
ENDBRANCH  15  80
BRANCH  20  82
ATOM     82  C   LIG d   1       6.593  -0.331 -10.469  0.00  0.00    -0.059 C 
ATOM     83  H   LIG d   1       6.989  -0.656  -9.508  0.00  0.00     0.024 H 
ATOM     84  H   LIG d   1       7.350  -0.468 -11.240  0.00  0.00     0.024 H 
ATOM     85  H   LIG d   1       6.318   0.721 -10.413  0.00  0.00     0.024 H 
ENDBRANCH  20  82
BRANCH  23  86
ATOM     86  O   LIG d   1       2.517  -3.339 -13.078  0.00  0.00    -0.392 OA
ATOM     87  H   LIG d   1       2.437  -4.151 -12.560  0.00  0.00     0.210 HD
ENDBRANCH  23  86
TORSDOF 14
ENDMDL
MODEL 9
REMARK VINA RESULT:      -6.5     16.634     19.346
REMARK  14 active torsions:
REMARK  status: ('A' for Active; 'I' for Inactive)
REMARK    1  A    between atoms: C_1  and  C_2 
REMARK    2  A    between atoms: C_2  and  C_4 
REMARK    3  A    between atoms: C_2  and  C_18 
REMARK    4  A    between atoms: C_4  and  C_5 
REMARK    5  A    between atoms: C_5  and  C_6 
REMARK       I    between atoms: C_6  and  N_8 
REMARK    6  A    between atoms: N_8  and  C_9 
REMARK    7  A    between atoms: C_9  and  C_10 
REMARK    8  A    between atoms: C_10  and  S_11 
REMARK    9  A    between atoms: S_11  and  C_12 
REMARK   10  A    between atoms: C_24  and  C_47 
REMARK   11  A    between atoms: C_25  and  O_46 
REMARK   12  A    between atoms: C_32  and  O_45 
REMARK   13  A    between atoms: C_37  and  C_44 
REMARK   14  A    between atoms: C_40  and  O_43 
ROOT
ATOM      1  C   LIG d   1      -3.355   9.675 -15.201  0.00  0.00    -0.030 C 
ATOM      2  H   LIG d   1      -2.785   9.785 -14.277  0.00  0.00     0.031 H 
ATOM      3  C   LIG d   1      -4.713  10.411 -15.084  0.00  0.00    -0.049 C 
ATOM      4  C   LIG d   1      -5.812   9.318 -15.168  0.00  0.00    -0.049 C 
ATOM      5  C   LIG d   1      -5.075   8.054 -14.713  0.00  0.00    -0.028 C 
ATOM      6  H   LIG d   1      -4.938   8.064 -13.632  0.00  0.00     0.031 H 
ATOM      7  C   LIG d   1      -3.707   8.209 -15.433  0.00  0.00     0.000 C 
ATOM      8  C   LIG d   1      -2.760   7.183 -14.843  0.00  0.00     0.061 C 
ATOM      9  H   LIG d   1      -1.767   7.304 -15.273  0.00  0.00     0.060 H 
ATOM     10  C   LIG d   1      -3.318   5.793 -15.192  0.00  0.00    -0.023 C 
ATOM     11  C   LIG d   1      -4.740   5.617 -14.670  0.00  0.00    -0.028 C 
ATOM     12  H   LIG d   1      -4.721   5.652 -13.581  0.00  0.00     0.031 H 
ATOM     13  C   LIG d   1      -5.683   6.736 -15.156  0.00  0.00    -0.008 C 
ATOM     14  H   LIG d   1      -5.746   6.708 -16.244  0.00  0.00     0.033 H 
ATOM     15  C   LIG d   1      -7.068   6.553 -14.533  0.00  0.00     0.059 C 
ATOM     16  H   LIG d   1      -7.729   7.347 -14.877  0.00  0.00     0.060 H 
ATOM     17  C   LIG d   1      -7.638   5.197 -14.950  0.00  0.00    -0.023 C 
ATOM     18  C   LIG d   1      -6.711   4.080 -14.464  0.00  0.00    -0.031 C 
ATOM     19  H   LIG d   1      -7.119   3.113 -14.760  0.00  0.00     0.031 H 
ATOM     20  C   LIG d   1      -5.296   4.264 -15.112  0.00  0.00    -0.026 C 
ATOM     21  C   LIG d   1      -4.370   3.148 -14.623  0.00  0.00    -0.045 C 
ATOM     22  C   LIG d   1      -4.272   3.201 -13.097  0.00  0.00    -0.026 C 
ATOM     23  C   LIG d   1      -5.664   3.010 -12.489  0.00  0.00     0.056 C 
ATOM     24  H   LIG d   1      -6.063   2.043 -12.793  0.00  0.00     0.059 H 
ATOM     25  C   LIG d   1      -6.595   4.142 -12.940  0.00  0.00    -0.023 C 
ATOM     26  H   LIG d   1      -4.776  10.932 -14.129  0.00  0.00     0.027 H 
ATOM     27  H   LIG d   1      -4.826  11.119 -15.904  0.00  0.00     0.027 H 
ATOM     28  H   LIG d   1      -6.638   9.548 -14.495  0.00  0.00     0.027 H 
ATOM     29  H   LIG d   1      -6.169   9.208 -16.192  0.00  0.00     0.027 H 
ATOM     30  H   LIG d   1      -3.318   5.671 -16.276  0.00  0.00     0.029 H 
ATOM     31  H   LIG d   1      -2.678   5.030 -14.748  0.00  0.00     0.029 H 
ATOM     32  H   LIG d   1      -8.626   5.066 -14.507  0.00  0.00     0.029 H 
ATOM     33  H   LIG d   1      -7.719   5.155 -16.036  0.00  0.00     0.029 H 
ATOM     34  H   LIG d   1      -4.772   2.182 -14.928  0.00  0.00     0.027 H 
ATOM     35  H   LIG d   1      -3.378   3.283 -15.056  0.00  0.00     0.027 H 
ATOM     36  H   LIG d   1      -3.612   2.408 -12.748  0.00  0.00     0.029 H 
ATOM     37  H   LIG d   1      -3.872   4.168 -12.792  0.00  0.00     0.029 H 
ATOM     38  H   LIG d   1      -6.187   5.109 -12.646  0.00  0.00     0.029 H 
ATOM     39  H   LIG d   1      -7.582   4.014 -12.495  0.00  0.00     0.029 H 
ENDROOT
BRANCH   1  40
ATOM     40  C   LIG d   1      -2.555  10.222 -16.384  0.00  0.00    -0.040 C 
ATOM     41  H   LIG d   1      -2.776   9.635 -17.275  0.00  0.00     0.030 H 
BRANCH  40  42
ATOM     42  C   LIG d   1      -1.060  10.136 -16.073  0.00  0.00    -0.062 C 
ATOM     43  H   LIG d   1      -0.562  11.041 -16.423  0.00  0.00     0.023 H 
ATOM     44  H   LIG d   1      -0.917  10.037 -14.997  0.00  0.00     0.023 H 
ATOM     45  H   LIG d   1      -0.633   9.268 -16.578  0.00  0.00     0.023 H 
ENDBRANCH  40  42
BRANCH  40  46
ATOM     46  C   LIG d   1      -2.941  11.683 -16.629  0.00  0.00    -0.042 C 
ATOM     47  H   LIG d   1      -3.271  11.803 -17.660  0.00  0.00     0.027 H 
ATOM     48  H   LIG d   1      -3.750  11.963 -15.954  0.00  0.00     0.027 H 
BRANCH  46  49
ATOM     49  C   LIG d   1      -1.729  12.581 -16.372  0.00  0.00     0.024 C 
ATOM     50  H   LIG d   1      -0.897  11.975 -16.014  0.00  0.00     0.036 H 
ATOM     51  H   LIG d   1      -1.445  13.080 -17.299  0.00  0.00     0.036 H 
BRANCH  49  52
ATOM     52  C   LIG d   1      -2.082  13.614 -15.333  0.00  0.00     0.213 C 
ATOM     53  O   LIG d   1      -1.409  14.616 -15.222  0.00  0.00    -0.276 OA
ATOM     54  N   LIG d   1      -3.145  13.424 -14.527  0.00  0.00    -0.315 N 
ATOM     55  H   LIG d   1      -3.684  12.622 -14.617  0.00  0.00     0.149 HD
BRANCH  54  56
ATOM     56  C   LIG d   1      -3.489  14.427 -13.517  0.00  0.00     0.021 C 
ATOM     57  H   LIG d   1      -2.689  14.489 -12.780  0.00  0.00     0.047 H 
ATOM     58  H   LIG d   1      -3.616  15.398 -13.998  0.00  0.00     0.047 H 
BRANCH  56  59
ATOM     59  C   LIG d   1      -4.792  14.027 -12.824  0.00  0.00     0.014 C 
ATOM     60  H   LIG d   1      -5.491  14.863 -12.852  0.00  0.00     0.040 H 
ATOM     61  H   LIG d   1      -5.229  13.170 -13.338  0.00  0.00     0.040 H 
BRANCH  59  62
ATOM     62  S   LIG d   1      -4.448  13.583 -11.098  0.00  0.00    -0.124 SA
BRANCH  62  63
ATOM     63  C   LIG d   1      -5.410  12.132 -10.831  0.00  0.00     0.008 A 
ATOM     64  C   LIG d   1      -5.521  11.595  -9.553  0.00  0.00    -0.048 A 
ATOM     65  C   LIG d   1      -6.281  10.461  -9.347  0.00  0.00    -0.061 A 
ATOM     66  H   LIG d   1      -5.016  12.067  -8.724  0.00  0.00     0.063 H 
ATOM     67  C   LIG d   1      -6.922   9.853 -10.411  0.00  0.00    -0.062 A 
ATOM     68  H   LIG d   1      -6.371  10.047  -8.354  0.00  0.00     0.062 H 
ATOM     69  C   LIG d   1      -6.809  10.380 -11.684  0.00  0.00    -0.061 A 
ATOM     70  H   LIG d   1      -7.512   8.964 -10.246  0.00  0.00     0.062 H 
ATOM     71  C   LIG d   1      -6.056  11.518 -11.898  0.00  0.00    -0.048 A 
ATOM     72  H   LIG d   1      -7.311   9.903 -12.513  0.00  0.00     0.062 H 
ATOM     73  H   LIG d   1      -5.969  11.930 -12.893  0.00  0.00     0.063 H 
ENDBRANCH  62  63
ENDBRANCH  59  62
ENDBRANCH  56  59
ENDBRANCH  54  56
ENDBRANCH  49  52
ENDBRANCH  46  49
ENDBRANCH  40  46
ENDBRANCH   1  40
BRANCH   7  74
ATOM     74  C   LIG d   1      -3.880   7.951 -16.931  0.00  0.00    -0.057 C 
ATOM     75  H   LIG d   1      -3.205   8.597 -17.492  0.00  0.00     0.024 H 
ATOM     76  H   LIG d   1      -3.649   6.908 -17.149  0.00  0.00     0.024 H 
ATOM     77  H   LIG d   1      -4.910   8.163 -17.220  0.00  0.00     0.024 H 
ENDBRANCH   7  74
BRANCH   8  78
ATOM     78  O   LIG d   1      -2.697   7.340 -13.424  0.00  0.00    -0.391 OA
ATOM     79  H   LIG d   1      -3.523   7.647 -13.025  0.00  0.00     0.210 HD
ENDBRANCH   8  78
BRANCH  15  80
ATOM     80  O   LIG d   1      -6.960   6.608 -13.109  0.00  0.00    -0.392 OA
ATOM     81  H   LIG d   1      -7.594   6.046 -12.645  0.00  0.00     0.210 HD
ENDBRANCH  15  80
BRANCH  20  82
ATOM     82  C   LIG d   1      -5.391   4.223 -16.639  0.00  0.00    -0.059 C 
ATOM     83  H   LIG d   1      -4.526   3.696 -17.042  0.00  0.00     0.024 H 
ATOM     84  H   LIG d   1      -6.303   3.704 -16.932  0.00  0.00     0.024 H 
ATOM     85  H   LIG d   1      -5.411   5.241 -17.029  0.00  0.00     0.024 H 
ENDBRANCH  20  82
BRANCH  23  86
ATOM     86  O   LIG d   1      -5.572   3.062 -11.064  0.00  0.00    -0.392 OA
ATOM     87  H   LIG d   1      -4.924   2.451 -10.689  0.00  0.00     0.210 HD
ENDBRANCH  23  86
TORSDOF 14
ENDMDL
