MODEL 1
REMARK VINA RESULT:      -6.6      0.000      0.000
REMARK  8 active torsions:
REMARK  status: ('A' for Active; 'I' for Inactive)
REMARK    1  A    between atoms: C_1  and  C_2 
REMARK    2  A    between atoms: C_2  and  C_3 
REMARK    3  A    between atoms: C_2  and  N_4 
REMARK    4  A    between atoms: N_4  and  C_5 
REMARK    5  A    between atoms: C_8  and  C_31 
REMARK    6  A    between atoms: C_11  and  C_27 
REMARK    7  A    between atoms: C_27  and  O_29 
REMARK    8  A    between atoms: O_29  and  C_30 
ROOT
ATOM      1  C   LIG d   1      10.465  -2.499  -5.566  0.00  0.00    -0.019 C 
ATOM      2  H   LIG d   1      11.170  -1.827  -6.054  0.00  0.00     0.085 H 
ATOM      3  C   LIG d   1       9.972  -3.542  -6.573  0.00  0.00     0.010 C 
ATOM      4  C   LIG d   1       8.926  -4.440  -5.907  0.00  0.00     0.042 C 
ATOM      5  H   LIG d   1       8.560  -5.170  -6.629  0.00  0.00     0.051 H 
ATOM      6  N   LIG d   1       7.808  -3.615  -5.435  0.00  0.00    -0.274 N 
ATOM      7  C   LIG d   1       6.692  -4.435  -4.953  0.00  0.00     0.113 C 
ATOM      8  H   LIG d   1       6.935  -4.841  -3.971  0.00  0.00     0.058 H 
ATOM      9  C   LIG d   1       5.428  -3.569  -4.850  0.00  0.00     0.001 C 
ATOM     10  C   LIG d   1       5.786  -2.301  -4.117  0.00  0.00    -0.016 A 
ATOM     11  C   LIG d   1       4.918  -1.321  -3.504  0.00  0.00     0.003 A 
ATOM     12  C   LIG d   1       3.528  -1.221  -3.391  0.00  0.00    -0.052 A 
ATOM     13  C   LIG d   1       3.035  -0.126  -2.726  0.00  0.00    -0.061 A 
ATOM     14  C   LIG d   1       3.866   0.843  -2.186  0.00  0.00    -0.060 A 
ATOM     15  C   LIG d   1       5.245   0.771  -2.285  0.00  0.00    -0.038 A 
ATOM     16  C   LIG d   1       5.773  -0.331  -2.953  0.00  0.00     0.047 A 
ATOM     17  N   LIG d   1       7.058  -0.706  -3.226  0.00  0.00    -0.356 N 
ATOM     18  H   LIG d   1       7.851  -0.210  -2.966  0.00  0.00     0.166 HD
ATOM     19  C   LIG d   1       7.059  -1.885  -3.920  0.00  0.00     0.038 A 
ATOM     20  C   LIG d   1       8.257  -2.655  -4.417  0.00  0.00     0.057 C 
ATOM     21  H   LIG d   1       8.718  -3.191  -3.587  0.00  0.00     0.053 H 
ATOM     22  C   LIG d   1       9.270  -1.695  -5.044  0.00  0.00     0.011 C 
ATOM     23  H   LIG d   1       9.525  -3.037  -7.429  0.00  0.00     0.034 H 
ATOM     24  H   LIG d   1      10.813  -4.149  -6.907  0.00  0.00     0.034 H 
ATOM     25  H   LIG d   1       5.066  -3.326  -5.849  0.00  0.00     0.033 H 
ATOM     26  H   LIG d   1       4.657  -4.107  -4.299  0.00  0.00     0.033 H 
ATOM     27  H   LIG d   1       2.871  -1.971  -3.808  0.00  0.00     0.062 H 
ATOM     28  H   LIG d   1       1.966  -0.016  -2.619  0.00  0.00     0.062 H 
ATOM     29  H   LIG d   1       3.423   1.683  -1.673  0.00  0.00     0.062 H 
ATOM     30  H   LIG d   1       5.882   1.532  -1.860  0.00  0.00     0.064 H 
ATOM     31  H   LIG d   1       9.612  -0.982  -4.291  0.00  0.00     0.034 H 
ATOM     32  H   LIG d   1       8.803  -1.158  -5.869  0.00  0.00     0.034 H 
ENDROOT
BRANCH   1  33
ATOM     33  N   LIG d   1      11.128  -3.177  -4.444  0.00  0.00     0.231 N 
ATOM     34  H   LIG d   1      10.980  -4.172  -4.517  0.00  0.00     0.202 HD
ATOM     35  H   LIG d   1      10.741  -2.844  -3.573  0.00  0.00     0.202 HD
BRANCH  33  36
ATOM     36  C   LIG d   1      12.568  -2.891  -4.481  0.00  0.00    -0.028 C 
ATOM     37  H   LIG d   1      12.944  -3.047  -5.492  0.00  0.00     0.085 H 
BRANCH  36  38
ATOM     38  C   LIG d   1      12.811  -1.439  -4.066  0.00  0.00    -0.022 C 
ATOM     39  H   LIG d   1      12.333  -0.771  -4.783  0.00  0.00     0.028 H 
ATOM     40  H   LIG d   1      12.389  -1.270  -3.075  0.00  0.00     0.028 H 
ATOM     41  H   LIG d   1      13.883  -1.241  -4.043  0.00  0.00     0.028 H 
ENDBRANCH  36  38
BRANCH  36  42
ATOM     42  C   LIG d   1      13.299  -3.826  -3.516  0.00  0.00    -0.022 C 
ATOM     43  H   LIG d   1      13.536  -4.762  -4.024  0.00  0.00     0.028 H 
ATOM     44  H   LIG d   1      14.221  -3.352  -3.180  0.00  0.00     0.028 H 
ATOM     45  H   LIG d   1      12.662  -4.031  -2.656  0.00  0.00     0.028 H 
ENDBRANCH  36  42
ENDBRANCH  33  36
ENDBRANCH   1  33
BRANCH   4  46
ATOM     46  C   LIG d   1       9.551  -5.160  -4.739  0.00  0.00    -0.027 A 
ATOM     47  C   LIG d   1       9.148  -4.862  -3.451  0.00  0.00    -0.020 A 
ATOM     48  C   LIG d   1       9.719  -5.526  -2.378  0.00  0.00     0.142 A 
ATOM     49  H   LIG d   1       8.388  -4.115  -3.281  0.00  0.00     0.065 H 
ATOM     50  C   LIG d   1      10.698  -6.481  -2.597  0.00  0.00     0.076 A 
ATOM     51  F   LIG d   1       9.322  -5.241  -1.118  0.00  0.00    -0.204 F 
ATOM     52  C   LIG d   1      11.103  -6.772  -3.887  0.00  0.00    -0.040 A 
ATOM     53 CL   LIG d   1      11.419  -7.311  -1.252  0.00  0.00    -0.081 Cl
ATOM     54  C   LIG d   1      10.529  -6.112  -4.957  0.00  0.00    -0.056 A 
ATOM     55  H   LIG d   1      11.866  -7.516  -4.058  0.00  0.00     0.063 H 
ATOM     56  H   LIG d   1      10.844  -6.340  -5.964  0.00  0.00     0.062 H 
ENDBRANCH   4  46
BRANCH   7  57
ATOM     57  C   LIG d   1       6.447  -5.567  -5.918  0.00  0.00     0.325 C 
ATOM     58  O   LIG d   1       6.172  -5.331  -7.070  0.00  0.00    -0.249 OA
BRANCH  57  59
ATOM     59  O   LIG d   1       6.535  -6.838  -5.496  0.00  0.00    -0.467 OA
BRANCH  59  60
ATOM     60  C   LIG d   1       5.315  -7.576  -5.401  0.00  0.00     0.082 C 
ATOM     61  H   LIG d   1       4.799  -7.309  -4.480  0.00  0.00     0.066 H 
ATOM     62  H   LIG d   1       4.680  -7.341  -6.256  0.00  0.00     0.066 H 
ATOM     63  H   LIG d   1       5.536  -8.644  -5.398  0.00  0.00     0.066 H 
ENDBRANCH  59  60
ENDBRANCH  57  59
ENDBRANCH   7  57
TORSDOF 8
ENDMDL
MODEL 2
REMARK VINA RESULT:      -6.6      5.140      6.983
REMARK  8 active torsions:
REMARK  status: ('A' for Active; 'I' for Inactive)
REMARK    1  A    between atoms: C_1  and  C_2 
REMARK    2  A    between atoms: C_2  and  C_3 
REMARK    3  A    between atoms: C_2  and  N_4 
REMARK    4  A    between atoms: N_4  and  C_5 
REMARK    5  A    between atoms: C_8  and  C_31 
REMARK    6  A    between atoms: C_11  and  C_27 
REMARK    7  A    between atoms: C_27  and  O_29 
REMARK    8  A    between atoms: O_29  and  C_30 
ROOT
ATOM      1  C   LIG d   1       2.804  -1.399  -9.599  0.00  0.00    -0.019 C 
ATOM      2  H   LIG d   1       1.923  -0.961 -10.067  0.00  0.00     0.085 H 
ATOM      3  C   LIG d   1       2.702  -2.926  -9.645  0.00  0.00     0.010 C 
ATOM      4  C   LIG d   1       3.904  -3.540  -8.922  0.00  0.00     0.042 C 
ATOM      5  H   LIG d   1       3.822  -4.626  -8.936  0.00  0.00     0.051 H 
ATOM      6  N   LIG d   1       3.927  -3.068  -7.532  0.00  0.00    -0.274 N 
ATOM      7  C   LIG d   1       4.946  -3.762  -6.739  0.00  0.00     0.113 C 
ATOM      8  H   LIG d   1       5.933  -3.371  -6.990  0.00  0.00     0.058 H 
ATOM      9  C   LIG d   1       4.673  -3.536  -5.245  0.00  0.00     0.001 C 
ATOM     10  C   LIG d   1       4.442  -2.063  -5.027  0.00  0.00    -0.016 A 
ATOM     11  C   LIG d   1       4.449  -1.307  -3.795  0.00  0.00     0.003 A 
ATOM     12  C   LIG d   1       4.661  -1.666  -2.460  0.00  0.00    -0.052 A 
ATOM     13  C   LIG d   1       4.592  -0.661  -1.527  0.00  0.00    -0.061 A 
ATOM     14  C   LIG d   1       4.325   0.652  -1.878  0.00  0.00    -0.060 A 
ATOM     15  C   LIG d   1       4.111   1.036  -3.190  0.00  0.00    -0.038 A 
ATOM     16  C   LIG d   1       4.176   0.038  -4.159  0.00  0.00     0.047 A 
ATOM     17  N   LIG d   1       4.018   0.068  -5.515  0.00  0.00    -0.356 N 
ATOM     18  H   LIG d   1       3.821   0.862  -6.037  0.00  0.00     0.166 HD
ATOM     19  C   LIG d   1       4.180  -1.191  -6.029  0.00  0.00     0.038 A 
ATOM     20  C   LIG d   1       4.093  -1.609  -7.475  0.00  0.00     0.057 C 
ATOM     21  H   LIG d   1       5.009  -1.324  -7.993  0.00  0.00     0.053 H 
ATOM     22  C   LIG d   1       2.889  -0.939  -8.140  0.00  0.00     0.011 C 
ATOM     23  H   LIG d   1       1.782  -3.243  -9.153  0.00  0.00     0.034 H 
ATOM     24  H   LIG d   1       2.694  -3.258 -10.683  0.00  0.00     0.034 H 
ATOM     25  H   LIG d   1       3.787  -4.096  -4.945  0.00  0.00     0.033 H 
ATOM     26  H   LIG d   1       5.532  -3.864  -4.659  0.00  0.00     0.033 H 
ATOM     27  H   LIG d   1       4.870  -2.687  -2.176  0.00  0.00     0.062 H 
ATOM     28  H   LIG d   1       4.751  -0.902  -0.486  0.00  0.00     0.062 H 
ATOM     29  H   LIG d   1       4.283   1.401  -1.102  0.00  0.00     0.062 H 
ATOM     30  H   LIG d   1       3.903   2.064  -3.451  0.00  0.00     0.064 H 
ATOM     31  H   LIG d   1       3.008   0.145  -8.105  0.00  0.00     0.034 H 
ATOM     32  H   LIG d   1       1.977  -1.222  -7.614  0.00  0.00     0.034 H 
ENDROOT
BRANCH   1  33
ATOM     33  N   LIG d   1       4.009  -0.966 -10.320  0.00  0.00     0.231 N 
ATOM     34  H   LIG d   1       4.440  -1.764 -10.764  0.00  0.00     0.202 HD
ATOM     35  H   LIG d   1       4.660  -0.552  -9.670  0.00  0.00     0.202 HD
BRANCH  33  36
ATOM     36  C   LIG d   1       3.640   0.022 -11.342  0.00  0.00    -0.028 C 
ATOM     37  H   LIG d   1       2.573  -0.053 -11.552  0.00  0.00     0.085 H 
BRANCH  36  38
ATOM     38  C   LIG d   1       3.961   1.428 -10.831  0.00  0.00    -0.022 C 
ATOM     39  H   LIG d   1       4.697   1.894 -11.486  0.00  0.00     0.028 H 
ATOM     40  H   LIG d   1       3.051   2.028 -10.822  0.00  0.00     0.028 H 
ATOM     41  H   LIG d   1       4.364   1.364  -9.819  0.00  0.00     0.028 H 
ENDBRANCH  36  38
BRANCH  36  42
ATOM     42  C   LIG d   1       4.432  -0.248 -12.622  0.00  0.00    -0.022 C 
ATOM     43  H   LIG d   1       3.896  -0.972 -13.237  0.00  0.00     0.028 H 
ATOM     44  H   LIG d   1       4.551   0.682 -13.178  0.00  0.00     0.028 H 
ATOM     45  H   LIG d   1       5.414  -0.646 -12.366  0.00  0.00     0.028 H 
ENDBRANCH  36  42
ENDBRANCH  33  36
ENDBRANCH   1  33
BRANCH   4  46
ATOM     46  C   LIG d   1       5.175  -3.123  -9.617  0.00  0.00    -0.027 A 
ATOM     47  C   LIG d   1       5.387  -3.475 -10.937  0.00  0.00    -0.020 A 
ATOM     48  C   LIG d   1       6.553  -3.089 -11.576  0.00  0.00     0.142 A 
ATOM     49  H   LIG d   1       4.644  -4.049 -11.469  0.00  0.00     0.065 H 
ATOM     50  C   LIG d   1       7.509  -2.358 -10.890  0.00  0.00     0.076 A 
ATOM     51  F   LIG d   1       6.759  -3.427 -12.868  0.00  0.00    -0.204 F 
ATOM     52  C   LIG d   1       7.296  -2.011  -9.568  0.00  0.00    -0.040 A 
ATOM     53 CL   LIG d   1       8.974  -1.876 -11.689  0.00  0.00    -0.081 Cl
ATOM     54  C   LIG d   1       6.130  -2.394  -8.933  0.00  0.00    -0.056 A 
ATOM     55  H   LIG d   1       8.040  -1.441  -9.033  0.00  0.00     0.063 H 
ATOM     56  H   LIG d   1       5.963  -2.123  -7.901  0.00  0.00     0.062 H 
ENDBRANCH   4  46
BRANCH   7  57
ATOM     57  C   LIG d   1       4.899  -5.238  -7.040  0.00  0.00     0.325 C 
ATOM     58  O   LIG d   1       3.918  -5.882  -6.755  0.00  0.00    -0.249 OA
BRANCH  57  59
ATOM     59  O   LIG d   1       5.947  -5.837  -7.626  0.00  0.00    -0.467 OA
BRANCH  59  60
ATOM     60  C   LIG d   1       7.247  -5.479  -7.153  0.00  0.00     0.082 C 
ATOM     61  H   LIG d   1       7.160  -4.671  -6.426  0.00  0.00     0.066 H 
ATOM     62  H   LIG d   1       7.714  -6.344  -6.681  0.00  0.00     0.066 H 
ATOM     63  H   LIG d   1       7.861  -5.148  -7.991  0.00  0.00     0.066 H 
ENDBRANCH  59  60
ENDBRANCH  57  59
ENDBRANCH   7  57
TORSDOF 8
ENDMDL
MODEL 3
REMARK VINA RESULT:      -6.4      6.443      8.665
REMARK  8 active torsions:
REMARK  status: ('A' for Active; 'I' for Inactive)
REMARK    1  A    between atoms: C_1  and  C_2 
REMARK    2  A    between atoms: C_2  and  C_3 
REMARK    3  A    between atoms: C_2  and  N_4 
REMARK    4  A    between atoms: N_4  and  C_5 
REMARK    5  A    between atoms: C_8  and  C_31 
REMARK    6  A    between atoms: C_11  and  C_27 
REMARK    7  A    between atoms: C_27  and  O_29 
REMARK    8  A    between atoms: O_29  and  C_30 
ROOT
ATOM      1  C   LIG d   1       4.695  -4.251  -9.270  0.00  0.00    -0.019 C 
ATOM      2  H   LIG d   1       4.969  -5.301  -9.366  0.00  0.00     0.085 H 
ATOM      3  C   LIG d   1       5.686  -3.389 -10.057  0.00  0.00     0.010 C 
ATOM      4  C   LIG d   1       5.345  -1.910  -9.862  0.00  0.00     0.042 C 
ATOM      5  H   LIG d   1       6.062  -1.295 -10.406  0.00  0.00     0.051 H 
ATOM      6  N   LIG d   1       5.405  -1.583  -8.432  0.00  0.00    -0.274 N 
ATOM      7  C   LIG d   1       5.267  -0.142  -8.197  0.00  0.00     0.113 C 
ATOM      8  H   LIG d   1       4.224   0.149  -8.319  0.00  0.00     0.058 H 
ATOM      9  C   LIG d   1       5.725   0.189  -6.769  0.00  0.00     0.001 C 
ATOM     10  C   LIG d   1       5.063  -0.782  -5.825  0.00  0.00    -0.016 A 
ATOM     11  C   LIG d   1       4.920  -0.711  -4.389  0.00  0.00     0.003 A 
ATOM     12  C   LIG d   1       5.328   0.231  -3.439  0.00  0.00    -0.052 A 
ATOM     13  C   LIG d   1       5.014  -0.032  -2.128  0.00  0.00    -0.061 A 
ATOM     14  C   LIG d   1       4.326  -1.174  -1.751  0.00  0.00    -0.060 A 
ATOM     15  C   LIG d   1       3.912  -2.123  -2.669  0.00  0.00    -0.038 A 
ATOM     16  C   LIG d   1       4.215  -1.882  -4.007  0.00  0.00     0.047 A 
ATOM     17  N   LIG d   1       3.961  -2.593  -5.145  0.00  0.00    -0.356 N 
ATOM     18  H   LIG d   1       3.492  -3.442  -5.180  0.00  0.00     0.166 HD
ATOM     19  C   LIG d   1       4.469  -1.930  -6.229  0.00  0.00     0.038 A 
ATOM     20  C   LIG d   1       4.410  -2.356  -7.675  0.00  0.00     0.057 C 
ATOM     21  H   LIG d   1       3.414  -2.160  -8.073  0.00  0.00     0.053 H 
ATOM     22  C   LIG d   1       4.734  -3.846  -7.793  0.00  0.00     0.011 C 
ATOM     23  H   LIG d   1       6.698  -3.579  -9.698  0.00  0.00     0.034 H 
ATOM     24  H   LIG d   1       5.623  -3.640 -11.116  0.00  0.00     0.034 H 
ATOM     25  H   LIG d   1       6.809   0.088  -6.699  0.00  0.00     0.033 H 
ATOM     26  H   LIG d   1       5.432   1.207  -6.515  0.00  0.00     0.033 H 
ATOM     27  H   LIG d   1       5.865   1.124  -3.722  0.00  0.00     0.062 H 
ATOM     28  H   LIG d   1       5.313   0.673  -1.367  0.00  0.00     0.062 H 
ATOM     29  H   LIG d   1       4.107  -1.329  -0.705  0.00  0.00     0.062 H 
ATOM     30  H   LIG d   1       3.376  -3.010  -2.362  0.00  0.00     0.064 H 
ATOM     31  H   LIG d   1       3.996  -4.426  -7.236  0.00  0.00     0.034 H 
ATOM     32  H   LIG d   1       5.728  -4.037  -7.388  0.00  0.00     0.034 H 
ENDROOT
BRANCH   1  33
ATOM     33  N   LIG d   1       3.340  -4.047  -9.798  0.00  0.00     0.231 N 
ATOM     34  H   LIG d   1       3.396  -3.625 -10.714  0.00  0.00     0.202 HD
ATOM     35  H   LIG d   1       2.826  -3.438  -9.180  0.00  0.00     0.202 HD
BRANCH  33  36
ATOM     36  C   LIG d   1       2.653  -5.341  -9.897  0.00  0.00    -0.028 C 
ATOM     37  H   LIG d   1       2.533  -5.766  -8.901  0.00  0.00     0.085 H 
BRANCH  36  38
ATOM     38  C   LIG d   1       1.277  -5.140 -10.534  0.00  0.00    -0.022 C 
ATOM     39  H   LIG d   1       1.304  -4.271 -11.193  0.00  0.00     0.028 H 
ATOM     40  H   LIG d   1       1.011  -6.026 -11.111  0.00  0.00     0.028 H 
ATOM     41  H   LIG d   1       0.533  -4.979  -9.752  0.00  0.00     0.028 H 
ENDBRANCH  36  38
BRANCH  36  42
ATOM     42  C   LIG d   1       3.480  -6.294 -10.761  0.00  0.00    -0.022 C 
ATOM     43  H   LIG d   1       4.181  -5.719 -11.368  0.00  0.00     0.028 H 
ATOM     44  H   LIG d   1       4.033  -6.979 -10.119  0.00  0.00     0.028 H 
ATOM     45  H   LIG d   1       2.817  -6.862 -11.413  0.00  0.00     0.028 H 
ENDBRANCH  36  42
ENDBRANCH  33  36
ENDBRANCH   1  33
BRANCH   4  46
ATOM     46  C   LIG d   1       3.956  -1.641 -10.383  0.00  0.00    -0.027 A 
ATOM     47  C   LIG d   1       3.677  -1.817 -11.725  0.00  0.00    -0.020 A 
ATOM     48  C   LIG d   1       2.400  -1.575 -12.203  0.00  0.00     0.142 A 
ATOM     49  H   LIG d   1       4.452  -2.146 -12.400  0.00  0.00     0.065 H 
ATOM     50  C   LIG d   1       1.407  -1.148 -11.337  0.00  0.00     0.076 A 
ATOM     51  F   LIG d   1       2.124  -1.752 -13.514  0.00  0.00    -0.204 F 
ATOM     52  C   LIG d   1       1.691  -0.967  -9.995  0.00  0.00    -0.040 A 
ATOM     53 CL   LIG d   1      -0.194  -0.838 -11.934  0.00  0.00    -0.081 Cl
ATOM     54  C   LIG d   1       2.965  -1.214  -9.519  0.00  0.00    -0.056 A 
ATOM     55  H   LIG d   1       0.917  -0.634  -9.319  0.00  0.00     0.063 H 
ATOM     56  H   LIG d   1       3.186  -1.075  -8.471  0.00  0.00     0.062 H 
ENDBRANCH   4  46
BRANCH   7  57
ATOM     57  C   LIG d   1       6.119   0.612  -9.185  0.00  0.00     0.325 C 
ATOM     58  O   LIG d   1       7.315   0.441  -9.206  0.00  0.00    -0.249 OA
BRANCH  57  59
ATOM     59  O   LIG d   1       5.549   1.472 -10.042  0.00  0.00    -0.467 OA
BRANCH  59  60
ATOM     60  C   LIG d   1       4.422   2.211  -9.567  0.00  0.00     0.082 C 
ATOM     61  H   LIG d   1       4.628   2.583  -8.563  0.00  0.00     0.066 H 
ATOM     62  H   LIG d   1       4.231   3.053 -10.234  0.00  0.00     0.066 H 
ATOM     63  H   LIG d   1       3.546   1.563  -9.541  0.00  0.00     0.066 H 
ENDBRANCH  59  60
ENDBRANCH  57  59
ENDBRANCH   7  57
TORSDOF 8
ENDMDL
MODEL 4
REMARK VINA RESULT:      -6.2      3.653      7.113
REMARK  8 active torsions:
REMARK  status: ('A' for Active; 'I' for Inactive)
REMARK    1  A    between atoms: C_1  and  C_2 
REMARK    2  A    between atoms: C_2  and  C_3 
REMARK    3  A    between atoms: C_2  and  N_4 
REMARK    4  A    between atoms: N_4  and  C_5 
REMARK    5  A    between atoms: C_8  and  C_31 
REMARK    6  A    between atoms: C_11  and  C_27 
REMARK    7  A    between atoms: C_27  and  O_29 
REMARK    8  A    between atoms: O_29  and  C_30 
ROOT
ATOM      1  C   LIG d   1       5.015  -1.124  -2.885  0.00  0.00    -0.019 C 
ATOM      2  H   LIG d   1       4.758  -0.733  -1.900  0.00  0.00     0.085 H 
ATOM      3  C   LIG d   1       3.895  -2.044  -3.378  0.00  0.00     0.010 C 
ATOM      4  C   LIG d   1       4.289  -2.650  -4.728  0.00  0.00     0.042 C 
ATOM      5  H   LIG d   1       3.501  -3.320  -5.070  0.00  0.00     0.051 H 
ATOM      6  N   LIG d   1       5.540  -3.401  -4.575  0.00  0.00    -0.274 N 
ATOM      7  C   LIG d   1       5.873  -4.156  -5.787  0.00  0.00     0.113 C 
ATOM      8  H   LIG d   1       6.261  -3.475  -6.546  0.00  0.00     0.058 H 
ATOM      9  C   LIG d   1       6.939  -5.212  -5.456  0.00  0.00     0.001 C 
ATOM     10  C   LIG d   1       8.040  -4.540  -4.677  0.00  0.00    -0.016 A 
ATOM     11  C   LIG d   1       9.380  -5.004  -4.399  0.00  0.00     0.003 A 
ATOM     12  C   LIG d   1      10.072  -6.171  -4.740  0.00  0.00    -0.052 A 
ATOM     13  C   LIG d   1      11.366  -6.279  -4.295  0.00  0.00    -0.061 A 
ATOM     14  C   LIG d   1      11.971  -5.285  -3.541  0.00  0.00    -0.060 A 
ATOM     15  C   LIG d   1      11.310  -4.122  -3.188  0.00  0.00    -0.038 A 
ATOM     16  C   LIG d   1       9.996  -3.984  -3.627  0.00  0.00     0.047 A 
ATOM     17  N   LIG d   1       9.076  -2.988  -3.463  0.00  0.00    -0.356 N 
ATOM     18  H   LIG d   1       9.227  -2.164  -2.972  0.00  0.00     0.166 HD
ATOM     19  C   LIG d   1       7.909  -3.325  -4.093  0.00  0.00     0.038 A 
ATOM     20  C   LIG d   1       6.639  -2.515  -4.167  0.00  0.00     0.057 C 
ATOM     21  H   LIG d   1       6.757  -1.716  -4.900  0.00  0.00     0.053 H 
ATOM     22  C   LIG d   1       6.322  -1.919  -2.794  0.00  0.00     0.011 C 
ATOM     23  H   LIG d   1       3.736  -2.843  -2.654  0.00  0.00     0.034 H 
ATOM     24  H   LIG d   1       2.977  -1.468  -3.493  0.00  0.00     0.034 H 
ATOM     25  H   LIG d   1       6.494  -6.006  -4.856  0.00  0.00     0.033 H 
ATOM     26  H   LIG d   1       7.343  -5.629  -6.378  0.00  0.00     0.033 H 
ATOM     27  H   LIG d   1       9.610  -6.950  -5.327  0.00  0.00     0.062 H 
ATOM     28  H   LIG d   1      11.931  -7.166  -4.539  0.00  0.00     0.062 H 
ATOM     29  H   LIG d   1      12.991  -5.425  -3.217  0.00  0.00     0.062 H 
ATOM     30  H   LIG d   1      11.792  -3.355  -2.600  0.00  0.00     0.064 H 
ATOM     31  H   LIG d   1       7.132  -1.255  -2.487  0.00  0.00     0.034 H 
ATOM     32  H   LIG d   1       6.211  -2.721  -2.065  0.00  0.00     0.034 H 
ENDROOT
BRANCH   1  33
ATOM     33  N   LIG d   1       5.184  -0.009  -3.826  0.00  0.00     0.231 N 
ATOM     34  H   LIG d   1       4.599  -0.160  -4.635  0.00  0.00     0.202 HD
ATOM     35  H   LIG d   1       6.149   0.044  -4.115  0.00  0.00     0.202 HD
BRANCH  33  36
ATOM     36  C   LIG d   1       4.798   1.248  -3.171  0.00  0.00    -0.028 C 
ATOM     37  H   LIG d   1       5.534   2.018  -3.400  0.00  0.00     0.085 H 
BRANCH  36  38
ATOM     38  C   LIG d   1       3.424   1.687  -3.681  0.00  0.00    -0.022 C 
ATOM     39  H   LIG d   1       2.653   1.061  -3.234  0.00  0.00     0.028 H 
ATOM     40  H   LIG d   1       3.252   2.728  -3.407  0.00  0.00     0.028 H 
ATOM     41  H   LIG d   1       3.390   1.587  -4.767  0.00  0.00     0.028 H 
ENDBRANCH  36  38
BRANCH  36  42
ATOM     42  C   LIG d   1       4.735   1.036  -1.657  0.00  0.00    -0.022 C 
ATOM     43  H   LIG d   1       3.877   0.409  -1.413  0.00  0.00     0.028 H 
ATOM     44  H   LIG d   1       5.650   0.547  -1.321  0.00  0.00     0.028 H 
ATOM     45  H   LIG d   1       4.635   2.000  -1.159  0.00  0.00     0.028 H 
ENDBRANCH  36  42
ENDBRANCH  33  36
ENDBRANCH   1  33
BRANCH   4  46
ATOM     46  C   LIG d   1       4.483  -1.547  -5.737  0.00  0.00    -0.027 A 
ATOM     47  C   LIG d   1       3.409  -0.765  -6.120  0.00  0.00    -0.020 A 
ATOM     48  C   LIG d   1       3.589   0.250  -7.043  0.00  0.00     0.142 A 
ATOM     49  H   LIG d   1       2.433  -0.945  -5.698  0.00  0.00     0.065 H 
ATOM     50  C   LIG d   1       4.842   0.477  -7.589  0.00  0.00     0.076 A 
ATOM     51  F   LIG d   1       2.541   1.019  -7.415  0.00  0.00    -0.204 F 
ATOM     52  C   LIG d   1       5.913  -0.310  -7.207  0.00  0.00    -0.040 A 
ATOM     53 CL   LIG d   1       5.068   1.747  -8.751  0.00  0.00    -0.081 Cl
ATOM     54  C   LIG d   1       5.733  -1.321  -6.282  0.00  0.00    -0.056 A 
ATOM     55  H   LIG d   1       6.891  -0.135  -7.632  0.00  0.00     0.063 H 
ATOM     56  H   LIG d   1       6.570  -1.935  -5.983  0.00  0.00     0.062 H 
ENDBRANCH   4  46
BRANCH   7  57
ATOM     57  C   LIG d   1       4.636  -4.839  -6.311  0.00  0.00     0.325 C 
ATOM     58  O   LIG d   1       4.073  -5.668  -5.637  0.00  0.00    -0.249 OA
BRANCH  57  59
ATOM     59  O   LIG d   1       4.159  -4.524  -7.524  0.00  0.00    -0.467 OA
BRANCH  59  60
ATOM     60  C   LIG d   1       3.644  -5.596  -8.317  0.00  0.00     0.082 C 
ATOM     61  H   LIG d   1       3.601  -6.504  -7.717  0.00  0.00     0.066 H 
ATOM     62  H   LIG d   1       2.642  -5.342  -8.665  0.00  0.00     0.066 H 
ATOM     63  H   LIG d   1       4.295  -5.758  -9.176  0.00  0.00     0.066 H 
ENDBRANCH  59  60
ENDBRANCH  57  59
ENDBRANCH   7  57
TORSDOF 8
ENDMDL
MODEL 5
REMARK VINA RESULT:      -6.2      4.726      6.296
REMARK  8 active torsions:
REMARK  status: ('A' for Active; 'I' for Inactive)
REMARK    1  A    between atoms: C_1  and  C_2 
REMARK    2  A    between atoms: C_2  and  C_3 
REMARK    3  A    between atoms: C_2  and  N_4 
REMARK    4  A    between atoms: N_4  and  C_5 
REMARK    5  A    between atoms: C_8  and  C_31 
REMARK    6  A    between atoms: C_11  and  C_27 
REMARK    7  A    between atoms: C_27  and  O_29 
REMARK    8  A    between atoms: O_29  and  C_30 
ROOT
ATOM      1  C   LIG d   1       7.471  -1.344  -7.232  0.00  0.00    -0.019 C 
ATOM      2  H   LIG d   1       8.393  -0.936  -7.645  0.00  0.00     0.085 H 
ATOM      3  C   LIG d   1       7.721  -2.771  -6.735  0.00  0.00     0.010 C 
ATOM      4  C   LIG d   1       6.409  -3.371  -6.223  0.00  0.00     0.042 C 
ATOM      5  H   LIG d   1       6.583  -4.393  -5.888  0.00  0.00     0.051 H 
ATOM      6  N   LIG d   1       5.420  -3.372  -7.308  0.00  0.00    -0.274 N 
ATOM      7  C   LIG d   1       4.204  -4.100  -6.934  0.00  0.00     0.113 C 
ATOM      8  H   LIG d   1       3.606  -3.488  -6.258  0.00  0.00     0.058 H 
ATOM      9  C   LIG d   1       3.387  -4.412  -8.196  0.00  0.00     0.001 C 
ATOM     10  C   LIG d   1       3.273  -3.147  -9.008  0.00  0.00    -0.016 A 
ATOM     11  C   LIG d   1       2.373  -2.835 -10.095  0.00  0.00     0.003 A 
ATOM     12  C   LIG d   1       1.360  -3.561 -10.730  0.00  0.00    -0.052 A 
ATOM     13  C   LIG d   1       0.693  -2.934 -11.753  0.00  0.00    -0.061 A 
ATOM     14  C   LIG d   1       1.000  -1.642 -12.149  0.00  0.00    -0.060 A 
ATOM     15  C   LIG d   1       1.998  -0.901 -11.540  0.00  0.00    -0.038 A 
ATOM     16  C   LIG d   1       2.691  -1.511 -10.498  0.00  0.00     0.047 A 
ATOM     17  N   LIG d   1       3.710  -1.077  -9.699  0.00  0.00    -0.356 N 
ATOM     18  H   LIG d   1       4.128  -0.203  -9.754  0.00  0.00     0.166 HD
ATOM     19  C   LIG d   1       4.053  -2.059  -8.809  0.00  0.00     0.038 A 
ATOM     20  C   LIG d   1       5.121  -2.001  -7.746  0.00  0.00     0.057 C 
ATOM     21  H   LIG d   1       4.763  -1.415  -6.900  0.00  0.00     0.053 H 
ATOM     22  C   LIG d   1       6.391  -1.368  -8.319  0.00  0.00     0.011 C 
ATOM     23  H   LIG d   1       8.103  -3.379  -7.556  0.00  0.00     0.034 H 
ATOM     24  H   LIG d   1       8.452  -2.750  -5.927  0.00  0.00     0.034 H 
ATOM     25  H   LIG d   1       3.894  -5.180  -8.781  0.00  0.00     0.033 H 
ATOM     26  H   LIG d   1       2.393  -4.760  -7.915  0.00  0.00     0.033 H 
ATOM     27  H   LIG d   1       1.113  -4.568 -10.429  0.00  0.00     0.062 H 
ATOM     28  H   LIG d   1      -0.096  -3.464 -12.266  0.00  0.00     0.062 H 
ATOM     29  H   LIG d   1       0.443  -1.199 -12.960  0.00  0.00     0.062 H 
ATOM     30  H   LIG d   1       2.228   0.106 -11.858  0.00  0.00     0.064 H 
ATOM     31  H   LIG d   1       6.177  -0.348  -8.642  0.00  0.00     0.034 H 
ATOM     32  H   LIG d   1       6.740  -1.954  -9.168  0.00  0.00     0.034 H 
ENDROOT
BRANCH   1  33
ATOM     33  N   LIG d   1       7.021  -0.507  -6.112  0.00  0.00     0.231 N 
ATOM     34  H   LIG d   1       6.880  -1.084  -5.296  0.00  0.00     0.202 HD
ATOM     35  H   LIG d   1       6.154  -0.055  -6.357  0.00  0.00     0.202 HD
BRANCH  33  36
ATOM     36  C   LIG d   1       8.040   0.510  -5.821  0.00  0.00    -0.028 C 
ATOM     37  H   LIG d   1       9.021   0.039  -5.771  0.00  0.00     0.085 H 
BRANCH  36  38
ATOM     38  C   LIG d   1       8.037   1.565  -6.929  0.00  0.00    -0.022 C 
ATOM     39  H   LIG d   1       8.242   2.546  -6.498  0.00  0.00     0.028 H 
ATOM     40  H   LIG d   1       8.805   1.322  -7.664  0.00  0.00     0.028 H 
ATOM     41  H   LIG d   1       7.060   1.580  -7.415  0.00  0.00     0.028 H 
ENDBRANCH  36  38
BRANCH  36  42
ATOM     42  C   LIG d   1       7.726   1.178  -4.481  0.00  0.00    -0.022 C 
ATOM     43  H   LIG d   1       8.206   0.622  -3.676  0.00  0.00     0.028 H 
ATOM     44  H   LIG d   1       8.101   2.201  -4.489  0.00  0.00     0.028 H 
ATOM     45  H   LIG d   1       6.648   1.187  -4.323  0.00  0.00     0.028 H 
ENDBRANCH  36  42
ENDBRANCH  33  36
ENDBRANCH   1  33
BRANCH   4  46
ATOM     46  C   LIG d   1       5.895  -2.546  -5.072  0.00  0.00    -0.027 A 
ATOM     47  C   LIG d   1       4.656  -1.939  -5.157  0.00  0.00    -0.020 A 
ATOM     48  C   LIG d   1       4.181  -1.184  -4.098  0.00  0.00     0.142 A 
ATOM     49  H   LIG d   1       4.058  -2.055  -6.048  0.00  0.00     0.065 H 
ATOM     50  C   LIG d   1       4.952  -1.032  -2.957  0.00  0.00     0.076 A 
ATOM     51  F   LIG d   1       2.968  -0.595  -4.177  0.00  0.00    -0.204 F 
ATOM     52  C   LIG d   1       6.194  -1.636  -2.876  0.00  0.00    -0.040 A 
ATOM     53 CL   LIG d   1       4.361  -0.082  -1.629  0.00  0.00    -0.081 Cl
ATOM     54  C   LIG d   1       6.664  -2.392  -3.933  0.00  0.00    -0.056 A 
ATOM     55  H   LIG d   1       6.795  -1.517  -1.988  0.00  0.00     0.063 H 
ATOM     56  H   LIG d   1       7.633  -2.865  -3.870  0.00  0.00     0.062 H 
ENDBRANCH   4  46
BRANCH   7  57
ATOM     57  C   LIG d   1       4.579  -5.388  -6.247  0.00  0.00     0.325 C 
ATOM     58  O   LIG d   1       4.102  -5.660  -5.171  0.00  0.00    -0.249 OA
BRANCH  57  59
ATOM     59  O   LIG d   1       5.442  -6.232  -6.831  0.00  0.00    -0.467 OA
BRANCH  59  60
ATOM     60  C   LIG d   1       5.054  -7.606  -6.909  0.00  0.00     0.082 C 
ATOM     61  H   LIG d   1       4.725  -7.833  -7.923  0.00  0.00     0.066 H 
ATOM     62  H   LIG d   1       5.904  -8.239  -6.652  0.00  0.00     0.066 H 
ATOM     63  H   LIG d   1       4.239  -7.794  -6.211  0.00  0.00     0.066 H 
ENDBRANCH  59  60
ENDBRANCH  57  59
ENDBRANCH   7  57
TORSDOF 8
ENDMDL
MODEL 6
REMARK VINA RESULT:      -6.1      3.235      7.109
REMARK  8 active torsions:
REMARK  status: ('A' for Active; 'I' for Inactive)
REMARK    1  A    between atoms: C_1  and  C_2 
REMARK    2  A    between atoms: C_2  and  C_3 
REMARK    3  A    between atoms: C_2  and  N_4 
REMARK    4  A    between atoms: N_4  and  C_5 
REMARK    5  A    between atoms: C_8  and  C_31 
REMARK    6  A    between atoms: C_11  and  C_27 
REMARK    7  A    between atoms: C_27  and  O_29 
REMARK    8  A    between atoms: O_29  and  C_30 
ROOT
ATOM      1  C   LIG d   1       4.723  -2.065  -7.343  0.00  0.00    -0.019 C 
ATOM      2  H   LIG d   1       4.118  -1.860  -8.226  0.00  0.00     0.085 H 
ATOM      3  C   LIG d   1       6.140  -1.525  -7.557  0.00  0.00     0.010 C 
ATOM      4  C   LIG d   1       7.009  -1.877  -6.347  0.00  0.00     0.042 C 
ATOM      5  H   LIG d   1       8.023  -1.511  -6.508  0.00  0.00     0.051 H 
ATOM      6  N   LIG d   1       7.036  -3.335  -6.177  0.00  0.00    -0.274 N 
ATOM      7  C   LIG d   1       7.997  -3.745  -5.148  0.00  0.00     0.113 C 
ATOM      8  H   LIG d   1       7.583  -3.539  -4.160  0.00  0.00     0.058 H 
ATOM      9  C   LIG d   1       8.277  -5.249  -5.280  0.00  0.00     0.001 C 
ATOM     10  C   LIG d   1       6.956  -5.966  -5.387  0.00  0.00    -0.016 A 
ATOM     11  C   LIG d   1       6.661  -7.372  -5.225  0.00  0.00     0.003 A 
ATOM     12  C   LIG d   1       7.458  -8.482  -4.931  0.00  0.00    -0.052 A 
ATOM     13  C   LIG d   1       6.825  -9.698  -4.851  0.00  0.00    -0.061 A 
ATOM     14  C   LIG d   1       5.460  -9.832  -5.051  0.00  0.00    -0.060 A 
ATOM     15  C   LIG d   1       4.648  -8.751  -5.344  0.00  0.00    -0.038 A 
ATOM     16  C   LIG d   1       5.262  -7.504  -5.430  0.00  0.00     0.047 A 
ATOM     17  N   LIG d   1       4.771  -6.258  -5.697  0.00  0.00    -0.356 N 
ATOM     18  H   LIG d   1       3.840  -6.053  -5.878  0.00  0.00     0.166 HD
ATOM     19  C   LIG d   1       5.787  -5.343  -5.668  0.00  0.00     0.038 A 
ATOM     20  C   LIG d   1       5.689  -3.856  -5.902  0.00  0.00     0.057 C 
ATOM     21  H   LIG d   1       5.283  -3.372  -5.014  0.00  0.00     0.053 H 
ATOM     22  C   LIG d   1       4.787  -3.577  -7.106  0.00  0.00     0.011 C 
ATOM     23  H   LIG d   1       6.568  -1.974  -8.454  0.00  0.00     0.034 H 
ATOM     24  H   LIG d   1       6.102  -0.442  -7.675  0.00  0.00     0.034 H 
ATOM     25  H   LIG d   1       8.870  -5.434  -6.177  0.00  0.00     0.033 H 
ATOM     26  H   LIG d   1       8.817  -5.602  -4.402  0.00  0.00     0.033 H 
ATOM     27  H   LIG d   1       8.522  -8.389  -4.773  0.00  0.00     0.062 H 
ATOM     28  H   LIG d   1       7.409 -10.578  -4.625  0.00  0.00     0.062 H 
ATOM     29  H   LIG d   1       5.016 -10.814  -4.976  0.00  0.00     0.062 H 
ATOM     30  H   LIG d   1       3.585  -8.869  -5.498  0.00  0.00     0.064 H 
ATOM     31  H   LIG d   1       3.784  -3.957  -6.907  0.00  0.00     0.034 H 
ATOM     32  H   LIG d   1       5.194  -4.068  -7.989  0.00  0.00     0.034 H 
ENDROOT
BRANCH   1  33
ATOM     33  N   LIG d   1       4.121  -1.410  -6.174  0.00  0.00     0.231 N 
ATOM     34  H   LIG d   1       4.836  -1.229  -5.484  0.00  0.00     0.202 HD
ATOM     35  H   LIG d   1       3.417  -2.013  -5.776  0.00  0.00     0.202 HD
BRANCH  33  36
ATOM     36  C   LIG d   1       3.506  -0.142  -6.585  0.00  0.00    -0.028 C 
ATOM     37  H   LIG d   1       4.286   0.583  -6.815  0.00  0.00     0.085 H 
BRANCH  36  38
ATOM     38  C   LIG d   1       2.643  -0.374  -7.827  0.00  0.00    -0.022 C 
ATOM     39  H   LIG d   1       2.422   0.584  -8.300  0.00  0.00     0.028 H 
ATOM     40  H   LIG d   1       3.181  -1.011  -8.529  0.00  0.00     0.028 H 
ATOM     41  H   LIG d   1       1.710  -0.859  -7.537  0.00  0.00     0.028 H 
ENDBRANCH  36  38
BRANCH  36  42
ATOM     42  C   LIG d   1       2.631   0.393  -5.450  0.00  0.00    -0.022 C 
ATOM     43  H   LIG d   1       1.633   0.610  -5.831  0.00  0.00     0.028 H 
ATOM     44  H   LIG d   1       2.564  -0.355  -4.660  0.00  0.00     0.028 H 
ATOM     45  H   LIG d   1       3.073   1.305  -5.049  0.00  0.00     0.028 H 
ENDBRANCH  36  42
ENDBRANCH  33  36
ENDBRANCH   1  33
BRANCH   4  46
ATOM     46  C   LIG d   1       6.433  -1.235  -5.111  0.00  0.00    -0.027 A 
ATOM     47  C   LIG d   1       5.782  -2.011  -4.170  0.00  0.00    -0.020 A 
ATOM     48  C   LIG d   1       5.258  -1.422  -3.032  0.00  0.00     0.142 A 
ATOM     49  H   LIG d   1       5.686  -3.075  -4.320  0.00  0.00     0.065 H 
ATOM     50  C   LIG d   1       5.378  -0.055  -2.842  0.00  0.00     0.076 A 
ATOM     51  F   LIG d   1       4.626  -2.179  -2.108  0.00  0.00    -0.204 F 
ATOM     52  C   LIG d   1       6.025   0.720  -3.788  0.00  0.00    -0.040 A 
ATOM     53 CL   LIG d   1       4.716   0.687  -1.419  0.00  0.00    -0.081 Cl
ATOM     54  C   LIG d   1       6.552   0.129  -4.921  0.00  0.00    -0.056 A 
ATOM     55  H   LIG d   1       6.118   1.785  -3.642  0.00  0.00     0.063 H 
ATOM     56  H   LIG d   1       7.058   0.734  -5.659  0.00  0.00     0.062 H 
ENDBRANCH   4  46
BRANCH   7  57
ATOM     57  C   LIG d   1       9.281  -2.977  -5.325  0.00  0.00     0.325 C 
ATOM     58  O   LIG d   1       9.664  -2.232  -4.454  0.00  0.00    -0.249 OA
BRANCH  57  59
ATOM     59  O   LIG d   1       9.999  -3.121  -6.448  0.00  0.00    -0.467 OA
BRANCH  59  60
ATOM     60  C   LIG d   1      10.737  -1.982  -6.898  0.00  0.00     0.082 C 
ATOM     61  H   LIG d   1      11.296  -1.558  -6.064  0.00  0.00     0.066 H 
ATOM     62  H   LIG d   1      11.429  -2.284  -7.684  0.00  0.00     0.066 H 
ATOM     63  H   LIG d   1      10.047  -1.234  -7.290  0.00  0.00     0.066 H 
ENDBRANCH  59  60
ENDBRANCH  57  59
ENDBRANCH   7  57
TORSDOF 8
ENDMDL
MODEL 7
REMARK VINA RESULT:      -6.1      4.845      6.492
REMARK  8 active torsions:
REMARK  status: ('A' for Active; 'I' for Inactive)
REMARK    1  A    between atoms: C_1  and  C_2 
REMARK    2  A    between atoms: C_2  and  C_3 
REMARK    3  A    between atoms: C_2  and  N_4 
REMARK    4  A    between atoms: N_4  and  C_5 
REMARK    5  A    between atoms: C_8  and  C_31 
REMARK    6  A    between atoms: C_11  and  C_27 
REMARK    7  A    between atoms: C_27  and  O_29 
REMARK    8  A    between atoms: O_29  and  C_30 
ROOT
ATOM      1  C   LIG d   1       7.062  -2.069  -9.051  0.00  0.00    -0.019 C 
ATOM      2  H   LIG d   1       8.111  -1.929  -9.312  0.00  0.00     0.085 H 
ATOM      3  C   LIG d   1       6.179  -1.381 -10.096  0.00  0.00     0.010 C 
ATOM      4  C   LIG d   1       4.709  -1.515  -9.689  0.00  0.00     0.042 C 
ATOM      5  H   LIG d   1       4.081  -1.008 -10.421  0.00  0.00     0.051 H 
ATOM      6  N   LIG d   1       4.513  -0.904  -8.369  0.00  0.00    -0.274 N 
ATOM      7  C   LIG d   1       3.094  -0.838  -8.005  0.00  0.00     0.113 C 
ATOM      8  H   LIG d   1       2.748  -1.827  -7.707  0.00  0.00     0.058 H 
ATOM      9  C   LIG d   1       2.911   0.141  -6.836  0.00  0.00     0.001 C 
ATOM     10  C   LIG d   1       3.932  -0.193  -5.779  0.00  0.00    -0.016 A 
ATOM     11  C   LIG d   1       3.982   0.214  -4.393  0.00  0.00     0.003 A 
ATOM     12  C   LIG d   1       3.147   1.014  -3.606  0.00  0.00    -0.052 A 
ATOM     13  C   LIG d   1       3.511   1.191  -2.295  0.00  0.00    -0.061 A 
ATOM     14  C   LIG d   1       4.650   0.610  -1.762  0.00  0.00    -0.060 A 
ATOM     15  C   LIG d   1       5.495  -0.184  -2.517  0.00  0.00    -0.038 A 
ATOM     16  C   LIG d   1       5.150  -0.383  -3.851  0.00  0.00     0.047 A 
ATOM     17  N   LIG d   1       5.746  -1.093  -4.854  0.00  0.00    -0.356 N 
ATOM     18  H   LIG d   1       6.566  -1.604  -4.765  0.00  0.00     0.166 HD
ATOM     19  C   LIG d   1       5.012  -0.977  -6.004  0.00  0.00     0.038 A 
ATOM     20  C   LIG d   1       5.305  -1.601  -7.345  0.00  0.00     0.057 C 
ATOM     21  H   LIG d   1       5.031  -2.656  -7.325  0.00  0.00     0.053 H 
ATOM     22  C   LIG d   1       6.792  -1.455  -7.674  0.00  0.00     0.011 C 
ATOM     23  H   LIG d   1       6.444  -0.326 -10.157  0.00  0.00     0.034 H 
ATOM     24  H   LIG d   1       6.332  -1.852 -11.067  0.00  0.00     0.034 H 
ATOM     25  H   LIG d   1       3.065   1.163  -7.186  0.00  0.00     0.033 H 
ATOM     26  H   LIG d   1       1.908   0.040  -6.424  0.00  0.00     0.033 H 
ATOM     27  H   LIG d   1       2.256   1.471  -4.012  0.00  0.00     0.062 H 
ATOM     28  H   LIG d   1       2.889   1.803  -1.657  0.00  0.00     0.062 H 
ATOM     29  H   LIG d   1       4.887   0.784  -0.723  0.00  0.00     0.062 H 
ATOM     30  H   LIG d   1       6.381  -0.632  -2.090  0.00  0.00     0.064 H 
ATOM     31  H   LIG d   1       7.386  -1.974  -6.920  0.00  0.00     0.034 H 
ATOM     32  H   LIG d   1       7.061  -0.399  -7.686  0.00  0.00     0.034 H 
ENDROOT
BRANCH   1  33
ATOM     33  N   LIG d   1       6.753  -3.505  -9.016  0.00  0.00     0.231 N 
ATOM     34  H   LIG d   1       6.719  -3.864  -9.959  0.00  0.00     0.202 HD
ATOM     35  H   LIG d   1       5.859  -3.646  -8.571  0.00  0.00     0.202 HD
BRANCH  33  36
ATOM     36  C   LIG d   1       7.794  -4.212  -8.260  0.00  0.00    -0.028 C 
ATOM     37  H   LIG d   1       8.389  -3.492  -7.699  0.00  0.00     0.085 H 
BRANCH  36  38
ATOM     38  C   LIG d   1       7.139  -5.198  -7.291  0.00  0.00    -0.022 C 
ATOM     39  H   LIG d   1       6.994  -4.716  -6.324  0.00  0.00     0.028 H 
ATOM     40  H   LIG d   1       6.174  -5.511  -7.689  0.00  0.00     0.028 H 
ATOM     41  H   LIG d   1       7.783  -6.070  -7.169  0.00  0.00     0.028 H 
ENDBRANCH  36  38
BRANCH  36  42
ATOM     42  C   LIG d   1       8.699  -4.976  -9.229  0.00  0.00    -0.022 C 
ATOM     43  H   LIG d   1       8.119  -5.290 -10.098  0.00  0.00     0.028 H 
ATOM     44  H   LIG d   1       9.514  -4.328  -9.552  0.00  0.00     0.028 H 
ATOM     45  H   LIG d   1       9.109  -5.853  -8.729  0.00  0.00     0.028 H 
ENDBRANCH  36  42
ENDBRANCH  33  36
ENDBRANCH   1  33
BRANCH   4  46
ATOM     46  C   LIG d   1       4.335  -2.974  -9.630  0.00  0.00    -0.027 A 
ATOM     47  C   LIG d   1       3.946  -3.539  -8.430  0.00  0.00    -0.020 A 
ATOM     48  C   LIG d   1       3.598  -4.878  -8.377  0.00  0.00     0.142 A 
ATOM     49  H   LIG d   1       3.911  -2.936  -7.536  0.00  0.00     0.065 H 
ATOM     50  C   LIG d   1       3.648  -5.652  -9.525  0.00  0.00     0.076 A 
ATOM     51  F   LIG d   1       3.211  -5.430  -7.206  0.00  0.00    -0.204 F 
ATOM     52  C   LIG d   1       4.042  -5.085 -10.723  0.00  0.00    -0.040 A 
ATOM     53 CL   LIG d   1       3.216  -7.333  -9.460  0.00  0.00    -0.081 Cl
ATOM     54  C   LIG d   1       4.386  -3.747 -10.775  0.00  0.00    -0.056 A 
ATOM     55  H   LIG d   1       4.082  -5.688 -11.618  0.00  0.00     0.063 H 
ATOM     56  H   LIG d   1       4.693  -3.305 -11.711  0.00  0.00     0.062 H 
ENDBRANCH   4  46
BRANCH   7  57
ATOM     57  C   LIG d   1       2.293  -0.361  -9.190  0.00  0.00     0.325 C 
ATOM     58  O   LIG d   1       2.458   0.756  -9.620  0.00  0.00    -0.249 OA
BRANCH  57  59
ATOM     59  O   LIG d   1       1.399  -1.178  -9.767  0.00  0.00    -0.467 OA
BRANCH  59  60
ATOM     60  C   LIG d   1       1.317  -1.145 -11.194  0.00  0.00     0.082 C 
ATOM     61  H   LIG d   1       0.361  -0.717 -11.493  0.00  0.00     0.066 H 
ATOM     62  H   LIG d   1       2.129  -0.535 -11.591  0.00  0.00     0.066 H 
ATOM     63  H   LIG d   1       1.400  -2.159 -11.586  0.00  0.00     0.066 H 
ENDBRANCH  59  60
ENDBRANCH  57  59
ENDBRANCH   7  57
TORSDOF 8
ENDMDL
MODEL 8
REMARK VINA RESULT:      -6.0      3.577      5.856
REMARK  8 active torsions:
REMARK  status: ('A' for Active; 'I' for Inactive)
REMARK    1  A    between atoms: C_1  and  C_2 
REMARK    2  A    between atoms: C_2  and  C_3 
REMARK    3  A    between atoms: C_2  and  N_4 
REMARK    4  A    between atoms: N_4  and  C_5 
REMARK    5  A    between atoms: C_8  and  C_31 
REMARK    6  A    between atoms: C_11  and  C_27 
REMARK    7  A    between atoms: C_27  and  O_29 
REMARK    8  A    between atoms: O_29  and  C_30 
ROOT
ATOM      1  C   LIG d   1       5.095  -6.431  -6.197  0.00  0.00    -0.019 C 
ATOM      2  H   LIG d   1       4.419  -7.276  -6.066  0.00  0.00     0.085 H 
ATOM      3  C   LIG d   1       6.495  -6.817  -5.713  0.00  0.00     0.010 C 
ATOM      4  C   LIG d   1       7.426  -5.608  -5.828  0.00  0.00     0.042 C 
ATOM      5  H   LIG d   1       8.419  -5.876  -5.465  0.00  0.00     0.051 H 
ATOM      6  N   LIG d   1       6.891  -4.505  -5.021  0.00  0.00    -0.274 N 
ATOM      7  C   LIG d   1       7.830  -3.382  -4.942  0.00  0.00     0.113 C 
ATOM      8  H   LIG d   1       7.817  -2.829  -5.882  0.00  0.00     0.058 H 
ATOM      9  C   LIG d   1       7.416  -2.448  -3.796  0.00  0.00     0.001 C 
ATOM     10  C   LIG d   1       5.940  -2.171  -3.924  0.00  0.00    -0.016 A 
ATOM     11  C   LIG d   1       5.144  -1.139  -3.299  0.00  0.00     0.003 A 
ATOM     12  C   LIG d   1       5.456  -0.105  -2.411  0.00  0.00    -0.052 A 
ATOM     13  C   LIG d   1       4.422   0.707  -2.015  0.00  0.00    -0.061 A 
ATOM     14  C   LIG d   1       3.125   0.521  -2.466  0.00  0.00    -0.060 A 
ATOM     15  C   LIG d   1       2.788  -0.494  -3.343  0.00  0.00    -0.038 A 
ATOM     16  C   LIG d   1       3.817  -1.334  -3.764  0.00  0.00     0.047 A 
ATOM     17  N   LIG d   1       3.834  -2.409  -4.606  0.00  0.00    -0.356 N 
ATOM     18  H   LIG d   1       3.061  -2.768  -5.069  0.00  0.00     0.166 HD
ATOM     19  C   LIG d   1       5.107  -2.905  -4.698  0.00  0.00     0.038 A 
ATOM     20  C   LIG d   1       5.575  -4.080  -5.519  0.00  0.00     0.057 C 
ATOM     21  H   LIG d   1       5.657  -3.786  -6.565  0.00  0.00     0.053 H 
ATOM     22  C   LIG d   1       4.586  -5.240  -5.379  0.00  0.00     0.011 C 
ATOM     23  H   LIG d   1       6.445  -7.139  -4.673  0.00  0.00     0.034 H 
ATOM     24  H   LIG d   1       6.879  -7.631  -6.328  0.00  0.00     0.034 H 
ATOM     25  H   LIG d   1       7.619  -2.930  -2.839  0.00  0.00     0.033 H 
ATOM     26  H   LIG d   1       7.973  -1.513  -3.863  0.00  0.00     0.033 H 
ATOM     27  H   LIG d   1       6.463   0.049  -2.053  0.00  0.00     0.062 H 
ATOM     28  H   LIG d   1       4.626   1.517  -1.329  0.00  0.00     0.062 H 
ATOM     29  H   LIG d   1       2.352   1.191  -2.121  0.00  0.00     0.062 H 
ATOM     30  H   LIG d   1       1.773  -0.629  -3.688  0.00  0.00     0.064 H 
ATOM     31  H   LIG d   1       3.608  -4.933  -5.751  0.00  0.00     0.034 H 
ATOM     32  H   LIG d   1       4.504  -5.525  -4.330  0.00  0.00     0.034 H 
ENDROOT
BRANCH   1  33
ATOM     33  N   LIG d   1       5.151  -6.062  -7.617  0.00  0.00     0.231 N 
ATOM     34  H   LIG d   1       5.680  -6.757  -8.125  0.00  0.00     0.202 HD
ATOM     35  H   LIG d   1       5.598  -5.164  -7.715  0.00  0.00     0.202 HD
BRANCH  33  36
ATOM     36  C   LIG d   1       3.788  -5.993  -8.160  0.00  0.00    -0.028 C 
ATOM     37  H   LIG d   1       3.068  -6.066  -7.345  0.00  0.00     0.085 H 
BRANCH  36  38
ATOM     38  C   LIG d   1       3.597  -4.663  -8.891  0.00  0.00    -0.022 C 
ATOM     39  H   LIG d   1       4.530  -4.099  -8.869  0.00  0.00     0.028 H 
ATOM     40  H   LIG d   1       3.312  -4.855  -9.926  0.00  0.00     0.028 H 
ATOM     41  H   LIG d   1       2.813  -4.087  -8.399  0.00  0.00     0.028 H 
ENDBRANCH  36  38
BRANCH  36  42
ATOM     42  C   LIG d   1       3.569  -7.148  -9.139  0.00  0.00    -0.022 C 
ATOM     43  H   LIG d   1       3.960  -6.874 -10.119  0.00  0.00     0.028 H 
ATOM     44  H   LIG d   1       4.089  -8.035  -8.776  0.00  0.00     0.028 H 
ATOM     45  H   LIG d   1       2.503  -7.360  -9.219  0.00  0.00     0.028 H 
ENDBRANCH  36  42
ENDBRANCH  33  36
ENDBRANCH   1  33
BRANCH   4  46
ATOM     46  C   LIG d   1       7.518  -5.179  -7.270  0.00  0.00    -0.027 A 
ATOM     47  C   LIG d   1       7.972  -6.067  -8.227  0.00  0.00    -0.020 A 
ATOM     48  C   LIG d   1       8.052  -5.675  -9.552  0.00  0.00     0.142 A 
ATOM     49  H   LIG d   1       8.260  -7.067  -7.942  0.00  0.00     0.065 H 
ATOM     50  C   LIG d   1       7.686  -4.389  -9.916  0.00  0.00     0.076 A 
ATOM     51  F   LIG d   1       8.489  -6.544 -10.490  0.00  0.00    -0.204 F 
ATOM     52  C   LIG d   1       7.238  -3.500  -8.956  0.00  0.00    -0.040 A 
ATOM     53 CL   LIG d   1       7.790  -3.893 -11.577  0.00  0.00    -0.081 Cl
ATOM     54  C   LIG d   1       7.154  -3.895  -7.634  0.00  0.00    -0.056 A 
ATOM     55  H   LIG d   1       6.953  -2.498  -9.238  0.00  0.00     0.063 H 
ATOM     56  H   LIG d   1       6.803  -3.202  -6.884  0.00  0.00     0.062 H 
ENDBRANCH   4  46
BRANCH   7  57
ATOM     57  C   LIG d   1       9.220  -3.905  -4.687  0.00  0.00     0.325 C 
ATOM     58  O   LIG d   1      10.116  -3.640  -5.454  0.00  0.00    -0.249 OA
BRANCH  57  59
ATOM     59  O   LIG d   1       9.463  -4.664  -3.608  0.00  0.00    -0.467 OA
BRANCH  59  60
ATOM     60  C   LIG d   1      10.587  -4.305  -2.802  0.00  0.00     0.082 C 
ATOM     61  H   LIG d   1      10.239  -3.854  -1.873  0.00  0.00     0.066 H 
ATOM     62  H   LIG d   1      11.172  -5.197  -2.575  0.00  0.00     0.066 H 
ATOM     63  H   LIG d   1      11.209  -3.591  -3.342  0.00  0.00     0.066 H 
ENDBRANCH  59  60
ENDBRANCH  57  59
ENDBRANCH   7  57
TORSDOF 8
ENDMDL
MODEL 9
REMARK VINA RESULT:      -6.0      4.490      7.467
REMARK  8 active torsions:
REMARK  status: ('A' for Active; 'I' for Inactive)
REMARK    1  A    between atoms: C_1  and  C_2 
REMARK    2  A    between atoms: C_2  and  C_3 
REMARK    3  A    between atoms: C_2  and  N_4 
REMARK    4  A    between atoms: N_4  and  C_5 
REMARK    5  A    between atoms: C_8  and  C_31 
REMARK    6  A    between atoms: C_11  and  C_27 
REMARK    7  A    between atoms: C_27  and  O_29 
REMARK    8  A    between atoms: O_29  and  C_30 
ROOT
ATOM      1  C   LIG d   1       5.405  -0.769  -3.651  0.00  0.00    -0.019 C 
ATOM      2  H   LIG d   1       4.828  -0.951  -2.744  0.00  0.00     0.085 H 
ATOM      3  C   LIG d   1       5.928  -2.100  -4.199  0.00  0.00     0.010 C 
ATOM      4  C   LIG d   1       6.799  -1.837  -5.431  0.00  0.00     0.042 C 
ATOM      5  H   LIG d   1       7.188  -2.782  -5.810  0.00  0.00     0.051 H 
ATOM      6  N   LIG d   1       7.916  -0.961  -5.057  0.00  0.00    -0.274 N 
ATOM      7  C   LIG d   1       8.886  -0.821  -6.148  0.00  0.00     0.113 C 
ATOM      8  H   LIG d   1       8.486  -0.149  -6.908  0.00  0.00     0.058 H 
ATOM      9  C   LIG d   1      10.197  -0.243  -5.595  0.00  0.00     0.001 C 
ATOM     10  C   LIG d   1       9.861   0.955  -4.745  0.00  0.00    -0.016 A 
ATOM     11  C   LIG d   1      10.727   2.007  -4.262  0.00  0.00     0.003 A 
ATOM     12  C   LIG d   1      12.095   2.256  -4.411  0.00  0.00    -0.052 A 
ATOM     13  C   LIG d   1      12.592   3.380  -3.799  0.00  0.00    -0.061 A 
ATOM     14  C   LIG d   1      11.788   4.236  -3.064  0.00  0.00    -0.060 A 
ATOM     15  C   LIG d   1      10.432   4.013  -2.899  0.00  0.00    -0.038 A 
ATOM     16  C   LIG d   1       9.898   2.882  -3.510  0.00  0.00     0.047 A 
ATOM     17  N   LIG d   1       8.631   2.375  -3.550  0.00  0.00    -0.356 N 
ATOM     18  H   LIG d   1       7.858   2.771  -3.118  0.00  0.00     0.166 HD
ATOM     19  C   LIG d   1       8.614   1.224  -4.291  0.00  0.00     0.038 A 
ATOM     20  C   LIG d   1       7.427   0.345  -4.593  0.00  0.00     0.057 C 
ATOM     21  H   LIG d   1       6.820   0.807  -5.372  0.00  0.00     0.053 H 
ATOM     22  C   LIG d   1       6.589   0.148  -3.328  0.00  0.00     0.011 C 
ATOM     23  H   LIG d   1       6.523  -2.599  -3.434  0.00  0.00     0.034 H 
ATOM     24  H   LIG d   1       5.087  -2.733  -4.478  0.00  0.00     0.034 H 
ATOM     25  H   LIG d   1      10.702  -0.995  -4.989  0.00  0.00     0.033 H 
ATOM     26  H   LIG d   1      10.842   0.060  -6.420  0.00  0.00     0.033 H 
ATOM     27  H   LIG d   1      12.731   1.596  -4.981  0.00  0.00     0.062 H 
ATOM     28  H   LIG d   1      13.645   3.604  -3.892  0.00  0.00     0.062 H 
ATOM     29  H   LIG d   1      12.234   5.105  -2.604  0.00  0.00     0.062 H 
ATOM     30  H   LIG d   1       9.815   4.688  -2.324  0.00  0.00     0.064 H 
ATOM     31  H   LIG d   1       6.219   1.113  -2.980  0.00  0.00     0.034 H 
ATOM     32  H   LIG d   1       7.203  -0.308  -2.551  0.00  0.00     0.034 H 
ENDROOT
BRANCH   1  33
ATOM     33  N   LIG d   1       4.548  -0.128  -4.657  0.00  0.00     0.231 N 
ATOM     34  H   LIG d   1       4.331  -0.791  -5.386  0.00  0.00     0.202 HD
ATOM     35  H   LIG d   1       5.031   0.663  -5.056  0.00  0.00     0.202 HD
BRANCH  33  36
ATOM     36  C   LIG d   1       3.304   0.327  -4.022  0.00  0.00    -0.028 C 
ATOM     37  H   LIG d   1       3.492   1.247  -3.469  0.00  0.00     0.085 H 
BRANCH  36  38
ATOM     38  C   LIG d   1       2.248   0.587  -5.099  0.00  0.00    -0.022 C 
ATOM     39  H   LIG d   1       2.053  -0.336  -5.646  0.00  0.00     0.028 H 
ATOM     40  H   LIG d   1       1.328   0.932  -4.628  0.00  0.00     0.028 H 
ATOM     41  H   LIG d   1       2.612   1.349  -5.789  0.00  0.00     0.028 H 
ENDBRANCH  36  38
BRANCH  36  42
ATOM     42  C   LIG d   1       2.798  -0.751  -3.062  0.00  0.00    -0.022 C 
ATOM     43  H   LIG d   1       1.709  -0.715  -3.016  0.00  0.00     0.028 H 
ATOM     44  H   LIG d   1       3.114  -1.731  -3.418  0.00  0.00     0.028 H 
ATOM     45  H   LIG d   1       3.209  -0.575  -2.068  0.00  0.00     0.028 H 
ENDBRANCH  36  42
ENDBRANCH  33  36
ENDBRANCH   1  33
BRANCH   4  46
ATOM     46  C   LIG d   1       5.971  -1.170  -6.499  0.00  0.00    -0.027 A 
ATOM     47  C   LIG d   1       4.809  -1.771  -6.947  0.00  0.00    -0.020 A 
ATOM     48  C   LIG d   1       4.046  -1.157  -7.925  0.00  0.00     0.142 A 
ATOM     49  H   LIG d   1       4.496  -2.717  -6.533  0.00  0.00     0.065 H 
ATOM     50  C   LIG d   1       4.452   0.055  -8.460  0.00  0.00     0.076 A 
ATOM     51  F   LIG d   1       2.907  -1.740  -8.360  0.00  0.00    -0.204 F 
ATOM     52  C   LIG d   1       5.617   0.651  -8.014  0.00  0.00    -0.040 A 
ATOM     53 CL   LIG d   1       3.499   0.825  -9.691  0.00  0.00    -0.081 Cl
ATOM     54  C   LIG d   1       6.376   0.038  -7.034  0.00  0.00    -0.056 A 
ATOM     55  H   LIG d   1       5.935   1.595  -8.431  0.00  0.00     0.063 H 
ATOM     56  H   LIG d   1       7.285   0.504  -6.685  0.00  0.00     0.062 H 
ENDBRANCH   4  46
BRANCH   7  57
ATOM     57  C   LIG d   1       9.151  -2.172  -6.761  0.00  0.00     0.325 C 
ATOM     58  O   LIG d   1       9.673  -3.041  -6.104  0.00  0.00    -0.249 OA
BRANCH  57  59
ATOM     59  O   LIG d   1       8.808  -2.409  -8.036  0.00  0.00    -0.467 OA
BRANCH  59  60
ATOM     60  C   LIG d   1       9.150  -1.408  -8.997  0.00  0.00     0.082 C 
ATOM     61  H   LIG d   1       9.965  -0.797  -8.612  0.00  0.00     0.066 H 
ATOM     62  H   LIG d   1       9.462  -1.887  -9.926  0.00  0.00     0.066 H 
ATOM     63  H   LIG d   1       8.282  -0.776  -9.189  0.00  0.00     0.066 H 
ENDBRANCH  59  60
ENDBRANCH  57  59
ENDBRANCH   7  57
TORSDOF 8
ENDMDL
MODEL 10
REMARK VINA RESULT:      -6.0      4.293      5.925
REMARK  8 active torsions:
REMARK  status: ('A' for Active; 'I' for Inactive)
REMARK    1  A    between atoms: C_1  and  C_2 
REMARK    2  A    between atoms: C_2  and  C_3 
REMARK    3  A    between atoms: C_2  and  N_4 
REMARK    4  A    between atoms: N_4  and  C_5 
REMARK    5  A    between atoms: C_8  and  C_31 
REMARK    6  A    between atoms: C_11  and  C_27 
REMARK    7  A    between atoms: C_27  and  O_29 
REMARK    8  A    between atoms: O_29  and  C_30 
ROOT
ATOM      1  C   LIG d   1       9.689   2.508  -7.191  0.00  0.00    -0.019 C 
ATOM      2  H   LIG d   1       9.397   3.258  -7.927  0.00  0.00     0.085 H 
ATOM      3  C   LIG d   1      10.180   1.249  -7.912  0.00  0.00     0.010 C 
ATOM      4  C   LIG d   1      10.521   0.171  -6.881  0.00  0.00     0.042 C 
ATOM      5  H   LIG d   1      10.851  -0.733  -7.394  0.00  0.00     0.051 H 
ATOM      6  N   LIG d   1       9.328  -0.129  -6.080  0.00  0.00    -0.274 N 
ATOM      7  C   LIG d   1       9.540  -1.282  -5.199  0.00  0.00     0.113 C 
ATOM      8  H   LIG d   1      10.155  -0.983  -4.349  0.00  0.00     0.058 H 
ATOM      9  C   LIG d   1       8.183  -1.794  -4.692  0.00  0.00     0.001 C 
ATOM     10  C   LIG d   1       7.393  -0.613  -4.189  0.00  0.00    -0.016 A 
ATOM     11  C   LIG d   1       6.214  -0.589  -3.353  0.00  0.00     0.003 A 
ATOM     12  C   LIG d   1       5.449  -1.599  -2.759  0.00  0.00    -0.052 A 
ATOM     13  C   LIG d   1       4.369  -1.201  -2.011  0.00  0.00    -0.061 A 
ATOM     14  C   LIG d   1       4.041   0.135  -1.844  0.00  0.00    -0.060 A 
ATOM     15  C   LIG d   1       4.779   1.154  -2.420  0.00  0.00    -0.038 A 
ATOM     16  C   LIG d   1       5.882   0.780  -3.184  0.00  0.00     0.047 A 
ATOM     17  N   LIG d   1       6.805   1.511  -3.877  0.00  0.00    -0.356 N 
ATOM     18  H   LIG d   1       6.819   2.479  -3.937  0.00  0.00     0.166 HD
ATOM     19  C   LIG d   1       7.706   0.672  -4.475  0.00  0.00     0.038 A 
ATOM     20  C   LIG d   1       8.888   1.056  -5.330  0.00  0.00     0.057 C 
ATOM     21  H   LIG d   1       9.700   1.409  -4.694  0.00  0.00     0.053 H 
ATOM     22  C   LIG d   1       8.483   2.154  -6.316  0.00  0.00     0.011 C 
ATOM     23  H   LIG d   1       9.397   0.882  -8.576  0.00  0.00     0.034 H 
ATOM     24  H   LIG d   1      11.069   1.489  -8.496  0.00  0.00     0.034 H 
ATOM     25  H   LIG d   1       7.646  -2.277  -5.508  0.00  0.00     0.033 H 
ATOM     26  H   LIG d   1       8.338  -2.505  -3.881  0.00  0.00     0.033 H 
ATOM     27  H   LIG d   1       5.697  -2.642  -2.883  0.00  0.00     0.062 H 
ATOM     28  H   LIG d   1       3.755  -1.953  -1.537  0.00  0.00     0.062 H 
ATOM     29  H   LIG d   1       3.180   0.389  -1.244  0.00  0.00     0.062 H 
ATOM     30  H   LIG d   1       4.513   2.192  -2.282  0.00  0.00     0.064 H 
ATOM     31  H   LIG d   1       8.160   3.038  -5.765  0.00  0.00     0.034 H 
ATOM     32  H   LIG d   1       7.668   1.797  -6.944  0.00  0.00     0.034 H 
ENDROOT
BRANCH   1  33
ATOM     33  N   LIG d   1      10.767   3.042  -6.349  0.00  0.00     0.231 N 
ATOM     34  H   LIG d   1      11.594   3.184  -6.910  0.00  0.00     0.202 HD
ATOM     35  H   LIG d   1      10.972   2.387  -5.609  0.00  0.00     0.202 HD
BRANCH  33  36
ATOM     36  C   LIG d   1      10.345   4.322  -5.766  0.00  0.00    -0.028 C 
ATOM     37  H   LIG d   1       9.345   4.219  -5.347  0.00  0.00     0.085 H 
BRANCH  36  38
ATOM     38  C   LIG d   1      11.322   4.725  -4.660  0.00  0.00    -0.022 C 
ATOM     39  H   LIG d   1      12.339   4.719  -5.053  0.00  0.00     0.028 H 
ATOM     40  H   LIG d   1      11.075   5.726  -4.305  0.00  0.00     0.028 H 
ATOM     41  H   LIG d   1      11.248   4.018  -3.833  0.00  0.00     0.028 H 
ENDBRANCH  36  38
BRANCH  36  42
ATOM     42  C   LIG d   1      10.335   5.398  -6.853  0.00  0.00    -0.022 C 
ATOM     43  H   LIG d   1       9.798   6.276  -6.491  0.00  0.00     0.028 H 
ATOM     44  H   LIG d   1      11.359   5.676  -7.099  0.00  0.00     0.028 H 
ATOM     45  H   LIG d   1       9.839   5.011  -7.743  0.00  0.00     0.028 H 
ENDBRANCH  36  42
ENDBRANCH  33  36
ENDBRANCH   1  33
BRANCH   4  46
ATOM     46  C   LIG d   1      11.622   0.667  -5.980  0.00  0.00    -0.027 A 
ATOM     47  C   LIG d   1      12.844   1.027  -6.517  0.00  0.00    -0.020 A 
ATOM     48  C   LIG d   1      13.854   1.487  -5.689  0.00  0.00     0.142 A 
ATOM     49  H   LIG d   1      13.009   0.952  -7.580  0.00  0.00     0.065 H 
ATOM     50  C   LIG d   1      13.642   1.578  -4.323  0.00  0.00     0.076 A 
ATOM     51  F   LIG d   1      15.047   1.845  -6.213  0.00  0.00    -0.204 F 
ATOM     52  C   LIG d   1      12.421   1.212  -3.788  0.00  0.00    -0.040 A 
ATOM     53 CL   LIG d   1      14.909   2.150  -3.283  0.00  0.00    -0.081 Cl
ATOM     54  C   LIG d   1      11.412   0.757  -4.616  0.00  0.00    -0.056 A 
ATOM     55  H   LIG d   1      12.254   1.281  -2.723  0.00  0.00     0.063 H 
ATOM     56  H   LIG d   1      10.457   0.472  -4.198  0.00  0.00     0.062 H 
ENDBRANCH   4  46
BRANCH   7  57
ATOM     57  C   LIG d   1      10.237  -2.378  -5.963  0.00  0.00     0.325 C 
ATOM     58  O   LIG d   1       9.685  -2.907  -6.898  0.00  0.00    -0.249 OA
BRANCH  57  59
ATOM     59  O   LIG d   1      11.471  -2.765  -5.605  0.00  0.00    -0.467 OA
BRANCH  59  60
ATOM     60  C   LIG d   1      11.728  -2.899  -4.206  0.00  0.00     0.082 C 
ATOM     61  H   LIG d   1      12.513  -3.638  -4.050  0.00  0.00     0.066 H 
ATOM     62  H   LIG d   1      12.048  -1.938  -3.801  0.00  0.00     0.066 H 
ATOM     63  H   LIG d   1      10.819  -3.221  -3.698  0.00  0.00     0.066 H 
ENDBRANCH  59  60
ENDBRANCH  57  59
ENDBRANCH   7  57
TORSDOF 8
ENDMDL
