MODEL 1
REMARK VINA RESULT:      -5.4      0.000      0.000
REMARK  6 active torsions:
REMARK  status: ('A' for Active; 'I' for Inactive)
REMARK    1  A    between atoms: C_1  and  C_2 
REMARK    2  A    between atoms: C_2  and  C_4 
REMARK    3  A    between atoms: C_2  and  N_32 
REMARK    4  A    between atoms: C_4  and  C_5 
REMARK       I    between atoms: C_5  and  N_7 
REMARK       I    between atoms: N_7  and  CA_8 
REMARK    5  A    between atoms: CA_8  and  CB_10 
REMARK       I    between atoms: CA_8  and  C_17 
REMARK    6  A    between atoms: CB_10  and  CG_11 
ROOT
ATOM      1  C   UNK d   0       3.455  -0.078  -6.156  0.00  0.00     0.219 C 
ATOM      2  O   UNK d   0       4.622  -0.042  -6.485  0.00  0.00    -0.276 OA
ATOM      3  N   HIS d   1       2.489   0.009  -7.093  0.00  0.00    -0.307 N 
ATOM      4  CA  HIS d   1       2.849   0.149  -8.506  0.00  0.00     0.068 C 
ATOM      5  HA  HIS d   1       3.757  -0.421  -8.707  0.00  0.00     0.056 H 
ATOM      6  C   HIS d   1       3.087   1.602  -8.823  0.00  0.00     0.062 C 
ATOM      7  O   HIS d   1       2.969   2.437  -7.958  0.00  0.00    -0.548 OA
ATOM      8  H   HIS d   1       1.556  -0.019  -6.831  0.00  0.00     0.149 HD
ATOM      9  OXT HIS d   1       3.432   1.970 -10.067  0.00  0.00    -0.548 OA
ENDROOT
BRANCH   1  10
ATOM     10  C   UNK d   0       3.085  -0.221  -4.703  0.00  0.00     0.067 C 
ATOM     11  H   UNK d   0       3.235   0.731  -4.195  0.00  0.00     0.041 H 
ATOM     12  H   UNK d   0       2.038  -0.514  -4.622  0.00  0.00     0.041 H 
BRANCH  10  13
ATOM     13  C   UNK d   0       3.965  -1.291  -4.054  0.00  0.00    -0.019 C 
ATOM     14  H   UNK d   0       4.995  -0.936  -4.012  0.00  0.00     0.085 H 
BRANCH  13  15
ATOM     15  C   UNK d   0       3.465  -1.572  -2.637  0.00  0.00    -0.021 C 
ATOM     16  H   UNK d   0       3.009  -2.562  -2.602  0.00  0.00     0.028 H 
ATOM     17  H   UNK d   0       4.302  -1.533  -1.941  0.00  0.00     0.028 H 
ATOM     18  H   UNK d   0       2.725  -0.822  -2.357  0.00  0.00     0.028 H 
ENDBRANCH  13  15
BRANCH  13  19
ATOM     19  N   UNK d   0       3.912  -2.515  -4.872  0.00  0.00     0.221 N 
ATOM     20  H   UNK d   0       3.824  -3.333  -4.270  0.00  0.00     0.200 HD
ATOM     21  H   UNK d   0       3.119  -2.476  -5.509  0.00  0.00     0.200 HD
ATOM     22  H   UNK d   0       4.778  -2.594  -5.419  0.00  0.00     0.200 HD
ENDBRANCH  13  19
ENDBRANCH  10  13
ENDBRANCH   1  10
BRANCH   4  23
ATOM     23  CB  HIS d   1       1.709  -0.384  -9.377  0.00  0.00     0.013 C 
ATOM     24  HB1 HIS d   1       1.668   0.184 -10.308  0.00  0.00     0.035 H 
ATOM     25  HB2 HIS d   1       0.765  -0.276  -8.844  0.00  0.00     0.035 H 
BRANCH  23  26
ATOM     26  CG  HIS d   1       1.951  -1.839  -9.686  0.00  0.00     0.037 A 
ATOM     27  ND1 HIS d   1       1.077  -2.678 -10.263  0.00  0.00    -0.348 N 
ATOM     28  HD1 HIS d   1       0.153  -2.437 -10.560  0.00  0.00     0.167 HD
ATOM     29  CE1 HIS d   1       1.623  -3.857 -10.374  0.00  0.00     0.093 A 
ATOM     30  NE2 HIS d   1       2.873  -3.806  -9.866  0.00  0.00    -0.244 NA
ATOM     31  HE1 HIS d   1       1.152  -4.731 -10.802  0.00  0.00     0.103 H 
ATOM     32  CD2 HIS d   1       3.080  -2.525  -9.430  0.00  0.00     0.049 A 
ATOM     33  HD2 HIS d   1       3.978  -2.140  -8.969  0.00  0.00     0.085 H 
ENDBRANCH  23  26
ENDBRANCH   4  23
TORSDOF 8
ENDMDL
MODEL 2
REMARK VINA RESULT:      -5.3      2.927      5.259
REMARK  6 active torsions:
REMARK  status: ('A' for Active; 'I' for Inactive)
REMARK    1  A    between atoms: C_1  and  C_2 
REMARK    2  A    between atoms: C_2  and  C_4 
REMARK    3  A    between atoms: C_2  and  N_32 
REMARK    4  A    between atoms: C_4  and  C_5 
REMARK       I    between atoms: C_5  and  N_7 
REMARK       I    between atoms: N_7  and  CA_8 
REMARK    5  A    between atoms: CA_8  and  CB_10 
REMARK       I    between atoms: CA_8  and  C_17 
REMARK    6  A    between atoms: CB_10  and  CG_11 
ROOT
ATOM      1  C   UNK d   0       3.069   0.101  -6.155  0.00  0.00     0.219 C 
ATOM      2  O   UNK d   0       2.800   1.138  -5.587  0.00  0.00    -0.276 OA
ATOM      3  N   HIS d   1       3.702  -0.886  -5.490  0.00  0.00    -0.307 N 
ATOM      4  CA  HIS d   1       4.065  -0.705  -4.082  0.00  0.00     0.068 C 
ATOM      5  HA  HIS d   1       3.297  -0.113  -3.583  0.00  0.00     0.056 H 
ATOM      6  C   HIS d   1       5.388   0.008  -3.991  0.00  0.00     0.062 C 
ATOM      7  O   HIS d   1       5.970   0.334  -4.999  0.00  0.00    -0.548 OA
ATOM      8  H   HIS d   1       3.919  -1.715  -5.943  0.00  0.00     0.149 HD
ATOM      9  OXT HIS d   1       5.922   0.285  -2.791  0.00  0.00    -0.548 OA
ENDROOT
BRANCH   1  10
ATOM     10  C   UNK d   0       2.697  -0.084  -7.603  0.00  0.00     0.067 C 
ATOM     11  H   UNK d   0       2.813  -1.133  -7.877  0.00  0.00     0.041 H 
ATOM     12  H   UNK d   0       1.660   0.218  -7.754  0.00  0.00     0.041 H 
BRANCH  10  13
ATOM     13  C   UNK d   0       3.611   0.776  -8.479  0.00  0.00    -0.019 C 
ATOM     14  H   UNK d   0       3.829   0.244  -9.405  0.00  0.00     0.085 H 
BRANCH  13  15
ATOM     15  C   UNK d   0       2.912   2.097  -8.802  0.00  0.00    -0.021 C 
ATOM     16  H   UNK d   0       3.393   2.906  -8.254  0.00  0.00     0.028 H 
ATOM     17  H   UNK d   0       2.979   2.292  -9.872  0.00  0.00     0.028 H 
ATOM     18  H   UNK d   0       1.863   2.034  -8.509  0.00  0.00     0.028 H 
ENDBRANCH  13  15
BRANCH  13  19
ATOM     19  N   UNK d   0       4.872   1.023  -7.758  0.00  0.00     0.221 N 
ATOM     20  H   UNK d   0       4.689   1.130  -6.762  0.00  0.00     0.200 HD
ATOM     21  H   UNK d   0       5.515   0.247  -7.903  0.00  0.00     0.200 HD
ATOM     22  H   UNK d   0       5.301   1.885  -8.115  0.00  0.00     0.200 HD
ENDBRANCH  13  19
ENDBRANCH  10  13
ENDBRANCH   1  10
BRANCH   4  23
ATOM     23  CB  HIS d   1       4.175  -2.073  -3.405  0.00  0.00     0.013 C 
ATOM     24  HB1 HIS d   1       3.179  -2.421  -3.126  0.00  0.00     0.035 H 
ATOM     25  HB2 HIS d   1       4.792  -1.987  -2.511  0.00  0.00     0.035 H 
BRANCH  23  26
ATOM     26  CG  HIS d   1       4.803  -3.057  -4.357  0.00  0.00     0.037 A 
ATOM     27  ND1 HIS d   1       4.145  -3.915  -5.151  0.00  0.00    -0.348 N 
ATOM     28  HD1 HIS d   1       3.151  -4.005  -5.207  0.00  0.00     0.167 HD
ATOM     29  CE1 HIS d   1       5.007  -4.612  -5.838  0.00  0.00     0.093 A 
ATOM     30  NE2 HIS d   1       6.253  -4.217  -5.499  0.00  0.00    -0.244 NA
ATOM     31  HE1 HIS d   1       4.764  -5.380  -6.559  0.00  0.00     0.103 H 
ATOM     32  CD2 HIS d   1       6.122  -3.230  -4.560  0.00  0.00     0.049 A 
ATOM     33  HD2 HIS d   1       6.924  -2.693  -4.075  0.00  0.00     0.085 H 
ENDBRANCH  23  26
ENDBRANCH   4  23
TORSDOF 8
ENDMDL
MODEL 3
REMARK VINA RESULT:      -5.2      1.918      2.487
REMARK  6 active torsions:
REMARK  status: ('A' for Active; 'I' for Inactive)
REMARK    1  A    between atoms: C_1  and  C_2 
REMARK    2  A    between atoms: C_2  and  C_4 
REMARK    3  A    between atoms: C_2  and  N_32 
REMARK    4  A    between atoms: C_4  and  C_5 
REMARK       I    between atoms: C_5  and  N_7 
REMARK       I    between atoms: N_7  and  CA_8 
REMARK    5  A    between atoms: CA_8  and  CB_10 
REMARK       I    between atoms: CA_8  and  C_17 
REMARK    6  A    between atoms: CB_10  and  CG_11 
ROOT
ATOM      1  C   UNK d   0       3.535  -0.050  -4.732  0.00  0.00     0.219 C 
ATOM      2  O   UNK d   0       4.003  -1.160  -4.598  0.00  0.00    -0.276 OA
ATOM      3  N   HIS d   1       3.337   0.454  -5.966  0.00  0.00    -0.307 N 
ATOM      4  CA  HIS d   1       3.687  -0.340  -7.147  0.00  0.00     0.068 C 
ATOM      5  HA  HIS d   1       3.490  -1.394  -6.947  0.00  0.00     0.056 H 
ATOM      6  C   HIS d   1       5.148  -0.153  -7.462  0.00  0.00     0.062 C 
ATOM      7  O   HIS d   1       5.828   0.569  -6.772  0.00  0.00    -0.548 OA
ATOM      8  H   HIS d   1       2.963   1.342  -6.074  0.00  0.00     0.149 HD
ATOM      9  OXT HIS d   1       5.696  -0.790  -8.509  0.00  0.00    -0.548 OA
ENDROOT
BRANCH   1  10
ATOM     10  C   UNK d   0       3.175   0.768  -3.518  0.00  0.00     0.067 C 
ATOM     11  H   UNK d   0       2.514   1.582  -3.812  0.00  0.00     0.041 H 
ATOM     12  H   UNK d   0       2.668   0.133  -2.790  0.00  0.00     0.041 H 
BRANCH  10  13
ATOM     13  C   UNK d   0       4.448   1.342  -2.894  0.00  0.00    -0.019 C 
ATOM     14  H   UNK d   0       4.361   2.427  -2.827  0.00  0.00     0.085 H 
BRANCH  13  15
ATOM     15  C   UNK d   0       4.638   0.759  -1.494  0.00  0.00    -0.021 C 
ATOM     16  H   UNK d   0       4.969  -0.277  -1.573  0.00  0.00     0.028 H 
ATOM     17  H   UNK d   0       5.388   1.339  -0.956  0.00  0.00     0.028 H 
ATOM     18  H   UNK d   0       3.692   0.797  -0.952  0.00  0.00     0.028 H 
ENDBRANCH  13  15
BRANCH  13  19
ATOM     19  N   UNK d   0       5.597   1.006  -3.753  0.00  0.00     0.221 N 
ATOM     20  H   UNK d   0       5.907   1.833  -4.261  0.00  0.00     0.200 HD
ATOM     21  H   UNK d   0       6.364   0.649  -3.186  0.00  0.00     0.200 HD
ATOM     22  H   UNK d   0       5.315   0.285  -4.428  0.00  0.00     0.200 HD
ENDBRANCH  13  19
ENDBRANCH  10  13
ENDBRANCH   1  10
BRANCH   4  23
ATOM     23  CB  HIS d   1       2.845   0.119  -8.338  0.00  0.00     0.013 C 
ATOM     24  HB1 HIS d   1       3.442   0.774  -8.974  0.00  0.00     0.035 H 
ATOM     25  HB2 HIS d   1       1.972   0.662  -7.978  0.00  0.00     0.035 H 
BRANCH  23  26
ATOM     26  CG  HIS d   1       2.400  -1.082  -9.132  0.00  0.00     0.037 A 
ATOM     27  ND1 HIS d   1       2.936  -2.309  -9.072  0.00  0.00    -0.348 N 
ATOM     28  HD1 HIS d   1       3.702  -2.578  -8.487  0.00  0.00     0.167 HD
ATOM     29  CE1 HIS d   1       2.301  -3.097  -9.895  0.00  0.00     0.093 A 
ATOM     30  NE2 HIS d   1       1.331  -2.388 -10.512  0.00  0.00    -0.244 NA
ATOM     31  HE1 HIS d   1       2.516  -4.144 -10.057  0.00  0.00     0.103 H 
ATOM     32  CD2 HIS d   1       1.394  -1.110 -10.027  0.00  0.00     0.049 A 
ATOM     33  HD2 HIS d   1       0.760  -0.283 -10.309  0.00  0.00     0.085 H 
ENDBRANCH  23  26
ENDBRANCH   4  23
TORSDOF 8
ENDMDL
MODEL 4
REMARK VINA RESULT:      -5.2      2.377      2.853
REMARK  6 active torsions:
REMARK  status: ('A' for Active; 'I' for Inactive)
REMARK    1  A    between atoms: C_1  and  C_2 
REMARK    2  A    between atoms: C_2  and  C_4 
REMARK    3  A    between atoms: C_2  and  N_32 
REMARK    4  A    between atoms: C_4  and  C_5 
REMARK       I    between atoms: C_5  and  N_7 
REMARK       I    between atoms: N_7  and  CA_8 
REMARK    5  A    between atoms: CA_8  and  CB_10 
REMARK       I    between atoms: CA_8  and  C_17 
REMARK    6  A    between atoms: CB_10  and  CG_11 
ROOT
ATOM      1  C   UNK d   0       4.361  -0.618  -4.830  0.00  0.00     0.219 C 
ATOM      2  O   UNK d   0       5.397  -0.010  -4.993  0.00  0.00    -0.276 OA
ATOM      3  N   HIS d   1       3.688  -1.100  -5.895  0.00  0.00    -0.307 N 
ATOM      4  CA  HIS d   1       4.210  -0.888  -7.248  0.00  0.00     0.068 C 
ATOM      5  HA  HIS d   1       5.300  -0.923  -7.226  0.00  0.00     0.056 H 
ATOM      6  C   HIS d   1       3.761   0.457  -7.755  0.00  0.00     0.062 C 
ATOM      7  O   HIS d   1       3.076   1.168  -7.058  0.00  0.00    -0.548 OA
ATOM      8  H   HIS d   1       2.859  -1.585  -5.766  0.00  0.00     0.149 HD
ATOM      9  OXT HIS d   1       4.123   0.869  -8.980  0.00  0.00    -0.548 OA
ENDROOT
BRANCH   1  10
ATOM     10  C   UNK d   0       3.824  -0.835  -3.440  0.00  0.00     0.067 C 
ATOM     11  H   UNK d   0       2.961  -1.500  -3.482  0.00  0.00     0.041 H 
ATOM     12  H   UNK d   0       4.598  -1.285  -2.817  0.00  0.00     0.041 H 
BRANCH  10  13
ATOM     13  C   UNK d   0       3.404   0.508  -2.840  0.00  0.00    -0.019 C 
ATOM     14  H   UNK d   0       2.431   0.402  -2.359  0.00  0.00     0.085 H 
BRANCH  13  15
ATOM     15  C   UNK d   0       4.439   0.950  -1.804  0.00  0.00    -0.021 C 
ATOM     16  H   UNK d   0       5.227   0.200  -1.735  0.00  0.00     0.028 H 
ATOM     17  H   UNK d   0       4.871   1.904  -2.105  0.00  0.00     0.028 H 
ATOM     18  H   UNK d   0       3.957   1.060  -0.832  0.00  0.00     0.028 H 
ENDBRANCH  13  15
BRANCH  13  19
ATOM     19  N   UNK d   0       3.299   1.505  -3.920  0.00  0.00     0.221 N 
ATOM     20  H   UNK d   0       3.087   1.041  -4.803  0.00  0.00     0.200 HD
ATOM     21  H   UNK d   0       2.564   2.177  -3.706  0.00  0.00     0.200 HD
ATOM     22  H   UNK d   0       4.193   2.002  -4.009  0.00  0.00     0.200 HD
ENDBRANCH  13  19
ENDBRANCH  10  13
ENDBRANCH   1  10
BRANCH   4  23
ATOM     23  CB  HIS d   1       3.682  -1.985  -8.175  0.00  0.00     0.013 C 
ATOM     24  HB1 HIS d   1       4.019  -1.792  -9.194  0.00  0.00     0.035 H 
ATOM     25  HB2 HIS d   1       2.593  -1.990  -8.147  0.00  0.00     0.035 H 
BRANCH  23  26
ATOM     26  CG  HIS d   1       4.204  -3.323  -7.719  0.00  0.00     0.037 A 
ATOM     27  ND1 HIS d   1       3.462  -4.358  -7.300  0.00  0.00    -0.348 N 
ATOM     28  HD1 HIS d   1       2.463  -4.367  -7.241  0.00  0.00     0.167 HD
ATOM     29  CE1 HIS d   1       4.246  -5.351  -6.984  0.00  0.00     0.093 A 
ATOM     30  NE2 HIS d   1       5.526  -4.974  -7.191  0.00  0.00    -0.244 NA
ATOM     31  HE1 HIS d   1       3.925  -6.314  -6.615  0.00  0.00     0.103 H 
ATOM     32  CD2 HIS d   1       5.499  -3.688  -7.658  0.00  0.00     0.049 A 
ATOM     33  HD2 HIS d   1       6.352  -3.082  -7.926  0.00  0.00     0.085 H 
ENDBRANCH  23  26
ENDBRANCH   4  23
TORSDOF 8
ENDMDL
MODEL 5
REMARK VINA RESULT:      -5.1      6.277      8.802
REMARK  6 active torsions:
REMARK  status: ('A' for Active; 'I' for Inactive)
REMARK    1  A    between atoms: C_1  and  C_2 
REMARK    2  A    between atoms: C_2  and  C_4 
REMARK    3  A    between atoms: C_2  and  N_32 
REMARK    4  A    between atoms: C_4  and  C_5 
REMARK       I    between atoms: C_5  and  N_7 
REMARK       I    between atoms: N_7  and  CA_8 
REMARK    5  A    between atoms: CA_8  and  CB_10 
REMARK       I    between atoms: CA_8  and  C_17 
REMARK    6  A    between atoms: CB_10  and  CG_11 
ROOT
ATOM      1  C   UNK d   0       6.744   0.612  -3.512  0.00  0.00     0.219 C 
ATOM      2  O   UNK d   0       6.023   1.561  -3.737  0.00  0.00    -0.276 OA
ATOM      3  N   HIS d   1       8.076   0.721  -3.693  0.00  0.00    -0.307 N 
ATOM      4  CA  HIS d   1       8.651   1.985  -4.161  0.00  0.00     0.068 C 
ATOM      5  HA  HIS d   1       8.085   2.818  -3.743  0.00  0.00     0.056 H 
ATOM      6  C   HIS d   1       8.588   2.039  -5.665  0.00  0.00     0.062 C 
ATOM      7  O   HIS d   1       8.112   1.117  -6.284  0.00  0.00    -0.548 OA
ATOM      8  H   HIS d   1       8.653  -0.037  -3.514  0.00  0.00     0.149 HD
ATOM      9  OXT HIS d   1       9.061   3.112  -6.319  0.00  0.00    -0.548 OA
ENDROOT
BRANCH   1  10
ATOM     10  C   UNK d   0       6.153  -0.687  -3.032  0.00  0.00     0.067 C 
ATOM     11  H   UNK d   0       6.235  -1.437  -3.819  0.00  0.00     0.041 H 
ATOM     12  H   UNK d   0       6.693  -1.028  -2.149  0.00  0.00     0.041 H 
BRANCH  10  13
ATOM     13  C   UNK d   0       4.679  -0.478  -2.678  0.00  0.00    -0.019 C 
ATOM     14  H   UNK d   0       4.152  -0.077  -3.544  0.00  0.00     0.085 H 
BRANCH  13  15
ATOM     15  C   UNK d   0       4.056  -1.815  -2.276  0.00  0.00    -0.021 C 
ATOM     16  H   UNK d   0       4.028  -1.892  -1.189  0.00  0.00     0.028 H 
ATOM     17  H   UNK d   0       3.042  -1.877  -2.670  0.00  0.00     0.028 H 
ATOM     18  H   UNK d   0       4.654  -2.632  -2.682  0.00  0.00     0.028 H 
ENDBRANCH  13  15
BRANCH  13  19
ATOM     19  N   UNK d   0       4.585   0.488  -1.570  0.00  0.00     0.221 N 
ATOM     20  H   UNK d   0       4.903   1.406  -1.879  0.00  0.00     0.200 HD
ATOM     21  H   UNK d   0       3.622   0.555  -1.245  0.00  0.00     0.200 HD
ATOM     22  H   UNK d   0       5.179   0.172  -0.794  0.00  0.00     0.200 HD
ENDBRANCH  13  19
ENDBRANCH  10  13
ENDBRANCH   1  10
BRANCH   4  23
ATOM     23  CB  HIS d   1      10.109   2.080  -3.707  0.00  0.00     0.013 C 
ATOM     24  HB1 HIS d   1      10.762   2.073  -4.580  0.00  0.00     0.035 H 
ATOM     25  HB2 HIS d   1      10.347   1.228  -3.069  0.00  0.00     0.035 H 
BRANCH  23  26
ATOM     26  CG  HIS d   1      10.313   3.358  -2.936  0.00  0.00     0.037 A 
ATOM     27  ND1 HIS d   1      11.133   3.525  -1.888  0.00  0.00    -0.348 N 
ATOM     28  HD1 HIS d   1      11.713   2.814  -1.489  0.00  0.00     0.167 HD
ATOM     29  CE1 HIS d   1      11.055   4.759  -1.472  0.00  0.00     0.093 A 
ATOM     30  NE2 HIS d   1      10.173   5.423  -2.250  0.00  0.00    -0.244 NA
ATOM     31  HE1 HIS d   1      11.605   5.179  -0.642  0.00  0.00     0.103 H 
ATOM     32  CD2 HIS d   1       9.703   4.534  -3.178  0.00  0.00     0.049 A 
ATOM     33  HD2 HIS d   1       8.982   4.737  -3.956  0.00  0.00     0.085 H 
ENDBRANCH  23  26
ENDBRANCH   4  23
TORSDOF 8
ENDMDL
MODEL 6
REMARK VINA RESULT:      -5.1      2.947      6.643
REMARK  6 active torsions:
REMARK  status: ('A' for Active; 'I' for Inactive)
REMARK    1  A    between atoms: C_1  and  C_2 
REMARK    2  A    between atoms: C_2  and  C_4 
REMARK    3  A    between atoms: C_2  and  N_32 
REMARK    4  A    between atoms: C_4  and  C_5 
REMARK       I    between atoms: C_5  and  N_7 
REMARK       I    between atoms: N_7  and  CA_8 
REMARK    5  A    between atoms: CA_8  and  CB_10 
REMARK       I    between atoms: CA_8  and  C_17 
REMARK    6  A    between atoms: CB_10  and  CG_11 
ROOT
ATOM      1  C   UNK d   0       4.029  -0.735  -6.633  0.00  0.00     0.219 C 
ATOM      2  O   UNK d   0       5.052  -0.762  -7.283  0.00  0.00    -0.276 OA
ATOM      3  N   HIS d   1       3.971  -1.363  -5.441  0.00  0.00    -0.307 N 
ATOM      4  CA  HIS d   1       5.146  -2.076  -4.931  0.00  0.00     0.068 C 
ATOM      5  HA  HIS d   1       6.050  -1.544  -5.228  0.00  0.00     0.056 H 
ATOM      6  C   HIS d   1       5.174  -3.470  -5.501  0.00  0.00     0.062 C 
ATOM      7  O   HIS d   1       4.302  -3.832  -6.256  0.00  0.00    -0.548 OA
ATOM      8  H   HIS d   1       3.153  -1.343  -4.921  0.00  0.00     0.149 HD
ATOM      9  OXT HIS d   1       6.166  -4.310  -5.171  0.00  0.00    -0.548 OA
ENDROOT
BRANCH   1  10
ATOM     10  C   UNK d   0       2.821  -0.003  -7.158  0.00  0.00     0.067 C 
ATOM     11  H   UNK d   0       2.049  -0.723  -7.427  0.00  0.00     0.041 H 
ATOM     12  H   UNK d   0       2.439   0.667  -6.387  0.00  0.00     0.041 H 
BRANCH  10  13
ATOM     13  C   UNK d   0       3.214   0.811  -8.392  0.00  0.00    -0.019 C 
ATOM     14  H   UNK d   0       4.275   0.670  -8.596  0.00  0.00     0.085 H 
BRANCH  13  15
ATOM     15  C   UNK d   0       2.397   0.340  -9.596  0.00  0.00    -0.021 C 
ATOM     16  H   UNK d   0       2.425  -0.748  -9.651  0.00  0.00     0.028 H 
ATOM     17  H   UNK d   0       1.364   0.671  -9.486  0.00  0.00     0.028 H 
ATOM     18  H   UNK d   0       2.818   0.761 -10.509  0.00  0.00     0.028 H 
ENDBRANCH  13  15
BRANCH  13  19
ATOM     19  N   UNK d   0       2.962   2.238  -8.125  0.00  0.00     0.221 N 
ATOM     20  H   UNK d   0       2.430   2.343  -7.263  0.00  0.00     0.200 HD
ATOM     21  H   UNK d   0       3.845   2.739  -8.042  0.00  0.00     0.200 HD
ATOM     22  H   UNK d   0       2.422   2.637  -8.903  0.00  0.00     0.200 HD
ENDBRANCH  13  19
ENDBRANCH  10  13
ENDBRANCH   1  10
BRANCH   4  23
ATOM     23  CB  HIS d   1       5.074  -2.149  -3.405  0.00  0.00     0.013 C 
ATOM     24  HB1 HIS d   1       5.938  -2.696  -3.027  0.00  0.00     0.035 H 
ATOM     25  HB2 HIS d   1       4.160  -2.664  -3.109  0.00  0.00     0.035 H 
BRANCH  23  26
ATOM     26  CG  HIS d   1       5.073  -0.754  -2.834  0.00  0.00     0.037 A 
ATOM     27  ND1 HIS d   1       4.191  -0.264  -1.951  0.00  0.00    -0.348 N 
ATOM     28  HD1 HIS d   1       3.421  -0.770  -1.561  0.00  0.00     0.167 HD
ATOM     29  CE1 HIS d   1       4.495   0.975  -1.681  0.00  0.00     0.093 A 
ATOM     30  NE2 HIS d   1       5.591   1.317  -2.392  0.00  0.00    -0.244 NA
ATOM     31  HE1 HIS d   1       3.958   1.621  -1.001  0.00  0.00     0.103 H 
ATOM     32  CD2 HIS d   1       5.957   0.219  -3.123  0.00  0.00     0.049 A 
ATOM     33  HD2 HIS d   1       6.795   0.148  -3.801  0.00  0.00     0.085 H 
ENDBRANCH  23  26
ENDBRANCH   4  23
TORSDOF 8
ENDMDL
MODEL 7
REMARK VINA RESULT:      -5.0     11.272     13.189
REMARK  6 active torsions:
REMARK  status: ('A' for Active; 'I' for Inactive)
REMARK    1  A    between atoms: C_1  and  C_2 
REMARK    2  A    between atoms: C_2  and  C_4 
REMARK    3  A    between atoms: C_2  and  N_32 
REMARK    4  A    between atoms: C_4  and  C_5 
REMARK       I    between atoms: C_5  and  N_7 
REMARK       I    between atoms: N_7  and  CA_8 
REMARK    5  A    between atoms: CA_8  and  CB_10 
REMARK       I    between atoms: CA_8  and  C_17 
REMARK    6  A    between atoms: CB_10  and  CG_11 
ROOT
ATOM      1  C   UNK d   0      10.026   8.319  -1.278  0.00  0.00     0.219 C 
ATOM      2  O   UNK d   0       8.968   8.150  -0.709  0.00  0.00    -0.276 OA
ATOM      3  N   HIS d   1      10.990   7.379  -1.198  0.00  0.00    -0.307 N 
ATOM      4  CA  HIS d   1      10.759   6.156  -0.426  0.00  0.00     0.068 C 
ATOM      5  HA  HIS d   1       9.713   5.862  -0.517  0.00  0.00     0.056 H 
ATOM      6  C   HIS d   1      11.086   6.407   1.023  0.00  0.00     0.062 C 
ATOM      7  O   HIS d   1      11.472   7.496   1.376  0.00  0.00    -0.548 OA
ATOM      8  H   HIS d   1      11.836   7.514  -1.652  0.00  0.00     0.149 HD
ATOM      9  OXT HIS d   1      10.947   5.421   1.924  0.00  0.00    -0.548 OA
ENDROOT
BRANCH   1  10
ATOM     10  C   UNK d   0      10.264   9.577  -2.071  0.00  0.00     0.067 C 
ATOM     11  H   UNK d   0      11.329   9.808  -2.075  0.00  0.00     0.041 H 
ATOM     12  H   UNK d   0       9.921   9.431  -3.096  0.00  0.00     0.041 H 
BRANCH  10  13
ATOM     13  C   UNK d   0       9.492  10.735  -1.435  0.00  0.00    -0.019 C 
ATOM     14  H   UNK d   0       9.321  10.520  -0.380  0.00  0.00     0.085 H 
BRANCH  13  15
ATOM     15  C   UNK d   0      10.305  12.024  -1.568  0.00  0.00    -0.021 C 
ATOM     16  H   UNK d   0       9.911  12.619  -2.391  0.00  0.00     0.028 H 
ATOM     17  H   UNK d   0      10.237  12.594  -0.642  0.00  0.00     0.028 H 
ATOM     18  H   UNK d   0      11.348  11.777  -1.766  0.00  0.00     0.028 H 
ENDBRANCH  13  15
BRANCH  13  19
ATOM     19  N   UNK d   0       8.192  10.874  -2.114  0.00  0.00     0.221 N 
ATOM     20  H   UNK d   0       7.434  10.779  -1.439  0.00  0.00     0.200 HD
ATOM     21  H   UNK d   0       8.129  11.784  -2.567  0.00  0.00     0.200 HD
ATOM     22  H   UNK d   0       8.101  10.138  -2.825  0.00  0.00     0.200 HD
ENDBRANCH  13  19
ENDBRANCH  10  13
ENDBRANCH   1  10
BRANCH   4  23
ATOM     23  CB  HIS d   1      11.653   5.037  -0.965  0.00  0.00     0.013 C 
ATOM     24  HB1 HIS d   1      11.962   4.391  -0.142  0.00  0.00     0.035 H 
ATOM     25  HB2 HIS d   1      12.534   5.472  -1.435  0.00  0.00     0.035 H 
BRANCH  23  26
ATOM     26  CG  HIS d   1      10.888   4.227  -1.979  0.00  0.00     0.037 A 
ATOM     27  ND1 HIS d   1      11.038   2.916  -2.216  0.00  0.00    -0.348 N 
ATOM     28  HD1 HIS d   1      11.681   2.312  -1.744  0.00  0.00     0.167 HD
ATOM     29  CE1 HIS d   1      10.214   2.552  -3.159  0.00  0.00     0.093 A 
ATOM     30  NE2 HIS d   1       9.507   3.631  -3.557  0.00  0.00    -0.244 NA
ATOM     31  HE1 HIS d   1      10.114   1.552  -3.557  0.00  0.00     0.103 H 
ATOM     32  CD2 HIS d   1       9.935   4.693  -2.807  0.00  0.00     0.049 A 
ATOM     33  HD2 HIS d   1       9.576   5.710  -2.869  0.00  0.00     0.085 H 
ENDBRANCH  23  26
ENDBRANCH   4  23
TORSDOF 8
ENDMDL
MODEL 8
REMARK VINA RESULT:      -4.9      3.339      6.008
REMARK  6 active torsions:
REMARK  status: ('A' for Active; 'I' for Inactive)
REMARK    1  A    between atoms: C_1  and  C_2 
REMARK    2  A    between atoms: C_2  and  C_4 
REMARK    3  A    between atoms: C_2  and  N_32 
REMARK    4  A    between atoms: C_4  and  C_5 
REMARK       I    between atoms: C_5  and  N_7 
REMARK       I    between atoms: N_7  and  CA_8 
REMARK    5  A    between atoms: CA_8  and  CB_10 
REMARK       I    between atoms: CA_8  and  C_17 
REMARK    6  A    between atoms: CB_10  and  CG_11 
ROOT
ATOM      1  C   UNK d   0       4.629  -0.113  -7.245  0.00  0.00     0.219 C 
ATOM      2  O   UNK d   0       3.763  -0.929  -7.481  0.00  0.00    -0.276 OA
ATOM      3  N   HIS d   1       5.029   0.094  -5.975  0.00  0.00    -0.307 N 
ATOM      4  CA  HIS d   1       4.419  -0.665  -4.880  0.00  0.00     0.068 C 
ATOM      5  HA  HIS d   1       4.187  -1.674  -5.224  0.00  0.00     0.056 H 
ATOM      6  C   HIS d   1       3.151   0.019  -4.439  0.00  0.00     0.062 C 
ATOM      7  O   HIS d   1       2.793   1.037  -4.983  0.00  0.00    -0.548 OA
ATOM      8  H   HIS d   1       5.721   0.747  -5.785  0.00  0.00     0.149 HD
ATOM      9  OXT HIS d   1       2.418  -0.502  -3.443  0.00  0.00    -0.548 OA
ENDROOT
BRANCH   1  10
ATOM     10  C   UNK d   0       5.256   0.669  -8.370  0.00  0.00     0.067 C 
ATOM     11  H   UNK d   0       6.163   1.155  -8.013  0.00  0.00     0.041 H 
ATOM     12  H   UNK d   0       5.505  -0.008  -9.188  0.00  0.00     0.041 H 
BRANCH  10  13
ATOM     13  C   UNK d   0       4.270   1.728  -8.867  0.00  0.00    -0.019 C 
ATOM     14  H   UNK d   0       4.763   2.699  -8.889  0.00  0.00     0.085 H 
BRANCH  13  15
ATOM     15  C   UNK d   0       3.797   1.363 -10.275  0.00  0.00    -0.021 C 
ATOM     16  H   UNK d   0       4.636   1.428 -10.968  0.00  0.00     0.028 H 
ATOM     17  H   UNK d   0       3.404   0.347 -10.276  0.00  0.00     0.028 H 
ATOM     18  H   UNK d   0       3.015   2.056 -10.587  0.00  0.00     0.028 H 
ENDBRANCH  13  15
BRANCH  13  19
ATOM     19  N   UNK d   0       3.126   1.791  -7.940  0.00  0.00     0.221 N 
ATOM     20  H   UNK d   0       2.584   0.930  -7.995  0.00  0.00     0.200 HD
ATOM     21  H   UNK d   0       3.456   1.923  -6.986  0.00  0.00     0.200 HD
ATOM     22  H   UNK d   0       2.525   2.582  -8.199  0.00  0.00     0.200 HD
ENDBRANCH  13  19
ENDBRANCH  10  13
ENDBRANCH   1  10
BRANCH   4  23
ATOM     23  CB  HIS d   1       5.395  -0.738  -3.704  0.00  0.00     0.013 C 
ATOM     24  HB1 HIS d   1       4.839  -0.900  -2.780  0.00  0.00     0.035 H 
ATOM     25  HB2 HIS d   1       5.950   0.197  -3.635  0.00  0.00     0.035 H 
BRANCH  23  26
ATOM     26  CG  HIS d   1       6.355  -1.880  -3.919  0.00  0.00     0.037 A 
ATOM     27  ND1 HIS d   1       7.607  -1.957  -3.443  0.00  0.00    -0.348 N 
ATOM     28  HD1 HIS d   1       8.057  -1.260  -2.883  0.00  0.00     0.167 HD
ATOM     29  CE1 HIS d   1       8.144  -3.083  -3.825  0.00  0.00     0.093 A 
ATOM     30  NE2 HIS d   1       7.242  -3.764  -4.564  0.00  0.00    -0.244 NA
ATOM     31  HE1 HIS d   1       9.145  -3.414  -3.589  0.00  0.00     0.103 H 
ATOM     32  CD2 HIS d   1       6.108  -3.000  -4.622  0.00  0.00     0.049 A 
ATOM     33  HD2 HIS d   1       5.190  -3.249  -5.135  0.00  0.00     0.085 H 
ENDBRANCH  23  26
ENDBRANCH   4  23
TORSDOF 8
ENDMDL
MODEL 9
REMARK VINA RESULT:      -4.9      3.944      5.208
REMARK  6 active torsions:
REMARK  status: ('A' for Active; 'I' for Inactive)
REMARK    1  A    between atoms: C_1  and  C_2 
REMARK    2  A    between atoms: C_2  and  C_4 
REMARK    3  A    between atoms: C_2  and  N_32 
REMARK    4  A    between atoms: C_4  and  C_5 
REMARK       I    between atoms: C_5  and  N_7 
REMARK       I    between atoms: N_7  and  CA_8 
REMARK    5  A    between atoms: CA_8  and  CB_10 
REMARK       I    between atoms: CA_8  and  C_17 
REMARK    6  A    between atoms: CB_10  and  CG_11 
ROOT
ATOM      1  C   UNK d   0       4.615  -2.084  -3.572  0.00  0.00     0.219 C 
ATOM      2  O   UNK d   0       5.792  -1.803  -3.653  0.00  0.00    -0.276 OA
ATOM      3  N   HIS d   1       4.062  -2.930  -4.464  0.00  0.00    -0.307 N 
ATOM      4  CA  HIS d   1       4.883  -3.512  -5.530  0.00  0.00     0.068 C 
ATOM      5  HA  HIS d   1       5.890  -3.693  -5.154  0.00  0.00     0.056 H 
ATOM      6  C   HIS d   1       4.945  -2.557  -6.693  0.00  0.00     0.062 C 
ATOM      7  O   HIS d   1       4.364  -1.499  -6.639  0.00  0.00    -0.548 OA
ATOM      8  H   HIS d   1       3.121  -3.154  -4.400  0.00  0.00     0.149 HD
ATOM      9  OXT HIS d   1       5.647  -2.880  -7.790  0.00  0.00    -0.548 OA
ENDROOT
BRANCH   1  10
ATOM     10  C   UNK d   0       3.771  -1.485  -2.478  0.00  0.00     0.067 C 
ATOM     11  H   UNK d   0       2.791  -1.961  -2.473  0.00  0.00     0.041 H 
ATOM     12  H   UNK d   0       4.257  -1.646  -1.515  0.00  0.00     0.041 H 
BRANCH  10  13
ATOM     13  C   UNK d   0       3.608   0.016  -2.722  0.00  0.00    -0.019 C 
ATOM     14  H   UNK d   0       2.564   0.294  -2.583  0.00  0.00     0.085 H 
BRANCH  13  15
ATOM     15  C   UNK d   0       4.478   0.791  -1.730  0.00  0.00    -0.021 C 
ATOM     16  H   UNK d   0       3.881   1.066  -0.861  0.00  0.00     0.028 H 
ATOM     17  H   UNK d   0       5.314   0.168  -1.415  0.00  0.00     0.028 H 
ATOM     18  H   UNK d   0       4.858   1.694  -2.209  0.00  0.00     0.028 H 
ENDBRANCH  13  15
BRANCH  13  19
ATOM     19  N   UNK d   0       4.007   0.323  -4.106  0.00  0.00     0.221 N 
ATOM     20  H   UNK d   0       3.731  -0.437  -4.726  0.00  0.00     0.200 HD
ATOM     21  H   UNK d   0       3.565   1.188  -4.414  0.00  0.00     0.200 HD
ATOM     22  H   UNK d   0       5.027   0.435  -4.147  0.00  0.00     0.200 HD
ENDBRANCH  13  19
ENDBRANCH  10  13
ENDBRANCH   1  10
BRANCH   4  23
ATOM     23  CB  HIS d   1       4.263  -4.834  -5.986  0.00  0.00     0.013 C 
ATOM     24  HB1 HIS d   1       4.056  -4.787  -7.056  0.00  0.00     0.035 H 
ATOM     25  HB2 HIS d   1       3.333  -5.004  -5.445  0.00  0.00     0.035 H 
BRANCH  23  26
ATOM     26  CG  HIS d   1       5.222  -5.962  -5.709  0.00  0.00     0.037 A 
ATOM     27  ND1 HIS d   1       4.888  -7.233  -5.443  0.00  0.00    -0.348 N 
ATOM     28  HD1 HIS d   1       3.955  -7.589  -5.397  0.00  0.00     0.167 HD
ATOM     29  CE1 HIS d   1       5.974  -7.932  -5.254  0.00  0.00     0.093 A 
ATOM     30  NE2 HIS d   1       7.042  -7.119  -5.394  0.00  0.00    -0.244 NA
ATOM     31  HE1 HIS d   1       6.010  -8.987  -5.022  0.00  0.00     0.103 H 
ATOM     32  CD2 HIS d   1       6.565  -5.869  -5.683  0.00  0.00     0.049 A 
ATOM     33  HD2 HIS d   1       7.153  -4.980  -5.857  0.00  0.00     0.085 H 
ENDBRANCH  23  26
ENDBRANCH   4  23
TORSDOF 8
ENDMDL
MODEL 10
REMARK VINA RESULT:      -4.8     11.431     13.508
REMARK  6 active torsions:
REMARK  status: ('A' for Active; 'I' for Inactive)
REMARK    1  A    between atoms: C_1  and  C_2 
REMARK    2  A    between atoms: C_2  and  C_4 
REMARK    3  A    between atoms: C_2  and  N_32 
REMARK    4  A    between atoms: C_4  and  C_5 
REMARK       I    between atoms: C_5  and  N_7 
REMARK       I    between atoms: N_7  and  CA_8 
REMARK    5  A    between atoms: CA_8  and  CB_10 
REMARK       I    between atoms: CA_8  and  C_17 
REMARK    6  A    between atoms: CB_10  and  CG_11 
ROOT
ATOM      1  C   UNK d   0      10.398   6.266  -2.723  0.00  0.00     0.219 C 
ATOM      2  O   UNK d   0      11.588   6.499  -2.745  0.00  0.00    -0.276 OA
ATOM      3  N   HIS d   1       9.583   6.997  -1.936  0.00  0.00    -0.307 N 
ATOM      4  CA  HIS d   1      10.135   8.073  -1.108  0.00  0.00     0.068 C 
ATOM      5  HA  HIS d   1      10.959   8.551  -1.638  0.00  0.00     0.056 H 
ATOM      6  C   HIS d   1      10.637   7.500   0.191  0.00  0.00     0.062 C 
ATOM      7  O   HIS d   1      10.545   6.314   0.405  0.00  0.00    -0.548 OA
ATOM      8  H   HIS d   1       8.631   6.810  -1.917  0.00  0.00     0.149 HD
ATOM      9  OXT HIS d   1      11.189   8.306   1.111  0.00  0.00    -0.548 OA
ENDROOT
BRANCH   1  10
ATOM     10  C   UNK d   0       9.830   5.159  -3.572  0.00  0.00     0.067 C 
ATOM     11  H   UNK d   0       8.789   5.377  -3.806  0.00  0.00     0.041 H 
ATOM     12  H   UNK d   0      10.401   5.082  -4.498  0.00  0.00     0.041 H 
BRANCH  10  13
ATOM     13  C   UNK d   0       9.916   3.835  -2.810  0.00  0.00    -0.019 C 
ATOM     14  H   UNK d   0       8.961   3.634  -2.326  0.00  0.00     0.085 H 
BRANCH  13  15
ATOM     15  C   UNK d   0      10.240   2.704  -3.787  0.00  0.00    -0.021 C 
ATOM     16  H   UNK d   0      11.222   2.875  -4.229  0.00  0.00     0.028 H 
ATOM     17  H   UNK d   0      10.243   1.753  -3.255  0.00  0.00     0.028 H 
ATOM     18  H   UNK d   0       9.487   2.677  -4.576  0.00  0.00     0.028 H 
ENDBRANCH  13  15
BRANCH  13  19
ATOM     19  N   UNK d   0      10.964   3.942  -1.780  0.00  0.00     0.221 N 
ATOM     20  H   UNK d   0      11.394   4.865  -1.814  0.00  0.00     0.200 HD
ATOM     21  H   UNK d   0      10.563   3.789  -0.856  0.00  0.00     0.200 HD
ATOM     22  H   UNK d   0      11.684   3.230  -1.955  0.00  0.00     0.200 HD
ENDBRANCH  13  19
ENDBRANCH  10  13
ENDBRANCH   1  10
BRANCH   4  23
ATOM     23  CB  HIS d   1       9.044   9.107  -0.823  0.00  0.00     0.013 C 
ATOM     24  HB1 HIS d   1       9.139   9.460   0.204  0.00  0.00     0.035 H 
ATOM     25  HB2 HIS d   1       8.065   8.648  -0.959  0.00  0.00     0.035 H 
BRANCH  23  26
ATOM     26  CG  HIS d   1       9.192  10.269  -1.771  0.00  0.00     0.037 A 
ATOM     27  ND1 HIS d   1       8.190  10.955  -2.339  0.00  0.00    -0.348 N 
ATOM     28  HD1 HIS d   1       7.215  10.777  -2.201  0.00  0.00     0.167 HD
ATOM     29  CE1 HIS d   1       8.686  11.891  -3.100  0.00  0.00     0.093 A 
ATOM     30  NE2 HIS d   1      10.034  11.828  -3.040  0.00  0.00    -0.244 NA
ATOM     31  HE1 HIS d   1       8.114  12.598  -3.683  0.00  0.00     0.103 H 
ATOM     32  CD2 HIS d   1      10.354  10.799  -2.196  0.00  0.00     0.049 A 
ATOM     33  HD2 HIS d   1      11.348  10.475  -1.924  0.00  0.00     0.085 H 
ENDBRANCH  23  26
ENDBRANCH   4  23
TORSDOF 8
ENDMDL
