MODEL 1
REMARK VINA RESULT:      -5.7      0.000      0.000
REMARK  4 active torsions:
REMARK  status: ('A' for Active; 'I' for Inactive)
REMARK    1  A    between atoms: C_1  and  C_2 
REMARK       I    between atoms: C_2  and  N_4 
REMARK    2  A    between atoms: N_4  and  C_5 
REMARK    3  A    between atoms: C_10  and  C_11 
REMARK    4  A    between atoms: C_11  and  C_13 
ROOT
ATOM      1  C   LIG d   1       3.665  -0.314  -4.142  0.00  0.00     0.044 A 
ATOM      2  C   LIG d   1       3.253   0.939  -3.711  0.00  0.00    -0.040 A 
ATOM      3  C   LIG d   1       3.635   1.405  -2.469  0.00  0.00    -0.060 A 
ATOM      4  C   LIG d   1       4.442   0.631  -1.646  0.00  0.00    -0.061 A 
ATOM      5  C   LIG d   1       4.865  -0.613  -2.057  0.00  0.00    -0.050 A 
ATOM      6  C   LIG d   1       4.482  -1.101  -3.311  0.00  0.00     0.039 A 
ATOM      7  H   LIG d   1       2.629   1.550  -4.346  0.00  0.00     0.064 H 
ATOM      8  H   LIG d   1       3.309   2.379  -2.137  0.00  0.00     0.062 H 
ATOM      9  H   LIG d   1       4.737   1.007  -0.678  0.00  0.00     0.062 H 
ATOM     10  H   LIG d   1       5.493  -1.210  -1.412  0.00  0.00     0.062 H 
ENDROOT
BRANCH   1  11
ATOM     11  N   LIG d   1       3.277  -0.787  -5.392  0.00  0.00    -0.285 N 
ATOM     12  C   LIG d   1       4.021  -0.505  -6.480  0.00  0.00     0.214 C 
ATOM     13  O   LIG d   1       4.983   0.227  -6.383  0.00  0.00    -0.276 OA
ATOM     14  H   LIG d   1       2.470  -1.318  -5.480  0.00  0.00     0.155 HD
BRANCH  12  15
ATOM     15  C   LIG d   1       3.660  -1.104  -7.815  0.00  0.00     0.013 C 
ATOM     16  H   LIG d   1       2.903  -1.875  -7.674  0.00  0.00     0.032 H 
ATOM     17  H   LIG d   1       3.269  -0.326  -8.469  0.00  0.00     0.032 H 
ATOM     18  H   LIG d   1       4.548  -1.547  -8.266  0.00  0.00     0.032 H 
ENDBRANCH  12  15
ENDBRANCH   1  11
BRANCH   6  19
ATOM     19  C   LIG d   1       4.929  -2.426  -3.757  0.00  0.00     0.175 C 
ATOM     20  O   LIG d   1       4.152  -3.357  -3.769  0.00  0.00    -0.291 OA
BRANCH  19  21
ATOM     21  C   LIG d   1       6.356  -2.630  -4.200  0.00  0.00     0.066 C 
ATOM     22 BR   LIG d   1       6.376  -3.518  -5.954  0.00  0.00    -0.083 Br
ATOM     23  H   LIG d   1       6.813  -1.744  -4.269  0.00  0.00     0.046 H 
ATOM     24  H   LIG d   1       6.877  -3.251  -3.472  0.00  0.00     0.046 H 
ENDBRANCH  19  21
ENDBRANCH   6  19
TORSDOF 4
ENDMDL
MODEL 2
REMARK VINA RESULT:      -5.5      1.855      1.978
REMARK  4 active torsions:
REMARK  status: ('A' for Active; 'I' for Inactive)
REMARK    1  A    between atoms: C_1  and  C_2 
REMARK       I    between atoms: C_2  and  N_4 
REMARK    2  A    between atoms: N_4  and  C_5 
REMARK    3  A    between atoms: C_10  and  C_11 
REMARK    4  A    between atoms: C_11  and  C_13 
ROOT
ATOM      1  C   LIG d   1       4.010  -0.174  -4.424  0.00  0.00     0.044 A 
ATOM      2  C   LIG d   1       3.030   0.122  -3.487  0.00  0.00    -0.040 A 
ATOM      3  C   LIG d   1       3.380   0.659  -2.265  0.00  0.00    -0.060 A 
ATOM      4  C   LIG d   1       4.711   0.915  -1.966  0.00  0.00    -0.061 A 
ATOM      5  C   LIG d   1       5.697   0.633  -2.882  0.00  0.00    -0.050 A 
ATOM      6  C   LIG d   1       5.359   0.084  -4.125  0.00  0.00     0.039 A 
ATOM      7  H   LIG d   1       1.992  -0.070  -3.713  0.00  0.00     0.064 H 
ATOM      8  H   LIG d   1       2.614   0.884  -1.539  0.00  0.00     0.062 H 
ATOM      9  H   LIG d   1       4.973   1.338  -1.007  0.00  0.00     0.062 H 
ATOM     10  H   LIG d   1       6.731   0.836  -2.644  0.00  0.00     0.062 H 
ENDROOT
BRANCH   1  11
ATOM     11  N   LIG d   1       3.659  -0.720  -5.656  0.00  0.00    -0.285 N 
ATOM     12  C   LIG d   1       3.154   0.072  -6.623  0.00  0.00     0.214 C 
ATOM     13  O   LIG d   1       2.929   1.241  -6.394  0.00  0.00    -0.276 OA
ATOM     14  H   LIG d   1       3.776  -1.668  -5.817  0.00  0.00     0.155 HD
BRANCH  12  15
ATOM     15  C   LIG d   1       2.873  -0.497  -7.990  0.00  0.00     0.013 C 
ATOM     16  H   LIG d   1       3.564  -0.063  -8.712  0.00  0.00     0.032 H 
ATOM     17  H   LIG d   1       3.002  -1.578  -7.968  0.00  0.00     0.032 H 
ATOM     18  H   LIG d   1       1.849  -0.258  -8.280  0.00  0.00     0.032 H 
ENDBRANCH  12  15
ENDBRANCH   1  11
BRANCH   6  19
ATOM     19  C   LIG d   1       6.405  -0.219  -5.109  0.00  0.00     0.175 C 
ATOM     20  O   LIG d   1       6.457   0.400  -6.150  0.00  0.00    -0.291 OA
BRANCH  19  21
ATOM     21  C   LIG d   1       7.416  -1.301  -4.824  0.00  0.00     0.066 C 
ATOM     22 BR   LIG d   1       6.486  -3.011  -4.548  0.00  0.00    -0.083 Br
ATOM     23  H   LIG d   1       8.043  -1.383  -5.599  0.00  0.00     0.046 H 
ATOM     24  H   LIG d   1       7.980  -1.044  -3.927  0.00  0.00     0.046 H 
ENDBRANCH  19  21
ENDBRANCH   6  19
TORSDOF 4
ENDMDL
MODEL 3
REMARK VINA RESULT:      -5.3      2.162      3.459
REMARK  4 active torsions:
REMARK  status: ('A' for Active; 'I' for Inactive)
REMARK    1  A    between atoms: C_1  and  C_2 
REMARK       I    between atoms: C_2  and  N_4 
REMARK    2  A    between atoms: N_4  and  C_5 
REMARK    3  A    between atoms: C_10  and  C_11 
REMARK    4  A    between atoms: C_11  and  C_13 
ROOT
ATOM      1  C   LIG d   1       4.131  -1.666  -3.776  0.00  0.00     0.044 A 
ATOM      2  C   LIG d   1       4.225  -1.881  -2.408  0.00  0.00    -0.040 A 
ATOM      3  C   LIG d   1       4.394  -0.814  -1.550  0.00  0.00    -0.060 A 
ATOM      4  C   LIG d   1       4.461   0.481  -2.043  0.00  0.00    -0.061 A 
ATOM      5  C   LIG d   1       4.367   0.716  -3.396  0.00  0.00    -0.050 A 
ATOM      6  C   LIG d   1       4.200  -0.356  -4.280  0.00  0.00     0.039 A 
ATOM      7  H   LIG d   1       4.168  -2.885  -2.015  0.00  0.00     0.064 H 
ATOM      8  H   LIG d   1       4.469  -0.987  -0.487  0.00  0.00     0.062 H 
ATOM      9  H   LIG d   1       4.591   1.309  -1.361  0.00  0.00     0.062 H 
ATOM     10  H   LIG d   1       4.420   1.726  -3.774  0.00  0.00     0.062 H 
ENDROOT
BRANCH   1  11
ATOM     11  N   LIG d   1       3.965  -2.742  -4.644  0.00  0.00    -0.285 N 
ATOM     12  C   LIG d   1       5.015  -3.531  -4.947  0.00  0.00     0.214 C 
ATOM     13  O   LIG d   1       6.120  -3.258  -4.528  0.00  0.00    -0.276 OA
ATOM     14  H   LIG d   1       3.095  -2.922  -5.032  0.00  0.00     0.155 HD
BRANCH  12  15
ATOM     15  C   LIG d   1       4.815  -4.757  -5.801  0.00  0.00     0.013 C 
ATOM     16  H   LIG d   1       5.263  -5.619  -5.308  0.00  0.00     0.032 H 
ATOM     17  H   LIG d   1       3.748  -4.932  -5.940  0.00  0.00     0.032 H 
ATOM     18  H   LIG d   1       5.289  -4.606  -6.770  0.00  0.00     0.032 H 
ENDBRANCH  12  15
ENDBRANCH   1  11
BRANCH   6  19
ATOM     19  C   LIG d   1       4.097  -0.114  -5.725  0.00  0.00     0.175 C 
ATOM     20  O   LIG d   1       5.083  -0.198  -6.426  0.00  0.00    -0.291 OA
BRANCH  19  21
ATOM     21  C   LIG d   1       2.765   0.238  -6.337  0.00  0.00     0.066 C 
ATOM     22 BR   LIG d   1       3.050   1.030  -8.114  0.00  0.00    -0.083 Br
ATOM     23  H   LIG d   1       2.210  -0.588  -6.425  0.00  0.00     0.046 H 
ATOM     24  H   LIG d   1       2.250   0.955  -5.697  0.00  0.00     0.046 H 
ENDBRANCH  19  21
ENDBRANCH   6  19
TORSDOF 4
ENDMDL
MODEL 4
REMARK VINA RESULT:      -5.0      2.544      2.991
REMARK  4 active torsions:
REMARK  status: ('A' for Active; 'I' for Inactive)
REMARK    1  A    between atoms: C_1  and  C_2 
REMARK       I    between atoms: C_2  and  N_4 
REMARK    2  A    between atoms: N_4  and  C_5 
REMARK    3  A    between atoms: C_10  and  C_11 
REMARK    4  A    between atoms: C_11  and  C_13 
ROOT
ATOM      1  C   LIG d   1       6.341  -0.122  -3.215  0.00  0.00     0.044 A 
ATOM      2  C   LIG d   1       5.572   0.883  -2.647  0.00  0.00    -0.040 A 
ATOM      3  C   LIG d   1       4.326   0.593  -2.128  0.00  0.00    -0.060 A 
ATOM      4  C   LIG d   1       3.836  -0.705  -2.161  0.00  0.00    -0.061 A 
ATOM      5  C   LIG d   1       4.585  -1.717  -2.716  0.00  0.00    -0.050 A 
ATOM      6  C   LIG d   1       5.849  -1.438  -3.250  0.00  0.00     0.039 A 
ATOM      7  H   LIG d   1       5.946   1.895  -2.613  0.00  0.00     0.064 H 
ATOM      8  H   LIG d   1       3.730   1.380  -1.690  0.00  0.00     0.062 H 
ATOM      9  H   LIG d   1       2.861  -0.921  -1.749  0.00  0.00     0.062 H 
ATOM     10  H   LIG d   1       4.199  -2.725  -2.738  0.00  0.00     0.062 H 
ENDROOT
BRANCH   1  11
ATOM     11  N   LIG d   1       7.596   0.169  -3.742  0.00  0.00    -0.285 N 
ATOM     12  C   LIG d   1       7.701   0.695  -4.978  0.00  0.00     0.214 C 
ATOM     13  O   LIG d   1       6.710   0.840  -5.663  0.00  0.00    -0.276 OA
ATOM     14  H   LIG d   1       8.394  -0.008  -3.221  0.00  0.00     0.155 HD
BRANCH  12  15
ATOM     15  C   LIG d   1       9.050   1.110  -5.508  0.00  0.00     0.013 C 
ATOM     16  H   LIG d   1       9.574   1.691  -4.750  0.00  0.00     0.032 H 
ATOM     17  H   LIG d   1       9.632   0.222  -5.753  0.00  0.00     0.032 H 
ATOM     18  H   LIG d   1       8.918   1.717  -6.403  0.00  0.00     0.032 H 
ENDBRANCH  12  15
ENDBRANCH   1  11
BRANCH   6  19
ATOM     19  C   LIG d   1       6.654  -2.513  -3.843  0.00  0.00     0.175 C 
ATOM     20  O   LIG d   1       7.811  -2.658  -3.511  0.00  0.00    -0.291 OA
BRANCH  19  21
ATOM     21  C   LIG d   1       6.042  -3.437  -4.865  0.00  0.00     0.066 C 
ATOM     22 BR   LIG d   1       5.369  -2.383  -6.381  0.00  0.00    -0.083 Br
ATOM     23  H   LIG d   1       6.734  -4.082  -5.187  0.00  0.00     0.046 H 
ATOM     24  H   LIG d   1       5.219  -3.987  -4.409  0.00  0.00     0.046 H 
ENDBRANCH  19  21
ENDBRANCH   6  19
TORSDOF 4
ENDMDL
MODEL 5
REMARK VINA RESULT:      -4.8      2.405      3.356
REMARK  4 active torsions:
REMARK  status: ('A' for Active; 'I' for Inactive)
REMARK    1  A    between atoms: C_1  and  C_2 
REMARK       I    between atoms: C_2  and  N_4 
REMARK    2  A    between atoms: N_4  and  C_5 
REMARK    3  A    between atoms: C_10  and  C_11 
REMARK    4  A    between atoms: C_11  and  C_13 
ROOT
ATOM      1  C   LIG d   1       5.743   0.124  -3.647  0.00  0.00     0.044 A 
ATOM      2  C   LIG d   1       5.499   0.592  -2.363  0.00  0.00    -0.040 A 
ATOM      3  C   LIG d   1       4.202   0.760  -1.922  0.00  0.00    -0.060 A 
ATOM      4  C   LIG d   1       3.132   0.454  -2.751  0.00  0.00    -0.061 A 
ATOM      5  C   LIG d   1       3.352  -0.015  -4.026  0.00  0.00    -0.050 A 
ATOM      6  C   LIG d   1       4.662  -0.186  -4.490  0.00  0.00     0.039 A 
ATOM      7  H   LIG d   1       6.325   0.828  -1.709  0.00  0.00     0.064 H 
ATOM      8  H   LIG d   1       4.018   1.127  -0.924  0.00  0.00     0.062 H 
ATOM      9  H   LIG d   1       2.121   0.587  -2.394  0.00  0.00     0.062 H 
ATOM     10  H   LIG d   1       2.516  -0.252  -4.667  0.00  0.00     0.062 H 
ENDROOT
BRANCH   1  11
ATOM     11  N   LIG d   1       7.050  -0.041  -4.095  0.00  0.00    -0.285 N 
ATOM     12  C   LIG d   1       7.781   1.033  -4.452  0.00  0.00     0.214 C 
ATOM     13  O   LIG d   1       7.274   2.136  -4.461  0.00  0.00    -0.276 OA
ATOM     14  H   LIG d   1       7.434  -0.930  -4.151  0.00  0.00     0.155 HD
BRANCH  12  15
ATOM     15  C   LIG d   1       9.228   0.866  -4.836  0.00  0.00     0.013 C 
ATOM     16  H   LIG d   1       9.773   0.415  -4.007  0.00  0.00     0.032 H 
ATOM     17  H   LIG d   1       9.300   0.221  -5.712  0.00  0.00     0.032 H 
ATOM     18  H   LIG d   1       9.659   1.841  -5.065  0.00  0.00     0.032 H 
ENDBRANCH  12  15
ENDBRANCH   1  11
BRANCH   6  19
ATOM     19  C   LIG d   1       4.906  -0.687  -5.849  0.00  0.00     0.175 C 
ATOM     20  O   LIG d   1       5.332   0.060  -6.703  0.00  0.00    -0.291 OA
BRANCH  19  21
ATOM     21  C   LIG d   1       4.627  -2.131  -6.181  0.00  0.00     0.066 C 
ATOM     22 BR   LIG d   1       5.080  -3.258  -4.635  0.00  0.00    -0.083 Br
ATOM     23  H   LIG d   1       3.658  -2.240  -6.401  0.00  0.00     0.046 H 
ATOM     24  H   LIG d   1       5.230  -2.429  -7.038  0.00  0.00     0.046 H 
ENDBRANCH  19  21
ENDBRANCH   6  19
TORSDOF 4
ENDMDL
MODEL 6
REMARK VINA RESULT:      -4.7      1.911      2.157
REMARK  4 active torsions:
REMARK  status: ('A' for Active; 'I' for Inactive)
REMARK    1  A    between atoms: C_1  and  C_2 
REMARK       I    between atoms: C_2  and  N_4 
REMARK    2  A    between atoms: N_4  and  C_5 
REMARK    3  A    between atoms: C_10  and  C_11 
REMARK    4  A    between atoms: C_11  and  C_13 
ROOT
ATOM      1  C   LIG d   1       4.170  -0.493  -4.980  0.00  0.00     0.044 A 
ATOM      2  C   LIG d   1       3.466   0.251  -4.044  0.00  0.00    -0.040 A 
ATOM      3  C   LIG d   1       3.116  -0.311  -2.833  0.00  0.00    -0.060 A 
ATOM      4  C   LIG d   1       3.472  -1.620  -2.537  0.00  0.00    -0.061 A 
ATOM      5  C   LIG d   1       4.173  -2.374  -3.450  0.00  0.00    -0.050 A 
ATOM      6  C   LIG d   1       4.532  -1.819  -4.685  0.00  0.00     0.039 A 
ATOM      7  H   LIG d   1       3.189   1.271  -4.264  0.00  0.00     0.064 H 
ATOM      8  H   LIG d   1       2.566   0.271  -2.110  0.00  0.00     0.062 H 
ATOM      9  H   LIG d   1       3.195  -2.049  -1.585  0.00  0.00     0.062 H 
ATOM     10  H   LIG d   1       4.447  -3.391  -3.214  0.00  0.00     0.062 H 
ENDROOT
BRANCH   1  11
ATOM     11  N   LIG d   1       4.520   0.071  -6.204  0.00  0.00    -0.285 N 
ATOM     12  C   LIG d   1       3.594   0.203  -7.174  0.00  0.00     0.214 C 
ATOM     13  O   LIG d   1       2.477  -0.243  -7.012  0.00  0.00    -0.276 OA
ATOM     14  H   LIG d   1       5.430   0.367  -6.359  0.00  0.00     0.155 HD
BRANCH  12  15
ATOM     15  C   LIG d   1       3.944   0.909  -8.458  0.00  0.00     0.013 C 
ATOM     16  H   LIG d   1       4.383   1.880  -8.230  0.00  0.00     0.032 H 
ATOM     17  H   LIG d   1       4.660   0.309  -9.019  0.00  0.00     0.032 H 
ATOM     18  H   LIG d   1       3.042   1.050  -9.053  0.00  0.00     0.032 H 
ENDBRANCH  12  15
ENDBRANCH   1  11
BRANCH   6  19
ATOM     19  C   LIG d   1       5.280  -2.616  -5.664  0.00  0.00     0.175 C 
ATOM     20  O   LIG d   1       6.472  -2.439  -5.807  0.00  0.00    -0.291 OA
BRANCH  19  21
ATOM     21  C   LIG d   1       4.568  -3.656  -6.491  0.00  0.00     0.066 C 
ATOM     22 BR   LIG d   1       4.788  -5.422  -5.655  0.00  0.00    -0.083 Br
ATOM     23  H   LIG d   1       3.596  -3.431  -6.544  0.00  0.00     0.046 H 
ATOM     24  H   LIG d   1       4.992  -3.673  -7.495  0.00  0.00     0.046 H 
ENDBRANCH  19  21
ENDBRANCH   6  19
TORSDOF 4
ENDMDL
MODEL 7
REMARK VINA RESULT:      -4.6      2.179      2.397
REMARK  4 active torsions:
REMARK  status: ('A' for Active; 'I' for Inactive)
REMARK    1  A    between atoms: C_1  and  C_2 
REMARK       I    between atoms: C_2  and  N_4 
REMARK    2  A    between atoms: N_4  and  C_5 
REMARK    3  A    between atoms: C_10  and  C_11 
REMARK    4  A    between atoms: C_11  and  C_13 
ROOT
ATOM      1  C   LIG d   1       3.966  -1.027  -4.717  0.00  0.00     0.044 A 
ATOM      2  C   LIG d   1       3.018  -1.135  -3.709  0.00  0.00    -0.040 A 
ATOM      3  C   LIG d   1       3.413  -1.176  -2.387  0.00  0.00    -0.060 A 
ATOM      4  C   LIG d   1       4.758  -1.100  -2.054  0.00  0.00    -0.061 A 
ATOM      5  C   LIG d   1       5.714  -0.988  -3.038  0.00  0.00    -0.050 A 
ATOM      6  C   LIG d   1       5.329  -0.950  -4.383  0.00  0.00     0.039 A 
ATOM      7  H   LIG d   1       1.969  -1.190  -3.959  0.00  0.00     0.064 H 
ATOM      8  H   LIG d   1       2.672  -1.263  -1.608  0.00  0.00     0.062 H 
ATOM      9  H   LIG d   1       5.056  -1.129  -1.016  0.00  0.00     0.062 H 
ATOM     10  H   LIG d   1       6.759  -0.928  -2.772  0.00  0.00     0.062 H 
ENDROOT
BRANCH   1  11
ATOM     11  N   LIG d   1       3.569  -0.990  -6.050  0.00  0.00    -0.285 N 
ATOM     12  C   LIG d   1       3.086   0.152  -6.578  0.00  0.00     0.214 C 
ATOM     13  O   LIG d   1       2.922   1.125  -5.872  0.00  0.00    -0.276 OA
ATOM     14  H   LIG d   1       3.638  -1.787  -6.599  0.00  0.00     0.155 HD
BRANCH  12  15
ATOM     15  C   LIG d   1       2.756   0.223  -8.046  0.00  0.00     0.013 C 
ATOM     16  H   LIG d   1       1.983  -0.509  -8.280  0.00  0.00     0.032 H 
ATOM     17  H   LIG d   1       2.395   1.222  -8.290  0.00  0.00     0.032 H 
ATOM     18  H   LIG d   1       3.650   0.005  -8.631  0.00  0.00     0.032 H 
ENDBRANCH  12  15
ENDBRANCH   1  11
BRANCH   6  19
ATOM     19  C   LIG d   1       6.342  -0.830  -5.439  0.00  0.00     0.175 C 
ATOM     20  O   LIG d   1       6.438  -1.690  -6.288  0.00  0.00    -0.291 OA
BRANCH  19  21
ATOM     21  C   LIG d   1       7.263   0.363  -5.468  0.00  0.00     0.066 C 
ATOM     22 BR   LIG d   1       9.130  -0.250  -5.422  0.00  0.00    -0.083 Br
ATOM     23  H   LIG d   1       7.104   0.887  -6.304  0.00  0.00     0.046 H 
ATOM     24  H   LIG d   1       7.066   0.994  -4.601  0.00  0.00     0.046 H 
ENDBRANCH  19  21
ENDBRANCH   6  19
TORSDOF 4
ENDMDL
MODEL 8
REMARK VINA RESULT:      -4.6      2.227      3.551
REMARK  4 active torsions:
REMARK  status: ('A' for Active; 'I' for Inactive)
REMARK    1  A    between atoms: C_1  and  C_2 
REMARK       I    between atoms: C_2  and  N_4 
REMARK    2  A    between atoms: N_4  and  C_5 
REMARK    3  A    between atoms: C_10  and  C_11 
REMARK    4  A    between atoms: C_11  and  C_13 
ROOT
ATOM      1  C   LIG d   1       4.439  -1.352  -5.128  0.00  0.00     0.044 A 
ATOM      2  C   LIG d   1       4.208  -0.815  -6.386  0.00  0.00    -0.040 A 
ATOM      3  C   LIG d   1       3.190   0.098  -6.574  0.00  0.00    -0.060 A 
ATOM      4  C   LIG d   1       2.395   0.493  -5.508  0.00  0.00    -0.061 A 
ATOM      5  C   LIG d   1       2.610  -0.024  -4.251  0.00  0.00    -0.050 A 
ATOM      6  C   LIG d   1       3.636  -0.954  -4.045  0.00  0.00     0.039 A 
ATOM      7  H   LIG d   1       4.824  -1.113  -7.222  0.00  0.00     0.064 H 
ATOM      8  H   LIG d   1       3.013   0.510  -7.556  0.00  0.00     0.062 H 
ATOM      9  H   LIG d   1       1.603   1.211  -5.666  0.00  0.00     0.062 H 
ATOM     10  H   LIG d   1       1.989   0.288  -3.424  0.00  0.00     0.062 H 
ENDROOT
BRANCH   1  11
ATOM     11  N   LIG d   1       5.462  -2.276  -4.938  0.00  0.00    -0.285 N 
ATOM     12  C   LIG d   1       6.727  -1.850  -4.745  0.00  0.00     0.214 C 
ATOM     13  O   LIG d   1       6.986  -0.667  -4.818  0.00  0.00    -0.276 OA
ATOM     14  H   LIG d   1       5.267  -3.225  -4.945  0.00  0.00     0.155 HD
BRANCH  12  15
ATOM     15  C   LIG d   1       7.817  -2.843  -4.434  0.00  0.00     0.013 C 
ATOM     16  H   LIG d   1       7.871  -3.584  -5.231  0.00  0.00     0.032 H 
ATOM     17  H   LIG d   1       8.771  -2.322  -4.356  0.00  0.00     0.032 H 
ATOM     18  H   LIG d   1       7.596  -3.341  -3.490  0.00  0.00     0.032 H 
ENDBRANCH  12  15
ENDBRANCH   1  11
BRANCH   6  19
ATOM     19  C   LIG d   1       3.872  -1.510  -2.706  0.00  0.00     0.175 C 
ATOM     20  O   LIG d   1       3.599  -2.668  -2.474  0.00  0.00    -0.291 OA
BRANCH  19  21
ATOM     21  C   LIG d   1       4.455  -0.641  -1.621  0.00  0.00     0.066 C 
ATOM     22 BR   LIG d   1       5.059   1.061  -2.399  0.00  0.00    -0.083 Br
ATOM     23  H   LIG d   1       3.758  -0.462  -0.928  0.00  0.00     0.046 H 
ATOM     24  H   LIG d   1       5.301  -1.152  -1.162  0.00  0.00     0.046 H 
ENDBRANCH  19  21
ENDBRANCH   6  19
TORSDOF 4
ENDMDL
MODEL 9
REMARK VINA RESULT:      -4.4      2.360      3.900
REMARK  4 active torsions:
REMARK  status: ('A' for Active; 'I' for Inactive)
REMARK    1  A    between atoms: C_1  and  C_2 
REMARK       I    between atoms: C_2  and  N_4 
REMARK    2  A    between atoms: N_4  and  C_5 
REMARK    3  A    between atoms: C_10  and  C_11 
REMARK    4  A    between atoms: C_11  and  C_13 
ROOT
ATOM      1  C   LIG d   1       5.429  -1.397  -3.524  0.00  0.00     0.044 A 
ATOM      2  C   LIG d   1       4.577  -1.790  -2.502  0.00  0.00    -0.040 A 
ATOM      3  C   LIG d   1       3.243  -1.437  -2.538  0.00  0.00    -0.060 A 
ATOM      4  C   LIG d   1       2.741  -0.697  -3.598  0.00  0.00    -0.061 A 
ATOM      5  C   LIG d   1       3.568  -0.300  -4.624  0.00  0.00    -0.050 A 
ATOM      6  C   LIG d   1       4.924  -0.646  -4.600  0.00  0.00     0.039 A 
ATOM      7  H   LIG d   1       4.958  -2.370  -1.675  0.00  0.00     0.064 H 
ATOM      8  H   LIG d   1       2.585  -1.743  -1.739  0.00  0.00     0.062 H 
ATOM      9  H   LIG d   1       1.694  -0.429  -3.618  0.00  0.00     0.062 H 
ATOM     10  H   LIG d   1       3.171   0.275  -5.447  0.00  0.00     0.062 H 
ENDROOT
BRANCH   1  11
ATOM     11  N   LIG d   1       6.775  -1.748  -3.487  0.00  0.00    -0.285 N 
ATOM     12  C   LIG d   1       7.193  -2.878  -4.090  0.00  0.00     0.214 C 
ATOM     13  O   LIG d   1       6.387  -3.631  -4.595  0.00  0.00    -0.276 OA
ATOM     14  H   LIG d   1       7.412  -1.180  -3.026  0.00  0.00     0.155 HD
BRANCH  12  15
ATOM     15  C   LIG d   1       8.664  -3.205  -4.142  0.00  0.00     0.013 C 
ATOM     16  H   LIG d   1       9.243  -2.288  -4.032  0.00  0.00     0.032 H 
ATOM     17  H   LIG d   1       8.913  -3.891  -3.333  0.00  0.00     0.032 H 
ATOM     18  H   LIG d   1       8.899  -3.670  -5.100  0.00  0.00     0.032 H 
ENDBRANCH  12  15
ENDBRANCH   1  11
BRANCH   6  19
ATOM     19  C   LIG d   1       5.813  -0.228  -5.691  0.00  0.00     0.175 C 
ATOM     20  O   LIG d   1       6.648   0.630  -5.498  0.00  0.00    -0.291 OA
BRANCH  19  21
ATOM     21  C   LIG d   1       5.690  -0.867  -7.051  0.00  0.00     0.066 C 
ATOM     22 BR   LIG d   1       4.852   0.403  -8.296  0.00  0.00    -0.083 Br
ATOM     23  H   LIG d   1       6.598  -1.113  -7.387  0.00  0.00     0.046 H 
ATOM     24  H   LIG d   1       5.075  -1.763  -6.976  0.00  0.00     0.046 H 
ENDBRANCH  19  21
ENDBRANCH   6  19
TORSDOF 4
ENDMDL
MODEL 10
REMARK VINA RESULT:      -4.2     10.239     11.426
REMARK  4 active torsions:
REMARK  status: ('A' for Active; 'I' for Inactive)
REMARK    1  A    between atoms: C_1  and  C_2 
REMARK       I    between atoms: C_2  and  N_4 
REMARK    2  A    between atoms: N_4  and  C_5 
REMARK    3  A    between atoms: C_10  and  C_11 
REMARK    4  A    between atoms: C_11  and  C_13 
ROOT
ATOM      1  C   LIG d   1      10.792   5.684  -1.512  0.00  0.00     0.044 A 
ATOM      2  C   LIG d   1      11.500   4.708  -2.199  0.00  0.00    -0.040 A 
ATOM      3  C   LIG d   1      11.827   4.895  -3.527  0.00  0.00    -0.060 A 
ATOM      4  C   LIG d   1      11.461   6.061  -4.183  0.00  0.00    -0.061 A 
ATOM      5  C   LIG d   1      10.762   7.043  -3.519  0.00  0.00    -0.050 A 
ATOM      6  C   LIG d   1      10.419   6.867  -2.174  0.00  0.00     0.039 A 
ATOM      7  H   LIG d   1      11.793   3.799  -1.695  0.00  0.00     0.064 H 
ATOM      8  H   LIG d   1      12.375   4.131  -4.057  0.00  0.00     0.062 H 
ATOM      9  H   LIG d   1      11.725   6.198  -5.222  0.00  0.00     0.062 H 
ATOM     10  H   LIG d   1      10.481   7.949  -4.036  0.00  0.00     0.062 H 
ENDROOT
BRANCH   1  11
ATOM     11  N   LIG d   1      10.457   5.496  -0.175  0.00  0.00    -0.285 N 
ATOM     12  C   LIG d   1      11.331   5.839   0.793  0.00  0.00     0.214 C 
ATOM     13  O   LIG d   1      12.439   6.235   0.497  0.00  0.00    -0.276 OA
ATOM     14  H   LIG d   1       9.597   5.117   0.062  0.00  0.00     0.155 HD
BRANCH  12  15
ATOM     15  C   LIG d   1      10.930   5.734   2.242  0.00  0.00     0.013 C 
ATOM     16  H   LIG d   1      10.351   4.823   2.393  0.00  0.00     0.032 H 
ATOM     17  H   LIG d   1      11.823   5.705   2.865  0.00  0.00     0.032 H 
ATOM     18  H   LIG d   1      10.323   6.598   2.514  0.00  0.00     0.032 H 
ENDBRANCH  12  15
ENDBRANCH   1  11
BRANCH   6  19
ATOM     19  C   LIG d   1       9.674   7.911  -1.458  0.00  0.00     0.175 C 
ATOM     20  O   LIG d   1       8.612   7.648  -0.936  0.00  0.00    -0.291 OA
BRANCH  19  21
ATOM     21  C   LIG d   1      10.232   9.309  -1.370  0.00  0.00     0.066 C 
ATOM     22 BR   LIG d   1      10.889   9.639   0.453  0.00  0.00    -0.083 Br
ATOM     23  H   LIG d   1      10.985   9.408  -2.020  0.00  0.00     0.046 H 
ATOM     24  H   LIG d   1       9.449  10.027  -1.611  0.00  0.00     0.046 H 
ENDBRANCH  19  21
ENDBRANCH   6  19
TORSDOF 4
ENDMDL
