MODEL 1
REMARK VINA RESULT:      -6.0      0.000      0.000
REMARK  8 active torsions:
REMARK  status: ('A' for Active; 'I' for Inactive)
REMARK    1  A    between atoms: C_1  and  O_2 
REMARK    2  A    between atoms: O_2  and  C_3 
REMARK    3  A    between atoms: C_7  and  C_9 
REMARK       I    between atoms: N_19  and  C_20 
REMARK       I    between atoms: C_20  and  N_22 
REMARK    4  A    between atoms: N_22  and  C_23 
REMARK    5  A    between atoms: C_23  and  C_24 
REMARK    6  A    between atoms: C_24  and  C_25 
REMARK    7  A    between atoms: C_25  and  O_27 
REMARK    8  A    between atoms: O_27  and  C_28 
ROOT
ATOM      1  C   LIG d   1       4.719  -1.047  -6.662  0.00  0.00     0.118 C 
ATOM      2  H   LIG d   1       5.331  -1.063  -5.761  0.00  0.00     0.064 H 
ATOM      3  C   LIG d   1       5.472  -0.366  -7.782  0.00  0.00     0.170 A 
ATOM      4  C   LIG d   1       4.947   0.611  -8.551  0.00  0.00     0.148 A 
ATOM      5  N   LIG d   1       5.909   0.972  -9.446  0.00  0.00    -0.247 N 
ATOM      6  H   LIG d   1       5.831   1.651 -10.135  0.00  0.00     0.310 HD
ATOM      7  C   LIG d   1       6.995   0.206  -9.191  0.00  0.00     0.243 A 
ATOM      8  N   LIG d   1       6.722  -0.592  -8.193  0.00  0.00    -0.245 N 
ATOM      9  C   LIG d   1       3.555   1.168  -8.406  0.00  0.00     0.029 C 
ATOM     10  C   LIG d   1       2.711   0.182  -7.587  0.00  0.00     0.025 C 
ATOM     11  N   LIG d   1       3.491  -0.268  -6.423  0.00  0.00    -0.271 N 
ATOM     12  C   LIG d   1       3.093   0.023  -5.168  0.00  0.00     0.303 C 
ATOM     13  O   LIG d   1       2.032   0.585  -4.982  0.00  0.00    -0.253 OA
ATOM     14  N   LIG d   1       3.872  -0.309  -4.119  0.00  0.00    -0.299 N 
ATOM     15  H   LIG d   1       7.932   0.247  -9.726  0.00  0.00     0.158 H 
ATOM     16  H   LIG d   1       3.598   2.128  -7.890  0.00  0.00     0.036 H 
ATOM     17  H   LIG d   1       3.109   1.299  -9.391  0.00  0.00     0.036 H 
ATOM     18  H   LIG d   1       1.801   0.676  -7.246  0.00  0.00     0.047 H 
ATOM     19  H   LIG d   1       2.451  -0.677  -8.206  0.00  0.00     0.047 H 
ATOM     20  H   LIG d   1       4.750  -0.691  -4.270  0.00  0.00     0.150 HD
ATOM     21  H   LIG d   1       7.330  -1.244  -7.810  0.00  0.00     0.310 HD
ENDROOT
BRANCH   1  22
ATOM     22  C   LIG d   1       4.365  -2.455  -7.067  0.00  0.00    -0.015 A 
ATOM     23  C   LIG d   1       4.041  -2.735  -8.381  0.00  0.00    -0.056 A 
ATOM     24  C   LIG d   1       3.716  -4.026  -8.755  0.00  0.00    -0.058 A 
ATOM     25  H   LIG d   1       4.041  -1.945  -9.116  0.00  0.00     0.062 H 
ATOM     26  C   LIG d   1       3.715  -5.039  -7.816  0.00  0.00    -0.020 A 
ATOM     27  H   LIG d   1       3.464  -4.243  -9.783  0.00  0.00     0.062 H 
ATOM     28  C   LIG d   1       4.039  -4.760  -6.496  0.00  0.00     0.120 A 
ATOM     29  H   LIG d   1       3.461  -6.048  -8.109  0.00  0.00     0.065 H 
ATOM     30  C   LIG d   1       4.360  -3.464  -6.122  0.00  0.00    -0.015 A 
ATOM     31  H   LIG d   1       4.609  -3.243  -5.094  0.00  0.00     0.066 H 
BRANCH  28  32
ATOM     32  O   LIG d   1       4.038  -5.755  -5.570  0.00  0.00    -0.495 OA
BRANCH  32  33
ATOM     33  C   LIG d   1       5.152  -6.650  -5.580  0.00  0.00     0.079 C 
ATOM     34  H   LIG d   1       6.050  -6.110  -5.877  0.00  0.00     0.066 H 
ATOM     35  H   LIG d   1       5.292  -7.066  -4.581  0.00  0.00     0.066 H 
ATOM     36  H   LIG d   1       4.963  -7.458  -6.285  0.00  0.00     0.066 H 
ENDBRANCH  32  33
ENDBRANCH  28  32
ENDBRANCH   1  22
BRANCH  14  37
ATOM     37  C   LIG d   1       3.391  -0.094  -2.752  0.00  0.00     0.023 C 
ATOM     38  H   LIG d   1       2.632   0.688  -2.754  0.00  0.00     0.047 H 
ATOM     39  H   LIG d   1       2.960  -1.018  -2.369  0.00  0.00     0.047 H 
BRANCH  37  40
ATOM     40  C   LIG d   1       4.560   0.331  -1.861  0.00  0.00     0.060 C 
ATOM     41  H   LIG d   1       4.283   1.226  -1.303  0.00  0.00     0.039 H 
ATOM     42  H   LIG d   1       4.796  -0.472  -1.164  0.00  0.00     0.039 H 
BRANCH  40  43
ATOM     43  C   LIG d   1       5.764   0.625  -2.718  0.00  0.00     0.308 C 
ATOM     44  O   LIG d   1       5.956   1.746  -3.127  0.00  0.00    -0.251 OA
BRANCH  43  45
ATOM     45  O   LIG d   1       6.624  -0.358  -3.026  0.00  0.00    -0.468 OA
BRANCH  45  46
ATOM     46  C   LIG d   1       7.439  -0.168  -4.184  0.00  0.00     0.082 C 
ATOM     47  H   LIG d   1       8.490  -0.160  -3.893  0.00  0.00     0.066 H 
ATOM     48  H   LIG d   1       7.264  -0.980  -4.889  0.00  0.00     0.066 H 
ATOM     49  H   LIG d   1       7.185   0.782  -4.654  0.00  0.00     0.066 H 
ENDBRANCH  45  46
ENDBRANCH  43  45
ENDBRANCH  40  43
ENDBRANCH  37  40
ENDBRANCH  14  37
TORSDOF 8
ENDMDL
MODEL 2
REMARK VINA RESULT:      -5.9      2.401      4.367
REMARK  8 active torsions:
REMARK  status: ('A' for Active; 'I' for Inactive)
REMARK    1  A    between atoms: C_1  and  O_2 
REMARK    2  A    between atoms: O_2  and  C_3 
REMARK    3  A    between atoms: C_7  and  C_9 
REMARK       I    between atoms: N_19  and  C_20 
REMARK       I    between atoms: C_20  and  N_22 
REMARK    4  A    between atoms: N_22  and  C_23 
REMARK    5  A    between atoms: C_23  and  C_24 
REMARK    6  A    between atoms: C_24  and  C_25 
REMARK    7  A    between atoms: C_25  and  O_27 
REMARK    8  A    between atoms: O_27  and  C_28 
ROOT
ATOM      1  C   LIG d   1       4.620  -1.656  -6.109  0.00  0.00     0.118 C 
ATOM      2  H   LIG d   1       4.118  -1.453  -5.164  0.00  0.00     0.064 H 
ATOM      3  C   LIG d   1       4.741  -3.148  -6.318  0.00  0.00     0.170 A 
ATOM      4  C   LIG d   1       5.890  -3.764  -6.666  0.00  0.00     0.148 A 
ATOM      5  N   LIG d   1       5.612  -5.094  -6.765  0.00  0.00    -0.247 N 
ATOM      6  H   LIG d   1       6.238  -5.798  -7.002  0.00  0.00     0.310 HD
ATOM      7  C   LIG d   1       4.301  -5.249  -6.469  0.00  0.00     0.243 A 
ATOM      8  N   LIG d   1       3.789  -4.076  -6.203  0.00  0.00    -0.245 N 
ATOM      9  C   LIG d   1       7.208  -3.069  -6.887  0.00  0.00     0.029 C 
ATOM     10  C   LIG d   1       6.947  -1.570  -7.094  0.00  0.00     0.025 C 
ATOM     11  N   LIG d   1       5.986  -1.104  -6.082  0.00  0.00    -0.271 N 
ATOM     12  C   LIG d   1       6.344  -0.196  -5.153  0.00  0.00     0.303 C 
ATOM     13  O   LIG d   1       7.445   0.319  -5.199  0.00  0.00    -0.253 OA
ATOM     14  N   LIG d   1       5.483   0.143  -4.173  0.00  0.00    -0.299 N 
ATOM     15  H   LIG d   1       3.767  -6.187  -6.456  0.00  0.00     0.158 H 
ATOM     16  H   LIG d   1       7.846  -3.211  -6.015  0.00  0.00     0.036 H 
ATOM     17  H   LIG d   1       7.694  -3.480  -7.771  0.00  0.00     0.036 H 
ATOM     18  H   LIG d   1       7.883  -1.020  -6.989  0.00  0.00     0.047 H 
ATOM     19  H   LIG d   1       6.537  -1.406  -8.090  0.00  0.00     0.047 H 
ATOM     20  H   LIG d   1       4.635  -0.319  -4.093  0.00  0.00     0.150 HD
ATOM     21  H   LIG d   1       2.865  -3.908  -5.960  0.00  0.00     0.310 HD
ENDROOT
BRANCH   1  22
ATOM     22  C   LIG d   1       3.840  -1.042  -7.244  0.00  0.00    -0.015 A 
ATOM     23  C   LIG d   1       3.455   0.284  -7.179  0.00  0.00    -0.056 A 
ATOM     24  C   LIG d   1       2.741   0.850  -8.219  0.00  0.00    -0.058 A 
ATOM     25  H   LIG d   1       3.711   0.878  -6.315  0.00  0.00     0.062 H 
ATOM     26  C   LIG d   1       2.411   0.093  -9.326  0.00  0.00    -0.020 A 
ATOM     27  H   LIG d   1       2.441   1.887  -8.166  0.00  0.00     0.062 H 
ATOM     28  C   LIG d   1       2.796  -1.239  -9.392  0.00  0.00     0.120 A 
ATOM     29  H   LIG d   1       1.853   0.535 -10.137  0.00  0.00     0.065 H 
ATOM     30  C   LIG d   1       3.508  -1.806  -8.347  0.00  0.00    -0.015 A 
ATOM     31  H   LIG d   1       3.806  -2.844  -8.394  0.00  0.00     0.066 H 
BRANCH  28  32
ATOM     32  O   LIG d   1       2.472  -1.987 -10.480  0.00  0.00    -0.495 OA
BRANCH  32  33
ATOM     33  C   LIG d   1       1.432  -2.953 -10.316  0.00  0.00     0.079 C 
ATOM     34  H   LIG d   1       0.921  -2.779  -9.369  0.00  0.00     0.066 H 
ATOM     35  H   LIG d   1       0.718  -2.861 -11.135  0.00  0.00     0.066 H 
ATOM     36  H   LIG d   1       1.861  -3.954 -10.319  0.00  0.00     0.066 H 
ENDBRANCH  32  33
ENDBRANCH  28  32
ENDBRANCH   1  22
BRANCH  14  37
ATOM     37  C   LIG d   1       5.828   1.210  -3.230  0.00  0.00     0.023 C 
ATOM     38  H   LIG d   1       6.863   1.088  -2.908  0.00  0.00     0.047 H 
ATOM     39  H   LIG d   1       5.711   2.177  -3.717  0.00  0.00     0.047 H 
BRANCH  37  40
ATOM     40  C   LIG d   1       4.904   1.134  -2.014  0.00  0.00     0.060 C 
ATOM     41  H   LIG d   1       5.502   1.002  -1.112  0.00  0.00     0.039 H 
ATOM     42  H   LIG d   1       4.330   2.058  -1.936  0.00  0.00     0.039 H 
BRANCH  40  43
ATOM     43  C   LIG d   1       3.962  -0.032  -2.169  0.00  0.00     0.308 C 
ATOM     44  O   LIG d   1       2.886   0.127  -2.696  0.00  0.00    -0.251 OA
BRANCH  43  45
ATOM     45  O   LIG d   1       4.320  -1.247  -1.724  0.00  0.00    -0.468 OA
BRANCH  45  46
ATOM     46  C   LIG d   1       3.867  -2.372  -2.478  0.00  0.00     0.082 C 
ATOM     47  H   LIG d   1       4.513  -2.515  -3.344  0.00  0.00     0.066 H 
ATOM     48  H   LIG d   1       3.897  -3.264  -1.852  0.00  0.00     0.066 H 
ATOM     49  H   LIG d   1       2.844  -2.197  -2.813  0.00  0.00     0.066 H 
ENDBRANCH  45  46
ENDBRANCH  43  45
ENDBRANCH  40  43
ENDBRANCH  37  40
ENDBRANCH  14  37
TORSDOF 8
ENDMDL
MODEL 3
REMARK VINA RESULT:      -5.8      1.998      4.907
REMARK  8 active torsions:
REMARK  status: ('A' for Active; 'I' for Inactive)
REMARK    1  A    between atoms: C_1  and  O_2 
REMARK    2  A    between atoms: O_2  and  C_3 
REMARK    3  A    between atoms: C_7  and  C_9 
REMARK       I    between atoms: N_19  and  C_20 
REMARK       I    between atoms: C_20  and  N_22 
REMARK    4  A    between atoms: N_22  and  C_23 
REMARK    5  A    between atoms: C_23  and  C_24 
REMARK    6  A    between atoms: C_24  and  C_25 
REMARK    7  A    between atoms: C_25  and  O_27 
REMARK    8  A    between atoms: O_27  and  C_28 
ROOT
ATOM      1  C   LIG d   1       4.672  -1.450  -5.986  0.00  0.00     0.118 C 
ATOM      2  H   LIG d   1       4.025  -0.680  -6.404  0.00  0.00     0.064 H 
ATOM      3  C   LIG d   1       4.446  -1.559  -4.496  0.00  0.00     0.170 A 
ATOM      4  C   LIG d   1       5.443  -1.565  -3.586  0.00  0.00     0.148 A 
ATOM      5  N   LIG d   1       4.859  -1.681  -2.360  0.00  0.00    -0.247 N 
ATOM      6  H   LIG d   1       5.317  -1.715  -1.504  0.00  0.00     0.310 HD
ATOM      7  C   LIG d   1       3.522  -1.737  -2.560  0.00  0.00     0.243 A 
ATOM      8  N   LIG d   1       3.286  -1.664  -3.843  0.00  0.00    -0.245 N 
ATOM      9  C   LIG d   1       6.908  -1.456  -3.913  0.00  0.00     0.029 C 
ATOM     10  C   LIG d   1       7.109  -1.785  -5.399  0.00  0.00     0.025 C 
ATOM     11  N   LIG d   1       6.085  -1.084  -6.190  0.00  0.00    -0.271 N 
ATOM     12  C   LIG d   1       6.429  -0.130  -7.078  0.00  0.00     0.303 C 
ATOM     13  O   LIG d   1       7.602   0.097  -7.302  0.00  0.00    -0.253 OA
ATOM     14  N   LIG d   1       5.472   0.572  -7.718  0.00  0.00    -0.299 N 
ATOM     15  H   LIG d   1       2.775  -1.829  -1.786  0.00  0.00     0.158 H 
ATOM     16  H   LIG d   1       7.253  -0.442  -3.714  0.00  0.00     0.036 H 
ATOM     17  H   LIG d   1       7.472  -2.163  -3.304  0.00  0.00     0.036 H 
ATOM     18  H   LIG d   1       8.100  -1.457  -5.714  0.00  0.00     0.047 H 
ATOM     19  H   LIG d   1       7.014  -2.860  -5.550  0.00  0.00     0.047 H 
ATOM     20  H   LIG d   1       4.540   0.442  -7.487  0.00  0.00     0.150 HD
ATOM     21  H   LIG d   1       2.408  -1.681  -4.256  0.00  0.00     0.310 HD
ENDROOT
BRANCH   1  22
ATOM     22  C   LIG d   1       4.384  -2.775  -6.646  0.00  0.00    -0.015 A 
ATOM     23  C   LIG d   1       4.054  -2.820  -7.987  0.00  0.00    -0.056 A 
ATOM     24  C   LIG d   1       3.791  -4.034  -8.595  0.00  0.00    -0.058 A 
ATOM     25  H   LIG d   1       4.000  -1.907  -8.561  0.00  0.00     0.062 H 
ATOM     26  C   LIG d   1       3.858  -5.204  -7.864  0.00  0.00    -0.020 A 
ATOM     27  H   LIG d   1       3.533  -4.068  -9.644  0.00  0.00     0.062 H 
ATOM     28  C   LIG d   1       4.189  -5.160  -6.518  0.00  0.00     0.120 A 
ATOM     29  H   LIG d   1       3.652  -6.152  -8.340  0.00  0.00     0.065 H 
ATOM     30  C   LIG d   1       4.448  -3.942  -5.908  0.00  0.00    -0.015 A 
ATOM     31  H   LIG d   1       4.703  -3.904  -4.859  0.00  0.00     0.066 H 
BRANCH  28  32
ATOM     32  O   LIG d   1       4.256  -6.310  -5.795  0.00  0.00    -0.495 OA
BRANCH  32  33
ATOM     33  C   LIG d   1       4.874  -7.435  -6.423  0.00  0.00     0.079 C 
ATOM     34  H   LIG d   1       5.532  -7.932  -5.711  0.00  0.00     0.066 H 
ATOM     35  H   LIG d   1       4.105  -8.133  -6.756  0.00  0.00     0.066 H 
ATOM     36  H   LIG d   1       5.454  -7.099  -7.281  0.00  0.00     0.066 H 
ENDBRANCH  32  33
ENDBRANCH  28  32
ENDBRANCH   1  22
BRANCH  14  37
ATOM     37  C   LIG d   1       5.842   1.529  -8.764  0.00  0.00     0.023 C 
ATOM     38  H   LIG d   1       6.421   2.342  -8.323  0.00  0.00     0.047 H 
ATOM     39  H   LIG d   1       6.441   1.026  -9.522  0.00  0.00     0.047 H 
BRANCH  37  40
ATOM     40  C   LIG d   1       4.575   2.096  -9.407  0.00  0.00     0.060 C 
ATOM     41  H   LIG d   1       4.601   3.185  -9.359  0.00  0.00     0.039 H 
ATOM     42  H   LIG d   1       4.525   1.780 -10.449  0.00  0.00     0.039 H 
BRANCH  40  43
ATOM     43  C   LIG d   1       3.365   1.588  -8.668  0.00  0.00     0.308 C 
ATOM     44  O   LIG d   1       2.829   2.282  -7.837  0.00  0.00    -0.251 OA
BRANCH  43  45
ATOM     45  O   LIG d   1       2.882   0.364  -8.933  0.00  0.00    -0.468 OA
BRANCH  45  46
ATOM     46  C   LIG d   1       2.755   0.001 -10.309  0.00  0.00     0.082 C 
ATOM     47  H   LIG d   1       3.470  -0.786 -10.545  0.00  0.00     0.066 H 
ATOM     48  H   LIG d   1       1.743  -0.359 -10.497  0.00  0.00     0.066 H 
ATOM     49  H   LIG d   1       2.952   0.872 -10.933  0.00  0.00     0.066 H 
ENDBRANCH  45  46
ENDBRANCH  43  45
ENDBRANCH  40  43
ENDBRANCH  37  40
ENDBRANCH  14  37
TORSDOF 8
ENDMDL
MODEL 4
REMARK VINA RESULT:      -5.7      2.600      4.972
REMARK  8 active torsions:
REMARK  status: ('A' for Active; 'I' for Inactive)
REMARK    1  A    between atoms: C_1  and  O_2 
REMARK    2  A    between atoms: O_2  and  C_3 
REMARK    3  A    between atoms: C_7  and  C_9 
REMARK       I    between atoms: N_19  and  C_20 
REMARK       I    between atoms: C_20  and  N_22 
REMARK    4  A    between atoms: N_22  and  C_23 
REMARK    5  A    between atoms: C_23  and  C_24 
REMARK    6  A    between atoms: C_24  and  C_25 
REMARK    7  A    between atoms: C_25  and  O_27 
REMARK    8  A    between atoms: O_27  and  C_28 
ROOT
ATOM      1  C   LIG d   1       3.636  -2.136  -7.747  0.00  0.00     0.118 C 
ATOM      2  H   LIG d   1       2.859  -2.301  -7.002  0.00  0.00     0.064 H 
ATOM      3  C   LIG d   1       3.524  -3.169  -8.845  0.00  0.00     0.170 A 
ATOM      4  C   LIG d   1       4.568  -3.894  -9.300  0.00  0.00     0.148 A 
ATOM      5  N   LIG d   1       4.087  -4.707 -10.282  0.00  0.00    -0.247 N 
ATOM      6  H   LIG d   1       4.598  -5.347 -10.802  0.00  0.00     0.310 HD
ATOM      7  C   LIG d   1       2.762  -4.456 -10.392  0.00  0.00     0.243 A 
ATOM      8  N   LIG d   1       2.436  -3.532  -9.527  0.00  0.00    -0.245 N 
ATOM      9  C   LIG d   1       5.978  -3.792  -8.783  0.00  0.00     0.029 C 
ATOM     10  C   LIG d   1       6.129  -2.472  -8.014  0.00  0.00     0.025 C 
ATOM     11  N   LIG d   1       4.965  -2.294  -7.130  0.00  0.00    -0.271 N 
ATOM     12  C   LIG d   1       5.110  -2.277  -5.790  0.00  0.00     0.303 C 
ATOM     13  O   LIG d   1       6.221  -2.315  -5.298  0.00  0.00    -0.253 OA
ATOM     14  N   LIG d   1       4.023  -2.215  -4.995  0.00  0.00    -0.299 N 
ATOM     15  H   LIG d   1       2.086  -4.938 -11.083  0.00  0.00     0.158 H 
ATOM     16  H   LIG d   1       6.184  -4.629  -8.115  0.00  0.00     0.036 H 
ATOM     17  H   LIG d   1       6.676  -3.808  -9.620  0.00  0.00     0.036 H 
ATOM     18  H   LIG d   1       7.040  -2.501  -7.416  0.00  0.00     0.047 H 
ATOM     19  H   LIG d   1       6.181  -1.643  -8.720  0.00  0.00     0.047 H 
ATOM     20  H   LIG d   1       3.136  -2.258  -5.384  0.00  0.00     0.150 HD
ATOM     21  H   LIG d   1       1.545  -3.169  -9.400  0.00  0.00     0.310 HD
ENDROOT
BRANCH   1  22
ATOM     22  C   LIG d   1       3.502  -0.752  -8.330  0.00  0.00    -0.015 A 
ATOM     23  C   LIG d   1       3.048   0.288  -7.541  0.00  0.00    -0.056 A 
ATOM     24  C   LIG d   1       2.924   1.558  -8.073  0.00  0.00    -0.058 A 
ATOM     25  H   LIG d   1       2.788   0.108  -6.509  0.00  0.00     0.062 H 
ATOM     26  C   LIG d   1       3.256   1.792  -9.393  0.00  0.00    -0.020 A 
ATOM     27  H   LIG d   1       2.569   2.370  -7.455  0.00  0.00     0.062 H 
ATOM     28  C   LIG d   1       3.711   0.748 -10.187  0.00  0.00     0.120 A 
ATOM     29  H   LIG d   1       3.159   2.784  -9.808  0.00  0.00     0.065 H 
ATOM     30  C   LIG d   1       3.829  -0.526  -9.654  0.00  0.00    -0.015 A 
ATOM     31  H   LIG d   1       4.181  -1.341 -10.270  0.00  0.00     0.066 H 
BRANCH  28  32
ATOM     32  O   LIG d   1       4.037   0.975 -11.487  0.00  0.00    -0.495 OA
BRANCH  32  33
ATOM     33  C   LIG d   1       4.333  -0.170 -12.290  0.00  0.00     0.079 C 
ATOM     34  H   LIG d   1       3.516  -0.888 -12.214  0.00  0.00     0.066 H 
ATOM     35  H   LIG d   1       4.452   0.136 -13.329  0.00  0.00     0.066 H 
ATOM     36  H   LIG d   1       5.255  -0.631 -11.939  0.00  0.00     0.066 H 
ENDBRANCH  32  33
ENDBRANCH  28  32
ENDBRANCH   1  22
BRANCH  14  37
ATOM     37  C   LIG d   1       4.183  -2.083  -3.545  0.00  0.00     0.023 C 
ATOM     38  H   LIG d   1       4.164  -3.072  -3.086  0.00  0.00     0.047 H 
ATOM     39  H   LIG d   1       5.135  -1.600  -3.326  0.00  0.00     0.047 H 
BRANCH  37  40
ATOM     40  C   LIG d   1       3.040  -1.238  -2.980  0.00  0.00     0.060 C 
ATOM     41  H   LIG d   1       2.136  -1.844  -2.922  0.00  0.00     0.039 H 
ATOM     42  H   LIG d   1       3.306  -0.886  -1.984  0.00  0.00     0.039 H 
BRANCH  40  43
ATOM     43  C   LIG d   1       2.797  -0.055  -3.882  0.00  0.00     0.308 C 
ATOM     44  O   LIG d   1       1.782   0.008  -4.535  0.00  0.00    -0.251 OA
BRANCH  43  45
ATOM     45  O   LIG d   1       3.707   0.928  -3.959  0.00  0.00    -0.468 OA
BRANCH  45  46
ATOM     46  C   LIG d   1       4.099   1.547  -2.733  0.00  0.00     0.082 C 
ATOM     47  H   LIG d   1       4.665   2.454  -2.947  0.00  0.00     0.066 H 
ATOM     48  H   LIG d   1       3.210   1.802  -2.155  0.00  0.00     0.066 H 
ATOM     49  H   LIG d   1       4.720   0.858  -2.161  0.00  0.00     0.066 H 
ENDBRANCH  45  46
ENDBRANCH  43  45
ENDBRANCH  40  43
ENDBRANCH  37  40
ENDBRANCH  14  37
TORSDOF 8
ENDMDL
MODEL 5
REMARK VINA RESULT:      -5.6      2.549      4.512
REMARK  8 active torsions:
REMARK  status: ('A' for Active; 'I' for Inactive)
REMARK    1  A    between atoms: C_1  and  O_2 
REMARK    2  A    between atoms: O_2  and  C_3 
REMARK    3  A    between atoms: C_7  and  C_9 
REMARK       I    between atoms: N_19  and  C_20 
REMARK       I    between atoms: C_20  and  N_22 
REMARK    4  A    between atoms: N_22  and  C_23 
REMARK    5  A    between atoms: C_23  and  C_24 
REMARK    6  A    between atoms: C_24  and  C_25 
REMARK    7  A    between atoms: C_25  and  O_27 
REMARK    8  A    between atoms: O_27  and  C_28 
ROOT
ATOM      1  C   LIG d   1       4.509  -0.517  -7.824  0.00  0.00     0.118 C 
ATOM      2  H   LIG d   1       5.571  -0.760  -7.820  0.00  0.00     0.064 H 
ATOM      3  C   LIG d   1       3.736  -1.596  -8.547  0.00  0.00     0.170 A 
ATOM      4  C   LIG d   1       2.826  -1.346  -9.513  0.00  0.00     0.148 A 
ATOM      5  N   LIG d   1       2.341  -2.552  -9.921  0.00  0.00    -0.247 N 
ATOM      6  H   LIG d   1       1.669  -2.700 -10.605  0.00  0.00     0.310 HD
ATOM      7  C   LIG d   1       2.974  -3.501  -9.195  0.00  0.00     0.243 A 
ATOM      8  N   LIG d   1       3.807  -2.918  -8.374  0.00  0.00    -0.245 N 
ATOM      9  C   LIG d   1       2.457   0.025 -10.013  0.00  0.00     0.029 C 
ATOM     10  C   LIG d   1       2.917   1.068  -8.985  0.00  0.00     0.025 C 
ATOM     11  N   LIG d   1       4.285   0.745  -8.551  0.00  0.00    -0.271 N 
ATOM     12  C   LIG d   1       5.309   1.582  -8.811  0.00  0.00     0.303 C 
ATOM     13  O   LIG d   1       5.097   2.661  -9.330  0.00  0.00    -0.253 OA
ATOM     14  N   LIG d   1       6.571   1.223  -8.497  0.00  0.00    -0.299 N 
ATOM     15  H   LIG d   1       2.814  -4.566  -9.278  0.00  0.00     0.158 H 
ATOM     16  H   LIG d   1       2.950   0.211 -10.967  0.00  0.00     0.036 H 
ATOM     17  H   LIG d   1       1.376   0.089 -10.139  0.00  0.00     0.036 H 
ATOM     18  H   LIG d   1       2.903   2.059  -9.440  0.00  0.00     0.047 H 
ATOM     19  H   LIG d   1       2.247   1.051  -8.125  0.00  0.00     0.047 H 
ATOM     20  H   LIG d   1       6.749   0.335  -8.152  0.00  0.00     0.150 HD
ATOM     21  H   LIG d   1       4.386  -3.372  -7.742  0.00  0.00     0.310 HD
ENDROOT
BRANCH   1  22
ATOM     22  C   LIG d   1       4.007  -0.390  -6.408  0.00  0.00    -0.015 A 
ATOM     23  C   LIG d   1       2.830   0.286  -6.151  0.00  0.00    -0.056 A 
ATOM     24  C   LIG d   1       2.366   0.404  -4.854  0.00  0.00    -0.058 A 
ATOM     25  H   LIG d   1       2.271   0.724  -6.965  0.00  0.00     0.062 H 
ATOM     26  C   LIG d   1       3.079  -0.156  -3.811  0.00  0.00    -0.020 A 
ATOM     27  H   LIG d   1       1.446   0.932  -4.655  0.00  0.00     0.062 H 
ATOM     28  C   LIG d   1       4.262  -0.834  -4.067  0.00  0.00     0.120 A 
ATOM     29  H   LIG d   1       2.717  -0.064  -2.797  0.00  0.00     0.065 H 
ATOM     30  C   LIG d   1       4.727  -0.947  -5.368  0.00  0.00    -0.015 A 
ATOM     31  H   LIG d   1       5.650  -1.472  -5.570  0.00  0.00     0.066 H 
BRANCH  28  32
ATOM     32  O   LIG d   1       4.966  -1.385  -3.043  0.00  0.00    -0.495 OA
BRANCH  32  33
ATOM     33  C   LIG d   1       6.369  -1.568  -3.245  0.00  0.00     0.079 C 
ATOM     34  H   LIG d   1       6.546  -1.927  -4.258  0.00  0.00     0.066 H 
ATOM     35  H   LIG d   1       6.883  -0.618  -3.101  0.00  0.00     0.066 H 
ATOM     36  H   LIG d   1       6.747  -2.297  -2.529  0.00  0.00     0.066 H 
ENDBRANCH  32  33
ENDBRANCH  28  32
ENDBRANCH   1  22
BRANCH  14  37
ATOM     37  C   LIG d   1       7.670   2.174  -8.676  0.00  0.00     0.023 C 
ATOM     38  H   LIG d   1       8.255   1.892  -9.552  0.00  0.00     0.047 H 
ATOM     39  H   LIG d   1       7.264   3.176  -8.818  0.00  0.00     0.047 H 
BRANCH  37  40
ATOM     40  C   LIG d   1       8.567   2.158  -7.437  0.00  0.00     0.060 C 
ATOM     41  H   LIG d   1       9.587   1.911  -7.732  0.00  0.00     0.039 H 
ATOM     42  H   LIG d   1       8.553   3.140  -6.966  0.00  0.00     0.039 H 
BRANCH  40  43
ATOM     43  C   LIG d   1       8.060   1.125  -6.464  0.00  0.00     0.308 C 
ATOM     44  O   LIG d   1       8.399  -0.029  -6.575  0.00  0.00    -0.251 OA
BRANCH  43  45
ATOM     45  O   LIG d   1       7.231   1.488  -5.472  0.00  0.00    -0.468 OA
BRANCH  45  46
ATOM     46  C   LIG d   1       7.823   1.761  -4.200  0.00  0.00     0.082 C 
ATOM     47  H   LIG d   1       7.124   2.330  -3.588  0.00  0.00     0.066 H 
ATOM     48  H   LIG d   1       8.062   0.822  -3.702  0.00  0.00     0.066 H 
ATOM     49  H   LIG d   1       8.736   2.340  -4.342  0.00  0.00     0.066 H 
ENDBRANCH  45  46
ENDBRANCH  43  45
ENDBRANCH  40  43
ENDBRANCH  37  40
ENDBRANCH  14  37
TORSDOF 8
ENDMDL
MODEL 6
REMARK VINA RESULT:      -5.5      1.962      4.464
REMARK  8 active torsions:
REMARK  status: ('A' for Active; 'I' for Inactive)
REMARK    1  A    between atoms: C_1  and  O_2 
REMARK    2  A    between atoms: O_2  and  C_3 
REMARK    3  A    between atoms: C_7  and  C_9 
REMARK       I    between atoms: N_19  and  C_20 
REMARK       I    between atoms: C_20  and  N_22 
REMARK    4  A    between atoms: N_22  and  C_23 
REMARK    5  A    between atoms: C_23  and  C_24 
REMARK    6  A    between atoms: C_24  and  C_25 
REMARK    7  A    between atoms: C_25  and  O_27 
REMARK    8  A    between atoms: O_27  and  C_28 
ROOT
ATOM      1  C   LIG d   1       4.062  -0.924  -6.867  0.00  0.00     0.118 C 
ATOM      2  H   LIG d   1       3.505  -0.455  -6.057  0.00  0.00     0.064 H 
ATOM      3  C   LIG d   1       3.191  -1.028  -8.098  0.00  0.00     0.170 A 
ATOM      4  C   LIG d   1       3.042  -2.161  -8.816  0.00  0.00     0.148 A 
ATOM      5  N   LIG d   1       2.195  -1.871  -9.843  0.00  0.00    -0.247 N 
ATOM      6  H   LIG d   1       1.895  -2.483 -10.534  0.00  0.00     0.310 HD
ATOM      7  C   LIG d   1       1.848  -0.569  -9.716  0.00  0.00     0.243 A 
ATOM      8  N   LIG d   1       2.451  -0.074  -8.667  0.00  0.00    -0.245 N 
ATOM      9  C   LIG d   1       3.705  -3.475  -8.499  0.00  0.00     0.029 C 
ATOM     10  C   LIG d   1       4.880  -3.219  -7.545  0.00  0.00     0.025 C 
ATOM     11  N   LIG d   1       4.447  -2.294  -6.486  0.00  0.00    -0.271 N 
ATOM     12  C   LIG d   1       4.404  -2.689  -5.198  0.00  0.00     0.303 C 
ATOM     13  O   LIG d   1       4.811  -3.791  -4.886  0.00  0.00    -0.253 OA
ATOM     14  N   LIG d   1       3.909  -1.863  -4.255  0.00  0.00    -0.299 N 
ATOM     15  H   LIG d   1       1.184  -0.029 -10.374  0.00  0.00     0.158 H 
ATOM     16  H   LIG d   1       2.987  -4.141  -8.022  0.00  0.00     0.036 H 
ATOM     17  H   LIG d   1       4.074  -3.930  -9.419  0.00  0.00     0.036 H 
ATOM     18  H   LIG d   1       5.199  -4.161  -7.099  0.00  0.00     0.047 H 
ATOM     19  H   LIG d   1       5.709  -2.777  -8.099  0.00  0.00     0.047 H 
ATOM     20  H   LIG d   1       3.517  -1.014  -4.513  0.00  0.00     0.150 HD
ATOM     21  H   LIG d   1       2.373   0.840  -8.352  0.00  0.00     0.310 HD
ENDROOT
BRANCH   1  22
ATOM     22  C   LIG d   1       5.293  -0.112  -7.179  0.00  0.00    -0.015 A 
ATOM     23  C   LIG d   1       5.391   0.558  -8.384  0.00  0.00    -0.056 A 
ATOM     24  C   LIG d   1       6.519   1.304  -8.673  0.00  0.00    -0.058 A 
ATOM     25  H   LIG d   1       4.587   0.498  -9.101  0.00  0.00     0.062 H 
ATOM     26  C   LIG d   1       7.550   1.383  -7.757  0.00  0.00    -0.020 A 
ATOM     27  H   LIG d   1       6.594   1.827  -9.615  0.00  0.00     0.062 H 
ATOM     28  C   LIG d   1       7.454   0.711  -6.547  0.00  0.00     0.120 A 
ATOM     29  H   LIG d   1       8.431   1.966  -7.983  0.00  0.00     0.065 H 
ATOM     30  C   LIG d   1       6.324  -0.041  -6.261  0.00  0.00    -0.015 A 
ATOM     31  H   LIG d   1       6.248  -0.568  -5.322  0.00  0.00     0.066 H 
BRANCH  28  32
ATOM     32  O   LIG d   1       8.467   0.786  -5.644  0.00  0.00    -0.495 OA
BRANCH  32  33
ATOM     33  C   LIG d   1       8.387   1.823  -4.665  0.00  0.00     0.079 C 
ATOM     34  H   LIG d   1       9.035   1.579  -3.823  0.00  0.00     0.066 H 
ATOM     35  H   LIG d   1       8.708   2.767  -5.108  0.00  0.00     0.066 H 
ATOM     36  H   LIG d   1       7.359   1.917  -4.318  0.00  0.00     0.066 H 
ENDBRANCH  32  33
ENDBRANCH  28  32
ENDBRANCH   1  22
BRANCH  14  37
ATOM     37  C   LIG d   1       3.963  -2.246  -2.842  0.00  0.00     0.023 C 
ATOM     38  H   LIG d   1       2.989  -2.627  -2.532  0.00  0.00     0.047 H 
ATOM     39  H   LIG d   1       4.716  -3.021  -2.705  0.00  0.00     0.047 H 
BRANCH  37  40
ATOM     40  C   LIG d   1       4.326  -1.025  -1.995  0.00  0.00     0.060 C 
ATOM     41  H   LIG d   1       3.427  -0.441  -1.797  0.00  0.00     0.039 H 
ATOM     42  H   LIG d   1       4.761  -1.354  -1.052  0.00  0.00     0.039 H 
BRANCH  40  43
ATOM     43  C   LIG d   1       5.324  -0.176  -2.740  0.00  0.00     0.308 C 
ATOM     44  O   LIG d   1       6.447  -0.583  -2.922  0.00  0.00    -0.251 OA
BRANCH  43  45
ATOM     45  O   LIG d   1       4.964   1.032  -3.202  0.00  0.00    -0.468 OA
BRANCH  45  46
ATOM     46  C   LIG d   1       3.690   1.530  -2.792  0.00  0.00     0.082 C 
ATOM     47  H   LIG d   1       3.485   1.207  -1.771  0.00  0.00     0.066 H 
ATOM     48  H   LIG d   1       3.696   2.619  -2.833  0.00  0.00     0.066 H 
ATOM     49  H   LIG d   1       2.918   1.145  -3.458  0.00  0.00     0.066 H 
ENDBRANCH  45  46
ENDBRANCH  43  45
ENDBRANCH  40  43
ENDBRANCH  37  40
ENDBRANCH  14  37
TORSDOF 8
ENDMDL
MODEL 7
REMARK VINA RESULT:      -5.5      1.930      5.917
REMARK  8 active torsions:
REMARK  status: ('A' for Active; 'I' for Inactive)
REMARK    1  A    between atoms: C_1  and  O_2 
REMARK    2  A    between atoms: O_2  and  C_3 
REMARK    3  A    between atoms: C_7  and  C_9 
REMARK       I    between atoms: N_19  and  C_20 
REMARK       I    between atoms: C_20  and  N_22 
REMARK    4  A    between atoms: N_22  and  C_23 
REMARK    5  A    between atoms: C_23  and  C_24 
REMARK    6  A    between atoms: C_24  and  C_25 
REMARK    7  A    between atoms: C_25  and  O_27 
REMARK    8  A    between atoms: O_27  and  C_28 
ROOT
ATOM      1  C   LIG d   1       4.893  -1.986  -5.929  0.00  0.00     0.118 C 
ATOM      2  H   LIG d   1       4.373  -2.942  -5.910  0.00  0.00     0.064 H 
ATOM      3  C   LIG d   1       4.247  -1.068  -6.941  0.00  0.00     0.170 A 
ATOM      4  C   LIG d   1       4.936  -0.385  -7.880  0.00  0.00     0.148 A 
ATOM      5  N   LIG d   1       4.025   0.331  -8.598  0.00  0.00    -0.247 N 
ATOM      6  H   LIG d   1       4.215   0.923  -9.343  0.00  0.00     0.310 HD
ATOM      7  C   LIG d   1       2.807   0.057  -8.078  0.00  0.00     0.243 A 
ATOM      8  N   LIG d   1       2.951  -0.782  -7.086  0.00  0.00    -0.245 N 
ATOM      9  C   LIG d   1       6.430  -0.440  -8.062  0.00  0.00     0.029 C 
ATOM     10  C   LIG d   1       7.063  -1.009  -6.785  0.00  0.00     0.025 C 
ATOM     11  N   LIG d   1       6.293  -2.183  -6.347  0.00  0.00    -0.271 N 
ATOM     12  C   LIG d   1       6.851  -3.410  -6.327  0.00  0.00     0.303 C 
ATOM     13  O   LIG d   1       8.031  -3.544  -6.586  0.00  0.00    -0.253 OA
ATOM     14  N   LIG d   1       6.102  -4.488  -6.021  0.00  0.00    -0.299 N 
ATOM     15  H   LIG d   1       1.870   0.466  -8.424  0.00  0.00     0.158 H 
ATOM     16  H   LIG d   1       6.671  -1.085  -8.907  0.00  0.00     0.036 H 
ATOM     17  H   LIG d   1       6.813   0.564  -8.244  0.00  0.00     0.036 H 
ATOM     18  H   LIG d   1       8.093  -1.304  -6.989  0.00  0.00     0.047 H 
ATOM     19  H   LIG d   1       7.048  -0.250  -6.002  0.00  0.00     0.047 H 
ATOM     20  H   LIG d   1       5.147  -4.391  -5.887  0.00  0.00     0.150 HD
ATOM     21  H   LIG d   1       2.232  -1.140  -6.542  0.00  0.00     0.310 HD
ENDROOT
BRANCH   1  22
ATOM     22  C   LIG d   1       4.849  -1.351  -4.562  0.00  0.00    -0.015 A 
ATOM     23  C   LIG d   1       4.077  -1.915  -3.564  0.00  0.00    -0.056 A 
ATOM     24  C   LIG d   1       4.036  -1.336  -2.309  0.00  0.00    -0.058 A 
ATOM     25  H   LIG d   1       3.505  -2.809  -3.765  0.00  0.00     0.062 H 
ATOM     26  C   LIG d   1       4.767  -0.193  -2.049  0.00  0.00    -0.020 A 
ATOM     27  H   LIG d   1       3.432  -1.778  -1.530  0.00  0.00     0.062 H 
ATOM     28  C   LIG d   1       5.542   0.375  -3.050  0.00  0.00     0.120 A 
ATOM     29  H   LIG d   1       4.734   0.259  -1.069  0.00  0.00     0.065 H 
ATOM     30  C   LIG d   1       5.578  -0.204  -4.310  0.00  0.00    -0.015 A 
ATOM     31  H   LIG d   1       6.178   0.238  -5.092  0.00  0.00     0.066 H 
BRANCH  28  32
ATOM     32  O   LIG d   1       6.261   1.500  -2.798  0.00  0.00    -0.495 OA
BRANCH  32  33
ATOM     33  C   LIG d   1       7.390   1.750  -3.638  0.00  0.00     0.079 C 
ATOM     34  H   LIG d   1       8.300   1.733  -3.039  0.00  0.00     0.066 H 
ATOM     35  H   LIG d   1       7.447   0.980  -4.408  0.00  0.00     0.066 H 
ATOM     36  H   LIG d   1       7.283   2.726  -4.110  0.00  0.00     0.066 H 
ENDBRANCH  32  33
ENDBRANCH  28  32
ENDBRANCH   1  22
BRANCH  14  37
ATOM     37  C   LIG d   1       6.730  -5.804  -5.891  0.00  0.00     0.023 C 
ATOM     38  H   LIG d   1       7.438  -5.951  -6.708  0.00  0.00     0.047 H 
ATOM     39  H   LIG d   1       7.258  -5.863  -4.939  0.00  0.00     0.047 H 
BRANCH  37  40
ATOM     40  C   LIG d   1       5.655  -6.891  -5.945  0.00  0.00     0.060 C 
ATOM     41  H   LIG d   1       5.948  -7.654  -6.667  0.00  0.00     0.039 H 
ATOM     42  H   LIG d   1       5.547  -7.345  -4.961  0.00  0.00     0.039 H 
BRANCH  40  43
ATOM     43  C   LIG d   1       4.343  -6.279  -6.364  0.00  0.00     0.308 C 
ATOM     44  O   LIG d   1       3.642  -5.734  -5.545  0.00  0.00    -0.251 OA
BRANCH  43  45
ATOM     45  O   LIG d   1       3.954  -6.339  -7.647  0.00  0.00    -0.468 OA
BRANCH  45  46
ATOM     46  C   LIG d   1       3.517  -5.120  -8.250  0.00  0.00     0.082 C 
ATOM     47  H   LIG d   1       3.676  -5.169  -9.327  0.00  0.00     0.066 H 
ATOM     48  H   LIG d   1       2.457  -4.973  -8.045  0.00  0.00     0.066 H 
ATOM     49  H   LIG d   1       4.086  -4.287  -7.837  0.00  0.00     0.066 H 
ENDBRANCH  45  46
ENDBRANCH  43  45
ENDBRANCH  40  43
ENDBRANCH  37  40
ENDBRANCH  14  37
TORSDOF 8
ENDMDL
MODEL 8
REMARK VINA RESULT:      -5.5      2.591      5.959
REMARK  8 active torsions:
REMARK  status: ('A' for Active; 'I' for Inactive)
REMARK    1  A    between atoms: C_1  and  O_2 
REMARK    2  A    between atoms: O_2  and  C_3 
REMARK    3  A    between atoms: C_7  and  C_9 
REMARK       I    between atoms: N_19  and  C_20 
REMARK       I    between atoms: C_20  and  N_22 
REMARK    4  A    between atoms: N_22  and  C_23 
REMARK    5  A    between atoms: C_23  and  C_24 
REMARK    6  A    between atoms: C_24  and  C_25 
REMARK    7  A    between atoms: C_25  and  O_27 
REMARK    8  A    between atoms: O_27  and  C_28 
ROOT
ATOM      1  C   LIG d   1       5.389  -2.871  -6.057  0.00  0.00     0.118 C 
ATOM      2  H   LIG d   1       5.361  -2.215  -6.926  0.00  0.00     0.064 H 
ATOM      3  C   LIG d   1       6.822  -3.191  -5.701  0.00  0.00     0.170 A 
ATOM      4  C   LIG d   1       7.276  -4.443  -5.475  0.00  0.00     0.148 A 
ATOM      5  N   LIG d   1       8.602  -4.336  -5.180  0.00  0.00    -0.247 N 
ATOM      6  H   LIG d   1       9.206  -5.066  -4.969  0.00  0.00     0.310 HD
ATOM      7  C   LIG d   1       8.918  -3.022  -5.241  0.00  0.00     0.243 A 
ATOM      8  N   LIG d   1       7.844  -2.345  -5.553  0.00  0.00    -0.245 N 
ATOM      9  C   LIG d   1       6.436  -5.690  -5.551  0.00  0.00     0.029 C 
ATOM     10  C   LIG d   1       4.955  -5.294  -5.478  0.00  0.00     0.025 C 
ATOM     11  N   LIG d   1       4.719  -4.146  -6.367  0.00  0.00    -0.271 N 
ATOM     12  C   LIG d   1       3.910  -4.256  -7.440  0.00  0.00     0.303 C 
ATOM     13  O   LIG d   1       3.291  -5.285  -7.632  0.00  0.00    -0.253 OA
ATOM     14  N   LIG d   1       3.785  -3.225  -8.300  0.00  0.00    -0.299 N 
ATOM     15  H   LIG d   1       9.896  -2.603  -5.060  0.00  0.00     0.158 H 
ATOM     16  H   LIG d   1       6.630  -6.204  -6.492  0.00  0.00     0.036 H 
ATOM     17  H   LIG d   1       6.679  -6.346  -4.716  0.00  0.00     0.036 H 
ATOM     18  H   LIG d   1       4.337  -6.134  -5.795  0.00  0.00     0.047 H 
ATOM     19  H   LIG d   1       4.701  -5.020  -4.453  0.00  0.00     0.047 H 
ATOM     20  H   LIG d   1       4.333  -2.433  -8.188  0.00  0.00     0.150 HD
ATOM     21  H   LIG d   1       7.798  -1.382  -5.662  0.00  0.00     0.310 HD
ENDROOT
BRANCH   1  22
ATOM     22  C   LIG d   1       4.709  -2.203  -4.889  0.00  0.00    -0.015 A 
ATOM     23  C   LIG d   1       4.539  -2.893  -3.703  0.00  0.00    -0.056 A 
ATOM     24  C   LIG d   1       3.916  -2.284  -2.629  0.00  0.00    -0.058 A 
ATOM     25  H   LIG d   1       4.893  -3.910  -3.615  0.00  0.00     0.062 H 
ATOM     26  C   LIG d   1       3.463  -0.984  -2.739  0.00  0.00    -0.020 A 
ATOM     27  H   LIG d   1       3.785  -2.824  -1.704  0.00  0.00     0.062 H 
ATOM     28  C   LIG d   1       3.632  -0.290  -3.929  0.00  0.00     0.120 A 
ATOM     29  H   LIG d   1       2.976  -0.508  -1.900  0.00  0.00     0.065 H 
ATOM     30  C   LIG d   1       4.252  -0.904  -5.006  0.00  0.00    -0.015 A 
ATOM     31  H   LIG d   1       4.382  -0.368  -5.934  0.00  0.00     0.066 H 
BRANCH  28  32
ATOM     32  O   LIG d   1       3.185   0.989  -4.039  0.00  0.00    -0.495 OA
BRANCH  32  33
ATOM     33  C   LIG d   1       3.574   1.903  -3.012  0.00  0.00     0.079 C 
ATOM     34  H   LIG d   1       3.621   2.912  -3.421  0.00  0.00     0.066 H 
ATOM     35  H   LIG d   1       2.844   1.872  -2.203  0.00  0.00     0.066 H 
ATOM     36  H   LIG d   1       4.554   1.621  -2.627  0.00  0.00     0.066 H 
ENDBRANCH  32  33
ENDBRANCH  28  32
ENDBRANCH   1  22
BRANCH  14  37
ATOM     37  C   LIG d   1       2.824  -3.302  -9.402  0.00  0.00     0.023 C 
ATOM     38  H   LIG d   1       3.303  -3.755 -10.271  0.00  0.00     0.047 H 
ATOM     39  H   LIG d   1       1.972  -3.911  -9.100  0.00  0.00     0.047 H 
BRANCH  37  40
ATOM     40  C   LIG d   1       2.344  -1.895  -9.760  0.00  0.00     0.060 C 
ATOM     41  H   LIG d   1       2.594  -1.680 -10.800  0.00  0.00     0.039 H 
ATOM     42  H   LIG d   1       1.264  -1.834  -9.627  0.00  0.00     0.039 H 
BRANCH  40  43
ATOM     43  C   LIG d   1       3.019  -0.890  -8.863  0.00  0.00     0.308 C 
ATOM     44  O   LIG d   1       2.422  -0.424  -7.921  0.00  0.00    -0.251 OA
BRANCH  43  45
ATOM     45  O   LIG d   1       4.284  -0.514  -9.108  0.00  0.00    -0.468 OA
BRANCH  45  46
ATOM     46  C   LIG d   1       4.802   0.564  -8.328  0.00  0.00     0.082 C 
ATOM     47  H   LIG d   1       5.230   0.173  -7.404  0.00  0.00     0.066 H 
ATOM     48  H   LIG d   1       5.576   1.084  -8.894  0.00  0.00     0.066 H 
ATOM     49  H   LIG d   1       3.998   1.260  -8.089  0.00  0.00     0.066 H 
ENDBRANCH  45  46
ENDBRANCH  43  45
ENDBRANCH  40  43
ENDBRANCH  37  40
ENDBRANCH  14  37
TORSDOF 8
ENDMDL
MODEL 9
REMARK VINA RESULT:      -5.5      7.166     10.312
REMARK  8 active torsions:
REMARK  status: ('A' for Active; 'I' for Inactive)
REMARK    1  A    between atoms: C_1  and  O_2 
REMARK    2  A    between atoms: O_2  and  C_3 
REMARK    3  A    between atoms: C_7  and  C_9 
REMARK       I    between atoms: N_19  and  C_20 
REMARK       I    between atoms: C_20  and  N_22 
REMARK    4  A    between atoms: N_22  and  C_23 
REMARK    5  A    between atoms: C_23  and  C_24 
REMARK    6  A    between atoms: C_24  and  C_25 
REMARK    7  A    between atoms: C_25  and  O_27 
REMARK    8  A    between atoms: O_27  and  C_28 
ROOT
ATOM      1  C   LIG d   1       9.730   4.350  -3.377  0.00  0.00     0.118 C 
ATOM      2  H   LIG d   1       9.023   4.706  -2.629  0.00  0.00     0.064 H 
ATOM      3  C   LIG d   1       9.379   2.938  -3.785  0.00  0.00     0.170 A 
ATOM      4  C   LIG d   1      10.274   1.928  -3.836  0.00  0.00     0.148 A 
ATOM      5  N   LIG d   1       9.597   0.819  -4.245  0.00  0.00    -0.247 N 
ATOM      6  H   LIG d   1       9.970  -0.067  -4.379  0.00  0.00     0.310 HD
ATOM      7  C   LIG d   1       8.307   1.185  -4.427  0.00  0.00     0.243 A 
ATOM      8  N   LIG d   1       8.187   2.456  -4.148  0.00  0.00    -0.245 N 
ATOM      9  C   LIG d   1      11.734   2.054  -3.490  0.00  0.00     0.029 C 
ATOM     10  C   LIG d   1      12.121   3.539  -3.513  0.00  0.00     0.025 C 
ATOM     11  N   LIG d   1      11.089   4.317  -2.810  0.00  0.00    -0.271 N 
ATOM     12  C   LIG d   1      11.379   4.983  -1.674  0.00  0.00     0.303 C 
ATOM     13  O   LIG d   1      12.524   5.023  -1.268  0.00  0.00    -0.253 OA
ATOM     14  N   LIG d   1      10.399   5.606  -0.989  0.00  0.00    -0.299 N 
ATOM     15  H   LIG d   1       7.509   0.534  -4.750  0.00  0.00     0.158 H 
ATOM     16  H   LIG d   1      11.910   1.646  -2.495  0.00  0.00     0.036 H 
ATOM     17  H   LIG d   1      12.331   1.509  -4.222  0.00  0.00     0.036 H 
ATOM     18  H   LIG d   1      13.082   3.672  -3.015  0.00  0.00     0.047 H 
ATOM     19  H   LIG d   1      12.195   3.880  -4.546  0.00  0.00     0.047 H 
ATOM     20  H   LIG d   1       9.477   5.514  -1.272  0.00  0.00     0.150 HD
ATOM     21  H   LIG d   1       7.365   2.969  -4.197  0.00  0.00     0.310 HD
ENDROOT
BRANCH   1  22
ATOM     22  C   LIG d   1       9.698   5.253  -4.584  0.00  0.00    -0.015 A 
ATOM     23  C   LIG d   1       9.913   4.729  -5.844  0.00  0.00    -0.056 A 
ATOM     24  C   LIG d   1       9.884   5.555  -6.953  0.00  0.00    -0.058 A 
ATOM     25  H   LIG d   1      10.105   3.674  -5.964  0.00  0.00     0.062 H 
ATOM     26  C   LIG d   1       9.639   6.906  -6.803  0.00  0.00    -0.020 A 
ATOM     27  H   LIG d   1      10.052   5.144  -7.937  0.00  0.00     0.062 H 
ATOM     28  C   LIG d   1       9.424   7.434  -5.538  0.00  0.00     0.120 A 
ATOM     29  H   LIG d   1       9.616   7.551  -7.669  0.00  0.00     0.065 H 
ATOM     30  C   LIG d   1       9.458   6.605  -4.427  0.00  0.00    -0.015 A 
ATOM     31  H   LIG d   1       9.294   7.014  -3.441  0.00  0.00     0.066 H 
BRANCH  28  32
ATOM     32  O   LIG d   1       9.183   8.764  -5.387  0.00  0.00    -0.495 OA
BRANCH  32  33
ATOM     33  C   LIG d   1       9.789   9.644  -6.336  0.00  0.00     0.079 C 
ATOM     34  H   LIG d   1      10.439  10.347  -5.817  0.00  0.00     0.066 H 
ATOM     35  H   LIG d   1      10.378   9.062  -7.046  0.00  0.00     0.066 H 
ATOM     36  H   LIG d   1       9.014  10.191  -6.871  0.00  0.00     0.066 H 
ENDBRANCH  32  33
ENDBRANCH  28  32
ENDBRANCH   1  22
BRANCH  14  37
ATOM     37  C   LIG d   1      10.729   6.423   0.181  0.00  0.00     0.023 C 
ATOM     38  H   LIG d   1       9.942   6.318   0.930  0.00  0.00     0.047 H 
ATOM     39  H   LIG d   1      11.676   6.089   0.602  0.00  0.00     0.047 H 
BRANCH  37  40
ATOM     40  C   LIG d   1      10.844   7.890  -0.236  0.00  0.00     0.060 C 
ATOM     41  H   LIG d   1      10.882   8.518   0.655  0.00  0.00     0.039 H 
ATOM     42  H   LIG d   1      11.754   8.032  -0.818  0.00  0.00     0.039 H 
BRANCH  40  43
ATOM     43  C   LIG d   1       9.648   8.271  -1.070  0.00  0.00     0.308 C 
ATOM     44  O   LIG d   1       8.582   7.736  -0.877  0.00  0.00    -0.251 OA
BRANCH  43  45
ATOM     45  O   LIG d   1       9.767   9.205  -2.026  0.00  0.00    -0.468 OA
BRANCH  45  46
ATOM     46  C   LIG d   1      11.073   9.421  -2.562  0.00  0.00     0.082 C 
ATOM     47  H   LIG d   1      11.799   8.832  -2.001  0.00  0.00     0.066 H 
ATOM     48  H   LIG d   1      11.091   9.118  -3.609  0.00  0.00     0.066 H 
ATOM     49  H   LIG d   1      11.327  10.478  -2.486  0.00  0.00     0.066 H 
ENDBRANCH  45  46
ENDBRANCH  43  45
ENDBRANCH  40  43
ENDBRANCH  37  40
ENDBRANCH  14  37
TORSDOF 8
ENDMDL
