MODEL 1
REMARK VINA RESULT:      -6.1      0.000      0.000
REMARK  6 active torsions:
REMARK  status: ('A' for Active; 'I' for Inactive)
REMARK    1  A    between atoms: C_1  and  C_2 
REMARK    2  A    between atoms: C_2  and  C_3 
REMARK    3  A    between atoms: C_3  and  N_4 
REMARK    4  A    between atoms: C_14  and  C_15 
REMARK    5  A    between atoms: C_17  and  C_27 
REMARK    6  A    between atoms: C_25  and  O_26 
ROOT
ATOM      1  N   LIG d   1       5.837  -0.690  -3.999  0.00  0.00     0.249 N 
ATOM      2  C   LIG d   1       5.801  -1.865  -3.050  0.00  0.00    -0.028 C 
ATOM      3  C   LIG d   1       4.566  -2.754  -3.497  0.00  0.00     0.008 C 
ATOM      4  C   LIG d   1       4.848  -2.465  -4.978  0.00  0.00     0.083 C 
ATOM      5  C   LIG d   1       4.661  -0.993  -4.848  0.00  0.00    -0.003 C 
ATOM      6  H   LIG d   1       3.733  -0.792  -4.245  0.00  0.00     0.086 H 
ATOM      7  C   LIG d   1       4.508  -0.176  -6.105  0.00  0.00     0.003 C 
ATOM      8  C   LIG d   1       5.289  -1.023  -7.137  0.00  0.00     0.020 C 
ATOM      9  H   LIG d   1       5.431  -0.486  -8.078  0.00  0.00     0.040 H 
ATOM     10  C   LIG d   1       6.602  -1.212  -6.396  0.00  0.00    -0.021 C 
ATOM     11  C   LIG d   1       7.570  -1.783  -7.077  0.00  0.00    -0.082 C 
ATOM     12  C   LIG d   1       6.919  -0.764  -5.004  0.00  0.00    -0.007 C 
ATOM     13  C   LIG d   1       4.502  -2.307  -7.331  0.00  0.00     0.017 C 
ATOM     14  C   LIG d   1       4.377  -3.073  -6.251  0.00  0.00     0.031 C 
ATOM     15  N   LIG d   1       4.012  -4.248  -5.745  0.00  0.00    -0.314 N 
ATOM     16  C   LIG d   1       5.368  -4.600  -5.472  0.00  0.00     0.077 A 
ATOM     17  C   LIG d   1       6.023  -3.414  -4.988  0.00  0.00    -0.005 A 
ATOM     18  C   LIG d   1       7.337  -3.486  -4.661  0.00  0.00    -0.056 A 
ATOM     19  C   LIG d   1       8.019  -4.692  -4.848  0.00  0.00    -0.058 A 
ATOM     20  C   LIG d   1       7.387  -5.821  -5.319  0.00  0.00    -0.018 A 
ATOM     21  C   LIG d   1       6.030  -5.800  -5.637  0.00  0.00     0.138 A 
ATOM     22  H   LIG d   1       6.715  -2.427  -3.009  0.00  0.00     0.082 H 
ATOM     23  H   LIG d   1       5.594  -1.491  -2.029  0.00  0.00     0.082 H 
ATOM     24  H   LIG d   1       4.700  -3.800  -3.251  0.00  0.00     0.033 H 
ATOM     25  H   LIG d   1       3.618  -2.345  -3.171  0.00  0.00     0.033 H 
ATOM     26  H   LIG d   1       4.959   0.805  -5.992  0.00  0.00     0.033 H 
ATOM     27  H   LIG d   1       3.460  -0.099  -6.384  0.00  0.00     0.033 H 
ATOM     28  H   LIG d   1       7.372  -2.194  -8.055  0.00  0.00     0.057 H 
ATOM     29  H   LIG d   1       7.250   0.304  -5.140  0.00  0.00     0.086 H 
ATOM     30  H   LIG d   1       7.817  -1.219  -4.631  0.00  0.00     0.086 H 
ATOM     31  H   LIG d   1       3.179  -4.701  -5.605  0.00  0.00     0.152 HD
ATOM     32  H   LIG d   1       7.885  -2.681  -4.197  0.00  0.00     0.062 H 
ATOM     33  H   LIG d   1       9.075  -4.736  -4.620  0.00  0.00     0.062 H 
ATOM     34  H   LIG d   1       7.947  -6.733  -5.446  0.00  0.00     0.066 H 
ENDROOT
BRANCH   1  35
ATOM     35  C   LIG d   1       5.776   0.630  -3.291  0.00  0.00    -0.030 C 
ATOM     36  H   LIG d   1       6.777   0.911  -2.960  0.00  0.00     0.082 H 
ATOM     37  H   LIG d   1       5.392   1.389  -3.973  0.00  0.00     0.082 H 
BRANCH  35  38
ATOM     38  C   LIG d   1       4.851   0.517  -2.079  0.00  0.00    -0.015 C 
ATOM     39  H   LIG d   1       4.568  -0.526  -1.933  0.00  0.00     0.031 H 
ATOM     40  H   LIG d   1       5.368   0.881  -1.192  0.00  0.00     0.031 H 
BRANCH  38  41
ATOM     41  C   LIG d   1       3.594   1.358  -2.317  0.00  0.00    -0.060 C 
ATOM     42  H   LIG d   1       3.473   2.069  -1.499  0.00  0.00     0.023 H 
ATOM     43  H   LIG d   1       3.692   1.900  -3.257  0.00  0.00     0.023 H 
ATOM     44  H   LIG d   1       2.724   0.703  -2.362  0.00  0.00     0.023 H 
ENDBRANCH  38  41
ENDBRANCH  35  38
ENDBRANCH   1  35
BRANCH  11  45
ATOM     45  C   LIG d   1       8.956  -1.863  -6.492  0.00  0.00    -0.046 C 
ATOM     46  H   LIG d   1       9.182  -0.937  -5.963  0.00  0.00     0.027 H 
ATOM     47  H   LIG d   1       9.008  -2.701  -5.796  0.00  0.00     0.027 H 
ATOM     48  H   LIG d   1       9.681  -2.010  -7.292  0.00  0.00     0.027 H 
ENDBRANCH  11  45
BRANCH  13  49
ATOM     49  C   LIG d   1       3.940  -2.662  -8.580  0.00  0.00     0.148 C 
ATOM     50  O   LIG d   1       3.287  -3.681  -8.685  0.00  0.00    -0.296 OA
ATOM     51  H   LIG d   1       4.093  -2.028  -9.441  0.00  0.00     0.108 H 
ENDBRANCH  13  49
BRANCH  21  52
ATOM     52  O   LIG d   1       5.391  -6.914  -6.089  0.00  0.00    -0.505 OA
ATOM     53  H   LIG d   1       5.061  -7.490  -5.386  0.00  0.00     0.292 HD
ENDBRANCH  21  52
TORSDOF 6
ENDMDL
MODEL 2
REMARK VINA RESULT:      -6.0      1.666      4.356
REMARK  6 active torsions:
REMARK  status: ('A' for Active; 'I' for Inactive)
REMARK    1  A    between atoms: C_1  and  C_2 
REMARK    2  A    between atoms: C_2  and  C_3 
REMARK    3  A    between atoms: C_3  and  N_4 
REMARK    4  A    between atoms: C_14  and  C_15 
REMARK    5  A    between atoms: C_17  and  C_27 
REMARK    6  A    between atoms: C_25  and  O_26 
ROOT
ATOM      1  N   LIG d   1       6.839  -0.374  -5.152  0.00  0.00     0.249 N 
ATOM      2  C   LIG d   1       6.792   0.157  -6.566  0.00  0.00    -0.028 C 
ATOM      3  C   LIG d   1       6.853  -1.112  -7.516  0.00  0.00     0.008 C 
ATOM      4  C   LIG d   1       5.977  -1.921  -6.549  0.00  0.00     0.083 C 
ATOM      5  C   LIG d   1       6.938  -1.829  -5.415  0.00  0.00    -0.003 C 
ATOM      6  H   LIG d   1       7.975  -2.047  -5.792  0.00  0.00     0.086 H 
ATOM      7  C   LIG d   1       6.741  -2.742  -4.232  0.00  0.00     0.003 C 
ATOM      8  C   LIG d   1       5.215  -2.987  -4.265  0.00  0.00     0.020 C 
ATOM      9  H   LIG d   1       4.866  -3.496  -3.363  0.00  0.00     0.040 H 
ATOM     10  C   LIG d   1       4.710  -1.556  -4.330  0.00  0.00    -0.021 C 
ATOM     11  C   LIG d   1       3.410  -1.398  -4.221  0.00  0.00    -0.082 C 
ATOM     12  C   LIG d   1       5.541  -0.316  -4.448  0.00  0.00    -0.007 C 
ATOM     13  C   LIG d   1       4.931  -3.798  -5.517  0.00  0.00     0.017 C 
ATOM     14  C   LIG d   1       5.228  -3.201  -6.668  0.00  0.00     0.031 C 
ATOM     15  N   LIG d   1       5.136  -3.213  -7.995  0.00  0.00    -0.314 N 
ATOM     16  C   LIG d   1       4.251  -2.093  -7.986  0.00  0.00     0.077 A 
ATOM     17  C   LIG d   1       4.733  -1.182  -6.982  0.00  0.00    -0.005 A 
ATOM     18  C   LIG d   1       4.052  -0.028  -6.772  0.00  0.00    -0.056 A 
ATOM     19  C   LIG d   1       2.885   0.214  -7.501  0.00  0.00    -0.058 A 
ATOM     20  C   LIG d   1       2.425  -0.666  -8.455  0.00  0.00    -0.018 A 
ATOM     21  C   LIG d   1       3.112  -1.848  -8.726  0.00  0.00     0.138 A 
ATOM     22  H   LIG d   1       5.944   0.783  -6.774  0.00  0.00     0.082 H 
ATOM     23  H   LIG d   1       7.703   0.759  -6.751  0.00  0.00     0.082 H 
ATOM     24  H   LIG d   1       6.363  -0.940  -8.466  0.00  0.00     0.033 H 
ATOM     25  H   LIG d   1       7.852  -1.519  -7.605  0.00  0.00     0.033 H 
ATOM     26  H   LIG d   1       7.033  -2.254  -3.308  0.00  0.00     0.033 H 
ATOM     27  H   LIG d   1       7.284  -3.673  -4.375  0.00  0.00     0.033 H 
ATOM     28  H   LIG d   1       2.761  -2.260  -4.214  0.00  0.00     0.057 H 
ATOM     29  H   LIG d   1       5.812  -0.080  -3.380  0.00  0.00     0.086 H 
ATOM     30  H   LIG d   1       4.949   0.539  -4.712  0.00  0.00     0.086 H 
ATOM     31  H   LIG d   1       5.506  -3.747  -8.699  0.00  0.00     0.152 HD
ATOM     32  H   LIG d   1       4.392   0.759  -6.115  0.00  0.00     0.062 H 
ATOM     33  H   LIG d   1       2.325   1.118  -7.305  0.00  0.00     0.062 H 
ATOM     34  H   LIG d   1       1.522  -0.441  -8.999  0.00  0.00     0.066 H 
ENDROOT
BRANCH   1  35
ATOM     35  C   LIG d   1       7.972   0.198  -4.355  0.00  0.00    -0.030 C 
ATOM     36  H   LIG d   1       8.193  -0.459  -3.513  0.00  0.00     0.082 H 
ATOM     37  H   LIG d   1       8.854   0.286  -4.989  0.00  0.00     0.082 H 
BRANCH  35  38
ATOM     38  C   LIG d   1       7.580   1.581  -3.832  0.00  0.00    -0.015 C 
ATOM     39  H   LIG d   1       6.864   2.039  -4.516  0.00  0.00     0.031 H 
ATOM     40  H   LIG d   1       7.128   1.482  -2.846  0.00  0.00     0.031 H 
BRANCH  38  41
ATOM     41  C   LIG d   1       8.828   2.463  -3.736  0.00  0.00    -0.060 C 
ATOM     42  H   LIG d   1       8.544   3.508  -3.859  0.00  0.00     0.023 H 
ATOM     43  H   LIG d   1       9.294   2.326  -2.760  0.00  0.00     0.023 H 
ATOM     44  H   LIG d   1       9.531   2.182  -4.519  0.00  0.00     0.023 H 
ENDBRANCH  38  41
ENDBRANCH  35  38
ENDBRANCH   1  35
BRANCH  11  45
ATOM     45  C   LIG d   1       2.827  -0.013  -4.106  0.00  0.00    -0.046 C 
ATOM     46  H   LIG d   1       3.041   0.548  -5.015  0.00  0.00     0.027 H 
ATOM     47  H   LIG d   1       1.748  -0.084  -3.968  0.00  0.00     0.027 H 
ATOM     48  H   LIG d   1       3.270   0.498  -3.251  0.00  0.00     0.027 H 
ENDBRANCH  11  45
BRANCH  13  49
ATOM     49  C   LIG d   1       4.385  -5.102  -5.460  0.00  0.00     0.148 C 
ATOM     50  O   LIG d   1       3.453  -5.403  -6.179  0.00  0.00    -0.296 OA
ATOM     51  H   LIG d   1       4.797  -5.830  -4.777  0.00  0.00     0.108 H 
ENDBRANCH  13  49
BRANCH  21  52
ATOM     52  O   LIG d   1       2.675  -2.719  -9.677  0.00  0.00    -0.505 OA
ATOM     53  H   LIG d   1       3.181  -2.686 -10.501  0.00  0.00     0.292 HD
ENDBRANCH  21  52
TORSDOF 6
ENDMDL
MODEL 3
REMARK VINA RESULT:      -5.9      2.531      4.976
REMARK  6 active torsions:
REMARK  status: ('A' for Active; 'I' for Inactive)
REMARK    1  A    between atoms: C_1  and  C_2 
REMARK    2  A    between atoms: C_2  and  C_3 
REMARK    3  A    between atoms: C_3  and  N_4 
REMARK    4  A    between atoms: C_14  and  C_15 
REMARK    5  A    between atoms: C_17  and  C_27 
REMARK    6  A    between atoms: C_25  and  O_26 
ROOT
ATOM      1  N   LIG d   1       6.887  -2.742  -4.907  0.00  0.00     0.249 N 
ATOM      2  C   LIG d   1       6.359  -3.068  -6.284  0.00  0.00    -0.028 C 
ATOM      3  C   LIG d   1       4.787  -2.863  -6.213  0.00  0.00     0.008 C 
ATOM      4  C   LIG d   1       4.952  -1.648  -5.289  0.00  0.00     0.083 C 
ATOM      5  C   LIG d   1       5.624  -2.416  -4.204  0.00  0.00    -0.003 C 
ATOM      6  H   LIG d   1       5.063  -3.375  -4.029  0.00  0.00     0.086 H 
ATOM      7  C   LIG d   1       5.754  -1.774  -2.846  0.00  0.00     0.003 C 
ATOM      8  C   LIG d   1       5.775  -0.269  -3.203  0.00  0.00     0.020 C 
ATOM      9  H   LIG d   1       6.043   0.348  -2.341  0.00  0.00     0.040 H 
ATOM     10  C   LIG d   1       6.866  -0.255  -4.261  0.00  0.00    -0.021 C 
ATOM     11  C   LIG d   1       7.245   0.931  -4.680  0.00  0.00    -0.082 C 
ATOM     12  C   LIG d   1       7.583  -1.440  -4.825  0.00  0.00    -0.007 C 
ATOM     13  C   LIG d   1       4.395   0.071  -3.735  0.00  0.00     0.017 C 
ATOM     14  C   LIG d   1       4.038  -0.561  -4.850  0.00  0.00     0.031 C 
ATOM     15  N   LIG d   1       3.171  -0.661  -5.854  0.00  0.00    -0.314 N 
ATOM     16  C   LIG d   1       4.135  -0.181  -6.790  0.00  0.00     0.077 A 
ATOM     17  C   LIG d   1       5.397  -0.775  -6.439  0.00  0.00    -0.005 A 
ATOM     18  C   LIG d   1       6.489  -0.468  -7.183  0.00  0.00    -0.056 A 
ATOM     19  C   LIG d   1       6.360   0.446  -8.232  0.00  0.00    -0.058 A 
ATOM     20  C   LIG d   1       5.150   1.016  -8.558  0.00  0.00    -0.018 A 
ATOM     21  C   LIG d   1       3.997   0.704  -7.840  0.00  0.00     0.138 A 
ATOM     22  H   LIG d   1       6.809  -2.499  -7.075  0.00  0.00     0.082 H 
ATOM     23  H   LIG d   1       6.549  -4.138  -6.494  0.00  0.00     0.082 H 
ATOM     24  H   LIG d   1       4.363  -2.594  -7.172  0.00  0.00     0.033 H 
ATOM     25  H   LIG d   1       4.282  -3.686  -5.724  0.00  0.00     0.033 H 
ATOM     26  H   LIG d   1       6.680  -2.068  -2.362  0.00  0.00     0.033 H 
ATOM     27  H   LIG d   1       4.892  -2.012  -2.229  0.00  0.00     0.033 H 
ATOM     28  H   LIG d   1       6.707   1.813  -4.365  0.00  0.00     0.057 H 
ATOM     29  H   LIG d   1       8.420  -1.615  -4.091  0.00  0.00     0.086 H 
ATOM     30  H   LIG d   1       8.130  -1.191  -5.715  0.00  0.00     0.086 H 
ATOM     31  H   LIG d   1       2.259  -0.942  -5.942  0.00  0.00     0.152 HD
ATOM     32  H   LIG d   1       7.452  -0.940  -7.059  0.00  0.00     0.062 H 
ATOM     33  H   LIG d   1       7.240   0.716  -8.800  0.00  0.00     0.062 H 
ATOM     34  H   LIG d   1       5.092   1.715  -9.377  0.00  0.00     0.066 H 
ENDROOT
BRANCH   1  35
ATOM     35  C   LIG d   1       7.668  -3.870  -4.303  0.00  0.00    -0.030 C 
ATOM     36  H   LIG d   1       7.128  -4.266  -3.442  0.00  0.00     0.082 H 
ATOM     37  H   LIG d   1       7.800  -4.658  -5.044  0.00  0.00     0.082 H 
BRANCH  35  38
ATOM     38  C   LIG d   1       9.038  -3.359  -3.853  0.00  0.00    -0.015 C 
ATOM     39  H   LIG d   1       9.742  -3.426  -4.684  0.00  0.00     0.031 H 
ATOM     40  H   LIG d   1       8.952  -2.320  -3.534  0.00  0.00     0.031 H 
BRANCH  38  41
ATOM     41  C   LIG d   1       9.543  -4.210  -2.686  0.00  0.00    -0.060 C 
ATOM     42  H   LIG d   1       9.775  -3.564  -1.839  0.00  0.00     0.023 H 
ATOM     43  H   LIG d   1       8.771  -4.924  -2.397  0.00  0.00     0.023 H 
ATOM     44  H   LIG d   1      10.441  -4.748  -2.991  0.00  0.00     0.023 H 
ENDBRANCH  38  41
ENDBRANCH  35  38
ENDBRANCH   1  35
BRANCH  11  45
ATOM     45  C   LIG d   1       8.431   1.060  -5.601  0.00  0.00    -0.046 C 
ATOM     46  H   LIG d   1       8.319   1.954  -6.214  0.00  0.00     0.027 H 
ATOM     47  H   LIG d   1       9.343   1.137  -5.009  0.00  0.00     0.027 H 
ATOM     48  H   LIG d   1       8.488   0.183  -6.245  0.00  0.00     0.027 H 
ENDBRANCH  11  45
BRANCH  13  49
ATOM     49  C   LIG d   1       3.548   1.001  -3.088  0.00  0.00     0.148 C 
ATOM     50  O   LIG d   1       3.543   2.165  -3.437  0.00  0.00    -0.296 OA
ATOM     51  H   LIG d   1       2.906   0.677  -2.283  0.00  0.00     0.108 H 
ENDBRANCH  13  49
BRANCH  21  52
ATOM     52  O   LIG d   1       2.793   1.250  -8.162  0.00  0.00    -0.505 OA
ATOM     53  H   LIG d   1       2.302   0.752  -8.831  0.00  0.00     0.292 HD
ENDBRANCH  21  52
TORSDOF 6
ENDMDL
MODEL 4
REMARK VINA RESULT:      -5.8      2.772      5.466
REMARK  6 active torsions:
REMARK  status: ('A' for Active; 'I' for Inactive)
REMARK    1  A    between atoms: C_1  and  C_2 
REMARK    2  A    between atoms: C_2  and  C_3 
REMARK    3  A    between atoms: C_3  and  N_4 
REMARK    4  A    between atoms: C_14  and  C_15 
REMARK    5  A    between atoms: C_17  and  C_27 
REMARK    6  A    between atoms: C_25  and  O_26 
ROOT
ATOM      1  N   LIG d   1       5.493  -3.171  -6.081  0.00  0.00     0.249 N 
ATOM      2  C   LIG d   1       5.038  -3.486  -4.676  0.00  0.00    -0.028 C 
ATOM      3  C   LIG d   1       6.115  -2.838  -3.708  0.00  0.00     0.008 C 
ATOM      4  C   LIG d   1       6.270  -1.624  -4.635  0.00  0.00     0.083 C 
ATOM      5  C   LIG d   1       6.742  -2.424  -5.799  0.00  0.00    -0.003 C 
ATOM      6  H   LIG d   1       7.518  -3.160  -5.450  0.00  0.00     0.086 H 
ATOM      7  C   LIG d   1       7.370  -1.699  -6.961  0.00  0.00     0.003 C 
ATOM      8  C   LIG d   1       6.693  -0.310  -6.877  0.00  0.00     0.020 C 
ATOM      9  H   LIG d   1       6.904   0.298  -7.760  0.00  0.00     0.040 H 
ATOM     10  C   LIG d   1       5.232  -0.723  -6.819  0.00  0.00    -0.021 C 
ATOM     11  C   LIG d   1       4.355   0.252  -6.891  0.00  0.00    -0.082 C 
ATOM     12  C   LIG d   1       4.696  -2.119  -6.747  0.00  0.00    -0.007 C 
ATOM     13  C   LIG d   1       7.198   0.345  -5.604  0.00  0.00     0.017 C 
ATOM     14  C   LIG d   1       6.886  -0.281  -4.473  0.00  0.00     0.031 C 
ATOM     15  N   LIG d   1       6.849  -0.244  -3.144  0.00  0.00    -0.314 N 
ATOM     16  C   LIG d   1       5.424  -0.163  -3.143  0.00  0.00     0.077 A 
ATOM     17  C   LIG d   1       4.951  -1.047  -4.176  0.00  0.00    -0.005 A 
ATOM     18  C   LIG d   1       3.615  -1.146  -4.384  0.00  0.00    -0.056 A 
ATOM     19  C   LIG d   1       2.749  -0.356  -3.623  0.00  0.00    -0.058 A 
ATOM     20  C   LIG d   1       3.209   0.493  -2.641  0.00  0.00    -0.018 A 
ATOM     21  C   LIG d   1       4.572   0.601  -2.373  0.00  0.00     0.138 A 
ATOM     22  H   LIG d   1       4.039  -3.160  -4.452  0.00  0.00     0.082 H 
ATOM     23  H   LIG d   1       5.070  -4.583  -4.528  0.00  0.00     0.082 H 
ATOM     24  H   LIG d   1       5.697  -2.569  -2.746  0.00  0.00     0.033 H 
ATOM     25  H   LIG d   1       7.023  -3.425  -3.643  0.00  0.00     0.033 H 
ATOM     26  H   LIG d   1       7.134  -2.186  -7.901  0.00  0.00     0.033 H 
ATOM     27  H   LIG d   1       8.445  -1.612  -6.819  0.00  0.00     0.033 H 
ATOM     28  H   LIG d   1       4.687   1.280  -6.865  0.00  0.00     0.057 H 
ATOM     29  H   LIG d   1       4.654  -2.440  -7.826  0.00  0.00     0.086 H 
ATOM     30  H   LIG d   1       3.657  -2.136  -6.479  0.00  0.00     0.086 H 
ATOM     31  H   LIG d   1       7.502  -0.263  -2.442  0.00  0.00     0.152 HD
ATOM     32  H   LIG d   1       3.164  -1.854  -5.063  0.00  0.00     0.062 H 
ATOM     33  H   LIG d   1       1.686  -0.412  -3.816  0.00  0.00     0.062 H 
ATOM     34  H   LIG d   1       2.508   1.083  -2.074  0.00  0.00     0.066 H 
ENDROOT
BRANCH   1  35
ATOM     35  C   LIG d   1       5.673  -4.399  -6.922  0.00  0.00    -0.030 C 
ATOM     36  H   LIG d   1       4.883  -4.443  -7.673  0.00  0.00     0.082 H 
ATOM     37  H   LIG d   1       6.643  -4.361  -7.417  0.00  0.00     0.082 H 
BRANCH  35  38
ATOM     38  C   LIG d   1       5.602  -5.641  -6.034  0.00  0.00    -0.015 C 
ATOM     39  H   LIG d   1       5.321  -5.349  -5.021  0.00  0.00     0.031 H 
ATOM     40  H   LIG d   1       4.858  -6.331  -6.432  0.00  0.00     0.031 H 
BRANCH  38  41
ATOM     41  C   LIG d   1       6.970  -6.327  -6.005  0.00  0.00    -0.060 C 
ATOM     42  H   LIG d   1       7.614  -5.884  -6.764  0.00  0.00     0.023 H 
ATOM     43  H   LIG d   1       7.422  -6.193  -5.022  0.00  0.00     0.023 H 
ATOM     44  H   LIG d   1       6.846  -7.391  -6.207  0.00  0.00     0.023 H 
ENDBRANCH  38  41
ENDBRANCH  35  38
ENDBRANCH   1  35
BRANCH  11  45
ATOM     45  C   LIG d   1       2.886  -0.063  -7.011  0.00  0.00    -0.046 C 
ATOM     46  H   LIG d   1       2.390   0.152  -6.065  0.00  0.00     0.027 H 
ATOM     47  H   LIG d   1       2.447   0.550  -7.799  0.00  0.00     0.027 H 
ATOM     48  H   LIG d   1       2.759  -1.117  -7.256  0.00  0.00     0.027 H 
ENDBRANCH  11  45
BRANCH  13  49
ATOM     49  C   LIG d   1       7.951   1.543  -5.624  0.00  0.00     0.148 C 
ATOM     50  O   LIG d   1       7.789   2.377  -4.756  0.00  0.00    -0.296 OA
ATOM     51  H   LIG d   1       8.671   1.716  -6.411  0.00  0.00     0.108 H 
ENDBRANCH  13  49
BRANCH  21  52
ATOM     52  O   LIG d   1       5.037   1.427  -1.396  0.00  0.00    -0.505 OA
ATOM     53  H   LIG d   1       4.937   1.072  -0.501  0.00  0.00     0.292 HD
ENDBRANCH  21  52
TORSDOF 6
ENDMDL
MODEL 5
REMARK VINA RESULT:      -5.7     10.972     13.956
REMARK  6 active torsions:
REMARK  status: ('A' for Active; 'I' for Inactive)
REMARK    1  A    between atoms: C_1  and  C_2 
REMARK    2  A    between atoms: C_2  and  C_3 
REMARK    3  A    between atoms: C_3  and  N_4 
REMARK    4  A    between atoms: C_14  and  C_15 
REMARK    5  A    between atoms: C_17  and  C_27 
REMARK    6  A    between atoms: C_25  and  O_26 
ROOT
ATOM      1  N   LIG d   1      10.845   6.720  -1.378  0.00  0.00     0.249 N 
ATOM      2  C   LIG d   1       9.559   6.813  -2.166  0.00  0.00    -0.028 C 
ATOM      3  C   LIG d   1       8.600   7.764  -1.335  0.00  0.00     0.008 C 
ATOM      4  C   LIG d   1       9.780   8.657  -0.928  0.00  0.00     0.083 C 
ATOM      5  C   LIG d   1      10.508   7.572  -0.213  0.00  0.00    -0.003 C 
ATOM      6  H   LIG d   1       9.783   7.007   0.435  0.00  0.00     0.086 H 
ATOM      7  C   LIG d   1      11.648   7.951   0.697  0.00  0.00     0.003 C 
ATOM      8  C   LIG d   1      12.142   9.271   0.059  0.00  0.00     0.020 C 
ATOM      9  H   LIG d   1      13.089   9.601   0.494  0.00  0.00     0.040 H 
ATOM     10  C   LIG d   1      12.314   8.829  -1.384  0.00  0.00    -0.021 C 
ATOM     11  C   LIG d   1      12.878   9.700  -2.190  0.00  0.00    -0.082 C 
ATOM     12  C   LIG d   1      11.962   7.494  -1.961  0.00  0.00    -0.007 C 
ATOM     13  C   LIG d   1      11.039  10.294   0.263  0.00  0.00     0.017 C 
ATOM     14  C   LIG d   1       9.881  10.015  -0.330  0.00  0.00     0.031 C 
ATOM     15  N   LIG d   1       8.671  10.440  -0.684  0.00  0.00    -0.314 N 
ATOM     16  C   LIG d   1       9.034  10.453  -2.065  0.00  0.00     0.077 A 
ATOM     17  C   LIG d   1       9.839   9.284  -2.301  0.00  0.00    -0.005 A 
ATOM     18  C   LIG d   1      10.320   9.069  -3.550  0.00  0.00    -0.056 A 
ATOM     19  C   LIG d   1      10.056  10.008  -4.551  0.00  0.00    -0.058 A 
ATOM     20  C   LIG d   1       9.290  11.128  -4.316  0.00  0.00    -0.018 A 
ATOM     21  C   LIG d   1       8.750  11.371  -3.054  0.00  0.00     0.138 A 
ATOM     22  H   LIG d   1       9.686   7.145  -3.179  0.00  0.00     0.082 H 
ATOM     23  H   LIG d   1       9.091   5.810  -2.202  0.00  0.00     0.082 H 
ATOM     24  H   LIG d   1       7.889   8.285  -1.964  0.00  0.00     0.033 H 
ATOM     25  H   LIG d   1       8.150   7.263  -0.486  0.00  0.00     0.033 H 
ATOM     26  H   LIG d   1      12.429   7.199   0.680  0.00  0.00     0.033 H 
ATOM     27  H   LIG d   1      11.287   8.124   1.708  0.00  0.00     0.033 H 
ATOM     28  H   LIG d   1      13.079  10.703  -1.845  0.00  0.00     0.057 H 
ATOM     29  H   LIG d   1      12.875   6.868  -1.752  0.00  0.00     0.086 H 
ATOM     30  H   LIG d   1      11.956   7.510  -3.034  0.00  0.00     0.086 H 
ATOM     31  H   LIG d   1       7.861  10.657  -0.220  0.00  0.00     0.152 HD
ATOM     32  H   LIG d   1      10.846   8.173  -3.845  0.00  0.00     0.062 H 
ATOM     33  H   LIG d   1      10.471   9.851  -5.537  0.00  0.00     0.062 H 
ATOM     34  H   LIG d   1       9.107  11.827  -5.116  0.00  0.00     0.066 H 
ENDROOT
BRANCH   1  35
ATOM     35  C   LIG d   1      11.216   5.309  -1.037  0.00  0.00    -0.030 C 
ATOM     36  H   LIG d   1      12.011   5.313  -0.289  0.00  0.00     0.082 H 
ATOM     37  H   LIG d   1      10.345   4.791  -0.638  0.00  0.00     0.082 H 
BRANCH  35  38
ATOM     38  C   LIG d   1      11.705   4.591  -2.296  0.00  0.00    -0.015 C 
ATOM     39  H   LIG d   1      11.660   5.275  -3.144  0.00  0.00     0.031 H 
ATOM     40  H   LIG d   1      12.733   4.260  -2.150  0.00  0.00     0.031 H 
BRANCH  38  41
ATOM     41  C   LIG d   1      10.813   3.378  -2.571  0.00  0.00    -0.060 C 
ATOM     42  H   LIG d   1       9.812   3.568  -2.182  0.00  0.00     0.023 H 
ATOM     43  H   LIG d   1      10.758   3.204  -3.645  0.00  0.00     0.023 H 
ATOM     44  H   LIG d   1      11.233   2.501  -2.080  0.00  0.00     0.023 H 
ENDBRANCH  38  41
ENDBRANCH  35  38
ENDBRANCH   1  35
BRANCH  11  45
ATOM     45  C   LIG d   1      13.245   9.298  -3.595  0.00  0.00    -0.046 C 
ATOM     46  H   LIG d   1      12.340   9.048  -4.149  0.00  0.00     0.027 H 
ATOM     47  H   LIG d   1      13.755  10.126  -4.087  0.00  0.00     0.027 H 
ATOM     48  H   LIG d   1      13.904   8.431  -3.565  0.00  0.00     0.027 H 
ENDBRANCH  11  45
BRANCH  13  49
ATOM     49  C   LIG d   1      11.232  11.465   1.032  0.00  0.00     0.148 C 
ATOM     50  O   LIG d   1      10.297  12.209   1.253  0.00  0.00    -0.296 OA
ATOM     51  H   LIG d   1      12.211  11.699   1.424  0.00  0.00     0.108 H 
ENDBRANCH  13  49
BRANCH  21  52
ATOM     52  O   LIG d   1       7.979  12.467  -2.814  0.00  0.00    -0.505 OA
ATOM     53  H   LIG d   1       7.683  12.546  -1.897  0.00  0.00     0.292 HD
ENDBRANCH  21  52
TORSDOF 6
ENDMDL
MODEL 6
REMARK VINA RESULT:      -5.4      1.452      2.337
REMARK  6 active torsions:
REMARK  status: ('A' for Active; 'I' for Inactive)
REMARK    1  A    between atoms: C_1  and  C_2 
REMARK    2  A    between atoms: C_2  and  C_3 
REMARK    3  A    between atoms: C_3  and  N_4 
REMARK    4  A    between atoms: C_14  and  C_15 
REMARK    5  A    between atoms: C_17  and  C_27 
REMARK    6  A    between atoms: C_25  and  O_26 
ROOT
ATOM      1  N   LIG d   1       5.603  -1.049  -3.849  0.00  0.00     0.249 N 
ATOM      2  C   LIG d   1       4.247  -1.707  -3.742  0.00  0.00    -0.028 C 
ATOM      3  C   LIG d   1       3.498  -1.395  -5.105  0.00  0.00     0.008 C 
ATOM      4  C   LIG d   1       4.804  -1.547  -5.898  0.00  0.00     0.083 C 
ATOM      5  C   LIG d   1       5.500  -0.435  -5.193  0.00  0.00    -0.003 C 
ATOM      6  H   LIG d   1       4.806   0.447  -5.122  0.00  0.00     0.086 H 
ATOM      7  C   LIG d   1       6.775   0.105  -5.788  0.00  0.00     0.003 C 
ATOM      8  C   LIG d   1       7.319  -1.126  -6.552  0.00  0.00     0.020 C 
ATOM      9  H   LIG d   1       8.340  -0.964  -6.906  0.00  0.00     0.040 H 
ATOM     10  C   LIG d   1       7.267  -2.174  -5.453  0.00  0.00    -0.021 C 
ATOM     11  C   LIG d   1       7.814  -3.334  -5.738  0.00  0.00    -0.082 C 
ATOM     12  C   LIG d   1       6.713  -2.000  -4.074  0.00  0.00    -0.007 C 
ATOM     13  C   LIG d   1       6.358  -1.387  -7.698  0.00  0.00     0.017 C 
ATOM     14  C   LIG d   1       5.114  -1.699  -7.345  0.00  0.00     0.031 C 
ATOM     15  N   LIG d   1       3.920  -2.146  -7.722  0.00  0.00    -0.314 N 
ATOM     16  C   LIG d   1       4.110  -3.374  -7.019  0.00  0.00     0.077 A 
ATOM     17  C   LIG d   1       4.758  -3.052  -5.775  0.00  0.00    -0.005 A 
ATOM     18  C   LIG d   1       5.058  -4.060  -4.920  0.00  0.00    -0.056 A 
ATOM     19  C   LIG d   1       4.770  -5.376  -5.293  0.00  0.00    -0.058 A 
ATOM     20  C   LIG d   1       4.156  -5.677  -6.488  0.00  0.00    -0.018 A 
ATOM     21  C   LIG d   1       3.802  -4.669  -7.383  0.00  0.00     0.138 A 
ATOM     22  H   LIG d   1       4.283  -2.758  -3.527  0.00  0.00     0.082 H 
ATOM     23  H   LIG d   1       3.679  -1.219  -2.927  0.00  0.00     0.082 H 
ATOM     24  H   LIG d   1       2.772  -2.157  -5.360  0.00  0.00     0.033 H 
ATOM     25  H   LIG d   1       3.107  -0.386  -5.144  0.00  0.00     0.033 H 
ATOM     26  H   LIG d   1       7.468   0.414  -5.013  0.00  0.00     0.033 H 
ATOM     27  H   LIG d   1       6.560   0.920  -6.474  0.00  0.00     0.033 H 
ATOM     28  H   LIG d   1       8.156  -3.537  -6.742  0.00  0.00     0.057 H 
ATOM     29  H   LIG d   1       7.578  -1.564  -3.497  0.00  0.00     0.086 H 
ATOM     30  H   LIG d   1       6.578  -2.941  -3.575  0.00  0.00     0.086 H 
ATOM     31  H   LIG d   1       3.199  -1.802  -8.252  0.00  0.00     0.152 HD
ATOM     32  H   LIG d   1       5.450  -3.908  -3.926  0.00  0.00     0.062 H 
ATOM     33  H   LIG d   1       5.044  -6.180  -4.624  0.00  0.00     0.062 H 
ATOM     34  H   LIG d   1       3.948  -6.705  -6.738  0.00  0.00     0.066 H 
ENDROOT
BRANCH   1  35
ATOM     35  C   LIG d   1       5.869  -0.082  -2.735  0.00  0.00    -0.030 C 
ATOM     36  H   LIG d   1       6.694  -0.450  -2.123  0.00  0.00     0.082 H 
ATOM     37  H   LIG d   1       6.133   0.889  -3.154  0.00  0.00     0.082 H 
BRANCH  35  38
ATOM     38  C   LIG d   1       4.616   0.058  -1.871  0.00  0.00    -0.015 C 
ATOM     39  H   LIG d   1       3.940  -0.774  -2.072  0.00  0.00     0.031 H 
ATOM     40  H   LIG d   1       4.898   0.051  -0.818  0.00  0.00     0.031 H 
BRANCH  38  41
ATOM     41  C   LIG d   1       3.912   1.377  -2.201  0.00  0.00    -0.060 C 
ATOM     42  H   LIG d   1       3.823   1.479  -3.283  0.00  0.00     0.023 H 
ATOM     43  H   LIG d   1       2.919   1.380  -1.753  0.00  0.00     0.023 H 
ATOM     44  H   LIG d   1       4.494   2.208  -1.804  0.00  0.00     0.023 H 
ENDBRANCH  38  41
ENDBRANCH  35  38
ENDBRANCH   1  35
BRANCH  11  45
ATOM     45  C   LIG d   1       7.963  -4.380  -4.663  0.00  0.00    -0.046 C 
ATOM     46  H   LIG d   1       8.199  -5.340  -5.121  0.00  0.00     0.027 H 
ATOM     47  H   LIG d   1       8.768  -4.092  -3.987  0.00  0.00     0.027 H 
ATOM     48  H   LIG d   1       7.031  -4.463  -4.105  0.00  0.00     0.027 H 
ENDBRANCH  11  45
BRANCH  13  49
ATOM     49  C   LIG d   1       6.762  -1.303  -9.051  0.00  0.00     0.148 C 
ATOM     50  O   LIG d   1       6.167  -1.933  -9.903  0.00  0.00    -0.296 OA
ATOM     51  H   LIG d   1       7.600  -0.680  -9.327  0.00  0.00     0.108 H 
ENDBRANCH  13  49
BRANCH  21  52
ATOM     52  O   LIG d   1       3.182  -4.953  -8.560  0.00  0.00    -0.505 OA
ATOM     53  H   LIG d   1       2.481  -4.329  -8.797  0.00  0.00     0.292 HD
ENDBRANCH  21  52
TORSDOF 6
ENDMDL
MODEL 7
REMARK VINA RESULT:      -5.4      2.159      3.693
REMARK  6 active torsions:
REMARK  status: ('A' for Active; 'I' for Inactive)
REMARK    1  A    between atoms: C_1  and  C_2 
REMARK    2  A    between atoms: C_2  and  C_3 
REMARK    3  A    between atoms: C_3  and  N_4 
REMARK    4  A    between atoms: C_14  and  C_15 
REMARK    5  A    between atoms: C_17  and  C_27 
REMARK    6  A    between atoms: C_25  and  O_26 
ROOT
ATOM      1  N   LIG d   1       8.104  -1.338  -5.329  0.00  0.00     0.249 N 
ATOM      2  C   LIG d   1       8.272  -2.749  -5.841  0.00  0.00    -0.028 C 
ATOM      3  C   LIG d   1       7.405  -3.671  -4.885  0.00  0.00     0.008 C 
ATOM      4  C   LIG d   1       6.314  -2.596  -4.779  0.00  0.00     0.083 C 
ATOM      5  C   LIG d   1       7.213  -1.577  -4.169  0.00  0.00    -0.003 C 
ATOM      6  H   LIG d   1       7.820  -2.061  -3.355  0.00  0.00     0.086 H 
ATOM      7  C   LIG d   1       6.591  -0.359  -3.535  0.00  0.00     0.003 C 
ATOM      8  C   LIG d   1       5.273  -0.219  -4.333  0.00  0.00     0.020 C 
ATOM      9  H   LIG d   1       4.770   0.728  -4.121  0.00  0.00     0.040 H 
ATOM     10  C   LIG d   1       5.810  -0.260  -5.754  0.00  0.00    -0.021 C 
ATOM     11  C   LIG d   1       4.939  -0.011  -6.706  0.00  0.00    -0.082 C 
ATOM     12  C   LIG d   1       7.228  -0.495  -6.171  0.00  0.00    -0.007 C 
ATOM     13  C   LIG d   1       4.412  -1.413  -3.966  0.00  0.00     0.017 C 
ATOM     14  C   LIG d   1       4.909  -2.603  -4.292  0.00  0.00     0.031 C 
ATOM     15  N   LIG d   1       4.701  -3.911  -4.414  0.00  0.00    -0.314 N 
ATOM     16  C   LIG d   1       4.755  -3.829  -5.838  0.00  0.00     0.077 A 
ATOM     17  C   LIG d   1       5.808  -2.906  -6.168  0.00  0.00    -0.005 A 
ATOM     18  C   LIG d   1       6.059  -2.647  -7.476  0.00  0.00    -0.056 A 
ATOM     19  C   LIG d   1       5.260  -3.249  -8.452  0.00  0.00    -0.058 A 
ATOM     20  C   LIG d   1       4.249  -4.127  -8.129  0.00  0.00    -0.018 A 
ATOM     21  C   LIG d   1       3.979  -4.445  -6.799  0.00  0.00     0.138 A 
ATOM     22  H   LIG d   1       8.014  -2.876  -6.876  0.00  0.00     0.082 H 
ATOM     23  H   LIG d   1       9.332  -3.046  -5.723  0.00  0.00     0.082 H 
ATOM     24  H   LIG d   1       7.052  -4.565  -5.384  0.00  0.00     0.033 H 
ATOM     25  H   LIG d   1       7.890  -3.860  -3.936  0.00  0.00     0.033 H 
ATOM     26  H   LIG d   1       7.218   0.516  -3.669  0.00  0.00     0.033 H 
ATOM     27  H   LIG d   1       6.386  -0.541  -2.483  0.00  0.00     0.033 H 
ATOM     28  H   LIG d   1       3.891   0.087  -6.466  0.00  0.00     0.057 H 
ATOM     29  H   LIG d   1       7.691   0.531  -6.119  0.00  0.00     0.086 H 
ATOM     30  H   LIG d   1       7.307  -0.712  -7.219  0.00  0.00     0.086 H 
ATOM     31  H   LIG d   1       4.566  -4.640  -3.807  0.00  0.00     0.152 HD
ATOM     32  H   LIG d   1       6.889  -2.050  -7.822  0.00  0.00     0.062 H 
ATOM     33  H   LIG d   1       5.439  -3.013  -9.492  0.00  0.00     0.062 H 
ATOM     34  H   LIG d   1       3.658  -4.573  -8.911  0.00  0.00     0.066 H 
ENDROOT
BRANCH   1  35
ATOM     35  C   LIG d   1       9.409  -0.683  -4.993  0.00  0.00    -0.030 C 
ATOM     36  H   LIG d   1       9.541  -0.668  -3.910  0.00  0.00     0.082 H 
ATOM     37  H   LIG d   1      10.225  -1.243  -5.450  0.00  0.00     0.082 H 
BRANCH  35  38
ATOM     38  C   LIG d   1       9.414   0.751  -5.526  0.00  0.00    -0.015 C 
ATOM     39  H   LIG d   1      10.240   0.876  -6.226  0.00  0.00     0.031 H 
ATOM     40  H   LIG d   1       8.472   0.951  -6.037  0.00  0.00     0.031 H 
BRANCH  38  41
ATOM     41  C   LIG d   1       9.580   1.729  -4.360  0.00  0.00    -0.060 C 
ATOM     42  H   LIG d   1      10.634   1.796  -4.091  0.00  0.00     0.023 H 
ATOM     43  H   LIG d   1       9.218   2.713  -4.658  0.00  0.00     0.023 H 
ATOM     44  H   LIG d   1       9.007   1.373  -3.505  0.00  0.00     0.023 H 
ENDBRANCH  38  41
ENDBRANCH  35  38
ENDBRANCH   1  35
BRANCH  11  45
ATOM     45  C   LIG d   1       5.404   0.136  -8.132  0.00  0.00    -0.046 C 
ATOM     46  H   LIG d   1       4.920  -0.618  -8.752  0.00  0.00     0.027 H 
ATOM     47  H   LIG d   1       5.142   1.130  -8.497  0.00  0.00     0.027 H 
ATOM     48  H   LIG d   1       6.485   0.005  -8.178  0.00  0.00     0.027 H 
ENDBRANCH  11  45
BRANCH  13  49
ATOM     49  C   LIG d   1       3.162  -1.267  -3.319  0.00  0.00     0.148 C 
ATOM     50  O   LIG d   1       2.920  -0.261  -2.682  0.00  0.00    -0.296 OA
ATOM     51  H   LIG d   1       2.422  -2.051  -3.392  0.00  0.00     0.108 H 
ENDBRANCH  13  49
BRANCH  21  52
ATOM     52  O   LIG d   1       2.992  -5.322  -6.467  0.00  0.00    -0.505 OA
ATOM     53  H   LIG d   1       3.065  -5.675  -5.570  0.00  0.00     0.292 HD
ENDBRANCH  21  52
TORSDOF 6
ENDMDL
MODEL 8
REMARK VINA RESULT:      -5.3      3.309      6.247
REMARK  6 active torsions:
REMARK  status: ('A' for Active; 'I' for Inactive)
REMARK    1  A    between atoms: C_1  and  C_2 
REMARK    2  A    between atoms: C_2  and  C_3 
REMARK    3  A    between atoms: C_3  and  N_4 
REMARK    4  A    between atoms: C_14  and  C_15 
REMARK    5  A    between atoms: C_17  and  C_27 
REMARK    6  A    between atoms: C_25  and  O_26 
ROOT
ATOM      1  N   LIG d   1       4.057  -1.498  -9.842  0.00  0.00     0.249 N 
ATOM      2  C   LIG d   1       3.466  -2.348  -8.741  0.00  0.00    -0.028 C 
ATOM      3  C   LIG d   1       4.644  -2.617  -7.712  0.00  0.00     0.008 C 
ATOM      4  C   LIG d   1       5.194  -1.199  -7.916  0.00  0.00     0.083 C 
ATOM      5  C   LIG d   1       5.457  -1.383  -9.371  0.00  0.00    -0.003 C 
ATOM      6  H   LIG d   1       5.963  -2.375  -9.531  0.00  0.00     0.086 H 
ATOM      7  C   LIG d   1       6.324  -0.372 -10.076  0.00  0.00     0.003 C 
ATOM      8  C   LIG d   1       6.088   0.901  -9.229  0.00  0.00     0.020 C 
ATOM      9  H   LIG d   1       6.510   1.789  -9.706  0.00  0.00     0.040 H 
ATOM     10  C   LIG d   1       4.569   0.942  -9.216  0.00  0.00    -0.021 C 
ATOM     11  C   LIG d   1       4.027   2.015  -8.687  0.00  0.00    -0.082 C 
ATOM     12  C   LIG d   1       3.640  -0.080  -9.792  0.00  0.00    -0.007 C 
ATOM     13  C   LIG d   1       6.709   0.641  -7.869  0.00  0.00     0.017 C 
ATOM     14  C   LIG d   1       6.174  -0.361  -7.176  0.00  0.00     0.031 C 
ATOM     15  N   LIG d   1       6.091  -1.002  -6.013  0.00  0.00    -0.314 N 
ATOM     16  C   LIG d   1       4.756  -0.542  -5.806  0.00  0.00     0.077 A 
ATOM     17  C   LIG d   1       4.088  -0.599  -7.080  0.00  0.00    -0.005 A 
ATOM     18  C   LIG d   1       2.793  -0.202  -7.152  0.00  0.00    -0.056 A 
ATOM     19  C   LIG d   1       2.168   0.290  -6.003  0.00  0.00    -0.058 A 
ATOM     20  C   LIG d   1       2.816   0.349  -4.789  0.00  0.00    -0.018 A 
ATOM     21  C   LIG d   1       4.137  -0.079  -4.664  0.00  0.00     0.138 A 
ATOM     22  H   LIG d   1       2.602  -1.921  -8.269  0.00  0.00     0.082 H 
ATOM     23  H   LIG d   1       3.164  -3.324  -9.169  0.00  0.00     0.082 H 
ATOM     24  H   LIG d   1       4.282  -2.776  -6.704  0.00  0.00     0.033 H 
ATOM     25  H   LIG d   1       5.332  -3.379  -8.057  0.00  0.00     0.033 H 
ATOM     26  H   LIG d   1       5.996  -0.220 -11.099  0.00  0.00     0.033 H 
ATOM     27  H   LIG d   1       7.368  -0.672 -10.036  0.00  0.00     0.033 H 
ATOM     28  H   LIG d   1       4.648   2.744  -8.188  0.00  0.00     0.057 H 
ATOM     29  H   LIG d   1       3.552   0.224 -10.873  0.00  0.00     0.086 H 
ATOM     30  H   LIG d   1       2.632   0.057  -9.449  0.00  0.00     0.086 H 
ATOM     31  H   LIG d   1       6.676  -1.559  -5.497  0.00  0.00     0.152 HD
ATOM     32  H   LIG d   1       2.182  -0.304  -8.036  0.00  0.00     0.062 H 
ATOM     33  H   LIG d   1       1.147   0.639  -6.072  0.00  0.00     0.062 H 
ATOM     34  H   LIG d   1       2.298   0.732  -3.925  0.00  0.00     0.066 H 
ENDROOT
BRANCH   1  35
ATOM     35  C   LIG d   1       3.900  -2.114 -11.199  0.00  0.00    -0.030 C 
ATOM     36  H   LIG d   1       4.878  -2.414 -11.577  0.00  0.00     0.082 H 
ATOM     37  H   LIG d   1       3.254  -2.989 -11.127  0.00  0.00     0.082 H 
BRANCH  35  38
ATOM     38  C   LIG d   1       3.274  -1.095 -12.152  0.00  0.00    -0.015 C 
ATOM     39  H   LIG d   1       2.331  -1.487 -12.535  0.00  0.00     0.031 H 
ATOM     40  H   LIG d   1       3.091  -0.163 -11.619  0.00  0.00     0.031 H 
BRANCH  38  41
ATOM     41  C   LIG d   1       4.229  -0.835 -13.320  0.00  0.00    -0.060 C 
ATOM     42  H   LIG d   1       5.050  -1.551 -13.284  0.00  0.00     0.023 H 
ATOM     43  H   LIG d   1       3.690  -0.949 -14.261  0.00  0.00     0.023 H 
ATOM     44  H   LIG d   1       4.625   0.177 -13.246  0.00  0.00     0.023 H 
ENDBRANCH  38  41
ENDBRANCH  35  38
ENDBRANCH   1  35
BRANCH  11  45
ATOM     45  C   LIG d   1       2.537   2.227  -8.776  0.00  0.00    -0.046 C 
ATOM     46  H   LIG d   1       2.071   1.933  -7.837  0.00  0.00     0.027 H 
ATOM     47  H   LIG d   1       2.333   3.281  -8.969  0.00  0.00     0.027 H 
ATOM     48  H   LIG d   1       2.132   1.623  -9.588  0.00  0.00     0.027 H 
ENDBRANCH  11  45
BRANCH  13  49
ATOM     49  C   LIG d   1       7.784   1.415  -7.372  0.00  0.00     0.148 C 
ATOM     50  O   LIG d   1       7.781   1.790  -6.217  0.00  0.00    -0.296 OA
ATOM     51  H   LIG d   1       8.608   1.673  -8.021  0.00  0.00     0.108 H 
ENDBRANCH  13  49
BRANCH  21  52
ATOM     52  O   LIG d   1       4.783  -0.039  -3.466  0.00  0.00    -0.505 OA
ATOM     53  H   LIG d   1       4.753   0.826  -3.033  0.00  0.00     0.292 HD
ENDBRANCH  21  52
TORSDOF 6
ENDMDL
MODEL 9
REMARK VINA RESULT:      -5.2      3.403      6.389
REMARK  6 active torsions:
REMARK  status: ('A' for Active; 'I' for Inactive)
REMARK    1  A    between atoms: C_1  and  C_2 
REMARK    2  A    between atoms: C_2  and  C_3 
REMARK    3  A    between atoms: C_3  and  N_4 
REMARK    4  A    between atoms: C_14  and  C_15 
REMARK    5  A    between atoms: C_17  and  C_27 
REMARK    6  A    between atoms: C_25  and  O_26 
ROOT
ATOM      1  N   LIG d   1       2.911  -1.074 -10.815  0.00  0.00     0.249 N 
ATOM      2  C   LIG d   1       2.186  -1.830  -9.726  0.00  0.00    -0.028 C 
ATOM      3  C   LIG d   1       3.262  -2.791  -9.066  0.00  0.00     0.008 C 
ATOM      4  C   LIG d   1       4.356  -1.723  -9.209  0.00  0.00     0.083 C 
ATOM      5  C   LIG d   1       4.267  -1.661 -10.694  0.00  0.00    -0.003 C 
ATOM      6  H   LIG d   1       4.232  -2.707 -11.105  0.00  0.00     0.086 H 
ATOM      7  C   LIG d   1       5.371  -0.968 -11.451  0.00  0.00     0.003 C 
ATOM      8  C   LIG d   1       5.880   0.056 -10.410  0.00  0.00     0.020 C 
ATOM      9  H   LIG d   1       6.576   0.772 -10.853  0.00  0.00     0.040 H 
ATOM     10  C   LIG d   1       4.571   0.719 -10.016  0.00  0.00    -0.021 C 
ATOM     11  C   LIG d   1       4.670   1.767  -9.230  0.00  0.00    -0.082 C 
ATOM     12  C   LIG d   1       3.199   0.336 -10.474  0.00  0.00    -0.007 C 
ATOM     13  C   LIG d   1       6.527  -0.743  -9.293  0.00  0.00     0.017 C 
ATOM     14  C   LIG d   1       5.716  -1.563  -8.629  0.00  0.00     0.031 C 
ATOM     15  N   LIG d   1       5.540  -2.359  -7.578  0.00  0.00    -0.314 N 
ATOM     16  C   LIG d   1       4.614  -1.447  -6.988  0.00  0.00     0.077 A 
ATOM     17  C   LIG d   1       3.796  -0.929  -8.052  0.00  0.00    -0.005 A 
ATOM     18  C   LIG d   1       2.831  -0.026  -7.748  0.00  0.00    -0.056 A 
ATOM     19  C   LIG d   1       2.695   0.403  -6.424  0.00  0.00    -0.058 A 
ATOM     20  C   LIG d   1       3.486  -0.093  -5.413  0.00  0.00    -0.018 A 
ATOM     21  C   LIG d   1       4.468  -1.046  -5.676  0.00  0.00     0.138 A 
ATOM     22  H   LIG d   1       1.700  -1.203  -9.002  0.00  0.00     0.082 H 
ATOM     23  H   LIG d   1       1.409  -2.466 -10.192  0.00  0.00     0.082 H 
ATOM     24  H   LIG d   1       3.038  -3.012  -8.030  0.00  0.00     0.033 H 
ATOM     25  H   LIG d   1       3.463  -3.668  -9.669  0.00  0.00     0.033 H 
ATOM     26  H   LIG d   1       4.986  -0.464 -12.331  0.00  0.00     0.033 H 
ATOM     27  H   LIG d   1       6.155  -1.675 -11.711  0.00  0.00     0.033 H 
ATOM     28  H   LIG d   1       5.626   2.037  -8.808  0.00  0.00     0.057 H 
ATOM     29  H   LIG d   1       3.084   0.889 -11.450  0.00  0.00     0.086 H 
ATOM     30  H   LIG d   1       2.434   0.796  -9.878  0.00  0.00     0.086 H 
ATOM     31  H   LIG d   1       5.884  -3.211  -7.303  0.00  0.00     0.152 HD
ATOM     32  H   LIG d   1       2.106   0.341  -8.459  0.00  0.00     0.062 H 
ATOM     33  H   LIG d   1       1.948   1.149  -6.192  0.00  0.00     0.062 H 
ATOM     34  H   LIG d   1       3.348   0.261  -4.404  0.00  0.00     0.066 H 
ENDROOT
BRANCH   1  35
ATOM     35  C   LIG d   1       2.273  -1.239 -12.161  0.00  0.00    -0.030 C 
ATOM     36  H   LIG d   1       2.491  -0.366 -12.777  0.00  0.00     0.082 H 
ATOM     37  H   LIG d   1       2.670  -2.132 -12.643  0.00  0.00     0.082 H 
BRANCH  35  38
ATOM     38  C   LIG d   1       0.759  -1.381 -11.994  0.00  0.00    -0.015 C 
ATOM     39  H   LIG d   1       0.540  -1.820 -11.020  0.00  0.00     0.031 H 
ATOM     40  H   LIG d   1       0.293  -0.398 -12.062  0.00  0.00     0.031 H 
BRANCH  38  41
ATOM     41  C   LIG d   1       0.206  -2.285 -13.098  0.00  0.00    -0.060 C 
ATOM     42  H   LIG d   1      -0.654  -1.804 -13.564  0.00  0.00     0.023 H 
ATOM     43  H   LIG d   1       0.978  -2.454 -13.849  0.00  0.00     0.023 H 
ATOM     44  H   LIG d   1      -0.099  -3.238 -12.667  0.00  0.00     0.023 H 
ENDBRANCH  38  41
ENDBRANCH  35  38
ENDBRANCH   1  35
BRANCH  11  45
ATOM     45  C   LIG d   1       3.448   2.592  -8.919  0.00  0.00    -0.046 C 
ATOM     46  H   LIG d   1       2.601   2.219  -9.495  0.00  0.00     0.027 H 
ATOM     47  H   LIG d   1       3.224   2.520  -7.854  0.00  0.00     0.027 H 
ATOM     48  H   LIG d   1       3.636   3.633  -9.182  0.00  0.00     0.027 H 
ENDBRANCH  11  45
BRANCH  13  49
ATOM     49  C   LIG d   1       7.901  -0.621  -8.979  0.00  0.00     0.148 C 
ATOM     50  O   LIG d   1       8.306  -0.949  -7.881  0.00  0.00    -0.296 OA
ATOM     51  H   LIG d   1       8.591  -0.237  -9.716  0.00  0.00     0.108 H 
ENDBRANCH  13  49
BRANCH  21  52
ATOM     52  O   LIG d   1       5.247  -1.553  -4.682  0.00  0.00    -0.505 OA
ATOM     53  H   LIG d   1       5.927  -0.942  -4.364  0.00  0.00     0.292 HD
ENDBRANCH  21  52
TORSDOF 6
ENDMDL
