MODEL 1
REMARK VINA RESULT:      -5.7      0.000      0.000
REMARK  9 active torsions:
REMARK  status: ('A' for Active; 'I' for Inactive)
REMARK    1  A    between atoms: C_1  and  N_47 
REMARK    2  A    between atoms: C_7  and  O_10 
REMARK    3  A    between atoms: C_8  and  O_9 
REMARK    4  A    between atoms: O_10  and  C_11 
REMARK    5  A    between atoms: C_12  and  C_15 
REMARK    6  A    between atoms: C_15  and  C_16 
REMARK    7  A    between atoms: C_20  and  O_23 
REMARK    8  A    between atoms: C_21  and  O_22 
REMARK    9  A    between atoms: O_23  and  C_24 
ROOT
ATOM      1  C   LIG d   1       8.433  -0.395  -4.995  0.00  0.00    -0.002 C 
ATOM      2  C   LIG d   1       7.212  -0.714  -4.173  0.00  0.00     0.046 A 
ATOM      3  C   LIG d   1       6.643  -1.971  -4.172  0.00  0.00    -0.027 A 
ATOM      4  C   LIG d   1       5.516  -2.221  -3.404  0.00  0.00    -0.054 A 
ATOM      5  C   LIG d   1       4.956  -1.220  -2.635  0.00  0.00    -0.016 A 
ATOM      6  C   LIG d   1       5.523   0.043  -2.629  0.00  0.00     0.162 A 
ATOM      7  C   LIG d   1       6.653   0.295  -3.399  0.00  0.00     0.167 A 
ATOM      8  C   LIG d   1       7.217  -3.098  -4.992  0.00  0.00     0.029 C 
ATOM      9  H   LIG d   1       7.768  -3.776  -4.338  0.00  0.00     0.040 H 
ATOM     10  C   LIG d   1       8.162  -2.542  -6.057  0.00  0.00    -0.025 C 
ATOM     11  H   LIG d   1       9.117   0.213  -4.402  0.00  0.00     0.087 H 
ATOM     12  H   LIG d   1       8.134   0.162  -5.882  0.00  0.00     0.087 H 
ATOM     13  H   LIG d   1       5.073  -3.205  -3.407  0.00  0.00     0.062 H 
ATOM     14  H   LIG d   1       4.078  -1.422  -2.040  0.00  0.00     0.066 H 
ATOM     15  H   LIG d   1       8.706  -3.360  -6.528  0.00  0.00     0.082 H 
ATOM     16  H   LIG d   1       7.589  -2.002  -6.809  0.00  0.00     0.082 H 
ATOM     17  N   LIG d   1       9.120  -1.638  -5.384  0.00  0.00     0.237 N 
ATOM     18  H   LIG d   1       9.481  -2.101  -4.541  0.00  0.00     0.203 HD
ENDROOT
BRANCH   8  19
ATOM     19  C   LIG d   1       6.080  -3.863  -5.672  0.00  0.00    -0.012 C 
ATOM     20  H   LIG d   1       6.064  -3.620  -6.735  0.00  0.00     0.032 H 
ATOM     21  H   LIG d   1       5.130  -3.579  -5.221  0.00  0.00     0.032 H 
BRANCH  19  22
ATOM     22  C   LIG d   1       6.295  -5.344  -5.498  0.00  0.00    -0.002 A 
ATOM     23  C   LIG d   1       5.209  -6.205  -5.489  0.00  0.00     0.162 A 
ATOM     24  C   LIG d   1       5.411  -7.573  -5.329  0.00  0.00     0.162 A 
ATOM     25  C   LIG d   1       6.697  -8.068  -5.184  0.00  0.00    -0.016 A 
ATOM     26  C   LIG d   1       7.775  -7.203  -5.187  0.00  0.00    -0.058 A 
ATOM     27  H   LIG d   1       6.856  -9.129  -5.063  0.00  0.00     0.066 H 
ATOM     28  C   LIG d   1       7.575  -5.845  -5.346  0.00  0.00    -0.055 A 
ATOM     29  H   LIG d   1       8.777  -7.589  -5.069  0.00  0.00     0.062 H 
ATOM     30  H   LIG d   1       8.420  -5.172  -5.352  0.00  0.00     0.062 H 
BRANCH  23  31
ATOM     31  O   LIG d   1       3.950  -5.715  -5.639  0.00  0.00    -0.503 OA
ATOM     32  H   LIG d   1       3.910  -4.861  -6.091  0.00  0.00     0.292 HD
ENDBRANCH  23  31
BRANCH  24  33
ATOM     33  O   LIG d   1       4.350  -8.422  -5.321  0.00  0.00    -0.491 OA
BRANCH  33  34
ATOM     34  C   LIG d   1       4.383  -9.494  -4.376  0.00  0.00     0.079 C 
ATOM     35  H   LIG d   1       3.376  -9.888  -4.238  0.00  0.00     0.066 H 
ATOM     36  H   LIG d   1       5.035 -10.284  -4.747  0.00  0.00     0.066 H 
ATOM     37  H   LIG d   1       4.764  -9.127  -3.423  0.00  0.00     0.066 H 
ENDBRANCH  33  34
ENDBRANCH  24  33
ENDBRANCH  19  22
ENDBRANCH   8  19
BRANCH  17  38
ATOM     38  C   LIG d   1      10.250  -1.333  -6.287  0.00  0.00    -0.043 C 
ATOM     39  H   LIG d   1      11.177  -1.254  -5.720  0.00  0.00     0.078 H 
ATOM     40  H   LIG d   1      10.342  -2.131  -7.024  0.00  0.00     0.078 H 
ATOM     41  H   LIG d   1      10.055  -0.390  -6.796  0.00  0.00     0.078 H 
ENDBRANCH  17  38
BRANCH   7  42
ATOM     42  O   LIG d   1       7.212   1.536  -3.396  0.00  0.00    -0.503 OA
ATOM     43  H   LIG d   1       8.046   1.589  -2.911  0.00  0.00     0.292 HD
ENDBRANCH   7  42
BRANCH   6  44
ATOM     44  O   LIG d   1       4.978   1.034  -1.873  0.00  0.00    -0.491 OA
BRANCH  44  45
ATOM     45  C   LIG d   1       3.672   1.483  -2.238  0.00  0.00     0.079 C 
ATOM     46  H   LIG d   1       3.564   1.448  -3.322  0.00  0.00     0.066 H 
ATOM     47  H   LIG d   1       2.923   0.838  -1.778  0.00  0.00     0.066 H 
ATOM     48  H   LIG d   1       3.529   2.508  -1.894  0.00  0.00     0.066 H 
ENDBRANCH  44  45
ENDBRANCH   6  44
TORSDOF 9
ENDMDL
MODEL 2
REMARK VINA RESULT:      -5.7      2.980      7.752
REMARK  9 active torsions:
REMARK  status: ('A' for Active; 'I' for Inactive)
REMARK    1  A    between atoms: C_1  and  N_47 
REMARK    2  A    between atoms: C_7  and  O_10 
REMARK    3  A    between atoms: C_8  and  O_9 
REMARK    4  A    between atoms: O_10  and  C_11 
REMARK    5  A    between atoms: C_12  and  C_15 
REMARK    6  A    between atoms: C_15  and  C_16 
REMARK    7  A    between atoms: C_20  and  O_23 
REMARK    8  A    between atoms: C_21  and  O_22 
REMARK    9  A    between atoms: O_23  and  C_24 
ROOT
ATOM      1  C   LIG d   1       3.618  -5.520  -9.095  0.00  0.00    -0.002 C 
ATOM      2  C   LIG d   1       4.090  -6.145  -7.808  0.00  0.00     0.046 A 
ATOM      3  C   LIG d   1       4.298  -5.395  -6.669  0.00  0.00    -0.027 A 
ATOM      4  C   LIG d   1       4.737  -6.010  -5.506  0.00  0.00    -0.054 A 
ATOM      5  C   LIG d   1       4.966  -7.372  -5.478  0.00  0.00    -0.016 A 
ATOM      6  C   LIG d   1       4.758  -8.130  -6.617  0.00  0.00     0.162 A 
ATOM      7  C   LIG d   1       4.318  -7.515  -7.783  0.00  0.00     0.167 A 
ATOM      8  C   LIG d   1       4.059  -3.908  -6.647  0.00  0.00     0.029 C 
ATOM      9  H   LIG d   1       3.117  -3.700  -6.138  0.00  0.00     0.040 H 
ATOM     10  C   LIG d   1       3.993  -3.368  -8.076  0.00  0.00    -0.025 C 
ATOM     11  H   LIG d   1       2.859  -6.159  -9.548  0.00  0.00     0.087 H 
ATOM     12  H   LIG d   1       4.461  -5.423  -9.779  0.00  0.00     0.087 H 
ATOM     13  H   LIG d   1       4.900  -5.421  -4.617  0.00  0.00     0.062 H 
ATOM     14  H   LIG d   1       5.309  -7.844  -4.568  0.00  0.00     0.066 H 
ATOM     15  H   LIG d   1       3.648  -2.334  -8.062  0.00  0.00     0.082 H 
ATOM     16  H   LIG d   1       4.981  -3.418  -8.533  0.00  0.00     0.082 H 
ATOM     17  N   LIG d   1       3.027  -4.198  -8.828  0.00  0.00     0.237 N 
ATOM     18  H   LIG d   1       2.178  -4.317  -8.264  0.00  0.00     0.203 HD
ENDROOT
BRANCH   8  19
ATOM     19  C   LIG d   1       5.202  -3.220  -5.897  0.00  0.00    -0.012 C 
ATOM     20  H   LIG d   1       5.743  -2.567  -6.582  0.00  0.00     0.032 H 
ATOM     21  H   LIG d   1       5.881  -3.973  -5.501  0.00  0.00     0.032 H 
BRANCH  19  22
ATOM     22  C   LIG d   1       4.640  -2.403  -4.763  0.00  0.00    -0.002 A 
ATOM     23  C   LIG d   1       4.357  -1.060  -4.950  0.00  0.00     0.162 A 
ATOM     24  C   LIG d   1       3.838  -0.308  -3.900  0.00  0.00     0.162 A 
ATOM     25  C   LIG d   1       3.601  -0.908  -2.673  0.00  0.00    -0.016 A 
ATOM     26  C   LIG d   1       3.892  -2.247  -2.491  0.00  0.00    -0.058 A 
ATOM     27  H   LIG d   1       3.195  -0.328  -1.859  0.00  0.00     0.066 H 
ATOM     28  C   LIG d   1       4.408  -2.994  -3.533  0.00  0.00    -0.055 A 
ATOM     29  H   LIG d   1       3.711  -2.713  -1.534  0.00  0.00     0.062 H 
ATOM     30  H   LIG d   1       4.629  -4.041  -3.389  0.00  0.00     0.062 H 
BRANCH  23  31
ATOM     31  O   LIG d   1       4.585  -0.478  -6.157  0.00  0.00    -0.503 OA
ATOM     32  H   LIG d   1       4.525   0.488  -6.146  0.00  0.00     0.292 HD
ENDBRANCH  23  31
BRANCH  24  33
ATOM     33  O   LIG d   1       3.558   1.010  -4.079  0.00  0.00    -0.491 OA
BRANCH  33  34
ATOM     34  C   LIG d   1       3.648   1.855  -2.930  0.00  0.00     0.079 C 
ATOM     35  H   LIG d   1       3.377   1.287  -2.039  0.00  0.00     0.066 H 
ATOM     36  H   LIG d   1       4.669   2.223  -2.829  0.00  0.00     0.066 H 
ATOM     37  H   LIG d   1       2.967   2.698  -3.044  0.00  0.00     0.066 H 
ENDBRANCH  33  34
ENDBRANCH  24  33
ENDBRANCH  19  22
ENDBRANCH   8  19
BRANCH  17  38
ATOM     38  C   LIG d   1       2.671  -3.534 -10.100  0.00  0.00    -0.043 C 
ATOM     39  H   LIG d   1       2.153  -2.595  -9.906  0.00  0.00     0.078 H 
ATOM     40  H   LIG d   1       3.582  -3.335 -10.665  0.00  0.00     0.078 H 
ATOM     41  H   LIG d   1       2.024  -4.193 -10.677  0.00  0.00     0.078 H 
ENDBRANCH  17  38
BRANCH   7  42
ATOM     42  O   LIG d   1       4.112  -8.257  -8.905  0.00  0.00    -0.503 OA
ATOM     43  H   LIG d   1       4.883  -8.314  -9.486  0.00  0.00     0.292 HD
ENDBRANCH   7  42
BRANCH   6  44
ATOM     44  O   LIG d   1       4.981  -9.472  -6.596  0.00  0.00    -0.491 OA
BRANCH  44  45
ATOM     45  C   LIG d   1       5.130 -10.084  -5.313  0.00  0.00     0.079 C 
ATOM     46  H   LIG d   1       4.450 -10.932  -5.234  0.00  0.00     0.066 H 
ATOM     47  H   LIG d   1       6.157 -10.429  -5.193  0.00  0.00     0.066 H 
ATOM     48  H   LIG d   1       4.897  -9.359  -4.534  0.00  0.00     0.066 H 
ENDBRANCH  44  45
ENDBRANCH   6  44
TORSDOF 9
ENDMDL
MODEL 3
REMARK VINA RESULT:      -5.4     10.804     12.640
REMARK  9 active torsions:
REMARK  status: ('A' for Active; 'I' for Inactive)
REMARK    1  A    between atoms: C_1  and  N_47 
REMARK    2  A    between atoms: C_7  and  O_10 
REMARK    3  A    between atoms: C_8  and  O_9 
REMARK    4  A    between atoms: O_10  and  C_11 
REMARK    5  A    between atoms: C_12  and  C_15 
REMARK    6  A    between atoms: C_15  and  C_16 
REMARK    7  A    between atoms: C_20  and  O_23 
REMARK    8  A    between atoms: C_21  and  O_22 
REMARK    9  A    between atoms: O_23  and  C_24 
ROOT
ATOM      1  C   LIG d   1       9.812   8.757  -7.932  0.00  0.00    -0.002 C 
ATOM      2  C   LIG d   1       9.798   9.459  -6.599  0.00  0.00     0.046 A 
ATOM      3  C   LIG d   1       9.911   8.766  -5.411  0.00  0.00    -0.027 A 
ATOM      4  C   LIG d   1       9.888   9.450  -4.205  0.00  0.00    -0.054 A 
ATOM      5  C   LIG d   1       9.755  10.826  -4.183  0.00  0.00    -0.016 A 
ATOM      6  C   LIG d   1       9.643  11.527  -5.371  0.00  0.00     0.162 A 
ATOM      7  C   LIG d   1       9.665  10.842  -6.580  0.00  0.00     0.167 A 
ATOM      8  C   LIG d   1      10.061   7.267  -5.382  0.00  0.00     0.029 C 
ATOM      9  H   LIG d   1      11.101   7.012  -5.175  0.00  0.00     0.040 H 
ATOM     10  C   LIG d   1       9.652   6.674  -6.730  0.00  0.00    -0.025 C 
ATOM     11  H   LIG d   1      10.428   9.325  -8.630  0.00  0.00     0.087 H 
ATOM     12  H   LIG d   1       8.795   8.696  -8.318  0.00  0.00     0.087 H 
ATOM     13  H   LIG d   1       9.975   8.906  -3.278  0.00  0.00     0.062 H 
ATOM     14  H   LIG d   1       9.737  11.351  -3.240  0.00  0.00     0.066 H 
ATOM     15  H   LIG d   1       9.926   5.620  -6.766  0.00  0.00     0.082 H 
ATOM     16  H   LIG d   1       8.575   6.778  -6.864  0.00  0.00     0.082 H 
ATOM     17  N   LIG d   1      10.382   7.407  -7.786  0.00  0.00     0.237 N 
ATOM     18  H   LIG d   1      11.370   7.487  -7.517  0.00  0.00     0.203 HD
ENDROOT
BRANCH   8  19
ATOM     19  C   LIG d   1       9.170   6.688  -4.281  0.00  0.00    -0.012 C 
ATOM     20  H   LIG d   1       8.572   5.873  -4.690  0.00  0.00     0.032 H 
ATOM     21  H   LIG d   1       8.510   7.466  -3.901  0.00  0.00     0.032 H 
BRANCH  19  22
ATOM     22  C   LIG d   1      10.030   6.166  -3.159  0.00  0.00    -0.002 A 
ATOM     23  C   LIG d   1       9.760   6.534  -1.851  0.00  0.00     0.162 A 
ATOM     24  C   LIG d   1      10.556   6.050  -0.817  0.00  0.00     0.162 A 
ATOM     25  C   LIG d   1      11.613   5.200  -1.100  0.00  0.00    -0.016 A 
ATOM     26  C   LIG d   1      11.881   4.843  -2.408  0.00  0.00    -0.058 A 
ATOM     27  H   LIG d   1      12.229   4.821  -0.298  0.00  0.00     0.066 H 
ATOM     28  C   LIG d   1      11.091   5.323  -3.435  0.00  0.00    -0.055 A 
ATOM     29  H   LIG d   1      12.708   4.184  -2.628  0.00  0.00     0.062 H 
ATOM     30  H   LIG d   1      11.301   5.038  -4.456  0.00  0.00     0.062 H 
BRANCH  23  31
ATOM     31  O   LIG d   1       8.717   7.363  -1.578  0.00  0.00    -0.503 OA
ATOM     32  H   LIG d   1       8.929   8.067  -0.949  0.00  0.00     0.292 HD
ENDBRANCH  23  31
BRANCH  24  33
ATOM     33  O   LIG d   1      10.294   6.407   0.469  0.00  0.00    -0.491 OA
BRANCH  33  34
ATOM     34  C   LIG d   1      11.053   5.757   1.490  0.00  0.00     0.079 C 
ATOM     35  H   LIG d   1      11.859   6.414   1.818  0.00  0.00     0.066 H 
ATOM     36  H   LIG d   1      10.404   5.529   2.335  0.00  0.00     0.066 H 
ATOM     37  H   LIG d   1      11.476   4.833   1.096  0.00  0.00     0.066 H 
ENDBRANCH  33  34
ENDBRANCH  24  33
ENDBRANCH  19  22
ENDBRANCH   8  19
BRANCH  17  38
ATOM     38  C   LIG d   1      10.289   6.676  -9.068  0.00  0.00    -0.043 C 
ATOM     39  H   LIG d   1      11.165   6.042  -9.207  0.00  0.00     0.078 H 
ATOM     40  H   LIG d   1       9.391   6.057  -9.061  0.00  0.00     0.078 H 
ATOM     41  H   LIG d   1      10.228   7.394  -9.884  0.00  0.00     0.078 H 
ENDBRANCH  17  38
BRANCH   7  42
ATOM     42  O   LIG d   1       9.555  11.527  -7.750  0.00  0.00    -0.503 OA
ATOM     43  H   LIG d   1      10.374  11.955  -8.034  0.00  0.00     0.292 HD
ENDBRANCH   7  42
BRANCH   6  44
ATOM     44  O   LIG d   1       9.512  12.880  -5.356  0.00  0.00    -0.491 OA
BRANCH  44  45
ATOM     45  C   LIG d   1       9.354  13.503  -4.080  0.00  0.00     0.079 C 
ATOM     46  H   LIG d   1      10.243  14.092  -3.850  0.00  0.00     0.066 H 
ATOM     47  H   LIG d   1       8.481  14.154  -4.099  0.00  0.00     0.066 H 
ATOM     48  H   LIG d   1       9.220  12.737  -3.315  0.00  0.00     0.066 H 
ENDBRANCH  44  45
ENDBRANCH   6  44
TORSDOF 9
ENDMDL
MODEL 4
REMARK VINA RESULT:      -5.4     11.534     13.103
REMARK  9 active torsions:
REMARK  status: ('A' for Active; 'I' for Inactive)
REMARK    1  A    between atoms: C_1  and  N_47 
REMARK    2  A    between atoms: C_7  and  O_10 
REMARK    3  A    between atoms: C_8  and  O_9 
REMARK    4  A    between atoms: O_10  and  C_11 
REMARK    5  A    between atoms: C_12  and  C_15 
REMARK    6  A    between atoms: C_15  and  C_16 
REMARK    7  A    between atoms: C_20  and  O_23 
REMARK    8  A    between atoms: C_21  and  O_22 
REMARK    9  A    between atoms: O_23  and  C_24 
ROOT
ATOM      1  C   LIG d   1       9.814  10.608  -2.707  0.00  0.00    -0.002 C 
ATOM      2  C   LIG d   1       9.935   9.110  -2.611  0.00  0.00     0.046 A 
ATOM      3  C   LIG d   1      10.034   8.315  -3.735  0.00  0.00    -0.027 A 
ATOM      4  C   LIG d   1      10.139   6.939  -3.603  0.00  0.00    -0.054 A 
ATOM      5  C   LIG d   1      10.147   6.354  -2.351  0.00  0.00    -0.016 A 
ATOM      6  C   LIG d   1      10.049   7.146  -1.220  0.00  0.00     0.162 A 
ATOM      7  C   LIG d   1       9.944   8.525  -1.351  0.00  0.00     0.167 A 
ATOM      8  C   LIG d   1      10.033   8.904  -5.122  0.00  0.00     0.029 C 
ATOM      9  H   LIG d   1      11.051   8.907  -5.514  0.00  0.00     0.040 H 
ATOM     10  C   LIG d   1       9.502  10.337  -5.081  0.00  0.00    -0.025 C 
ATOM     11  H   LIG d   1      10.450  11.068  -1.950  0.00  0.00     0.087 H 
ATOM     12  H   LIG d   1       8.778  10.898  -2.530  0.00  0.00     0.087 H 
ATOM     13  H   LIG d   1      10.215   6.320  -4.484  0.00  0.00     0.062 H 
ATOM     14  H   LIG d   1      10.228   5.281  -2.256  0.00  0.00     0.066 H 
ATOM     15  H   LIG d   1       9.665  10.817  -6.046  0.00  0.00     0.082 H 
ATOM     16  H   LIG d   1       8.436  10.326  -4.853  0.00  0.00     0.082 H 
ATOM     17  N   LIG d   1      10.251  11.067  -4.036  0.00  0.00     0.237 N 
ATOM     18  H   LIG d   1      11.253  10.874  -4.146  0.00  0.00     0.203 HD
ENDROOT
BRANCH   8  19
ATOM     19  C   LIG d   1       9.142   8.058  -6.034  0.00  0.00    -0.012 C 
ATOM     20  H   LIG d   1       8.240   8.619  -6.280  0.00  0.00     0.032 H 
ATOM     21  H   LIG d   1       8.867   7.137  -5.520  0.00  0.00     0.032 H 
BRANCH  19  22
ATOM     22  C   LIG d   1       9.889   7.724  -7.299  0.00  0.00    -0.002 A 
ATOM     23  C   LIG d   1       9.554   8.353  -8.486  0.00  0.00     0.162 A 
ATOM     24  C   LIG d   1      10.247   8.042  -9.654  0.00  0.00     0.162 A 
ATOM     25  C   LIG d   1      11.270   7.108  -9.621  0.00  0.00    -0.016 A 
ATOM     26  C   LIG d   1      11.594   6.479  -8.434  0.00  0.00    -0.058 A 
ATOM     27  H   LIG d   1      11.810   6.869 -10.524  0.00  0.00     0.066 H 
ATOM     28  C   LIG d   1      10.907   6.788  -7.275  0.00  0.00    -0.055 A 
ATOM     29  H   LIG d   1      12.388   5.749  -8.410  0.00  0.00     0.062 H 
ATOM     30  H   LIG d   1      11.165   6.297  -6.347  0.00  0.00     0.062 H 
BRANCH  23  31
ATOM     31  O   LIG d   1       8.554   9.273  -8.512  0.00  0.00    -0.503 OA
ATOM     32  H   LIG d   1       8.591   9.916  -7.791  0.00  0.00     0.292 HD
ENDBRANCH  23  31
BRANCH  24  33
ATOM     33  O   LIG d   1       9.923   8.657 -10.822  0.00  0.00    -0.491 OA
BRANCH  33  34
ATOM     34  C   LIG d   1       9.978   7.865 -12.010  0.00  0.00     0.079 C 
ATOM     35  H   LIG d   1       9.910   6.810 -11.746  0.00  0.00     0.066 H 
ATOM     36  H   LIG d   1       9.147   8.131 -12.662  0.00  0.00     0.066 H 
ATOM     37  H   LIG d   1      10.920   8.049 -12.527  0.00  0.00     0.066 H 
ENDBRANCH  33  34
ENDBRANCH  24  33
ENDBRANCH  19  22
ENDBRANCH   8  19
BRANCH  17  38
ATOM     38  C   LIG d   1      10.023  12.522  -4.171  0.00  0.00    -0.043 C 
ATOM     39  H   LIG d   1      10.457  13.053  -3.325  0.00  0.00     0.078 H 
ATOM     40  H   LIG d   1      10.486  12.870  -5.095  0.00  0.00     0.078 H 
ATOM     41  H   LIG d   1       8.951  12.712  -4.209  0.00  0.00     0.078 H 
ENDBRANCH  17  38
BRANCH   7  42
ATOM     42  O   LIG d   1       9.848   9.306  -0.241  0.00  0.00    -0.503 OA
ATOM     43  H   LIG d   1       9.102   9.921  -0.257  0.00  0.00     0.292 HD
ENDBRANCH   7  42
BRANCH   6  44
ATOM     44  O   LIG d   1      10.057   6.576   0.016  0.00  0.00    -0.491 OA
BRANCH  44  45
ATOM     45  C   LIG d   1      11.260   5.920   0.419  0.00  0.00     0.079 C 
ATOM     46  H   LIG d   1      11.745   6.500   1.205  0.00  0.00     0.066 H 
ATOM     47  H   LIG d   1      11.023   4.925   0.796  0.00  0.00     0.066 H 
ATOM     48  H   LIG d   1      11.933   5.834  -0.434  0.00  0.00     0.066 H 
ENDBRANCH  44  45
ENDBRANCH   6  44
TORSDOF 9
ENDMDL
MODEL 5
REMARK VINA RESULT:      -5.3      4.489      9.021
REMARK  9 active torsions:
REMARK  status: ('A' for Active; 'I' for Inactive)
REMARK    1  A    between atoms: C_1  and  N_47 
REMARK    2  A    between atoms: C_7  and  O_10 
REMARK    3  A    between atoms: C_8  and  O_9 
REMARK    4  A    between atoms: O_10  and  C_11 
REMARK    5  A    between atoms: C_12  and  C_15 
REMARK    6  A    between atoms: C_15  and  C_16 
REMARK    7  A    between atoms: C_20  and  O_23 
REMARK    8  A    between atoms: C_21  and  O_22 
REMARK    9  A    between atoms: O_23  and  C_24 
ROOT
ATOM      1  C   LIG d   1       7.588   0.559  -7.477  0.00  0.00    -0.002 C 
ATOM      2  C   LIG d   1       7.239   0.520  -6.012  0.00  0.00     0.046 A 
ATOM      3  C   LIG d   1       7.770   1.422  -5.112  0.00  0.00    -0.027 A 
ATOM      4  C   LIG d   1       7.425   1.348  -3.772  0.00  0.00    -0.054 A 
ATOM      5  C   LIG d   1       6.549   0.377  -3.326  0.00  0.00    -0.016 A 
ATOM      6  C   LIG d   1       6.010  -0.530  -4.224  0.00  0.00     0.162 A 
ATOM      7  C   LIG d   1       6.356  -0.457  -5.568  0.00  0.00     0.167 A 
ATOM      8  C   LIG d   1       8.727   2.501  -5.548  0.00  0.00     0.029 C 
ATOM      9  H   LIG d   1       8.200   3.455  -5.593  0.00  0.00     0.040 H 
ATOM     10  C   LIG d   1       9.296   2.170  -6.928  0.00  0.00    -0.025 C 
ATOM     11  H   LIG d   1       6.685   0.401  -8.066  0.00  0.00     0.087 H 
ATOM     12  H   LIG d   1       8.305  -0.232  -7.697  0.00  0.00     0.087 H 
ATOM     13  H   LIG d   1       7.843   2.053  -3.070  0.00  0.00     0.062 H 
ATOM     14  H   LIG d   1       6.285   0.325  -2.280  0.00  0.00     0.066 H 
ATOM     15  H   LIG d   1       9.846   3.028  -7.314  0.00  0.00     0.082 H 
ATOM     16  H   LIG d   1       9.962   1.311  -6.854  0.00  0.00     0.082 H 
ATOM     17  N   LIG d   1       8.159   1.871  -7.825  0.00  0.00     0.237 N 
ATOM     18  H   LIG d   1       7.438   2.593  -7.705  0.00  0.00     0.203 HD
ENDROOT
BRANCH   8  19
ATOM     19  C   LIG d   1       9.873   2.603  -4.538  0.00  0.00    -0.012 C 
ATOM     20  H   LIG d   1      10.823   2.460  -5.053  0.00  0.00     0.032 H 
ATOM     21  H   LIG d   1       9.754   1.834  -3.776  0.00  0.00     0.032 H 
BRANCH  19  22
ATOM     22  C   LIG d   1       9.852   3.962  -3.889  0.00  0.00    -0.002 A 
ATOM     23  C   LIG d   1      10.325   4.118  -2.596  0.00  0.00     0.162 A 
ATOM     24  C   LIG d   1      10.305   5.376  -1.999  0.00  0.00     0.162 A 
ATOM     25  C   LIG d   1       9.816   6.466  -2.701  0.00  0.00    -0.016 A 
ATOM     26  C   LIG d   1       9.340   6.301  -3.988  0.00  0.00    -0.058 A 
ATOM     27  H   LIG d   1       9.804   7.442  -2.241  0.00  0.00     0.066 H 
ATOM     28  C   LIG d   1       9.359   5.053  -4.582  0.00  0.00    -0.055 A 
ATOM     29  H   LIG d   1       8.955   7.149  -4.534  0.00  0.00     0.062 H 
ATOM     30  H   LIG d   1       8.990   4.928  -5.589  0.00  0.00     0.062 H 
BRANCH  23  31
ATOM     31  O   LIG d   1      10.810   3.048  -1.913  0.00  0.00    -0.503 OA
ATOM     32  H   LIG d   1      11.573   2.625  -2.332  0.00  0.00     0.292 HD
ENDBRANCH  23  31
BRANCH  24  33
ATOM     33  O   LIG d   1      10.769   5.536  -0.731  0.00  0.00    -0.491 OA
BRANCH  33  34
ATOM     34  C   LIG d   1      10.655   6.839  -0.157  0.00  0.00     0.079 C 
ATOM     35  H   LIG d   1      11.060   7.577  -0.849  0.00  0.00     0.066 H 
ATOM     36  H   LIG d   1       9.606   7.060   0.037  0.00  0.00     0.066 H 
ATOM     37  H   LIG d   1      11.214   6.875   0.779  0.00  0.00     0.066 H 
ENDBRANCH  33  34
ENDBRANCH  24  33
ENDBRANCH  19  22
ENDBRANCH   8  19
BRANCH  17  38
ATOM     38  C   LIG d   1       8.610   1.871  -9.233  0.00  0.00    -0.043 C 
ATOM     39  H   LIG d   1       8.216   2.742  -9.757  0.00  0.00     0.078 H 
ATOM     40  H   LIG d   1       9.700   1.895  -9.258  0.00  0.00     0.078 H 
ATOM     41  H   LIG d   1       8.256   0.963  -9.720  0.00  0.00     0.078 H 
ENDBRANCH  17  38
BRANCH   7  42
ATOM     42  O   LIG d   1       5.829  -1.346  -6.453  0.00  0.00    -0.503 OA
ATOM     43  H   LIG d   1       5.243  -2.001  -6.050  0.00  0.00     0.292 HD
ENDBRANCH   7  42
BRANCH   6  44
ATOM     44  O   LIG d   1       5.146  -1.488  -3.792  0.00  0.00    -0.491 OA
BRANCH  44  45
ATOM     45  C   LIG d   1       4.723  -1.413  -2.430  0.00  0.00     0.079 C 
ATOM     46  H   LIG d   1       3.859  -2.060  -2.281  0.00  0.00     0.066 H 
ATOM     47  H   LIG d   1       5.536  -1.737  -1.779  0.00  0.00     0.066 H 
ATOM     48  H   LIG d   1       4.452  -0.386  -2.188  0.00  0.00     0.066 H 
ENDBRANCH  44  45
ENDBRANCH   6  44
TORSDOF 9
ENDMDL
MODEL 6
REMARK VINA RESULT:      -5.3     10.246     14.867
REMARK  9 active torsions:
REMARK  status: ('A' for Active; 'I' for Inactive)
REMARK    1  A    between atoms: C_1  and  N_47 
REMARK    2  A    between atoms: C_7  and  O_10 
REMARK    3  A    between atoms: C_8  and  O_9 
REMARK    4  A    between atoms: O_10  and  C_11 
REMARK    5  A    between atoms: C_12  and  C_15 
REMARK    6  A    between atoms: C_15  and  C_16 
REMARK    7  A    between atoms: C_20  and  O_23 
REMARK    8  A    between atoms: C_21  and  O_22 
REMARK    9  A    between atoms: O_23  and  C_24 
ROOT
ATOM      1  C   LIG d   1      11.329   7.608   0.911  0.00  0.00    -0.002 C 
ATOM      2  C   LIG d   1      10.842   7.167  -0.445  0.00  0.00     0.046 A 
ATOM      3  C   LIG d   1      10.432   8.073  -1.401  0.00  0.00    -0.027 A 
ATOM      4  C   LIG d   1       9.987   7.625  -2.635  0.00  0.00    -0.054 A 
ATOM      5  C   LIG d   1       9.952   6.273  -2.918  0.00  0.00    -0.016 A 
ATOM      6  C   LIG d   1      10.364   5.358  -1.964  0.00  0.00     0.162 A 
ATOM      7  C   LIG d   1      10.809   5.807  -0.726  0.00  0.00     0.167 A 
ATOM      8  C   LIG d   1      10.454   9.558  -1.143  0.00  0.00     0.029 C 
ATOM      9  H   LIG d   1      11.309  10.001  -1.654  0.00  0.00     0.040 H 
ATOM     10  C   LIG d   1      10.565   9.826   0.358  0.00  0.00    -0.025 C 
ATOM     11  H   LIG d   1      12.207   7.023   1.185  0.00  0.00     0.087 H 
ATOM     12  H   LIG d   1      10.542   7.443   1.647  0.00  0.00     0.087 H 
ATOM     13  H   LIG d   1       9.665   8.336  -3.380  0.00  0.00     0.062 H 
ATOM     14  H   LIG d   1       9.603   5.931  -3.881  0.00  0.00     0.066 H 
ATOM     15  H   LIG d   1      10.756  10.886   0.528  0.00  0.00     0.082 H 
ATOM     16  H   LIG d   1       9.637   9.538   0.851  0.00  0.00     0.082 H 
ATOM     17  N   LIG d   1      11.700   9.033   0.876  0.00  0.00     0.237 N 
ATOM     18  H   LIG d   1      12.506   9.154   0.252  0.00  0.00     0.203 HD
ENDROOT
BRANCH   8  19
ATOM     19  C   LIG d   1       9.164  10.186  -1.677  0.00  0.00    -0.012 C 
ATOM     20  H   LIG d   1       8.558  10.534  -0.840  0.00  0.00     0.032 H 
ATOM     21  H   LIG d   1       8.607   9.443  -2.245  0.00  0.00     0.032 H 
BRANCH  19  22
ATOM     22  C   LIG d   1       9.504  11.350  -2.570  0.00  0.00    -0.002 A 
ATOM     23  C   LIG d   1       9.333  11.244  -3.941  0.00  0.00     0.162 A 
ATOM     24  C   LIG d   1       9.648  12.322  -4.764  0.00  0.00     0.162 A 
ATOM     25  C   LIG d   1      10.125  13.498  -4.208  0.00  0.00    -0.016 A 
ATOM     26  C   LIG d   1      10.299  13.595  -2.840  0.00  0.00    -0.058 A 
ATOM     27  H   LIG d   1      10.366  14.336  -4.844  0.00  0.00     0.066 H 
ATOM     28  C   LIG d   1       9.987  12.525  -2.023  0.00  0.00    -0.055 A 
ATOM     29  H   LIG d   1      10.676  14.510  -2.408  0.00  0.00     0.062 H 
ATOM     30  H   LIG d   1      10.120  12.606  -0.954  0.00  0.00     0.062 H 
BRANCH  23  31
ATOM     31  O   LIG d   1       8.858  10.090  -4.481  0.00  0.00    -0.503 OA
ATOM     32  H   LIG d   1       8.460   9.489  -3.838  0.00  0.00     0.292 HD
ENDBRANCH  23  31
BRANCH  24  33
ATOM     33  O   LIG d   1       9.481  12.223  -6.110  0.00  0.00    -0.491 OA
BRANCH  33  34
ATOM     34  C   LIG d   1       9.625  13.424  -6.872  0.00  0.00     0.079 C 
ATOM     35  H   LIG d   1       9.064  13.333  -7.802  0.00  0.00     0.066 H 
ATOM     36  H   LIG d   1       9.243  14.266  -6.297  0.00  0.00     0.066 H 
ATOM     37  H   LIG d   1      10.679  13.586  -7.098  0.00  0.00     0.066 H 
ENDBRANCH  33  34
ENDBRANCH  24  33
ENDBRANCH  19  22
ENDBRANCH   8  19
BRANCH  17  38
ATOM     38  C   LIG d   1      12.066   9.496   2.232  0.00  0.00    -0.043 C 
ATOM     39  H   LIG d   1      12.965   8.985   2.576  0.00  0.00     0.078 H 
ATOM     40  H   LIG d   1      12.247  10.570   2.204  0.00  0.00     0.078 H 
ATOM     41  H   LIG d   1      11.244   9.284   2.914  0.00  0.00     0.078 H 
ENDBRANCH  17  38
BRANCH   7  42
ATOM     42  O   LIG d   1      11.215   4.911   0.214  0.00  0.00    -0.503 OA
ATOM     43  H   LIG d   1      11.710   5.305   0.945  0.00  0.00     0.292 HD
ENDBRANCH   7  42
BRANCH   6  44
ATOM     44  O   LIG d   1      10.333   4.026  -2.236  0.00  0.00    -0.491 OA
BRANCH  44  45
ATOM     45  C   LIG d   1       9.600   3.617  -3.392  0.00  0.00     0.079 C 
ATOM     46  H   LIG d   1       8.625   3.233  -3.089  0.00  0.00     0.066 H 
ATOM     47  H   LIG d   1       9.463   4.471  -4.056  0.00  0.00     0.066 H 
ATOM     48  H   LIG d   1      10.150   2.835  -3.915  0.00  0.00     0.066 H 
ENDBRANCH  44  45
ENDBRANCH   6  44
TORSDOF 9
ENDMDL
MODEL 7
REMARK VINA RESULT:      -5.1     11.174     13.328
REMARK  9 active torsions:
REMARK  status: ('A' for Active; 'I' for Inactive)
REMARK    1  A    between atoms: C_1  and  N_47 
REMARK    2  A    between atoms: C_7  and  O_10 
REMARK    3  A    between atoms: C_8  and  O_9 
REMARK    4  A    between atoms: O_10  and  C_11 
REMARK    5  A    between atoms: C_12  and  C_15 
REMARK    6  A    between atoms: C_15  and  C_16 
REMARK    7  A    between atoms: C_20  and  O_23 
REMARK    8  A    between atoms: C_21  and  O_22 
REMARK    9  A    between atoms: O_23  and  C_24 
ROOT
ATOM      1  C   LIG d   1       9.273  10.138  -6.026  0.00  0.00    -0.002 C 
ATOM      2  C   LIG d   1       9.507   8.709  -6.441  0.00  0.00     0.046 A 
ATOM      3  C   LIG d   1       9.960   7.758  -5.550  0.00  0.00    -0.027 A 
ATOM      4  C   LIG d   1      10.166   6.454  -5.975  0.00  0.00    -0.054 A 
ATOM      5  C   LIG d   1       9.919   6.097  -7.287  0.00  0.00    -0.016 A 
ATOM      6  C   LIG d   1       9.462   7.047  -8.185  0.00  0.00     0.162 A 
ATOM      7  C   LIG d   1       9.256   8.354  -7.760  0.00  0.00     0.167 A 
ATOM      8  C   LIG d   1      10.241   8.095  -4.109  0.00  0.00     0.029 C 
ATOM      9  H   LIG d   1       9.427   7.724  -3.486  0.00  0.00     0.040 H 
ATOM     10  C   LIG d   1      10.360   9.610  -3.940  0.00  0.00    -0.025 C 
ATOM     11  H   LIG d   1       8.341  10.493  -6.467  0.00  0.00     0.087 H 
ATOM     12  H   LIG d   1      10.098  10.756  -6.382  0.00  0.00     0.087 H 
ATOM     13  H   LIG d   1      10.522   5.712  -5.277  0.00  0.00     0.062 H 
ATOM     14  H   LIG d   1      10.083   5.080  -7.610  0.00  0.00     0.066 H 
ATOM     15  H   LIG d   1      10.387   9.860  -2.879  0.00  0.00     0.082 H 
ATOM     16  H   LIG d   1      11.270   9.962  -4.423  0.00  0.00     0.082 H 
ATOM     17  N   LIG d   1       9.168  10.228  -4.560  0.00  0.00     0.237 N 
ATOM     18  H   LIG d   1       8.329   9.722  -4.251  0.00  0.00     0.203 HD
ENDROOT
BRANCH   8  19
ATOM     19  C   LIG d   1      11.552   7.432  -3.678  0.00  0.00    -0.012 C 
ATOM     20  H   LIG d   1      12.374   8.135  -3.813  0.00  0.00     0.032 H 
ATOM     21  H   LIG d   1      11.728   6.546  -4.287  0.00  0.00     0.032 H 
BRANCH  19  22
ATOM     22  C   LIG d   1      11.462   7.036  -2.227  0.00  0.00    -0.002 A 
ATOM     23  C   LIG d   1      12.091   7.802  -1.260  0.00  0.00     0.162 A 
ATOM     24  C   LIG d   1      12.005   7.433   0.080  0.00  0.00     0.162 A 
ATOM     25  C   LIG d   1      11.288   6.303   0.440  0.00  0.00    -0.016 A 
ATOM     26  C   LIG d   1      10.668   5.540  -0.531  0.00  0.00    -0.058 A 
ATOM     27  H   LIG d   1      11.217   6.017   1.479  0.00  0.00     0.066 H 
ATOM     28  C   LIG d   1      10.752   5.906  -1.862  0.00  0.00    -0.055 A 
ATOM     29  H   LIG d   1      10.113   4.657  -0.251  0.00  0.00     0.062 H 
ATOM     30  H   LIG d   1      10.263   5.309  -2.618  0.00  0.00     0.062 H 
BRANCH  23  31
ATOM     31  O   LIG d   1      12.788   8.913  -1.617  0.00  0.00    -0.503 OA
ATOM     32  H   LIG d   1      12.329   9.743  -1.432  0.00  0.00     0.292 HD
ENDBRANCH  23  31
BRANCH  24  33
ATOM     33  O   LIG d   1      12.620   8.181   1.034  0.00  0.00    -0.491 OA
BRANCH  33  34
ATOM     34  C   LIG d   1      11.793   9.049   1.812  0.00  0.00     0.079 C 
ATOM     35  H   LIG d   1      10.915   8.502   2.155  0.00  0.00     0.066 H 
ATOM     36  H   LIG d   1      12.355   9.411   2.672  0.00  0.00     0.066 H 
ATOM     37  H   LIG d   1      11.477   9.895   1.201  0.00  0.00     0.066 H 
ENDBRANCH  33  34
ENDBRANCH  24  33
ENDBRANCH  19  22
ENDBRANCH   8  19
BRANCH  17  38
ATOM     38  C   LIG d   1       9.056  11.643  -4.144  0.00  0.00    -0.043 C 
ATOM     39  H   LIG d   1      10.044  12.100  -4.087  0.00  0.00     0.078 H 
ATOM     40  H   LIG d   1       8.448  12.181  -4.871  0.00  0.00     0.078 H 
ATOM     41  H   LIG d   1       8.578  11.690  -3.166  0.00  0.00     0.078 H 
ENDBRANCH  17  38
BRANCH   7  42
ATOM     42  O   LIG d   1       8.807   9.290  -8.640  0.00  0.00    -0.503 OA
ATOM     43  H   LIG d   1       8.314  10.012  -8.229  0.00  0.00     0.292 HD
ENDBRANCH   7  42
BRANCH   6  44
ATOM     44  O   LIG d   1       9.216   6.702  -9.478  0.00  0.00    -0.491 OA
BRANCH  44  45
ATOM     45  C   LIG d   1       8.418   5.538  -9.697  0.00  0.00     0.079 C 
ATOM     46  H   LIG d   1       8.590   5.164 -10.707  0.00  0.00     0.066 H 
ATOM     47  H   LIG d   1       8.690   4.769  -8.974  0.00  0.00     0.066 H 
ATOM     48  H   LIG d   1       7.364   5.791  -9.580  0.00  0.00     0.066 H 
ENDBRANCH  44  45
ENDBRANCH   6  44
TORSDOF 9
ENDMDL
MODEL 8
REMARK VINA RESULT:      -4.9      8.180     12.897
REMARK  9 active torsions:
REMARK  status: ('A' for Active; 'I' for Inactive)
REMARK    1  A    between atoms: C_1  and  N_47 
REMARK    2  A    between atoms: C_7  and  O_10 
REMARK    3  A    between atoms: C_8  and  O_9 
REMARK    4  A    between atoms: O_10  and  C_11 
REMARK    5  A    between atoms: C_12  and  C_15 
REMARK    6  A    between atoms: C_15  and  C_16 
REMARK    7  A    between atoms: C_20  and  O_23 
REMARK    8  A    between atoms: C_21  and  O_22 
REMARK    9  A    between atoms: O_23  and  C_24 
ROOT
ATOM      1  C   LIG d   1      10.690   5.399  -1.661  0.00  0.00    -0.002 C 
ATOM      2  C   LIG d   1      10.481   4.744  -3.002  0.00  0.00     0.046 A 
ATOM      3  C   LIG d   1      10.258   5.484  -4.145  0.00  0.00    -0.027 A 
ATOM      4  C   LIG d   1      10.066   4.841  -5.358  0.00  0.00    -0.054 A 
ATOM      5  C   LIG d   1      10.097   3.462  -5.434  0.00  0.00    -0.016 A 
ATOM      6  C   LIG d   1      10.322   2.714  -4.291  0.00  0.00     0.162 A 
ATOM      7  C   LIG d   1      10.514   3.357  -3.073  0.00  0.00     0.167 A 
ATOM      8  C   LIG d   1      10.218   6.990  -4.116  0.00  0.00     0.029 C 
ATOM      9  H   LIG d   1      11.153   7.384  -4.515  0.00  0.00     0.040 H 
ATOM     10  C   LIG d   1      10.031   7.481  -2.681  0.00  0.00    -0.025 C 
ATOM     11  H   LIG d   1      11.502   4.893  -1.137  0.00  0.00     0.087 H 
ATOM     12  H   LIG d   1       9.776   5.315  -1.073  0.00  0.00     0.087 H 
ATOM     13  H   LIG d   1       9.890   5.422  -6.251  0.00  0.00     0.062 H 
ATOM     14  H   LIG d   1       9.946   2.969  -6.383  0.00  0.00     0.066 H 
ATOM     15  H   LIG d   1      10.178   8.560  -2.640  0.00  0.00     0.082 H 
ATOM     16  H   LIG d   1       9.027   7.234  -2.336  0.00  0.00     0.082 H 
ATOM     17  N   LIG d   1      11.049   6.815  -1.840  0.00  0.00     0.237 N 
ATOM     18  H   LIG d   1      11.961   6.873  -2.309  0.00  0.00     0.203 HD
ENDROOT
BRANCH   8  19
ATOM     19  C   LIG d   1       9.052   7.484  -4.977  0.00  0.00    -0.012 C 
ATOM     20  H   LIG d   1       8.295   7.937  -4.336  0.00  0.00     0.032 H 
ATOM     21  H   LIG d   1       8.616   6.643  -5.514  0.00  0.00     0.032 H 
BRANCH  19  22
ATOM     22  C   LIG d   1       9.553   8.506  -5.964  0.00  0.00    -0.002 A 
ATOM     23  C   LIG d   1       9.458   9.856  -5.670  0.00  0.00     0.162 A 
ATOM     24  C   LIG d   1       9.922  10.798  -6.584  0.00  0.00     0.162 A 
ATOM     25  C   LIG d   1      10.480  10.381  -7.782  0.00  0.00    -0.016 A 
ATOM     26  C   LIG d   1      10.566   9.032  -8.071  0.00  0.00    -0.058 A 
ATOM     27  H   LIG d   1      10.844  11.110  -8.490  0.00  0.00     0.066 H 
ATOM     28  C   LIG d   1      10.105   8.096  -7.164  0.00  0.00    -0.055 A 
ATOM     29  H   LIG d   1      10.997   8.707  -9.006  0.00  0.00     0.062 H 
ATOM     30  H   LIG d   1      10.177   7.043  -7.392  0.00  0.00     0.062 H 
BRANCH  23  31
ATOM     31  O   LIG d   1       8.916  10.261  -4.491  0.00  0.00    -0.503 OA
ATOM     32  H   LIG d   1       8.863  11.221  -4.390  0.00  0.00     0.292 HD
ENDBRANCH  23  31
BRANCH  24  33
ATOM     33  O   LIG d   1       9.833  12.125  -6.300  0.00  0.00    -0.491 OA
BRANCH  33  34
ATOM     34  C   LIG d   1       9.505  12.999  -7.382  0.00  0.00     0.079 C 
ATOM     35  H   LIG d   1       9.941  12.616  -8.304  0.00  0.00     0.066 H 
ATOM     36  H   LIG d   1       8.422  13.055  -7.487  0.00  0.00     0.066 H 
ATOM     37  H   LIG d   1       9.902  13.994  -7.178  0.00  0.00     0.066 H 
ENDBRANCH  33  34
ENDBRANCH  24  33
ENDBRANCH  19  22
ENDBRANCH   8  19
BRANCH  17  38
ATOM     38  C   LIG d   1      11.140   7.487  -0.526  0.00  0.00    -0.043 C 
ATOM     39  H   LIG d   1      10.581   6.928   0.224  0.00  0.00     0.078 H 
ATOM     40  H   LIG d   1      12.187   7.547  -0.228  0.00  0.00     0.078 H 
ATOM     41  H   LIG d   1      10.729   8.492  -0.611  0.00  0.00     0.078 H 
ENDBRANCH  17  38
BRANCH   7  42
ATOM     42  O   LIG d   1      10.735   2.626  -1.948  0.00  0.00    -0.503 OA
ATOM     43  H   LIG d   1      10.868   1.682  -2.112  0.00  0.00     0.292 HD
ENDBRANCH   7  42
BRANCH   6  44
ATOM     44  O   LIG d   1      10.355   1.356  -4.358  0.00  0.00    -0.491 OA
BRANCH  44  45
ATOM     45  C   LIG d   1      11.538   0.762  -4.895  0.00  0.00     0.079 C 
ATOM     46  H   LIG d   1      11.449  -0.324  -4.860  0.00  0.00     0.066 H 
ATOM     47  H   LIG d   1      11.669   1.083  -5.929  0.00  0.00     0.066 H 
ATOM     48  H   LIG d   1      12.402   1.073  -4.306  0.00  0.00     0.066 H 
ENDBRANCH  44  45
ENDBRANCH   6  44
TORSDOF 9
ENDMDL
MODEL 9
REMARK VINA RESULT:      -4.8      6.473      9.492
REMARK  9 active torsions:
REMARK  status: ('A' for Active; 'I' for Inactive)
REMARK    1  A    between atoms: C_1  and  N_47 
REMARK    2  A    between atoms: C_7  and  O_10 
REMARK    3  A    between atoms: C_8  and  O_9 
REMARK    4  A    between atoms: O_10  and  C_11 
REMARK    5  A    between atoms: C_12  and  C_15 
REMARK    6  A    between atoms: C_15  and  C_16 
REMARK    7  A    between atoms: C_20  and  O_23 
REMARK    8  A    between atoms: C_21  and  O_22 
REMARK    9  A    between atoms: O_23  and  C_24 
ROOT
ATOM      1  C   LIG d   1       8.942  -8.070  -4.021  0.00  0.00    -0.002 C 
ATOM      2  C   LIG d   1       7.938  -8.896  -3.260  0.00  0.00     0.046 A 
ATOM      3  C   LIG d   1       8.230  -9.444  -2.028  0.00  0.00    -0.027 A 
ATOM      4  C   LIG d   1       7.277 -10.201  -1.363  0.00  0.00    -0.054 A 
ATOM      5  C   LIG d   1       6.032 -10.411  -1.924  0.00  0.00    -0.016 A 
ATOM      6  C   LIG d   1       5.732  -9.862  -3.159  0.00  0.00     0.162 A 
ATOM      7  C   LIG d   1       6.686  -9.103  -3.827  0.00  0.00     0.167 A 
ATOM      8  C   LIG d   1       9.571  -9.242  -1.372  0.00  0.00     0.029 C 
ATOM      9  H   LIG d   1       9.478  -8.498  -0.580  0.00  0.00     0.040 H 
ATOM     10  C   LIG d   1      10.591  -8.761  -2.404  0.00  0.00    -0.025 C 
ATOM     11  H   LIG d   1       8.442  -7.203  -4.452  0.00  0.00     0.087 H 
ATOM     12  H   LIG d   1       9.370  -8.673  -4.822  0.00  0.00     0.087 H 
ATOM     13  H   LIG d   1       7.510 -10.630  -0.400  0.00  0.00     0.062 H 
ATOM     14  H   LIG d   1       5.296 -11.002  -1.401  0.00  0.00     0.066 H 
ATOM     15  H   LIG d   1      11.506  -8.450  -1.899  0.00  0.00     0.082 H 
ATOM     16  H   LIG d   1      10.815  -9.567  -3.102  0.00  0.00     0.082 H 
ATOM     17  N   LIG d   1      10.004  -7.604  -3.113  0.00  0.00     0.237 N 
ATOM     18  H   LIG d   1       9.598  -6.959  -2.425  0.00  0.00     0.203 HD
ENDROOT
BRANCH   8  19
ATOM     19  C   LIG d   1      10.047 -10.566  -0.768  0.00  0.00    -0.012 C 
ATOM     20  H   LIG d   1      10.910 -10.930  -1.326  0.00  0.00     0.032 H 
ATOM     21  H   LIG d   1       9.243 -11.299  -0.824  0.00  0.00     0.032 H 
BRANCH  19  22
ATOM     22  C   LIG d   1      10.433 -10.352   0.672  0.00  0.00    -0.002 A 
ATOM     23  C   LIG d   1      10.546 -11.437   1.527  0.00  0.00     0.162 A 
ATOM     24  C   LIG d   1      10.904 -11.236   2.857  0.00  0.00     0.162 A 
ATOM     25  C   LIG d   1      11.149  -9.953   3.320  0.00  0.00    -0.016 A 
ATOM     26  C   LIG d   1      11.028  -8.875   2.463  0.00  0.00    -0.058 A 
ATOM     27  H   LIG d   1      11.431  -9.796   4.350  0.00  0.00     0.066 H 
ATOM     28  C   LIG d   1      10.673  -9.074   1.142  0.00  0.00    -0.055 A 
ATOM     29  H   LIG d   1      11.216  -7.875   2.825  0.00  0.00     0.062 H 
ATOM     30  H   LIG d   1      10.584  -8.229   0.474  0.00  0.00     0.062 H 
BRANCH  23  31
ATOM     31  O   LIG d   1      10.310 -12.694   1.067  0.00  0.00    -0.503 OA
ATOM     32  H   LIG d   1       9.909 -12.724   0.188  0.00  0.00     0.292 HD
ENDBRANCH  23  31
BRANCH  24  33
ATOM     33  O   LIG d   1      11.017 -12.297   3.700  0.00  0.00    -0.491 OA
BRANCH  33  34
ATOM     34  C   LIG d   1      11.740 -12.087   4.915  0.00  0.00     0.079 C 
ATOM     35  H   LIG d   1      12.241 -11.120   4.876  0.00  0.00     0.066 H 
ATOM     36  H   LIG d   1      11.049 -12.106   5.756  0.00  0.00     0.066 H 
ATOM     37  H   LIG d   1      12.483 -12.876   5.036  0.00  0.00     0.066 H 
ENDBRANCH  33  34
ENDBRANCH  24  33
ENDBRANCH  19  22
ENDBRANCH   8  19
BRANCH  17  38
ATOM     38  C   LIG d   1      11.051  -6.894  -3.879  0.00  0.00    -0.043 C 
ATOM     39  H   LIG d   1      11.206  -7.375  -4.845  0.00  0.00     0.078 H 
ATOM     40  H   LIG d   1      10.740  -5.861  -4.034  0.00  0.00     0.078 H 
ATOM     41  H   LIG d   1      11.981  -6.912  -3.312  0.00  0.00     0.078 H 
ENDBRANCH  17  38
BRANCH   7  42
ATOM     42  O   LIG d   1       6.395  -8.562  -5.041  0.00  0.00    -0.503 OA
ATOM     43  H   LIG d   1       5.759  -7.835  -5.004  0.00  0.00     0.292 HD
ENDBRANCH   7  42
BRANCH   6  44
ATOM     44  O   LIG d   1       4.508 -10.063  -3.717  0.00  0.00    -0.491 OA
BRANCH  44  45
ATOM     45  C   LIG d   1       4.259 -11.349  -4.288  0.00  0.00     0.079 C 
ATOM     46  H   LIG d   1       4.605 -11.361  -5.322  0.00  0.00     0.066 H 
ATOM     47  H   LIG d   1       4.793 -12.109  -3.717  0.00  0.00     0.066 H 
ATOM     48  H   LIG d   1       3.190 -11.559  -4.261  0.00  0.00     0.066 H 
ENDBRANCH  44  45
ENDBRANCH   6  44
TORSDOF 9
ENDMDL
MODEL 10
REMARK VINA RESULT:      -4.7     15.476     17.021
REMARK  9 active torsions:
REMARK  status: ('A' for Active; 'I' for Inactive)
REMARK    1  A    between atoms: C_1  and  N_47 
REMARK    2  A    between atoms: C_7  and  O_10 
REMARK    3  A    between atoms: C_8  and  O_9 
REMARK    4  A    between atoms: O_10  and  C_11 
REMARK    5  A    between atoms: C_12  and  C_15 
REMARK    6  A    between atoms: C_15  and  C_16 
REMARK    7  A    between atoms: C_20  and  O_23 
REMARK    8  A    between atoms: C_21  and  O_22 
REMARK    9  A    between atoms: O_23  and  C_24 
ROOT
ATOM      1  C   LIG d   1      -7.000   7.129 -14.573  0.00  0.00    -0.002 C 
ATOM      2  C   LIG d   1      -5.494   7.164 -14.555  0.00  0.00     0.046 A 
ATOM      3  C   LIG d   1      -4.744   6.040 -14.275  0.00  0.00    -0.027 A 
ATOM      4  C   LIG d   1      -3.360   6.117 -14.265  0.00  0.00    -0.054 A 
ATOM      5  C   LIG d   1      -2.722   7.312 -14.534  0.00  0.00    -0.016 A 
ATOM      6  C   LIG d   1      -3.469   8.443 -14.817  0.00  0.00     0.162 A 
ATOM      7  C   LIG d   1      -4.857   8.368 -14.828  0.00  0.00     0.167 A 
ATOM      8  C   LIG d   1      -5.391   4.712 -13.978  0.00  0.00     0.029 C 
ATOM      9  H   LIG d   1      -5.312   4.067 -14.854  0.00  0.00     0.040 H 
ATOM     10  C   LIG d   1      -6.866   4.915 -13.630  0.00  0.00    -0.025 C 
ATOM     11  H   LIG d   1      -7.362   7.701 -15.428  0.00  0.00     0.087 H 
ATOM     12  H   LIG d   1      -7.382   7.576 -13.654  0.00  0.00     0.087 H 
ATOM     13  H   LIG d   1      -2.776   5.236 -14.044  0.00  0.00     0.062 H 
ATOM     14  H   LIG d   1      -1.644   7.364 -14.523  0.00  0.00     0.066 H 
ATOM     15  H   LIG d   1      -7.370   3.950 -13.588  0.00  0.00     0.082 H 
ATOM     16  H   LIG d   1      -6.949   5.414 -12.664  0.00  0.00     0.082 H 
ATOM     17  N   LIG d   1      -7.472   5.740 -14.696  0.00  0.00     0.237 N 
ATOM     18  H   LIG d   1      -7.188   5.368 -15.610  0.00  0.00     0.203 HD
ENDROOT
BRANCH   8  19
ATOM     19  C   LIG d   1      -4.677   4.051 -12.797  0.00  0.00    -0.012 C 
ATOM     20  H   LIG d   1      -5.375   3.943 -11.966  0.00  0.00     0.032 H 
ATOM     21  H   LIG d   1      -3.838   4.672 -12.487  0.00  0.00     0.032 H 
BRANCH  19  22
ATOM     22  C   LIG d   1      -4.172   2.693 -13.210  0.00  0.00    -0.002 A 
ATOM     23  C   LIG d   1      -4.933   1.565 -12.953  0.00  0.00     0.162 A 
ATOM     24  C   LIG d   1      -4.463   0.311 -13.337  0.00  0.00     0.162 A 
ATOM     25  C   LIG d   1      -3.239   0.199 -13.977  0.00  0.00    -0.016 A 
ATOM     26  C   LIG d   1      -2.482   1.329 -14.223  0.00  0.00    -0.058 A 
ATOM     27  H   LIG d   1      -2.875  -0.772 -14.278  0.00  0.00     0.066 H 
ATOM     28  C   LIG d   1      -2.948   2.573 -13.843  0.00  0.00    -0.055 A 
ATOM     29  H   LIG d   1      -1.527   1.240 -14.718  0.00  0.00     0.062 H 
ATOM     30  H   LIG d   1      -2.356   3.455 -14.041  0.00  0.00     0.062 H 
BRANCH  23  31
ATOM     31  O   LIG d   1      -6.136   1.680 -12.331  0.00  0.00    -0.503 OA
ATOM     32  H   LIG d   1      -6.460   0.856 -11.943  0.00  0.00     0.292 HD
ENDBRANCH  23  31
BRANCH  24  33
ATOM     33  O   LIG d   1      -5.206  -0.800 -13.088  0.00  0.00    -0.491 OA
BRANCH  33  34
ATOM     34  C   LIG d   1      -4.502  -1.974 -12.679  0.00  0.00     0.079 C 
ATOM     35  H   LIG d   1      -4.305  -2.601 -13.549  0.00  0.00     0.066 H 
ATOM     36  H   LIG d   1      -3.558  -1.688 -12.216  0.00  0.00     0.066 H 
ATOM     37  H   LIG d   1      -5.106  -2.529 -11.961  0.00  0.00     0.066 H 
ENDBRANCH  33  34
ENDBRANCH  24  33
ENDBRANCH  19  22
ENDBRANCH   8  19
BRANCH  17  38
ATOM     38  C   LIG d   1      -8.947   5.694 -14.596  0.00  0.00    -0.043 C 
ATOM     39  H   LIG d   1      -9.336   4.824 -15.126  0.00  0.00     0.078 H 
ATOM     40  H   LIG d   1      -9.231   5.636 -13.545  0.00  0.00     0.078 H 
ATOM     41  H   LIG d   1      -9.362   6.601 -15.035  0.00  0.00     0.078 H 
ENDBRANCH  17  38
BRANCH   7  42
ATOM     42  O   LIG d   1      -5.594   9.477 -15.105  0.00  0.00    -0.503 OA
ATOM     43  H   LIG d   1      -5.539   9.765 -16.026  0.00  0.00     0.292 HD
ENDBRANCH   7  42
BRANCH   6  44
ATOM     44  O   LIG d   1      -2.848   9.623 -15.084  0.00  0.00    -0.491 OA
BRANCH  44  45
ATOM     45  C   LIG d   1      -1.595   9.556 -15.769  0.00  0.00     0.079 C 
ATOM     46  H   LIG d   1      -1.770   9.503 -16.844  0.00  0.00     0.066 H 
ATOM     47  H   LIG d   1      -1.008  10.445 -15.540  0.00  0.00     0.066 H 
ATOM     48  H   LIG d   1      -1.051   8.668 -15.447  0.00  0.00     0.066 H 
ENDBRANCH  44  45
ENDBRANCH   6  44
TORSDOF 9
ENDMDL
