MODEL 1
REMARK VINA RESULT:      -8.3      0.000      0.000
REMARK  8 active torsions:
REMARK  status: ('A' for Active; 'I' for Inactive)
REMARK    1  A    between atoms: C_1  and  O_2 
REMARK    2  A    between atoms: O_2  and  C_3 
REMARK    3  A    between atoms: C_6  and  S_9 
REMARK    4  A    between atoms: S_9  and  N_12 
REMARK    5  A    between atoms: N_12  and  C_13 
REMARK       I    between atoms: N_27  and  C_29 
REMARK    6  A    between atoms: C_29  and  C_31 
REMARK    7  A    between atoms: C_31  and  O_32 
REMARK    8  A    between atoms: O_32  and  C_33 
ROOT
ATOM      1  C   LIG d   1       3.695  -0.078  -7.094  0.00  0.00     0.112 C 
ATOM      2  C   LIG d   1       4.486  -1.181  -7.268  0.00  0.00    -0.032 C 
ATOM      3  C   LIG d   1       4.832  -1.948  -6.149  0.00  0.00    -0.040 C 
ATOM      4  C   LIG d   1       4.374  -1.614  -4.914  0.00  0.00     0.027 C 
ATOM      5  N   LIG d   1       3.511  -0.580  -4.754  0.00  0.00    -0.310 N 
ATOM      6  C   LIG d   1       3.231   0.234  -5.801  0.00  0.00     0.274 C 
ATOM      7  O   LIG d   1       2.572   1.246  -5.620  0.00  0.00    -0.266 OA
ATOM      8  C   LIG d   1       2.805  -0.321  -3.499  0.00  0.00     0.031 C 
ATOM      9  C   LIG d   1       3.515  -0.928  -2.303  0.00  0.00    -0.006 C 
ATOM     10  H   LIG d   1       2.825  -0.919  -1.459  0.00  0.00     0.033 H 
ATOM     11  C   LIG d   1       3.885  -2.382  -2.599  0.00  0.00    -0.037 C 
ATOM     12  C   LIG d   1       4.908  -2.400  -3.739  0.00  0.00     0.016 C 
ATOM     13  H   LIG d   1       5.118  -3.426  -4.038  0.00  0.00     0.038 H 
ATOM     14  C   LIG d   1       6.187  -1.700  -3.250  0.00  0.00     0.023 C 
ATOM     15  N   LIG d   1       5.814  -0.320  -2.906  0.00  0.00    -0.298 N 
ATOM     16  C   LIG d   1       4.746  -0.119  -1.918  0.00  0.00     0.019 C 
ATOM     17  C   LIG d   1       6.445   0.734  -3.462  0.00  0.00     0.253 C 
ATOM     18  O   LIG d   1       6.133   1.863  -3.146  0.00  0.00    -0.272 OA
ATOM     19  H   LIG d   1       4.839  -1.453  -8.251  0.00  0.00     0.064 H 
ATOM     20  H   LIG d   1       5.468  -2.812  -6.269  0.00  0.00     0.064 H 
ATOM     21  H   LIG d   1       2.726   0.757  -3.355  0.00  0.00     0.050 H 
ATOM     22  H   LIG d   1       1.801  -0.741  -3.566  0.00  0.00     0.050 H 
ATOM     23  H   LIG d   1       2.994  -2.933  -2.898  0.00  0.00     0.028 H 
ATOM     24  H   LIG d   1       4.320  -2.838  -1.710  0.00  0.00     0.028 H 
ATOM     25  H   LIG d   1       6.588  -2.223  -2.381  0.00  0.00     0.047 H 
ATOM     26  H   LIG d   1       6.928  -1.683  -4.049  0.00  0.00     0.047 H 
ATOM     27  H   LIG d   1       4.486   0.939  -1.878  0.00  0.00     0.047 H 
ATOM     28  H   LIG d   1       5.098  -0.440  -0.938  0.00  0.00     0.047 H 
ENDROOT
BRANCH   1  29
ATOM     29  N   LIG d   1       3.350   0.727  -8.186  0.00  0.00    -0.211 N 
ATOM     30  H   LIG d   1       2.423   0.799  -8.462  0.00  0.00     0.174 HD
BRANCH  29  31
ATOM     31  S   LIG d   1       4.525   1.559  -9.006  0.00  0.00     0.072 S 
ATOM     32  O   LIG d   1       3.919   2.752  -9.484  0.00  0.00    -0.150 OA
ATOM     33  O   LIG d   1       5.672   1.570  -8.169  0.00  0.00    -0.150 OA
BRANCH  31  34
ATOM     34  C   LIG d   1       4.945   0.603 -10.426  0.00  0.00     0.109 A 
ATOM     35  C   LIG d   1       6.171  -0.034 -10.490  0.00  0.00    -0.032 A 
ATOM     36  C   LIG d   1       6.503  -0.783 -11.602  0.00  0.00    -0.018 A 
ATOM     37  H   LIG d   1       6.868   0.055  -9.671  0.00  0.00     0.064 H 
ATOM     38  C   LIG d   1       5.606  -0.896 -12.653  0.00  0.00     0.120 A 
ATOM     39  H   LIG d   1       7.461  -1.280 -11.652  0.00  0.00     0.066 H 
ATOM     40  C   LIG d   1       4.377  -0.257 -12.586  0.00  0.00    -0.018 A 
ATOM     41  C   LIG d   1       4.047   0.488 -11.469  0.00  0.00    -0.032 A 
ATOM     42  H   LIG d   1       3.676  -0.344 -13.404  0.00  0.00     0.066 H 
ATOM     43  H   LIG d   1       3.089   0.983 -11.415  0.00  0.00     0.064 H 
BRANCH  38  44
ATOM     44  O   LIG d   1       5.930  -1.633 -13.748  0.00  0.00    -0.495 OA
BRANCH  44  45
ATOM     45  C   LIG d   1       5.930  -0.959 -15.008  0.00  0.00     0.079 C 
ATOM     46  H   LIG d   1       6.615  -0.112 -14.968  0.00  0.00     0.066 H 
ATOM     47  H   LIG d   1       6.251  -1.649 -15.789  0.00  0.00     0.066 H 
ATOM     48  H   LIG d   1       4.923  -0.603 -15.230  0.00  0.00     0.066 H 
ENDBRANCH  44  45
ENDBRANCH  38  44
ENDBRANCH  31  34
ENDBRANCH  29  31
ENDBRANCH   1  29
BRANCH  17  49
ATOM     49  C   LIG d   1       7.537   0.509  -4.474  0.00  0.00     0.165 C 
ATOM     50  H   LIG d   1       8.507   0.674  -4.006  0.00  0.00     0.080 H 
ATOM     51  H   LIG d   1       7.482  -0.515  -4.846  0.00  0.00     0.080 H 
BRANCH  49  52
ATOM     52  O   LIG d   1       7.372   1.421  -5.563  0.00  0.00    -0.483 OA
BRANCH  52  53
ATOM     53  C   LIG d   1       8.419   2.241  -5.843  0.00  0.00     0.121 A 
ATOM     54  C   LIG d   1       8.891   3.120  -4.879  0.00  0.00    -0.020 A 
ATOM     55  C   LIG d   1       9.956   3.951  -5.166  0.00  0.00    -0.058 A 
ATOM     56  H   LIG d   1       8.427   3.153  -3.904  0.00  0.00     0.065 H 
ATOM     57  C   LIG d   1      10.551   3.909  -6.413  0.00  0.00    -0.061 A 
ATOM     58  H   LIG d   1      10.323   4.636  -4.416  0.00  0.00     0.062 H 
ATOM     59  C   LIG d   1      10.083   3.034  -7.376  0.00  0.00    -0.058 A 
ATOM     60  H   LIG d   1      11.383   4.561  -6.637  0.00  0.00     0.062 H 
ATOM     61  C   LIG d   1       9.022   2.195  -7.093  0.00  0.00    -0.020 A 
ATOM     62  H   LIG d   1      10.550   3.001  -8.349  0.00  0.00     0.062 H 
ATOM     63  H   LIG d   1       8.660   1.509  -7.843  0.00  0.00     0.065 H 
ENDBRANCH  52  53
ENDBRANCH  49  52
ENDBRANCH  17  49
TORSDOF 8
ENDMDL
MODEL 2
REMARK VINA RESULT:      -8.1      2.883      6.999
REMARK  8 active torsions:
REMARK  status: ('A' for Active; 'I' for Inactive)
REMARK    1  A    between atoms: C_1  and  O_2 
REMARK    2  A    between atoms: O_2  and  C_3 
REMARK    3  A    between atoms: C_6  and  S_9 
REMARK    4  A    between atoms: S_9  and  N_12 
REMARK    5  A    between atoms: N_12  and  C_13 
REMARK       I    between atoms: N_27  and  C_29 
REMARK    6  A    between atoms: C_29  and  C_31 
REMARK    7  A    between atoms: C_31  and  O_32 
REMARK    8  A    between atoms: O_32  and  C_33 
ROOT
ATOM      1  C   LIG d   1       7.389   0.004  -8.213  0.00  0.00     0.112 C 
ATOM      2  C   LIG d   1       7.074  -1.309  -7.988  0.00  0.00    -0.032 C 
ATOM      3  C   LIG d   1       5.921  -1.839  -8.578  0.00  0.00    -0.040 C 
ATOM      4  C   LIG d   1       5.136  -1.068  -9.375  0.00  0.00     0.027 C 
ATOM      5  N   LIG d   1       5.498   0.203  -9.678  0.00  0.00    -0.310 N 
ATOM      6  C   LIG d   1       6.557   0.771  -9.052  0.00  0.00     0.274 C 
ATOM      7  O   LIG d   1       6.791   1.959  -9.217  0.00  0.00    -0.266 OA
ATOM      8  C   LIG d   1       4.827   0.996 -10.709  0.00  0.00     0.031 C 
ATOM      9  C   LIG d   1       3.418   0.506 -10.987  0.00  0.00    -0.006 C 
ATOM     10  H   LIG d   1       3.077   0.963 -11.916  0.00  0.00     0.033 H 
ATOM     11  C   LIG d   1       3.423  -1.011 -11.177  0.00  0.00    -0.037 C 
ATOM     12  C   LIG d   1       3.834  -1.665  -9.855  0.00  0.00     0.016 C 
ATOM     13  H   LIG d   1       3.940  -2.742  -9.986  0.00  0.00     0.038 H 
ATOM     14  C   LIG d   1       2.758  -1.346  -8.804  0.00  0.00     0.023 C 
ATOM     15  N   LIG d   1       2.712   0.118  -8.670  0.00  0.00    -0.298 N 
ATOM     16  C   LIG d   1       2.459   0.914  -9.876  0.00  0.00     0.019 C 
ATOM     17  C   LIG d   1       2.876   0.715  -7.472  0.00  0.00     0.253 C 
ATOM     18  O   LIG d   1       2.814   1.923  -7.384  0.00  0.00    -0.272 OA
ATOM     19  H   LIG d   1       7.705  -1.924  -7.365  0.00  0.00     0.064 H 
ATOM     20  H   LIG d   1       5.653  -2.869  -8.397  0.00  0.00     0.064 H 
ATOM     21  H   LIG d   1       4.782   2.036 -10.381  0.00  0.00     0.050 H 
ATOM     22  H   LIG d   1       5.409   0.943 -11.630  0.00  0.00     0.050 H 
ATOM     23  H   LIG d   1       4.135  -1.280 -11.956  0.00  0.00     0.028 H 
ATOM     24  H   LIG d   1       2.425  -1.348 -11.457  0.00  0.00     0.028 H 
ATOM     25  H   LIG d   1       1.793  -1.737  -9.129  0.00  0.00     0.047 H 
ATOM     26  H   LIG d   1       3.034  -1.786  -7.846  0.00  0.00     0.047 H 
ATOM     27  H   LIG d   1       2.599   1.970  -9.648  0.00  0.00     0.047 H 
ATOM     28  H   LIG d   1       1.433   0.751 -10.207  0.00  0.00     0.047 H 
ENDROOT
BRANCH   1  29
ATOM     29  N   LIG d   1       8.520   0.575  -7.619  0.00  0.00    -0.211 N 
ATOM     30  H   LIG d   1       9.285   0.817  -8.165  0.00  0.00     0.174 HD
BRANCH  29  31
ATOM     31  S   LIG d   1       8.554   0.839  -5.984  0.00  0.00     0.072 S 
ATOM     32  O   LIG d   1       9.791   1.480  -5.702  0.00  0.00    -0.150 OA
ATOM     33  O   LIG d   1       7.302   1.415  -5.640  0.00  0.00    -0.150 OA
BRANCH  31  34
ATOM     34  C   LIG d   1       8.614  -0.739  -5.203  0.00  0.00     0.109 A 
ATOM     35  C   LIG d   1       7.573  -1.146  -4.389  0.00  0.00    -0.032 A 
ATOM     36  C   LIG d   1       7.619  -2.383  -3.774  0.00  0.00    -0.018 A 
ATOM     37  H   LIG d   1       6.725  -0.497  -4.233  0.00  0.00     0.064 H 
ATOM     38  C   LIG d   1       8.709  -3.216  -3.975  0.00  0.00     0.120 A 
ATOM     39  H   LIG d   1       6.806  -2.700  -3.138  0.00  0.00     0.066 H 
ATOM     40  C   LIG d   1       9.752  -2.805  -4.793  0.00  0.00    -0.018 A 
ATOM     41  C   LIG d   1       9.699  -1.569  -5.409  0.00  0.00    -0.032 A 
ATOM     42  H   LIG d   1      10.602  -3.453  -4.952  0.00  0.00     0.066 H 
ATOM     43  H   LIG d   1      10.509  -1.251  -6.049  0.00  0.00     0.064 H 
BRANCH  38  44
ATOM     44  O   LIG d   1       8.756  -4.433  -3.373  0.00  0.00    -0.495 OA
BRANCH  44  45
ATOM     45  C   LIG d   1       8.921  -5.571  -4.221  0.00  0.00     0.079 C 
ATOM     46  H   LIG d   1       7.975  -5.800  -4.712  0.00  0.00     0.066 H 
ATOM     47  H   LIG d   1       9.678  -5.355  -4.975  0.00  0.00     0.066 H 
ATOM     48  H   LIG d   1       9.237  -6.427  -3.624  0.00  0.00     0.066 H 
ENDBRANCH  44  45
ENDBRANCH  38  44
ENDBRANCH  31  34
ENDBRANCH  29  31
ENDBRANCH   1  29
BRANCH  17  49
ATOM     49  C   LIG d   1       3.136  -0.119  -6.244  0.00  0.00     0.165 C 
ATOM     50  H   LIG d   1       2.400  -0.919  -6.185  0.00  0.00     0.080 H 
ATOM     51  H   LIG d   1       4.137  -0.548  -6.302  0.00  0.00     0.080 H 
BRANCH  49  52
ATOM     52  O   LIG d   1       3.038   0.705  -5.081  0.00  0.00    -0.483 OA
BRANCH  52  53
ATOM     53  C   LIG d   1       3.522   0.192  -3.919  0.00  0.00     0.121 A 
ATOM     54  C   LIG d   1       4.103   1.030  -2.977  0.00  0.00    -0.020 A 
ATOM     55  C   LIG d   1       4.593   0.506  -1.798  0.00  0.00    -0.058 A 
ATOM     56  H   LIG d   1       4.170   2.091  -3.168  0.00  0.00     0.065 H 
ATOM     57  C   LIG d   1       4.506  -0.852  -1.554  0.00  0.00    -0.061 A 
ATOM     58  H   LIG d   1       5.046   1.157  -1.065  0.00  0.00     0.062 H 
ATOM     59  C   LIG d   1       3.927  -1.689  -2.490  0.00  0.00    -0.058 A 
ATOM     60  H   LIG d   1       4.890  -1.261  -0.630  0.00  0.00     0.062 H 
ATOM     61  C   LIG d   1       3.430  -1.170  -3.670  0.00  0.00    -0.020 A 
ATOM     62  H   LIG d   1       3.858  -2.750  -2.297  0.00  0.00     0.062 H 
ATOM     63  H   LIG d   1       2.974  -1.823  -4.399  0.00  0.00     0.065 H 
ENDBRANCH  52  53
ENDBRANCH  49  52
ENDBRANCH  17  49
TORSDOF 8
ENDMDL
MODEL 3
REMARK VINA RESULT:      -7.9      3.441      7.115
REMARK  8 active torsions:
REMARK  status: ('A' for Active; 'I' for Inactive)
REMARK    1  A    between atoms: C_1  and  O_2 
REMARK    2  A    between atoms: O_2  and  C_3 
REMARK    3  A    between atoms: C_6  and  S_9 
REMARK    4  A    between atoms: S_9  and  N_12 
REMARK    5  A    between atoms: N_12  and  C_13 
REMARK       I    between atoms: N_27  and  C_29 
REMARK    6  A    between atoms: C_29  and  C_31 
REMARK    7  A    between atoms: C_31  and  O_32 
REMARK    8  A    between atoms: O_32  and  C_33 
ROOT
ATOM      1  C   LIG d   1       4.202  -3.946  -9.089  0.00  0.00     0.112 C 
ATOM      2  C   LIG d   1       2.875  -3.650  -9.238  0.00  0.00    -0.032 C 
ATOM      3  C   LIG d   1       2.511  -2.367  -9.662  0.00  0.00    -0.040 C 
ATOM      4  C   LIG d   1       3.460  -1.435  -9.938  0.00  0.00     0.027 C 
ATOM      5  N   LIG d   1       4.777  -1.756  -9.885  0.00  0.00    -0.310 N 
ATOM      6  C   LIG d   1       5.160  -2.958  -9.392  0.00  0.00     0.274 C 
ATOM      7  O   LIG d   1       6.346  -3.187  -9.209  0.00  0.00    -0.266 OA
ATOM      8  C   LIG d   1       5.829  -0.876 -10.394  0.00  0.00     0.031 C 
ATOM      9  C   LIG d   1       5.388   0.575 -10.457  0.00  0.00    -0.006 C 
ATOM     10  H   LIG d   1       6.107   1.122 -11.066  0.00  0.00     0.033 H 
ATOM     11  C   LIG d   1       4.020   0.674 -11.131  0.00  0.00    -0.037 C 
ATOM     12  C   LIG d   1       2.989  -0.033 -10.246  0.00  0.00     0.016 C 
ATOM     13  H   LIG d   1       2.022  -0.063 -10.746  0.00  0.00     0.038 H 
ATOM     14  C   LIG d   1       2.892   0.731  -8.914  0.00  0.00     0.023 C 
ATOM     15  N   LIG d   1       4.227   0.687  -8.298  0.00  0.00    -0.298 N 
ATOM     16  C   LIG d   1       5.361   1.207  -9.071  0.00  0.00     0.019 C 
ATOM     17  C   LIG d   1       4.406   0.205  -7.053  0.00  0.00     0.253 C 
ATOM     18  O   LIG d   1       5.514   0.198  -6.558  0.00  0.00    -0.272 OA
ATOM     19  H   LIG d   1       2.121  -4.395  -9.032  0.00  0.00     0.064 H 
ATOM     20  H   LIG d   1       1.466  -2.116  -9.770  0.00  0.00     0.064 H 
ATOM     21  H   LIG d   1       6.700  -0.953  -9.742  0.00  0.00     0.050 H 
ATOM     22  H   LIG d   1       6.110  -1.204 -11.395  0.00  0.00     0.050 H 
ATOM     23  H   LIG d   1       4.057   0.191 -12.107  0.00  0.00     0.028 H 
ATOM     24  H   LIG d   1       3.744   1.722 -11.248  0.00  0.00     0.028 H 
ATOM     25  H   LIG d   1       2.582   1.760  -9.098  0.00  0.00     0.047 H 
ATOM     26  H   LIG d   1       2.177   0.238  -8.256  0.00  0.00     0.047 H 
ATOM     27  H   LIG d   1       6.290   0.976  -8.550  0.00  0.00     0.047 H 
ATOM     28  H   LIG d   1       5.264   2.289  -9.170  0.00  0.00     0.047 H 
ENDROOT
BRANCH   1  29
ATOM     29  N   LIG d   1       4.603  -5.211  -8.643  0.00  0.00    -0.211 N 
ATOM     30  H   LIG d   1       4.976  -5.851  -9.270  0.00  0.00     0.174 HD
BRANCH  29  31
ATOM     31  S   LIG d   1       4.440  -5.616  -7.045  0.00  0.00     0.072 S 
ATOM     32  O   LIG d   1       3.220  -5.038  -6.602  0.00  0.00    -0.150 OA
ATOM     33  O   LIG d   1       4.702  -7.009  -6.951  0.00  0.00    -0.150 OA
BRANCH  31  34
ATOM     34  C   LIG d   1       5.732  -4.800  -6.167  0.00  0.00     0.109 A 
ATOM     35  C   LIG d   1       7.018  -5.306  -6.206  0.00  0.00    -0.032 A 
ATOM     36  C   LIG d   1       8.033  -4.669  -5.517  0.00  0.00    -0.018 A 
ATOM     37  H   LIG d   1       7.230  -6.199  -6.774  0.00  0.00     0.064 H 
ATOM     38  C   LIG d   1       7.760  -3.522  -4.787  0.00  0.00     0.120 A 
ATOM     39  H   LIG d   1       9.038  -5.064  -5.547  0.00  0.00     0.066 H 
ATOM     40  C   LIG d   1       6.468  -3.016  -4.751  0.00  0.00    -0.018 A 
ATOM     41  C   LIG d   1       5.458  -3.654  -5.445  0.00  0.00    -0.032 A 
ATOM     42  H   LIG d   1       6.253  -2.122  -4.183  0.00  0.00     0.066 H 
ATOM     43  H   LIG d   1       4.453  -3.259  -5.420  0.00  0.00     0.064 H 
BRANCH  38  44
ATOM     44  O   LIG d   1       8.756  -2.893  -4.110  0.00  0.00    -0.495 OA
BRANCH  44  45
ATOM     45  C   LIG d   1      10.063  -3.463  -4.201  0.00  0.00     0.079 C 
ATOM     46  H   LIG d   1      10.072  -4.233  -4.972  0.00  0.00     0.066 H 
ATOM     47  H   LIG d   1      10.782  -2.684  -4.456  0.00  0.00     0.066 H 
ATOM     48  H   LIG d   1      10.335  -3.905  -3.241  0.00  0.00     0.066 H 
ENDBRANCH  44  45
ENDBRANCH  38  44
ENDBRANCH  31  34
ENDBRANCH  29  31
ENDBRANCH   1  29
BRANCH  17  49
ATOM     49  C   LIG d   1       3.230  -0.326  -6.274  0.00  0.00     0.165 C 
ATOM     50  H   LIG d   1       2.347  -0.335  -6.912  0.00  0.00     0.080 H 
ATOM     51  H   LIG d   1       3.446  -1.340  -5.936  0.00  0.00     0.080 H 
BRANCH  49  52
ATOM     52  O   LIG d   1       2.991   0.513  -5.142  0.00  0.00    -0.483 OA
BRANCH  52  53
ATOM     53  C   LIG d   1       3.481   0.090  -3.947  0.00  0.00     0.121 A 
ATOM     54  C   LIG d   1       4.056   1.000  -3.071  0.00  0.00    -0.020 A 
ATOM     55  C   LIG d   1       4.552   0.567  -1.857  0.00  0.00    -0.058 A 
ATOM     56  H   LIG d   1       4.114   2.045  -3.338  0.00  0.00     0.065 H 
ATOM     57  C   LIG d   1       4.478  -0.770  -1.514  0.00  0.00    -0.061 A 
ATOM     58  H   LIG d   1       5.001   1.275  -1.175  0.00  0.00     0.062 H 
ATOM     59  C   LIG d   1       3.905  -1.678  -2.385  0.00  0.00    -0.058 A 
ATOM     60  H   LIG d   1       4.867  -1.106  -0.564  0.00  0.00     0.062 H 
ATOM     61  C   LIG d   1       3.401  -1.251  -3.598  0.00  0.00    -0.020 A 
ATOM     62  H   LIG d   1       3.846  -2.722  -2.115  0.00  0.00     0.062 H 
ATOM     63  H   LIG d   1       2.950  -1.960  -4.277  0.00  0.00     0.065 H 
ENDBRANCH  52  53
ENDBRANCH  49  52
ENDBRANCH  17  49
TORSDOF 8
ENDMDL
MODEL 4
REMARK VINA RESULT:      -7.9      2.421      7.430
REMARK  8 active torsions:
REMARK  status: ('A' for Active; 'I' for Inactive)
REMARK    1  A    between atoms: C_1  and  O_2 
REMARK    2  A    between atoms: O_2  and  C_3 
REMARK    3  A    between atoms: C_6  and  S_9 
REMARK    4  A    between atoms: S_9  and  N_12 
REMARK    5  A    between atoms: N_12  and  C_13 
REMARK       I    between atoms: N_27  and  C_29 
REMARK    6  A    between atoms: C_29  and  C_31 
REMARK    7  A    between atoms: C_31  and  O_32 
REMARK    8  A    between atoms: O_32  and  C_33 
ROOT
ATOM      1  C   LIG d   1       7.377   0.130  -7.616  0.00  0.00     0.112 C 
ATOM      2  C   LIG d   1       7.045  -1.183  -7.416  0.00  0.00    -0.032 C 
ATOM      3  C   LIG d   1       5.977  -1.728  -8.137  0.00  0.00    -0.040 C 
ATOM      4  C   LIG d   1       5.292  -0.973  -9.035  0.00  0.00     0.027 C 
ATOM      5  N   LIG d   1       5.681   0.298  -9.307  0.00  0.00    -0.310 N 
ATOM      6  C   LIG d   1       6.650   0.881  -8.561  0.00  0.00     0.274 C 
ATOM      7  O   LIG d   1       6.896   2.068  -8.710  0.00  0.00    -0.266 OA
ATOM      8  C   LIG d   1       5.138   1.073 -10.422  0.00  0.00     0.031 C 
ATOM      9  C   LIG d   1       3.777   0.569 -10.866  0.00  0.00    -0.006 C 
ATOM     10  H   LIG d   1       3.550   1.013 -11.836  0.00  0.00     0.033 H 
ATOM     11  C   LIG d   1       3.815  -0.949 -11.036  0.00  0.00    -0.037 C 
ATOM     12  C   LIG d   1       4.063  -1.586  -9.665  0.00  0.00     0.016 C 
ATOM     13  H   LIG d   1       4.191  -2.663  -9.769  0.00  0.00     0.038 H 
ATOM     14  C   LIG d   1       2.863  -1.263  -8.759  0.00  0.00     0.023 C 
ATOM     15  N   LIG d   1       2.792   0.202  -8.649  0.00  0.00    -0.298 N 
ATOM     16  C   LIG d   1       2.685   0.982  -9.888  0.00  0.00     0.019 C 
ATOM     17  C   LIG d   1       2.803   0.814  -7.448  0.00  0.00     0.253 C 
ATOM     18  O   LIG d   1       2.723   2.023  -7.383  0.00  0.00    -0.272 OA
ATOM     19  H   LIG d   1       7.598  -1.786  -6.712  0.00  0.00     0.064 H 
ATOM     20  H   LIG d   1       5.695  -2.759  -7.978  0.00  0.00     0.064 H 
ATOM     21  H   LIG d   1       5.046   2.116 -10.115  0.00  0.00     0.050 H 
ATOM     22  H   LIG d   1       5.829   1.015 -11.263  0.00  0.00     0.050 H 
ATOM     23  H   LIG d   1       4.620  -1.222 -11.717  0.00  0.00     0.028 H 
ATOM     24  H   LIG d   1       2.861  -1.297 -11.433  0.00  0.00     0.028 H 
ATOM     25  H   LIG d   1       1.949  -1.665  -9.196  0.00  0.00     0.047 H 
ATOM     26  H   LIG d   1       3.021  -1.690  -7.769  0.00  0.00     0.047 H 
ATOM     27  H   LIG d   1       2.789   2.042  -9.657  0.00  0.00     0.047 H 
ATOM     28  H   LIG d   1       1.709   0.807 -10.341  0.00  0.00     0.047 H 
ENDROOT
BRANCH   1  29
ATOM     29  N   LIG d   1       8.422   0.717  -6.894  0.00  0.00    -0.211 N 
ATOM     30  H   LIG d   1       9.229   1.000  -7.352  0.00  0.00     0.174 HD
BRANCH  29  31
ATOM     31  S   LIG d   1       8.283   0.928  -5.257  0.00  0.00     0.072 S 
ATOM     32  O   LIG d   1       6.894   1.044  -4.980  0.00  0.00    -0.150 OA
ATOM     33  O   LIG d   1       9.100  -0.063  -4.650  0.00  0.00    -0.150 OA
BRANCH  31  34
ATOM     34  C   LIG d   1       9.006   2.487  -4.868  0.00  0.00     0.109 A 
ATOM     35  C   LIG d   1       9.237   2.830  -3.549  0.00  0.00    -0.032 A 
ATOM     36  C   LIG d   1       9.803   4.052  -3.242  0.00  0.00    -0.018 A 
ATOM     37  H   LIG d   1       8.973   2.143  -2.759  0.00  0.00     0.064 H 
ATOM     38  C   LIG d   1      10.141   4.934  -4.258  0.00  0.00     0.120 A 
ATOM     39  H   LIG d   1       9.982   4.321  -2.211  0.00  0.00     0.066 H 
ATOM     40  C   LIG d   1       9.909   4.586  -5.581  0.00  0.00    -0.018 A 
ATOM     41  C   LIG d   1       9.346   3.361  -5.883  0.00  0.00    -0.032 A 
ATOM     42  H   LIG d   1      10.172   5.271  -6.374  0.00  0.00     0.066 H 
ATOM     43  H   LIG d   1       9.169   3.088  -6.913  0.00  0.00     0.064 H 
BRANCH  38  44
ATOM     44  O   LIG d   1      10.698   6.136  -3.958  0.00  0.00    -0.495 OA
BRANCH  44  45
ATOM     45  C   LIG d   1      11.810   6.130  -3.059  0.00  0.00     0.079 C 
ATOM     46  H   LIG d   1      12.722   6.364  -3.607  0.00  0.00     0.066 H 
ATOM     47  H   LIG d   1      11.650   6.877  -2.281  0.00  0.00     0.066 H 
ATOM     48  H   LIG d   1      11.902   5.145  -2.602  0.00  0.00     0.066 H 
ENDBRANCH  44  45
ENDBRANCH  38  44
ENDBRANCH  31  34
ENDBRANCH  29  31
ENDBRANCH   1  29
BRANCH  17  49
ATOM     49  C   LIG d   1       2.914  -0.003  -6.188  0.00  0.00     0.165 C 
ATOM     50  H   LIG d   1       2.104  -0.731  -6.153  0.00  0.00     0.080 H 
ATOM     51  H   LIG d   1       3.872  -0.524  -6.176  0.00  0.00     0.080 H 
BRANCH  49  52
ATOM     52  O   LIG d   1       2.828   0.860  -5.052  0.00  0.00    -0.483 OA
BRANCH  52  53
ATOM     53  C   LIG d   1       3.367   0.406  -3.890  0.00  0.00     0.121 A 
ATOM     54  C   LIG d   1       3.928   1.300  -2.989  0.00  0.00    -0.020 A 
ATOM     55  C   LIG d   1       4.475   0.836  -1.808  0.00  0.00    -0.058 A 
ATOM     56  H   LIG d   1       3.936   2.357  -3.210  0.00  0.00     0.065 H 
ATOM     57  C   LIG d   1       4.464  -0.516  -1.524  0.00  0.00    -0.061 A 
ATOM     58  H   LIG d   1       4.913   1.532  -1.107  0.00  0.00     0.062 H 
ATOM     59  C   LIG d   1       3.905  -1.409  -2.420  0.00  0.00    -0.058 A 
ATOM     60  H   LIG d   1       4.892  -0.877  -0.600  0.00  0.00     0.062 H 
ATOM     61  C   LIG d   1       3.351  -0.951  -3.600  0.00  0.00    -0.020 A 
ATOM     62  H   LIG d   1       3.896  -2.466  -2.195  0.00  0.00     0.062 H 
ATOM     63  H   LIG d   1       2.911  -1.648  -4.297  0.00  0.00     0.065 H 
ENDBRANCH  52  53
ENDBRANCH  49  52
ENDBRANCH  17  49
TORSDOF 8
ENDMDL
MODEL 5
REMARK VINA RESULT:      -7.8      1.797      2.387
REMARK  8 active torsions:
REMARK  status: ('A' for Active; 'I' for Inactive)
REMARK    1  A    between atoms: C_1  and  O_2 
REMARK    2  A    between atoms: O_2  and  C_3 
REMARK    3  A    between atoms: C_6  and  S_9 
REMARK    4  A    between atoms: S_9  and  N_12 
REMARK    5  A    between atoms: N_12  and  C_13 
REMARK       I    between atoms: N_27  and  C_29 
REMARK    6  A    between atoms: C_29  and  C_31 
REMARK    7  A    between atoms: C_31  and  O_32 
REMARK    8  A    between atoms: O_32  and  C_33 
ROOT
ATOM      1  C   LIG d   1       3.478   0.263  -6.951  0.00  0.00     0.112 C 
ATOM      2  C   LIG d   1       4.244  -0.819  -7.288  0.00  0.00    -0.032 C 
ATOM      3  C   LIG d   1       4.654  -1.698  -6.278  0.00  0.00    -0.040 C 
ATOM      4  C   LIG d   1       4.283  -1.490  -4.988  0.00  0.00     0.027 C 
ATOM      5  N   LIG d   1       3.443  -0.475  -4.667  0.00  0.00    -0.310 N 
ATOM      6  C   LIG d   1       3.104   0.443  -5.604  0.00  0.00     0.274 C 
ATOM      7  O   LIG d   1       2.469   1.434  -5.279  0.00  0.00    -0.266 OA
ATOM      8  C   LIG d   1       2.824  -0.343  -3.348  0.00  0.00     0.031 C 
ATOM      9  C   LIG d   1       3.605  -1.071  -2.270  0.00  0.00    -0.006 C 
ATOM     10  H   LIG d   1       2.973  -1.146  -1.385  0.00  0.00     0.033 H 
ATOM     11  C   LIG d   1       3.939  -2.488  -2.736  0.00  0.00    -0.037 C 
ATOM     12  C   LIG d   1       4.884  -2.394  -3.937  0.00  0.00     0.016 C 
ATOM     13  H   LIG d   1       5.064  -3.385  -4.353  0.00  0.00     0.038 H 
ATOM     14  C   LIG d   1       6.200  -1.752  -3.467  0.00  0.00     0.023 C 
ATOM     15  N   LIG d   1       5.866  -0.413  -2.960  0.00  0.00    -0.298 N 
ATOM     16  C   LIG d   1       4.868  -0.310  -1.888  0.00  0.00     0.019 C 
ATOM     17  C   LIG d   1       6.470   0.689  -3.446  0.00  0.00     0.253 C 
ATOM     18  O   LIG d   1       6.191   1.781  -2.998  0.00  0.00    -0.272 OA
ATOM     19  H   LIG d   1       4.528  -0.992  -8.315  0.00  0.00     0.064 H 
ATOM     20  H   LIG d   1       5.272  -2.548  -6.528  0.00  0.00     0.064 H 
ATOM     21  H   LIG d   1       2.767   0.716  -3.090  0.00  0.00     0.050 H 
ATOM     22  H   LIG d   1       1.814  -0.749  -3.390  0.00  0.00     0.050 H 
ATOM     23  H   LIG d   1       3.025  -3.002  -3.030  0.00  0.00     0.028 H 
ATOM     24  H   LIG d   1       4.427  -3.034  -1.929  0.00  0.00     0.028 H 
ATOM     25  H   LIG d   1       6.652  -2.363  -2.684  0.00  0.00     0.047 H 
ATOM     26  H   LIG d   1       6.887  -1.657  -4.307  0.00  0.00     0.047 H 
ATOM     27  H   LIG d   1       4.622   0.739  -1.723  0.00  0.00     0.047 H 
ATOM     28  H   LIG d   1       5.280  -0.731  -0.971  0.00  0.00     0.047 H 
ENDROOT
BRANCH   1  29
ATOM     29  N   LIG d   1       3.070   1.177  -7.930  0.00  0.00    -0.211 N 
ATOM     30  H   LIG d   1       2.304   1.751  -7.769  0.00  0.00     0.174 HD
BRANCH  29  31
ATOM     31  S   LIG d   1       3.895   1.279  -9.363  0.00  0.00     0.072 S 
ATOM     32  O   LIG d   1       3.681   2.593  -9.861  0.00  0.00    -0.150 OA
ATOM     33  O   LIG d   1       5.194   0.759  -9.120  0.00  0.00    -0.150 OA
BRANCH  31  34
ATOM     34  C   LIG d   1       3.113   0.178 -10.494  0.00  0.00     0.109 A 
ATOM     35  C   LIG d   1       3.749  -0.167 -11.672  0.00  0.00    -0.032 A 
ATOM     36  C   LIG d   1       3.138  -1.030 -12.561  0.00  0.00    -0.018 A 
ATOM     37  H   LIG d   1       4.724   0.239 -11.897  0.00  0.00     0.064 H 
ATOM     38  C   LIG d   1       1.886  -1.550 -12.271  0.00  0.00     0.120 A 
ATOM     39  H   LIG d   1       3.635  -1.299 -13.482  0.00  0.00     0.066 H 
ATOM     40  C   LIG d   1       1.250  -1.203 -11.087  0.00  0.00    -0.018 A 
ATOM     41  C   LIG d   1       1.867  -0.343 -10.200  0.00  0.00    -0.032 A 
ATOM     42  H   LIG d   1       0.275  -1.608 -10.859  0.00  0.00     0.066 H 
ATOM     43  H   LIG d   1       1.375  -0.076  -9.276  0.00  0.00     0.064 H 
BRANCH  38  44
ATOM     44  O   LIG d   1       1.282  -2.400 -13.143  0.00  0.00    -0.495 OA
BRANCH  44  45
ATOM     45  C   LIG d   1       0.269  -3.260 -12.617  0.00  0.00     0.079 C 
ATOM     46  H   LIG d   1       0.393  -3.349 -11.537  0.00  0.00     0.066 H 
ATOM     47  H   LIG d   1      -0.713  -2.841 -12.837  0.00  0.00     0.066 H 
ATOM     48  H   LIG d   1       0.354  -4.245 -13.075  0.00  0.00     0.066 H 
ENDBRANCH  44  45
ENDBRANCH  38  44
ENDBRANCH  31  34
ENDBRANCH  29  31
ENDBRANCH   1  29
BRANCH  17  49
ATOM     49  C   LIG d   1       7.491   0.564  -4.548  0.00  0.00     0.165 C 
ATOM     50  H   LIG d   1       8.367   1.161  -4.300  0.00  0.00     0.080 H 
ATOM     51  H   LIG d   1       7.780  -0.481  -4.658  0.00  0.00     0.080 H 
BRANCH  49  52
ATOM     52  O   LIG d   1       6.927   1.034  -5.774  0.00  0.00    -0.483 OA
BRANCH  52  53
ATOM     53  C   LIG d   1       7.667   0.858  -6.900  0.00  0.00     0.121 A 
ATOM     54  C   LIG d   1       8.091   1.958  -7.632  0.00  0.00    -0.020 A 
ATOM     55  C   LIG d   1       8.844   1.776  -8.776  0.00  0.00    -0.058 A 
ATOM     56  H   LIG d   1       7.832   2.955  -7.307  0.00  0.00     0.065 H 
ATOM     57  C   LIG d   1       9.176   0.500  -9.191  0.00  0.00    -0.061 A 
ATOM     58  H   LIG d   1       9.174   2.632  -9.346  0.00  0.00     0.062 H 
ATOM     59  C   LIG d   1       8.755  -0.598  -8.463  0.00  0.00    -0.058 A 
ATOM     60  H   LIG d   1       9.765   0.359 -10.086  0.00  0.00     0.062 H 
ATOM     61  C   LIG d   1       8.007  -0.422  -7.316  0.00  0.00    -0.020 A 
ATOM     62  H   LIG d   1       9.017  -1.594  -8.789  0.00  0.00     0.062 H 
ATOM     63  H   LIG d   1       7.682  -1.280  -6.745  0.00  0.00     0.065 H 
ENDBRANCH  52  53
ENDBRANCH  49  52
ENDBRANCH  17  49
TORSDOF 8
ENDMDL
MODEL 6
REMARK VINA RESULT:      -7.6      2.277      2.765
REMARK  8 active torsions:
REMARK  status: ('A' for Active; 'I' for Inactive)
REMARK    1  A    between atoms: C_1  and  O_2 
REMARK    2  A    between atoms: O_2  and  C_3 
REMARK    3  A    between atoms: C_6  and  S_9 
REMARK    4  A    between atoms: S_9  and  N_12 
REMARK    5  A    between atoms: N_12  and  C_13 
REMARK       I    between atoms: N_27  and  C_29 
REMARK    6  A    between atoms: C_29  and  C_31 
REMARK    7  A    between atoms: C_31  and  O_32 
REMARK    8  A    between atoms: O_32  and  C_33 
ROOT
ATOM      1  C   LIG d   1       4.204  -0.411  -7.242  0.00  0.00     0.112 C 
ATOM      2  C   LIG d   1       5.043  -1.491  -7.195  0.00  0.00    -0.032 C 
ATOM      3  C   LIG d   1       5.250  -2.134  -5.969  0.00  0.00    -0.040 C 
ATOM      4  C   LIG d   1       4.614  -1.705  -4.847  0.00  0.00     0.027 C 
ATOM      5  N   LIG d   1       3.708  -0.698  -4.911  0.00  0.00    -0.310 N 
ATOM      6  C   LIG d   1       3.555   0.001  -6.061  0.00  0.00     0.274 C 
ATOM      7  O   LIG d   1       2.848   0.997  -6.074  0.00  0.00    -0.266 OA
ATOM      8  C   LIG d   1       2.825  -0.352  -3.796  0.00  0.00     0.031 C 
ATOM      9  C   LIG d   1       3.378  -0.813  -2.459  0.00  0.00    -0.006 C 
ATOM     10  H   LIG d   1       2.576  -0.754  -1.723  0.00  0.00     0.033 H 
ATOM     11  C   LIG d   1       3.827  -2.271  -2.557  0.00  0.00    -0.037 C 
ATOM     12  C   LIG d   1       5.000  -2.354  -3.538  0.00  0.00     0.016 C 
ATOM     13  H   LIG d   1       5.279  -3.394  -3.703  0.00  0.00     0.038 H 
ATOM     14  C   LIG d   1       6.177  -1.557  -2.951  0.00  0.00     0.023 C 
ATOM     15  N   LIG d   1       5.720  -0.168  -2.800  0.00  0.00    -0.298 N 
ATOM     16  C   LIG d   1       4.519   0.080  -1.992  0.00  0.00     0.019 C 
ATOM     17  C   LIG d   1       6.392   0.854  -3.365  0.00  0.00     0.253 C 
ATOM     18  O   LIG d   1       6.007   1.994  -3.209  0.00  0.00    -0.272 OA
ATOM     19  H   LIG d   1       5.538  -1.840  -8.088  0.00  0.00     0.064 H 
ATOM     20  H   LIG d   1       5.921  -2.978  -5.914  0.00  0.00     0.064 H 
ATOM     21  H   LIG d   1       2.696   0.731  -3.771  0.00  0.00     0.050 H 
ATOM     22  H   LIG d   1       1.853  -0.818  -3.957  0.00  0.00     0.050 H 
ATOM     23  H   LIG d   1       3.003  -2.885  -2.919  0.00  0.00     0.028 H 
ATOM     24  H   LIG d   1       4.146  -2.623  -1.576  0.00  0.00     0.028 H 
ATOM     25  H   LIG d   1       6.467  -1.979  -1.988  0.00  0.00     0.047 H 
ATOM     26  H   LIG d   1       7.022  -1.584  -3.638  0.00  0.00     0.047 H 
ATOM     27  H   LIG d   1       4.225   1.125  -2.093  0.00  0.00     0.047 H 
ATOM     28  H   LIG d   1       4.739  -0.133  -0.945  0.00  0.00     0.047 H 
ENDROOT
BRANCH   1  29
ATOM     29  N   LIG d   1       3.992   0.273  -8.444  0.00  0.00    -0.211 N 
ATOM     30  H   LIG d   1       4.444   1.116  -8.609  0.00  0.00     0.174 HD
BRANCH  29  31
ATOM     31  S   LIG d   1       2.971  -0.356  -9.587  0.00  0.00     0.072 S 
ATOM     32  O   LIG d   1       1.729  -0.588  -8.937  0.00  0.00    -0.150 OA
ATOM     33  O   LIG d   1       3.087   0.473 -10.735  0.00  0.00    -0.150 OA
BRANCH  31  34
ATOM     34  C   LIG d   1       3.606  -1.937 -10.040  0.00  0.00     0.109 A 
ATOM     35  C   LIG d   1       4.808  -2.029 -10.716  0.00  0.00    -0.032 A 
ATOM     36  C   LIG d   1       5.308  -3.266 -11.073  0.00  0.00    -0.018 A 
ATOM     37  H   LIG d   1       5.357  -1.133 -10.965  0.00  0.00     0.064 H 
ATOM     38  C   LIG d   1       4.602  -4.416 -10.752  0.00  0.00     0.120 A 
ATOM     39  H   LIG d   1       6.247  -3.338 -11.601  0.00  0.00     0.066 H 
ATOM     40  C   LIG d   1       3.396  -4.321 -10.072  0.00  0.00    -0.018 A 
ATOM     41  C   LIG d   1       2.903  -3.081  -9.714  0.00  0.00    -0.032 A 
ATOM     42  H   LIG d   1       2.845  -5.215  -9.821  0.00  0.00     0.066 H 
ATOM     43  H   LIG d   1       1.966  -3.006  -9.182  0.00  0.00     0.064 H 
BRANCH  38  44
ATOM     44  O   LIG d   1       5.092  -5.635 -11.101  0.00  0.00    -0.495 OA
BRANCH  44  45
ATOM     45  C   LIG d   1       5.039  -5.983 -12.486  0.00  0.00     0.079 C 
ATOM     46  H   LIG d   1       5.026  -5.075 -13.089  0.00  0.00     0.066 H 
ATOM     47  H   LIG d   1       5.915  -6.579 -12.744  0.00  0.00     0.066 H 
ATOM     48  H   LIG d   1       4.136  -6.563 -12.681  0.00  0.00     0.066 H 
ENDBRANCH  44  45
ENDBRANCH  38  44
ENDBRANCH  31  34
ENDBRANCH  29  31
ENDBRANCH   1  29
BRANCH  17  49
ATOM     49  C   LIG d   1       7.622   0.581  -4.192  0.00  0.00     0.165 C 
ATOM     50  H   LIG d   1       8.512   0.778  -3.595  0.00  0.00     0.080 H 
ATOM     51  H   LIG d   1       7.621  -0.461  -4.511  0.00  0.00     0.080 H 
BRANCH  49  52
ATOM     52  O   LIG d   1       7.621   1.431  -5.341  0.00  0.00    -0.483 OA
BRANCH  52  53
ATOM     53  C   LIG d   1       7.828   0.838  -6.546  0.00  0.00     0.121 A 
ATOM     54  C   LIG d   1       8.490  -0.379  -6.617  0.00  0.00    -0.020 A 
ATOM     55  C   LIG d   1       8.698  -0.979  -7.843  0.00  0.00    -0.058 A 
ATOM     56  H   LIG d   1       8.843  -0.855  -5.714  0.00  0.00     0.065 H 
ATOM     57  C   LIG d   1       8.246  -0.370  -8.999  0.00  0.00    -0.061 A 
ATOM     58  H   LIG d   1       9.215  -1.926  -7.900  0.00  0.00     0.062 H 
ATOM     59  C   LIG d   1       7.585   0.842  -8.930  0.00  0.00    -0.058 A 
ATOM     60  H   LIG d   1       8.409  -0.841  -9.957  0.00  0.00     0.062 H 
ATOM     61  C   LIG d   1       7.369   1.446  -7.707  0.00  0.00    -0.020 A 
ATOM     62  H   LIG d   1       7.231   1.316  -9.835  0.00  0.00     0.062 H 
ATOM     63  H   LIG d   1       6.849   2.390  -7.653  0.00  0.00     0.065 H 
ENDBRANCH  52  53
ENDBRANCH  49  52
ENDBRANCH  17  49
TORSDOF 8
ENDMDL
MODEL 7
REMARK VINA RESULT:      -7.6      2.630      7.794
REMARK  8 active torsions:
REMARK  status: ('A' for Active; 'I' for Inactive)
REMARK    1  A    between atoms: C_1  and  O_2 
REMARK    2  A    between atoms: O_2  and  C_3 
REMARK    3  A    between atoms: C_6  and  S_9 
REMARK    4  A    between atoms: S_9  and  N_12 
REMARK    5  A    between atoms: N_12  and  C_13 
REMARK       I    between atoms: N_27  and  C_29 
REMARK    6  A    between atoms: C_29  and  C_31 
REMARK    7  A    between atoms: C_31  and  O_32 
REMARK    8  A    between atoms: O_32  and  C_33 
ROOT
ATOM      1  C   LIG d   1       7.313   0.835  -5.982  0.00  0.00     0.112 C 
ATOM      2  C   LIG d   1       7.145  -0.370  -5.356  0.00  0.00    -0.032 C 
ATOM      3  C   LIG d   1       6.609  -1.441  -6.081  0.00  0.00    -0.040 C 
ATOM      4  C   LIG d   1       6.277  -1.292  -7.390  0.00  0.00     0.027 C 
ATOM      5  N   LIG d   1       6.534  -0.128  -8.038  0.00  0.00    -0.310 N 
ATOM      6  C   LIG d   1       6.966   0.951  -7.343  0.00  0.00     0.274 C 
ATOM      7  O   LIG d   1       7.055   2.034  -7.901  0.00  0.00    -0.266 OA
ATOM      8  C   LIG d   1       6.420   0.014  -9.490  0.00  0.00     0.031 C 
ATOM      9  C   LIG d   1       5.496  -1.024 -10.100  0.00  0.00    -0.006 C 
ATOM     10  H   LIG d   1       5.651  -1.024 -11.179  0.00  0.00     0.033 H 
ATOM     11  C   LIG d   1       5.851  -2.413  -9.569  0.00  0.00    -0.037 C 
ATOM     12  C   LIG d   1       5.569  -2.444  -8.064  0.00  0.00     0.016 C 
ATOM     13  H   LIG d   1       5.903  -3.390  -7.639  0.00  0.00     0.038 H 
ATOM     14  C   LIG d   1       4.058  -2.252  -7.852  0.00  0.00     0.023 C 
ATOM     15  N   LIG d   1       3.709  -0.942  -8.421  0.00  0.00    -0.298 N 
ATOM     16  C   LIG d   1       4.034  -0.694  -9.831  0.00  0.00     0.019 C 
ATOM     17  C   LIG d   1       3.090  -0.002  -7.681  0.00  0.00     0.253 C 
ATOM     18  O   LIG d   1       2.794   1.064  -8.179  0.00  0.00    -0.272 OA
ATOM     19  H   LIG d   1       7.421  -0.493  -4.319  0.00  0.00     0.064 H 
ATOM     20  H   LIG d   1       6.457  -2.393  -5.595  0.00  0.00     0.064 H 
ATOM     21  H   LIG d   1       6.034   1.009  -9.718  0.00  0.00     0.050 H 
ATOM     22  H   LIG d   1       7.411  -0.089  -9.934  0.00  0.00     0.050 H 
ATOM     23  H   LIG d   1       6.906  -2.615  -9.748  0.00  0.00     0.028 H 
ATOM     24  H   LIG d   1       5.241  -3.164 -10.071  0.00  0.00     0.028 H 
ATOM     25  H   LIG d   1       3.509  -3.052  -8.350  0.00  0.00     0.047 H 
ATOM     26  H   LIG d   1       3.831  -2.253  -6.786  0.00  0.00     0.047 H 
ATOM     27  H   LIG d   1       3.852   0.355 -10.064  0.00  0.00     0.047 H 
ATOM     28  H   LIG d   1       3.400  -1.317 -10.462  0.00  0.00     0.047 H 
ENDROOT
BRANCH   1  29
ATOM     29  N   LIG d   1       7.822   1.934  -5.282  0.00  0.00    -0.211 N 
ATOM     30  H   LIG d   1       7.216   2.562  -4.857  0.00  0.00     0.174 HD
BRANCH  29  31
ATOM     31  S   LIG d   1       9.459   2.164  -5.178  0.00  0.00     0.072 S 
ATOM     32  O   LIG d   1       9.964   1.119  -4.358  0.00  0.00    -0.150 OA
ATOM     33  O   LIG d   1       9.922   2.384  -6.503  0.00  0.00    -0.150 OA
BRANCH  31  34
ATOM     34  C   LIG d   1       9.720   3.667  -4.297  0.00  0.00     0.109 A 
ATOM     35  C   LIG d   1      10.156   3.631  -2.985  0.00  0.00    -0.032 A 
ATOM     36  C   LIG d   1      10.360   4.808  -2.292  0.00  0.00    -0.018 A 
ATOM     37  H   LIG d   1      10.337   2.682  -2.503  0.00  0.00     0.064 H 
ATOM     38  C   LIG d   1      10.128   6.026  -2.912  0.00  0.00     0.120 A 
ATOM     39  H   LIG d   1      10.701   4.780  -1.267  0.00  0.00     0.066 H 
ATOM     40  C   LIG d   1       9.692   6.060  -4.229  0.00  0.00    -0.018 A 
ATOM     41  C   LIG d   1       9.493   4.880  -4.919  0.00  0.00    -0.032 A 
ATOM     42  H   LIG d   1       9.510   7.008  -4.714  0.00  0.00     0.066 H 
ATOM     43  H   LIG d   1       9.157   4.905  -5.945  0.00  0.00     0.064 H 
BRANCH  38  44
ATOM     44  O   LIG d   1      10.329   7.186  -2.233  0.00  0.00    -0.495 OA
BRANCH  44  45
ATOM     45  C   LIG d   1       9.306   7.589  -1.320  0.00  0.00     0.079 C 
ATOM     46  H   LIG d   1       9.712   7.618  -0.308  0.00  0.00     0.066 H 
ATOM     47  H   LIG d   1       8.945   8.580  -1.595  0.00  0.00     0.066 H 
ATOM     48  H   LIG d   1       8.481   6.878  -1.361  0.00  0.00     0.066 H 
ENDBRANCH  44  45
ENDBRANCH  38  44
ENDBRANCH  31  34
ENDBRANCH  29  31
ENDBRANCH   1  29
BRANCH  17  49
ATOM     49  C   LIG d   1       2.765  -0.274  -6.235  0.00  0.00     0.165 C 
ATOM     50  H   LIG d   1       1.721  -0.030  -6.045  0.00  0.00     0.080 H 
ATOM     51  H   LIG d   1       2.939  -1.328  -6.016  0.00  0.00     0.080 H 
BRANCH  49  52
ATOM     52  O   LIG d   1       3.602   0.530  -5.400  0.00  0.00    -0.483 OA
BRANCH  52  53
ATOM     53  C   LIG d   1       3.871   0.054  -4.156  0.00  0.00     0.121 A 
ATOM     54  C   LIG d   1       4.332   0.912  -3.168  0.00  0.00    -0.020 A 
ATOM     55  C   LIG d   1       4.603   0.426  -1.904  0.00  0.00    -0.058 A 
ATOM     56  H   LIG d   1       4.478   1.960  -3.388  0.00  0.00     0.065 H 
ATOM     57  C   LIG d   1       4.416  -0.914  -1.623  0.00  0.00    -0.061 A 
ATOM     58  H   LIG d   1       4.964   1.094  -1.135  0.00  0.00     0.062 H 
ATOM     59  C   LIG d   1       3.956  -1.771  -2.605  0.00  0.00    -0.058 A 
ATOM     60  H   LIG d   1       4.630  -1.293  -0.634  0.00  0.00     0.062 H 
ATOM     61  C   LIG d   1       3.677  -1.290  -3.869  0.00  0.00    -0.020 A 
ATOM     62  H   LIG d   1       3.809  -2.818  -2.382  0.00  0.00     0.062 H 
ATOM     63  H   LIG d   1       3.314  -1.959  -4.635  0.00  0.00     0.065 H 
ENDBRANCH  52  53
ENDBRANCH  49  52
ENDBRANCH  17  49
TORSDOF 8
ENDMDL
MODEL 8
REMARK VINA RESULT:      -7.6      1.321      1.722
REMARK  8 active torsions:
REMARK  status: ('A' for Active; 'I' for Inactive)
REMARK    1  A    between atoms: C_1  and  O_2 
REMARK    2  A    between atoms: O_2  and  C_3 
REMARK    3  A    between atoms: C_6  and  S_9 
REMARK    4  A    between atoms: S_9  and  N_12 
REMARK    5  A    between atoms: N_12  and  C_13 
REMARK       I    between atoms: N_27  and  C_29 
REMARK    6  A    between atoms: C_29  and  C_31 
REMARK    7  A    between atoms: C_31  and  O_32 
REMARK    8  A    between atoms: O_32  and  C_33 
ROOT
ATOM      1  C   LIG d   1       3.640  -0.144  -7.088  0.00  0.00     0.112 C 
ATOM      2  C   LIG d   1       4.357  -1.300  -7.233  0.00  0.00    -0.032 C 
ATOM      3  C   LIG d   1       4.699  -2.032  -6.090  0.00  0.00    -0.040 C 
ATOM      4  C   LIG d   1       4.309  -1.612  -4.858  0.00  0.00     0.027 C 
ATOM      5  N   LIG d   1       3.515  -0.521  -4.720  0.00  0.00    -0.310 N 
ATOM      6  C   LIG d   1       3.245   0.258  -5.796  0.00  0.00     0.274 C 
ATOM      7  O   LIG d   1       2.655   1.316  -5.644  0.00  0.00    -0.266 OA
ATOM      8  C   LIG d   1       2.874  -0.159  -3.456  0.00  0.00     0.031 C 
ATOM      9  C   LIG d   1       3.592  -0.750  -2.256  0.00  0.00    -0.006 C 
ATOM     10  H   LIG d   1       2.936  -0.659  -1.390  0.00  0.00     0.033 H 
ATOM     11  C   LIG d   1       3.863  -2.236  -2.492  0.00  0.00    -0.037 C 
ATOM     12  C   LIG d   1       4.839  -2.372  -3.664  0.00  0.00     0.016 C 
ATOM     13  H   LIG d   1       4.977  -3.422  -3.919  0.00  0.00     0.038 H 
ATOM     14  C   LIG d   1       6.175  -1.728  -3.257  0.00  0.00     0.023 C 
ATOM     15  N   LIG d   1       5.898  -0.313  -2.969  0.00  0.00    -0.298 N 
ATOM     16  C   LIG d   1       4.883  -0.000  -1.956  0.00  0.00     0.019 C 
ATOM     17  C   LIG d   1       6.569   0.672  -3.599  0.00  0.00     0.253 C 
ATOM     18  O   LIG d   1       6.337   1.832  -3.330  0.00  0.00    -0.272 OA
ATOM     19  H   LIG d   1       4.655  -1.640  -8.213  0.00  0.00     0.064 H 
ATOM     20  H   LIG d   1       5.277  -2.939  -6.189  0.00  0.00     0.064 H 
ATOM     21  H   LIG d   1       2.865   0.928  -3.363  0.00  0.00     0.050 H 
ATOM     22  H   LIG d   1       1.845  -0.519  -3.466  0.00  0.00     0.050 H 
ATOM     23  H   LIG d   1       2.930  -2.745  -2.732  0.00  0.00     0.028 H 
ATOM     24  H   LIG d   1       4.303  -2.675  -1.597  0.00  0.00     0.028 H 
ATOM     25  H   LIG d   1       6.577  -2.233  -2.377  0.00  0.00     0.047 H 
ATOM     26  H   LIG d   1       6.885  -1.796  -4.080  0.00  0.00     0.047 H 
ATOM     27  H   LIG d   1       4.688   1.072  -1.960  0.00  0.00     0.047 H 
ATOM     28  H   LIG d   1       5.252  -0.295  -0.973  0.00  0.00     0.047 H 
ENDROOT
BRANCH   1  29
ATOM     29  N   LIG d   1       3.302   0.628  -8.206  0.00  0.00    -0.211 N 
ATOM     30  H   LIG d   1       2.383   0.657  -8.516  0.00  0.00     0.174 HD
BRANCH  29  31
ATOM     31  S   LIG d   1       4.471   1.493  -8.999  0.00  0.00     0.072 S 
ATOM     32  O   LIG d   1       3.847   2.679  -9.473  0.00  0.00    -0.150 OA
ATOM     33  O   LIG d   1       5.606   1.519  -8.145  0.00  0.00    -0.150 OA
BRANCH  31  34
ATOM     34  C   LIG d   1       4.932   0.563 -10.422  0.00  0.00     0.109 A 
ATOM     35  C   LIG d   1       4.062   0.462 -11.492  0.00  0.00    -0.032 A 
ATOM     36  C   LIG d   1       4.421  -0.268 -12.609  0.00  0.00    -0.018 A 
ATOM     37  H   LIG d   1       3.102   0.953 -11.454  0.00  0.00     0.064 H 
ATOM     38  C   LIG d   1       5.655  -0.898 -12.657  0.00  0.00     0.120 A 
ATOM     39  H   LIG d   1       3.741  -0.347 -13.445  0.00  0.00     0.066 H 
ATOM     40  C   LIG d   1       6.527  -0.795 -11.582  0.00  0.00    -0.018 A 
ATOM     41  C   LIG d   1       6.165  -0.060 -10.469  0.00  0.00    -0.032 A 
ATOM     42  H   LIG d   1       7.489  -1.285 -11.617  0.00  0.00     0.066 H 
ATOM     43  H   LIG d   1       6.844   0.024  -9.634  0.00  0.00     0.064 H 
BRANCH  38  44
ATOM     44  O   LIG d   1       6.011  -1.616 -13.754  0.00  0.00    -0.495 OA
BRANCH  44  45
ATOM     45  C   LIG d   1       5.770  -3.024 -13.715  0.00  0.00     0.079 C 
ATOM     46  H   LIG d   1       5.189  -3.318 -14.589  0.00  0.00     0.066 H 
ATOM     47  H   LIG d   1       6.723  -3.555 -13.717  0.00  0.00     0.066 H 
ATOM     48  H   LIG d   1       5.217  -3.274 -12.809  0.00  0.00     0.066 H 
ENDBRANCH  44  45
ENDBRANCH  38  44
ENDBRANCH  31  34
ENDBRANCH  29  31
ENDBRANCH   1  29
BRANCH  17  49
ATOM     49  C   LIG d   1       7.607   0.332  -4.637  0.00  0.00     0.165 C 
ATOM     50  H   LIG d   1       7.816  -0.737  -4.606  0.00  0.00     0.080 H 
ATOM     51  H   LIG d   1       7.234   0.601  -5.625  0.00  0.00     0.080 H 
BRANCH  49  52
ATOM     52  O   LIG d   1       8.807   1.059  -4.365  0.00  0.00    -0.483 OA
BRANCH  52  53
ATOM     53  C   LIG d   1       9.891   0.769  -5.133  0.00  0.00     0.121 A 
ATOM     54  C   LIG d   1      10.223  -0.553  -5.394  0.00  0.00    -0.020 A 
ATOM     55  C   LIG d   1      11.324  -0.846  -6.175  0.00  0.00    -0.058 A 
ATOM     56  H   LIG d   1       9.619  -1.352  -4.988  0.00  0.00     0.065 H 
ATOM     57  C   LIG d   1      12.095   0.176  -6.695  0.00  0.00    -0.061 A 
ATOM     58  H   LIG d   1      11.583  -1.875  -6.377  0.00  0.00     0.062 H 
ATOM     59  C   LIG d   1      11.766   1.494  -6.436  0.00  0.00    -0.058 A 
ATOM     60  H   LIG d   1      12.956  -0.054  -7.305  0.00  0.00     0.062 H 
ATOM     61  C   LIG d   1      10.663   1.794  -5.661  0.00  0.00    -0.020 A 
ATOM     62  H   LIG d   1      12.370   2.292  -6.846  0.00  0.00     0.062 H 
ATOM     63  H   LIG d   1      10.404   2.823  -5.463  0.00  0.00     0.065 H 
ENDBRANCH  52  53
ENDBRANCH  49  52
ENDBRANCH  17  49
TORSDOF 8
ENDMDL
MODEL 9
REMARK VINA RESULT:      -7.6      2.590      7.023
REMARK  8 active torsions:
REMARK  status: ('A' for Active; 'I' for Inactive)
REMARK    1  A    between atoms: C_1  and  O_2 
REMARK    2  A    between atoms: O_2  and  C_3 
REMARK    3  A    between atoms: C_6  and  S_9 
REMARK    4  A    between atoms: S_9  and  N_12 
REMARK    5  A    between atoms: N_12  and  C_13 
REMARK       I    between atoms: N_27  and  C_29 
REMARK    6  A    between atoms: C_29  and  C_31 
REMARK    7  A    between atoms: C_31  and  O_32 
REMARK    8  A    between atoms: O_32  and  C_33 
ROOT
ATOM      1  C   LIG d   1       5.929  -3.102  -7.925  0.00  0.00     0.112 C 
ATOM      2  C   LIG d   1       4.748  -3.773  -7.759  0.00  0.00    -0.032 C 
ATOM      3  C   LIG d   1       3.634  -3.377  -8.508  0.00  0.00    -0.040 C 
ATOM      4  C   LIG d   1       3.727  -2.355  -9.398  0.00  0.00     0.027 C 
ATOM      5  N   LIG d   1       4.920  -1.754  -9.636  0.00  0.00    -0.310 N 
ATOM      6  C   LIG d   1       5.992  -2.053  -8.864  0.00  0.00     0.274 C 
ATOM      7  O   LIG d   1       7.022  -1.407  -8.983  0.00  0.00    -0.266 OA
ATOM      8  C   LIG d   1       5.132  -0.819 -10.741  0.00  0.00     0.031 C 
ATOM      9  C   LIG d   1       3.838  -0.185 -11.216  0.00  0.00    -0.006 C 
ATOM     10  H   LIG d   1       4.026   0.291 -12.178  0.00  0.00     0.033 H 
ATOM     11  C   LIG d   1       2.773  -1.263 -11.419  0.00  0.00    -0.037 C 
ATOM     12  C   LIG d   1       2.451  -1.890 -10.059  0.00  0.00     0.016 C 
ATOM     13  H   LIG d   1       1.766  -2.728 -10.185  0.00  0.00     0.038 H 
ATOM     14  C   LIG d   1       1.829  -0.805  -9.163  0.00  0.00     0.023 C 
ATOM     15  N   LIG d   1       2.833   0.260  -9.022  0.00  0.00    -0.298 N 
ATOM     16  C   LIG d   1       3.354   0.884 -10.244  0.00  0.00     0.019 C 
ATOM     17  C   LIG d   1       3.251   0.670  -7.808  0.00  0.00     0.253 C 
ATOM     18  O   LIG d   1       4.065   1.565  -7.717  0.00  0.00    -0.272 OA
ATOM     19  H   LIG d   1       4.678  -4.593  -7.061  0.00  0.00     0.064 H 
ATOM     20  H   LIG d   1       2.692  -3.888  -8.376  0.00  0.00     0.064 H 
ATOM     21  H   LIG d   1       5.812  -0.032 -10.412  0.00  0.00     0.050 H 
ATOM     22  H   LIG d   1       5.590  -1.354 -11.573  0.00  0.00     0.050 H 
ATOM     23  H   LIG d   1       3.152  -2.029 -12.094  0.00  0.00     0.028 H 
ATOM     24  H   LIG d   1       1.873  -0.814 -11.837  0.00  0.00     0.028 H 
ATOM     25  H   LIG d   1       0.917  -0.422  -9.622  0.00  0.00     0.047 H 
ATOM     26  H   LIG d   1       1.605  -1.220  -8.181  0.00  0.00     0.047 H 
ATOM     27  H   LIG d   1       4.184   1.542  -9.988  0.00  0.00     0.047 H 
ATOM     28  H   LIG d   1       2.563   1.469 -10.715  0.00  0.00     0.047 H 
ENDROOT
BRANCH   1  29
ATOM     29  N   LIG d   1       7.058  -3.453  -7.175  0.00  0.00    -0.211 N 
ATOM     30  H   LIG d   1       7.826  -3.854  -7.613  0.00  0.00     0.174 HD
BRANCH  29  31
ATOM     31  S   LIG d   1       7.083  -3.185  -5.541  0.00  0.00     0.072 S 
ATOM     32  O   LIG d   1       5.738  -3.291  -5.092  0.00  0.00    -0.150 OA
ATOM     33  O   LIG d   1       8.127  -3.991  -5.014  0.00  0.00    -0.150 OA
BRANCH  31  34
ATOM     34  C   LIG d   1       7.566  -1.509  -5.295  0.00  0.00     0.109 A 
ATOM     35  C   LIG d   1       8.659  -1.000  -5.970  0.00  0.00    -0.032 A 
ATOM     36  C   LIG d   1       9.041   0.314  -5.778  0.00  0.00    -0.018 A 
ATOM     37  H   LIG d   1       9.216  -1.630  -6.647  0.00  0.00     0.064 H 
ATOM     38  C   LIG d   1       8.325   1.122  -4.908  0.00  0.00     0.120 A 
ATOM     39  H   LIG d   1       9.895   0.711  -6.305  0.00  0.00     0.066 H 
ATOM     40  C   LIG d   1       7.227   0.609  -4.232  0.00  0.00    -0.018 A 
ATOM     41  C   LIG d   1       6.847  -0.704  -4.431  0.00  0.00    -0.032 A 
ATOM     42  H   LIG d   1       6.668   1.237  -3.554  0.00  0.00     0.066 H 
ATOM     43  H   LIG d   1       5.990  -1.103  -3.908  0.00  0.00     0.064 H 
BRANCH  38  44
ATOM     44  O   LIG d   1       8.697   2.415  -4.718  0.00  0.00    -0.495 OA
BRANCH  44  45
ATOM     45  C   LIG d   1       9.416   2.714  -3.519  0.00  0.00     0.079 C 
ATOM     46  H   LIG d   1      10.281   2.057  -3.440  0.00  0.00     0.066 H 
ATOM     47  H   LIG d   1       9.749   3.752  -3.546  0.00  0.00     0.066 H 
ATOM     48  H   LIG d   1       8.765   2.565  -2.657  0.00  0.00     0.066 H 
ENDBRANCH  44  45
ENDBRANCH  38  44
ENDBRANCH  31  34
ENDBRANCH  29  31
ENDBRANCH   1  29
BRANCH  17  49
ATOM     49  C   LIG d   1       2.706   0.017  -6.564  0.00  0.00     0.165 C 
ATOM     50  H   LIG d   1       1.672  -0.282  -6.734  0.00  0.00     0.080 H 
ATOM     51  H   LIG d   1       3.304  -0.862  -6.324  0.00  0.00     0.080 H 
BRANCH  49  52
ATOM     52  O   LIG d   1       2.761   0.944  -5.477  0.00  0.00    -0.483 OA
BRANCH  52  53
ATOM     53  C   LIG d   1       3.203   0.467  -4.283  0.00  0.00     0.121 A 
ATOM     54  C   LIG d   1       3.676   1.344  -3.317  0.00  0.00    -0.020 A 
ATOM     55  C   LIG d   1       4.123   0.858  -2.105  0.00  0.00    -0.058 A 
ATOM     56  H   LIG d   1       3.693   2.406  -3.514  0.00  0.00     0.065 H 
ATOM     57  C   LIG d   1       4.100  -0.501  -1.853  0.00  0.00    -0.061 A 
ATOM     58  H   LIG d   1       4.492   1.540  -1.353  0.00  0.00     0.062 H 
ATOM     59  C   LIG d   1       3.629  -1.377  -2.813  0.00  0.00    -0.058 A 
ATOM     60  H   LIG d   1       4.451  -0.880  -0.903  0.00  0.00     0.062 H 
ATOM     61  C   LIG d   1       3.175  -0.896  -4.025  0.00  0.00    -0.020 A 
ATOM     62  H   LIG d   1       3.610  -2.439  -2.613  0.00  0.00     0.062 H 
ATOM     63  H   LIG d   1       2.803  -1.580  -4.774  0.00  0.00     0.065 H 
ENDBRANCH  52  53
ENDBRANCH  49  52
ENDBRANCH  17  49
TORSDOF 8
ENDMDL
