MODEL 1
REMARK VINA RESULT:      -6.8      0.000      0.000
REMARK  6 active torsions:
REMARK  status: ('A' for Active; 'I' for Inactive)
REMARK    1  A    between atoms: C_1  and  C_2 
REMARK    2  A    between atoms: C_2  and  O_3 
REMARK    3  A    between atoms: O_3  and  C_4 
REMARK    4  A    between atoms: C_7  and  C_10 
REMARK    5  A    between atoms: C_16  and  C_19 
REMARK    6  A    between atoms: C_24  and  O_25 
ROOT
ATOM      1  C   LIG d   1       9.139   3.050  -4.936  0.00  0.00     0.179 A 
ATOM      2  N   LIG d   1       9.209   3.234  -6.230  0.00  0.00    -0.127 NA
ATOM      3  N   LIG d   1       8.632   2.262  -6.843  0.00  0.00    -0.121 NA
ATOM      4  C   LIG d   1       8.167   1.412  -5.973  0.00  0.00     0.208 A 
ATOM      5  N   LIG d   1       8.456   1.855  -4.713  0.00  0.00    -0.231 N 
ATOM      6  N   LIG d   1       8.066   1.127  -3.635  0.00  0.00    -0.207 NA
ATOM      7  C   LIG d   1       7.334  -0.129  -3.895  0.00  0.00     0.109 A 
ATOM      8  H   LIG d   1       7.885  -0.992  -3.517  0.00  0.00     0.065 H 
ATOM      9  S   LIG d   1       7.292  -0.115  -5.730  0.00  0.00    -0.059 SA
ATOM     10  H   LIG d   1       7.571   1.703  -2.969  0.00  0.00     0.149 HD
ENDROOT
BRANCH   1  11
ATOM     11  C   LIG d   1       9.685   3.950  -3.898  0.00  0.00     0.021 A 
ATOM     12  C   LIG d   1      10.502   3.439  -2.888  0.00  0.00    -0.048 A 
ATOM     13  C   LIG d   1      11.009   4.281  -1.922  0.00  0.00    -0.019 A 
ATOM     14  H   LIG d   1      10.738   2.386  -2.865  0.00  0.00     0.063 H 
ATOM     15  C   LIG d   1      10.707   5.637  -1.951  0.00  0.00     0.120 A 
ATOM     16  H   LIG d   1      11.642   3.888  -1.141  0.00  0.00     0.065 H 
ATOM     17  C   LIG d   1       9.893   6.149  -2.953  0.00  0.00    -0.019 A 
ATOM     18  C   LIG d   1       9.387   5.314  -3.927  0.00  0.00    -0.048 A 
ATOM     19  H   LIG d   1       9.660   7.203  -2.973  0.00  0.00     0.065 H 
ATOM     20  H   LIG d   1       8.759   5.714  -4.709  0.00  0.00     0.063 H 
BRANCH  15  21
ATOM     21  O   LIG d   1      11.208   6.463  -0.997  0.00  0.00    -0.492 OA
BRANCH  21  22
ATOM     22  C   LIG d   1      11.904   5.851   0.091  0.00  0.00     0.087 C 
ATOM     23  H   LIG d   1      12.097   4.805  -0.144  0.00  0.00     0.069 H 
ATOM     24  H   LIG d   1      12.852   6.367   0.253  0.00  0.00     0.069 H 
BRANCH  22  25
ATOM     25  C   LIG d   1      11.052   5.941   1.359  0.00  0.00    -0.031 C 
ATOM     26  H   LIG d   1      11.091   6.957   1.751  0.00  0.00     0.026 H 
ATOM     27  H   LIG d   1      10.020   5.682   1.120  0.00  0.00     0.026 H 
ATOM     28  H   LIG d   1      11.438   5.247   2.105  0.00  0.00     0.026 H 
ENDBRANCH  22  25
ENDBRANCH  21  22
ENDBRANCH  15  21
ENDBRANCH   1  11
BRANCH   7  29
ATOM     29  C   LIG d   1       5.943  -0.081  -3.316  0.00  0.00     0.023 A 
ATOM     30  C   LIG d   1       5.191  -1.242  -3.217  0.00  0.00     0.122 A 
ATOM     31  C   LIG d   1       3.912  -1.194  -2.684  0.00  0.00    -0.020 A 
ATOM     32  C   LIG d   1       3.389   0.010  -2.253  0.00  0.00    -0.058 A 
ATOM     33  H   LIG d   1       3.324  -2.096  -2.607  0.00  0.00     0.065 H 
ATOM     34  C   LIG d   1       4.141   1.167  -2.353  0.00  0.00    -0.061 A 
ATOM     35  H   LIG d   1       2.393   0.048  -1.838  0.00  0.00     0.062 H 
ATOM     36  C   LIG d   1       5.416   1.121  -2.883  0.00  0.00    -0.053 A 
ATOM     37  H   LIG d   1       3.732   2.107  -2.014  0.00  0.00     0.062 H 
ATOM     38  H   LIG d   1       6.001   2.026  -2.960  0.00  0.00     0.062 H 
BRANCH  30  39
ATOM     39  O   LIG d   1       5.710  -2.426  -3.637  0.00  0.00    -0.506 OA
ATOM     40  H   LIG d   1       5.213  -2.840  -4.356  0.00  0.00     0.292 HD
ENDBRANCH  30  39
ENDBRANCH   7  29
TORSDOF 6
ENDMDL
MODEL 2
REMARK VINA RESULT:      -6.7      5.140      8.046
REMARK  6 active torsions:
REMARK  status: ('A' for Active; 'I' for Inactive)
REMARK    1  A    between atoms: C_1  and  C_2 
REMARK    2  A    between atoms: C_2  and  O_3 
REMARK    3  A    between atoms: O_3  and  C_4 
REMARK    4  A    between atoms: C_7  and  C_10 
REMARK    5  A    between atoms: C_16  and  C_19 
REMARK    6  A    between atoms: C_24  and  O_25 
ROOT
ATOM      1  C   LIG d   1       9.441  -3.125  -4.338  0.00  0.00     0.179 A 
ATOM      2  N   LIG d   1      10.507  -2.478  -4.738  0.00  0.00    -0.127 NA
ATOM      3  N   LIG d   1      10.164  -1.374  -5.299  0.00  0.00    -0.121 NA
ATOM      4  C   LIG d   1       8.868  -1.261  -5.286  0.00  0.00     0.208 A 
ATOM      5  N   LIG d   1       8.327  -2.360  -4.678  0.00  0.00    -0.231 N 
ATOM      6  N   LIG d   1       6.980  -2.465  -4.547  0.00  0.00    -0.207 NA
ATOM      7  C   LIG d   1       6.159  -1.360  -5.081  0.00  0.00     0.109 A 
ATOM      8  H   LIG d   1       5.500  -1.707  -5.878  0.00  0.00     0.065 H 
ATOM      9  S   LIG d   1       7.472  -0.257  -5.735  0.00  0.00    -0.059 SA
ATOM     10  H   LIG d   1       6.724  -2.677  -3.594  0.00  0.00     0.149 HD
ENDROOT
BRANCH   1  11
ATOM     11  C   LIG d   1       9.424  -4.433  -3.649  0.00  0.00     0.021 A 
ATOM     12  C   LIG d   1       9.075  -5.589  -4.350  0.00  0.00    -0.048 A 
ATOM     13  C   LIG d   1       9.060  -6.807  -3.703  0.00  0.00    -0.019 A 
ATOM     14  H   LIG d   1       8.818  -5.529  -5.396  0.00  0.00     0.063 H 
ATOM     15  C   LIG d   1       9.391  -6.884  -2.356  0.00  0.00     0.120 A 
ATOM     16  H   LIG d   1       8.790  -7.701  -4.244  0.00  0.00     0.065 H 
ATOM     17  C   LIG d   1       9.739  -5.737  -1.656  0.00  0.00    -0.019 A 
ATOM     18  C   LIG d   1       9.762  -4.516  -2.296  0.00  0.00    -0.048 A 
ATOM     19  H   LIG d   1       9.995  -5.801  -0.609  0.00  0.00     0.065 H 
ATOM     20  H   LIG d   1      10.037  -3.625  -1.752  0.00  0.00     0.063 H 
BRANCH  15  21
ATOM     21  O   LIG d   1       9.374  -8.086  -1.723  0.00  0.00    -0.492 OA
BRANCH  21  22
ATOM     22  C   LIG d   1       8.668  -9.148  -2.366  0.00  0.00     0.087 C 
ATOM     23  H   LIG d   1       8.302  -8.807  -3.335  0.00  0.00     0.069 H 
ATOM     24  H   LIG d   1       9.337  -9.997  -2.509  0.00  0.00     0.069 H 
BRANCH  22  25
ATOM     25  C   LIG d   1       7.483  -9.575  -1.496  0.00  0.00    -0.031 C 
ATOM     26  H   LIG d   1       6.658  -9.889  -2.134  0.00  0.00     0.026 H 
ATOM     27  H   LIG d   1       7.784 -10.404  -0.856  0.00  0.00     0.026 H 
ATOM     28  H   LIG d   1       7.166  -8.736  -0.877  0.00  0.00     0.026 H 
ENDBRANCH  22  25
ENDBRANCH  21  22
ENDBRANCH  15  21
ENDBRANCH   1  11
BRANCH   7  29
ATOM     29  C   LIG d   1       5.373  -0.685  -3.987  0.00  0.00     0.023 A 
ATOM     30  C   LIG d   1       4.165  -1.222  -3.565  0.00  0.00     0.122 A 
ATOM     31  C   LIG d   1       3.445  -0.597  -2.557  0.00  0.00    -0.020 A 
ATOM     32  C   LIG d   1       3.932   0.557  -1.976  0.00  0.00    -0.058 A 
ATOM     33  H   LIG d   1       2.505  -1.013  -2.228  0.00  0.00     0.065 H 
ATOM     34  C   LIG d   1       5.137   1.091  -2.398  0.00  0.00    -0.061 A 
ATOM     35  H   LIG d   1       3.372   1.044  -1.191  0.00  0.00     0.062 H 
ATOM     36  C   LIG d   1       5.856   0.470  -3.402  0.00  0.00    -0.053 A 
ATOM     37  H   LIG d   1       5.516   1.993  -1.941  0.00  0.00     0.062 H 
ATOM     38  H   LIG d   1       6.796   0.889  -3.729  0.00  0.00     0.062 H 
BRANCH  30  39
ATOM     39  O   LIG d   1       3.692  -2.361  -4.135  0.00  0.00    -0.506 OA
ATOM     40  H   LIG d   1       2.767  -2.549  -3.926  0.00  0.00     0.292 HD
ENDBRANCH  30  39
ENDBRANCH   7  29
TORSDOF 6
ENDMDL
MODEL 3
REMARK VINA RESULT:      -6.5      1.768      2.222
REMARK  6 active torsions:
REMARK  status: ('A' for Active; 'I' for Inactive)
REMARK    1  A    between atoms: C_1  and  C_2 
REMARK    2  A    between atoms: C_2  and  O_3 
REMARK    3  A    between atoms: O_3  and  C_4 
REMARK    4  A    between atoms: C_7  and  C_10 
REMARK    5  A    between atoms: C_16  and  C_19 
REMARK    6  A    between atoms: C_24  and  O_25 
ROOT
ATOM      1  C   LIG d   1       9.478   2.515  -4.737  0.00  0.00     0.179 A 
ATOM      2  N   LIG d   1      10.222   2.060  -5.713  0.00  0.00    -0.127 NA
ATOM      3  N   LIG d   1       9.894   0.847  -5.985  0.00  0.00    -0.121 NA
ATOM      4  C   LIG d   1       8.928   0.469  -5.200  0.00  0.00     0.208 A 
ATOM      5  N   LIG d   1       8.602   1.498  -4.360  0.00  0.00    -0.231 N 
ATOM      6  N   LIG d   1       7.612   1.335  -3.445  0.00  0.00    -0.207 NA
ATOM      7  C   LIG d   1       6.931   0.026  -3.409  0.00  0.00     0.109 A 
ATOM      8  H   LIG d   1       7.073  -0.468  -2.447  0.00  0.00     0.065 H 
ATOM      9  S   LIG d   1       7.828  -0.852  -4.749  0.00  0.00    -0.059 SA
ATOM     10  H   LIG d   1       6.944   2.090  -3.497  0.00  0.00     0.149 HD
ENDROOT
BRANCH   1  11
ATOM     11  C   LIG d   1       9.552   3.866  -4.142  0.00  0.00     0.021 A 
ATOM     12  C   LIG d   1       9.191   4.984  -4.896  0.00  0.00    -0.048 A 
ATOM     13  C   LIG d   1       9.262   6.242  -4.337  0.00  0.00    -0.019 A 
ATOM     14  H   LIG d   1       8.854   4.863  -5.914  0.00  0.00     0.063 H 
ATOM     15  C   LIG d   1       9.694   6.399  -3.026  0.00  0.00     0.120 A 
ATOM     16  H   LIG d   1       8.982   7.108  -4.918  0.00  0.00     0.065 H 
ATOM     17  C   LIG d   1      10.055   5.289  -2.273  0.00  0.00    -0.019 A 
ATOM     18  C   LIG d   1       9.981   4.027  -2.822  0.00  0.00    -0.048 A 
ATOM     19  H   LIG d   1      10.391   5.415  -1.255  0.00  0.00     0.065 H 
ATOM     20  H   LIG d   1      10.257   3.164  -2.235  0.00  0.00     0.063 H 
BRANCH  15  21
ATOM     21  O   LIG d   1       9.764   7.640  -2.479  0.00  0.00    -0.492 OA
BRANCH  21  22
ATOM     22  C   LIG d   1       9.618   7.734  -1.061  0.00  0.00     0.087 C 
ATOM     23  H   LIG d   1       8.597   8.027  -0.819  0.00  0.00     0.069 H 
ATOM     24  H   LIG d   1       9.835   6.766  -0.608  0.00  0.00     0.069 H 
BRANCH  22  25
ATOM     25  C   LIG d   1      10.592   8.781  -0.515  0.00  0.00    -0.031 C 
ATOM     26  H   LIG d   1      10.063   9.449   0.165  0.00  0.00     0.026 H 
ATOM     27  H   LIG d   1      11.399   8.281   0.020  0.00  0.00     0.026 H 
ATOM     28  H   LIG d   1      11.006   9.358  -1.342  0.00  0.00     0.026 H 
ENDBRANCH  22  25
ENDBRANCH  21  22
ENDBRANCH  15  21
ENDBRANCH   1  11
BRANCH   7  29
ATOM     29  C   LIG d   1       5.465   0.164  -3.733  0.00  0.00     0.023 A 
ATOM     30  C   LIG d   1       4.617   0.819  -2.852  0.00  0.00     0.122 A 
ATOM     31  C   LIG d   1       3.269   0.944  -3.155  0.00  0.00    -0.020 A 
ATOM     32  C   LIG d   1       2.774   0.417  -4.331  0.00  0.00    -0.058 A 
ATOM     33  H   LIG d   1       2.607   1.453  -2.470  0.00  0.00     0.065 H 
ATOM     34  C   LIG d   1       3.622  -0.235  -5.209  0.00  0.00    -0.061 A 
ATOM     35  H   LIG d   1       1.725   0.514  -4.567  0.00  0.00     0.062 H 
ATOM     36  C   LIG d   1       4.966  -0.361  -4.910  0.00  0.00    -0.053 A 
ATOM     37  H   LIG d   1       3.234  -0.645  -6.129  0.00  0.00     0.062 H 
ATOM     38  H   LIG d   1       5.625  -0.871  -5.597  0.00  0.00     0.062 H 
BRANCH  30  39
ATOM     39  O   LIG d   1       5.108   1.342  -1.698  0.00  0.00    -0.506 OA
ATOM     40  H   LIG d   1       5.566   2.185  -1.813  0.00  0.00     0.292 HD
ENDBRANCH  30  39
ENDBRANCH   7  29
TORSDOF 6
ENDMDL
MODEL 4
REMARK VINA RESULT:      -6.2      6.385      8.798
REMARK  6 active torsions:
REMARK  status: ('A' for Active; 'I' for Inactive)
REMARK    1  A    between atoms: C_1  and  C_2 
REMARK    2  A    between atoms: C_2  and  O_3 
REMARK    3  A    between atoms: O_3  and  C_4 
REMARK    4  A    between atoms: C_7  and  C_10 
REMARK    5  A    between atoms: C_16  and  C_19 
REMARK    6  A    between atoms: C_24  and  O_25 
ROOT
ATOM      1  C   LIG d   1       3.061   0.464  -6.469  0.00  0.00     0.179 A 
ATOM      2  N   LIG d   1       2.626   1.477  -5.762  0.00  0.00    -0.127 NA
ATOM      3  N   LIG d   1       2.719   1.208  -4.509  0.00  0.00    -0.121 NA
ATOM      4  C   LIG d   1       3.217   0.015  -4.353  0.00  0.00     0.208 A 
ATOM      5  N   LIG d   1       3.465  -0.532  -5.581  0.00  0.00    -0.231 N 
ATOM      6  N   LIG d   1       3.989  -1.781  -5.670  0.00  0.00    -0.207 NA
ATOM      7  C   LIG d   1       4.268  -2.491  -4.406  0.00  0.00     0.109 A 
ATOM      8  H   LIG d   1       3.674  -3.402  -4.325  0.00  0.00     0.065 H 
ATOM      9  S   LIG d   1       3.721  -1.230  -3.189  0.00  0.00    -0.059 SA
ATOM     10  H   LIG d   1       4.796  -1.792  -6.277  0.00  0.00     0.149 HD
ENDROOT
BRANCH   1  11
ATOM     11  C   LIG d   1       3.114   0.390  -7.945  0.00  0.00     0.021 A 
ATOM     12  C   LIG d   1       2.487  -0.660  -8.617  0.00  0.00    -0.048 A 
ATOM     13  C   LIG d   1       2.539  -0.724  -9.993  0.00  0.00    -0.019 A 
ATOM     14  H   LIG d   1       1.960  -1.420  -8.060  0.00  0.00     0.063 H 
ATOM     15  C   LIG d   1       3.216   0.254 -10.710  0.00  0.00     0.120 A 
ATOM     16  H   LIG d   1       2.054  -1.535 -10.514  0.00  0.00     0.065 H 
ATOM     17  C   LIG d   1       3.842   1.300 -10.046  0.00  0.00    -0.019 A 
ATOM     18  C   LIG d   1       3.789   1.375  -8.670  0.00  0.00    -0.048 A 
ATOM     19  H   LIG d   1       4.368   2.057 -10.607  0.00  0.00     0.065 H 
ATOM     20  H   LIG d   1       4.272   2.191  -8.154  0.00  0.00     0.063 H 
BRANCH  15  21
ATOM     21  O   LIG d   1       3.266   0.186 -12.066  0.00  0.00    -0.492 OA
BRANCH  21  22
ATOM     22  C   LIG d   1       3.855  -0.985 -12.636  0.00  0.00     0.087 C 
ATOM     23  H   LIG d   1       3.635  -1.846 -12.006  0.00  0.00     0.069 H 
ATOM     24  H   LIG d   1       3.445  -1.150 -13.633  0.00  0.00     0.069 H 
BRANCH  22  25
ATOM     25  C   LIG d   1       5.371  -0.798 -12.733  0.00  0.00    -0.031 C 
ATOM     26  H   LIG d   1       5.804  -1.624 -13.297  0.00  0.00     0.026 H 
ATOM     27  H   LIG d   1       5.589   0.143 -13.239  0.00  0.00     0.026 H 
ATOM     28  H   LIG d   1       5.799  -0.778 -11.731  0.00  0.00     0.026 H 
ENDBRANCH  22  25
ENDBRANCH  21  22
ENDBRANCH  15  21
ENDBRANCH   1  11
BRANCH   7  29
ATOM     29  C   LIG d   1       5.738  -2.790  -4.259  0.00  0.00     0.023 A 
ATOM     30  C   LIG d   1       6.312  -3.826  -4.980  0.00  0.00     0.122 A 
ATOM     31  C   LIG d   1       7.665  -4.097  -4.843  0.00  0.00    -0.020 A 
ATOM     32  C   LIG d   1       8.438  -3.335  -3.989  0.00  0.00    -0.058 A 
ATOM     33  H   LIG d   1       8.114  -4.904  -5.403  0.00  0.00     0.065 H 
ATOM     34  C   LIG d   1       7.864  -2.302  -3.271  0.00  0.00    -0.061 A 
ATOM     35  H   LIG d   1       9.492  -3.546  -3.882  0.00  0.00     0.062 H 
ATOM     36  C   LIG d   1       6.515  -2.029  -3.406  0.00  0.00    -0.053 A 
ATOM     37  H   LIG d   1       8.470  -1.706  -2.605  0.00  0.00     0.062 H 
ATOM     38  H   LIG d   1       6.069  -1.222  -2.844  0.00  0.00     0.062 H 
BRANCH  30  39
ATOM     39  O   LIG d   1       5.550  -4.571  -5.824  0.00  0.00    -0.506 OA
ATOM     40  H   LIG d   1       5.504  -4.220  -6.724  0.00  0.00     0.292 HD
ENDBRANCH  30  39
ENDBRANCH   7  29
TORSDOF 6
ENDMDL
MODEL 5
REMARK VINA RESULT:      -6.1      8.122     11.198
REMARK  6 active torsions:
REMARK  status: ('A' for Active; 'I' for Inactive)
REMARK    1  A    between atoms: C_1  and  C_2 
REMARK    2  A    between atoms: C_2  and  O_3 
REMARK    3  A    between atoms: O_3  and  C_4 
REMARK    4  A    between atoms: C_7  and  C_10 
REMARK    5  A    between atoms: C_16  and  C_19 
REMARK    6  A    between atoms: C_24  and  O_25 
ROOT
ATOM      1  C   LIG d   1      12.224   9.627   4.848  0.00  0.00     0.179 A 
ATOM      2  N   LIG d   1      12.515  10.851   5.211  0.00  0.00    -0.127 NA
ATOM      3  N   LIG d   1      12.768  11.567   4.174  0.00  0.00    -0.121 NA
ATOM      4  C   LIG d   1      12.651  10.839   3.101  0.00  0.00     0.208 A 
ATOM      5  N   LIG d   1      12.300   9.566   3.457  0.00  0.00    -0.231 N 
ATOM      6  N   LIG d   1      12.120   8.622   2.498  0.00  0.00    -0.207 NA
ATOM      7  C   LIG d   1      12.319   9.035   1.095  0.00  0.00     0.109 A 
ATOM      8  H   LIG d   1      13.137   8.481   0.632  0.00  0.00     0.065 H 
ATOM      9  S   LIG d   1      12.759  10.802   1.327  0.00  0.00    -0.059 SA
ATOM     10  H   LIG d   1      11.235   8.152   2.615  0.00  0.00     0.149 HD
ENDROOT
BRANCH   1  11
ATOM     11  C   LIG d   1      11.875   8.510   5.751  0.00  0.00     0.021 A 
ATOM     12  C   LIG d   1      11.877   8.701   7.134  0.00  0.00    -0.048 A 
ATOM     13  C   LIG d   1      11.552   7.657   7.973  0.00  0.00    -0.019 A 
ATOM     14  H   LIG d   1      12.132   9.666   7.545  0.00  0.00     0.063 H 
ATOM     15  C   LIG d   1      11.224   6.415   7.444  0.00  0.00     0.120 A 
ATOM     16  H   LIG d   1      11.553   7.803   9.042  0.00  0.00     0.065 H 
ATOM     17  C   LIG d   1      11.221   6.220   6.069  0.00  0.00    -0.019 A 
ATOM     18  C   LIG d   1      11.539   7.262   5.223  0.00  0.00    -0.048 A 
ATOM     19  H   LIG d   1      10.966   5.253   5.662  0.00  0.00     0.065 H 
ATOM     20  H   LIG d   1      11.532   7.111   4.154  0.00  0.00     0.063 H 
BRANCH  15  21
ATOM     21  O   LIG d   1      10.905   5.388   8.274  0.00  0.00    -0.492 OA
BRANCH  21  22
ATOM     22  C   LIG d   1       9.659   5.478   8.968  0.00  0.00     0.087 C 
ATOM     23  H   LIG d   1       9.733   6.232   9.752  0.00  0.00     0.069 H 
ATOM     24  H   LIG d   1       8.871   5.759   8.268  0.00  0.00     0.069 H 
BRANCH  22  25
ATOM     25  C   LIG d   1       9.324   4.122   9.594  0.00  0.00    -0.031 C 
ATOM     26  H   LIG d   1       8.790   4.277  10.532  0.00  0.00     0.026 H 
ATOM     27  H   LIG d   1       8.697   3.552   8.909  0.00  0.00     0.026 H 
ATOM     28  H   LIG d   1      10.245   3.573   9.786  0.00  0.00     0.026 H 
ENDBRANCH  22  25
ENDBRANCH  21  22
ENDBRANCH  15  21
ENDBRANCH   1  11
BRANCH   7  29
ATOM     29  C   LIG d   1      11.049   8.890   0.297  0.00  0.00     0.023 A 
ATOM     30  C   LIG d   1      10.688   7.652  -0.216  0.00  0.00     0.122 A 
ATOM     31  C   LIG d   1       9.518   7.523  -0.950  0.00  0.00    -0.020 A 
ATOM     32  C   LIG d   1       8.715   8.624  -1.167  0.00  0.00    -0.058 A 
ATOM     33  H   LIG d   1       9.236   6.561  -1.351  0.00  0.00     0.065 H 
ATOM     34  C   LIG d   1       9.076   9.857  -0.654  0.00  0.00    -0.061 A 
ATOM     35  H   LIG d   1       7.804   8.524  -1.738  0.00  0.00     0.062 H 
ATOM     36  C   LIG d   1      10.242   9.989   0.077  0.00  0.00    -0.053 A 
ATOM     37  H   LIG d   1       8.446  10.718  -0.824  0.00  0.00     0.062 H 
ATOM     38  H   LIG d   1      10.521  10.953   0.476  0.00  0.00     0.062 H 
BRANCH  30  39
ATOM     39  O   LIG d   1      11.478   6.568   0.004  0.00  0.00    -0.506 OA
ATOM     40  H   LIG d   1      11.233   6.057   0.787  0.00  0.00     0.292 HD
ENDBRANCH  30  39
ENDBRANCH   7  29
TORSDOF 6
ENDMDL
MODEL 6
REMARK VINA RESULT:      -6.1      4.616      5.472
REMARK  6 active torsions:
REMARK  status: ('A' for Active; 'I' for Inactive)
REMARK    1  A    between atoms: C_1  and  C_2 
REMARK    2  A    between atoms: C_2  and  O_3 
REMARK    3  A    between atoms: O_3  and  C_4 
REMARK    4  A    between atoms: C_7  and  C_10 
REMARK    5  A    between atoms: C_16  and  C_19 
REMARK    6  A    between atoms: C_24  and  O_25 
ROOT
ATOM      1  C   LIG d   1       8.364  -0.629  -6.917  0.00  0.00     0.179 A 
ATOM      2  N   LIG d   1       8.771  -1.776  -7.400  0.00  0.00    -0.127 NA
ATOM      3  N   LIG d   1       8.626  -2.700  -6.518  0.00  0.00    -0.121 NA
ATOM      4  C   LIG d   1       8.120  -2.191  -5.432  0.00  0.00     0.208 A 
ATOM      5  N   LIG d   1       7.922  -0.850  -5.614  0.00  0.00    -0.231 N 
ATOM      6  N   LIG d   1       7.399  -0.103  -4.608  0.00  0.00    -0.207 NA
ATOM      7  C   LIG d   1       7.068  -0.798  -3.348  0.00  0.00     0.109 A 
ATOM      8  H   LIG d   1       7.656  -0.410  -2.516  0.00  0.00     0.065 H 
ATOM      9  S   LIG d   1       7.566  -2.513  -3.774  0.00  0.00    -0.059 SA
ATOM     10  H   LIG d   1       6.618   0.447  -4.934  0.00  0.00     0.149 HD
ENDROOT
BRANCH   1  11
ATOM     11  C   LIG d   1       8.371   0.667  -7.628  0.00  0.00     0.021 A 
ATOM     12  C   LIG d   1       7.214   1.124  -8.262  0.00  0.00    -0.048 A 
ATOM     13  C   LIG d   1       7.226   2.334  -8.923  0.00  0.00    -0.019 A 
ATOM     14  H   LIG d   1       6.312   0.532  -8.233  0.00  0.00     0.063 H 
ATOM     15  C   LIG d   1       8.386   3.096  -8.960  0.00  0.00     0.120 A 
ATOM     16  H   LIG d   1       6.332   2.689  -9.413  0.00  0.00     0.065 H 
ATOM     17  C   LIG d   1       9.539   2.645  -8.331  0.00  0.00    -0.019 A 
ATOM     18  C   LIG d   1       9.534   1.439  -7.662  0.00  0.00    -0.048 A 
ATOM     19  H   LIG d   1      10.439   3.240  -8.363  0.00  0.00     0.065 H 
ATOM     20  H   LIG d   1      10.429   1.091  -7.170  0.00  0.00     0.063 H 
BRANCH  15  21
ATOM     21  O   LIG d   1       8.393   4.287  -9.614  0.00  0.00    -0.492 OA
BRANCH  21  22
ATOM     22  C   LIG d   1       9.482   5.171  -9.341  0.00  0.00     0.087 C 
ATOM     23  H   LIG d   1       9.924   4.916  -8.378  0.00  0.00     0.069 H 
ATOM     24  H   LIG d   1      10.236   5.072 -10.123  0.00  0.00     0.069 H 
BRANCH  22  25
ATOM     25  C   LIG d   1       8.973   6.613  -9.304  0.00  0.00    -0.031 C 
ATOM     26  H   LIG d   1       9.386   7.121  -8.432  0.00  0.00     0.026 H 
ATOM     27  H   LIG d   1       9.287   7.132 -10.210  0.00  0.00     0.026 H 
ATOM     28  H   LIG d   1       7.885   6.613  -9.243  0.00  0.00     0.026 H 
ENDBRANCH  22  25
ENDBRANCH  21  22
ENDBRANCH  15  21
ENDBRANCH   1  11
BRANCH   7  29
ATOM     29  C   LIG d   1       5.592  -0.717  -3.051  0.00  0.00     0.023 A 
ATOM     30  C   LIG d   1       4.987   0.518  -2.869  0.00  0.00     0.122 A 
ATOM     31  C   LIG d   1       3.629   0.589  -2.596  0.00  0.00    -0.020 A 
ATOM     32  C   LIG d   1       2.882  -0.569  -2.507  0.00  0.00    -0.058 A 
ATOM     33  H   LIG d   1       3.156   1.549  -2.454  0.00  0.00     0.065 H 
ATOM     34  C   LIG d   1       3.487  -1.800  -2.690  0.00  0.00    -0.061 A 
ATOM     35  H   LIG d   1       1.824  -0.515  -2.295  0.00  0.00     0.062 H 
ATOM     36  C   LIG d   1       4.841  -1.873  -2.962  0.00  0.00    -0.053 A 
ATOM     37  H   LIG d   1       2.902  -2.704  -2.621  0.00  0.00     0.062 H 
ATOM     38  H   LIG d   1       5.311  -2.835  -3.104  0.00  0.00     0.062 H 
BRANCH  30  39
ATOM     39  O   LIG d   1       5.723   1.657  -2.963  0.00  0.00    -0.506 OA
ATOM     40  H   LIG d   1       6.670   1.503  -3.087  0.00  0.00     0.292 HD
ENDBRANCH  30  39
ENDBRANCH   7  29
TORSDOF 6
ENDMDL
MODEL 7
REMARK VINA RESULT:      -6.1      8.700     11.061
REMARK  6 active torsions:
REMARK  status: ('A' for Active; 'I' for Inactive)
REMARK    1  A    between atoms: C_1  and  C_2 
REMARK    2  A    between atoms: C_2  and  O_3 
REMARK    3  A    between atoms: O_3  and  C_4 
REMARK    4  A    between atoms: C_7  and  C_10 
REMARK    5  A    between atoms: C_16  and  C_19 
REMARK    6  A    between atoms: C_24  and  O_25 
ROOT
ATOM      1  C   LIG d   1       2.562  -2.454 -10.804  0.00  0.00     0.179 A 
ATOM      2  N   LIG d   1       3.082  -2.194 -11.977  0.00  0.00    -0.127 NA
ATOM      3  N   LIG d   1       2.633  -3.024 -12.850  0.00  0.00    -0.121 NA
ATOM      4  C   LIG d   1       1.806  -3.853 -12.279  0.00  0.00     0.208 A 
ATOM      5  N   LIG d   1       1.709  -3.546 -10.950  0.00  0.00    -0.231 N 
ATOM      6  N   LIG d   1       0.898  -4.281 -10.146  0.00  0.00    -0.207 NA
ATOM      7  C   LIG d   1       0.153  -5.393 -10.768  0.00  0.00     0.109 A 
ATOM      8  H   LIG d   1       0.440  -6.352 -10.336  0.00  0.00     0.065 H 
ATOM      9  S   LIG d   1       0.727  -5.246 -12.506  0.00  0.00    -0.059 SA
ATOM     10  H   LIG d   1       0.281  -3.686  -9.613  0.00  0.00     0.149 HD
ENDROOT
BRANCH   1  11
ATOM     11  C   LIG d   1       2.832  -1.720  -9.549  0.00  0.00     0.021 A 
ATOM     12  C   LIG d   1       2.235  -0.479  -9.322  0.00  0.00    -0.048 A 
ATOM     13  C   LIG d   1       2.490   0.202  -8.150  0.00  0.00    -0.019 A 
ATOM     14  H   LIG d   1       1.574  -0.054 -10.061  0.00  0.00     0.063 H 
ATOM     15  C   LIG d   1       3.340  -0.345  -7.198  0.00  0.00     0.120 A 
ATOM     16  H   LIG d   1       2.028   1.161  -7.973  0.00  0.00     0.065 H 
ATOM     17  C   LIG d   1       3.937  -1.579  -7.421  0.00  0.00    -0.019 A 
ATOM     18  C   LIG d   1       3.682  -2.269  -8.587  0.00  0.00    -0.048 A 
ATOM     19  H   LIG d   1       4.598  -2.000  -6.678  0.00  0.00     0.065 H 
ATOM     20  H   LIG d   1       4.143  -3.231  -8.757  0.00  0.00     0.063 H 
BRANCH  15  21
ATOM     21  O   LIG d   1       3.590   0.330  -6.045  0.00  0.00    -0.492 OA
BRANCH  21  22
ATOM     22  C   LIG d   1       2.498   0.489  -5.138  0.00  0.00     0.087 C 
ATOM     23  H   LIG d   1       2.382   1.544  -4.889  0.00  0.00     0.069 H 
ATOM     24  H   LIG d   1       1.581   0.123  -5.602  0.00  0.00     0.069 H 
BRANCH  22  25
ATOM     25  C   LIG d   1       2.775  -0.308  -3.861  0.00  0.00    -0.031 C 
ATOM     26  H   LIG d   1       2.172   0.092  -3.045  0.00  0.00     0.026 H 
ATOM     27  H   LIG d   1       2.517  -1.355  -4.024  0.00  0.00     0.026 H 
ATOM     28  H   LIG d   1       3.831  -0.229  -3.605  0.00  0.00     0.026 H 
ENDBRANCH  22  25
ENDBRANCH  21  22
ENDBRANCH  15  21
ENDBRANCH   1  11
BRANCH   7  29
ATOM     29  C   LIG d   1      -1.335  -5.178 -10.666  0.00  0.00     0.023 A 
ATOM     30  C   LIG d   1      -2.019  -5.578  -9.527  0.00  0.00     0.122 A 
ATOM     31  C   LIG d   1      -3.388  -5.378  -9.436  0.00  0.00    -0.020 A 
ATOM     32  C   LIG d   1      -4.069  -4.782 -10.480  0.00  0.00    -0.058 A 
ATOM     33  H   LIG d   1      -3.922  -5.688  -8.551  0.00  0.00     0.065 H 
ATOM     34  C   LIG d   1      -3.385  -4.384 -11.615  0.00  0.00    -0.061 A 
ATOM     35  H   LIG d   1      -5.135  -4.627 -10.410  0.00  0.00     0.062 H 
ATOM     36  C   LIG d   1      -2.021  -4.582 -11.708  0.00  0.00    -0.053 A 
ATOM     37  H   LIG d   1      -3.919  -3.917 -12.429  0.00  0.00     0.062 H 
ATOM     38  H   LIG d   1      -1.490  -4.270 -12.595  0.00  0.00     0.062 H 
BRANCH  30  39
ATOM     39  O   LIG d   1      -1.345  -6.159  -8.499  0.00  0.00    -0.506 OA
ATOM     40  H   LIG d   1      -0.404  -5.940  -8.473  0.00  0.00     0.292 HD
ENDBRANCH  30  39
ENDBRANCH   7  29
TORSDOF 6
ENDMDL
MODEL 8
REMARK VINA RESULT:      -6.0      1.386      1.910
REMARK  6 active torsions:
REMARK  status: ('A' for Active; 'I' for Inactive)
REMARK    1  A    between atoms: C_1  and  C_2 
REMARK    2  A    between atoms: C_2  and  O_3 
REMARK    3  A    between atoms: O_3  and  C_4 
REMARK    4  A    between atoms: C_7  and  C_10 
REMARK    5  A    between atoms: C_16  and  C_19 
REMARK    6  A    between atoms: C_24  and  O_25 
ROOT
ATOM      1  C   LIG d   1       8.614   2.206  -5.843  0.00  0.00     0.179 A 
ATOM      2  N   LIG d   1       8.698   2.561  -7.100  0.00  0.00    -0.127 NA
ATOM      3  N   LIG d   1       8.001   1.764  -7.828  0.00  0.00    -0.121 NA
ATOM      4  C   LIG d   1       7.438   0.864  -7.075  0.00  0.00     0.208 A 
ATOM      5  N   LIG d   1       7.790   1.085  -5.772  0.00  0.00    -0.231 N 
ATOM      6  N   LIG d   1       7.319   0.265  -4.797  0.00  0.00    -0.207 NA
ATOM      7  C   LIG d   1       6.435  -0.842  -5.212  0.00  0.00     0.109 A 
ATOM      8  H   LIG d   1       6.875  -1.811  -4.972  0.00  0.00     0.065 H 
ATOM      9  S   LIG d   1       6.381  -0.564  -7.025  0.00  0.00    -0.059 SA
ATOM     10  H   LIG d   1       6.905   0.797  -4.046  0.00  0.00     0.149 HD
ENDROOT
BRANCH   1  11
ATOM     11  C   LIG d   1       9.276   2.876  -4.703  0.00  0.00     0.021 A 
ATOM     12  C   LIG d   1       9.137   4.253  -4.524  0.00  0.00    -0.048 A 
ATOM     13  C   LIG d   1       9.756   4.874  -3.459  0.00  0.00    -0.019 A 
ATOM     14  H   LIG d   1       8.546   4.832  -5.217  0.00  0.00     0.063 H 
ATOM     15  C   LIG d   1      10.517   4.130  -2.566  0.00  0.00     0.120 A 
ATOM     16  H   LIG d   1       9.650   5.939  -3.319  0.00  0.00     0.065 H 
ATOM     17  C   LIG d   1      10.657   2.760  -2.741  0.00  0.00    -0.019 A 
ATOM     18  C   LIG d   1      10.036   2.131  -3.799  0.00  0.00    -0.048 A 
ATOM     19  H   LIG d   1      11.250   2.185  -2.045  0.00  0.00     0.065 H 
ATOM     20  H   LIG d   1      10.142   1.065  -3.932  0.00  0.00     0.063 H 
BRANCH  15  21
ATOM     21  O   LIG d   1      11.125   4.746  -1.519  0.00  0.00    -0.492 OA
BRANCH  21  22
ATOM     22  C   LIG d   1      10.460   5.878  -0.956  0.00  0.00     0.087 C 
ATOM     23  H   LIG d   1      10.612   6.745  -1.598  0.00  0.00     0.069 H 
ATOM     24  H   LIG d   1       9.392   5.669  -0.874  0.00  0.00     0.069 H 
BRANCH  22  25
ATOM     25  C   LIG d   1      11.030   6.166   0.435  0.00  0.00    -0.031 C 
ATOM     26  H   LIG d   1      12.095   5.936   0.445  0.00  0.00     0.026 H 
ATOM     27  H   LIG d   1      10.883   7.219   0.675  0.00  0.00     0.026 H 
ATOM     28  H   LIG d   1      10.517   5.550   1.173  0.00  0.00     0.026 H 
ENDBRANCH  22  25
ENDBRANCH  21  22
ENDBRANCH  15  21
ENDBRANCH   1  11
BRANCH   7  29
ATOM     29  C   LIG d   1       5.065  -0.706  -4.599  0.00  0.00     0.023 A 
ATOM     30  C   LIG d   1       4.839  -1.135  -3.299  0.00  0.00     0.122 A 
ATOM     31  C   LIG d   1       3.577  -1.007  -2.738  0.00  0.00    -0.020 A 
ATOM     32  C   LIG d   1       2.548  -0.454  -3.474  0.00  0.00    -0.058 A 
ATOM     33  H   LIG d   1       3.399  -1.340  -1.726  0.00  0.00     0.065 H 
ATOM     34  C   LIG d   1       2.775  -0.027  -4.770  0.00  0.00    -0.061 A 
ATOM     35  H   LIG d   1       1.564  -0.355  -3.038  0.00  0.00     0.062 H 
ATOM     36  C   LIG d   1       4.032  -0.153  -5.332  0.00  0.00    -0.053 A 
ATOM     37  H   LIG d   1       1.969   0.406  -5.344  0.00  0.00     0.062 H 
ATOM     38  H   LIG d   1       4.206   0.181  -6.344  0.00  0.00     0.062 H 
BRANCH  30  39
ATOM     39  O   LIG d   1       5.855  -1.673  -2.574  0.00  0.00    -0.506 OA
ATOM     40  H   LIG d   1       6.735  -1.405  -2.873  0.00  0.00     0.292 HD
ENDBRANCH  30  39
ENDBRANCH   7  29
TORSDOF 6
ENDMDL
MODEL 9
REMARK VINA RESULT:      -6.0      5.171      9.830
REMARK  6 active torsions:
REMARK  status: ('A' for Active; 'I' for Inactive)
REMARK    1  A    between atoms: C_1  and  C_2 
REMARK    2  A    between atoms: C_2  and  O_3 
REMARK    3  A    between atoms: O_3  and  C_4 
REMARK    4  A    between atoms: C_7  and  C_10 
REMARK    5  A    between atoms: C_16  and  C_19 
REMARK    6  A    between atoms: C_24  and  O_25 
ROOT
ATOM      1  C   LIG d   1       7.816  -4.894  -5.169  0.00  0.00     0.179 A 
ATOM      2  N   LIG d   1       9.121  -4.975  -5.098  0.00  0.00    -0.127 NA
ATOM      3  N   LIG d   1       9.630  -3.798  -5.022  0.00  0.00    -0.121 NA
ATOM      4  C   LIG d   1       8.679  -2.909  -5.041  0.00  0.00     0.208 A 
ATOM      5  N   LIG d   1       7.472  -3.543  -5.135  0.00  0.00    -0.231 N 
ATOM      6  N   LIG d   1       6.327  -2.814  -5.172  0.00  0.00    -0.207 NA
ATOM      7  C   LIG d   1       6.457  -1.345  -5.106  0.00  0.00     0.109 A 
ATOM      8  H   LIG d   1       6.070  -0.873  -6.010  0.00  0.00     0.065 H 
ATOM      9  S   LIG d   1       8.281  -1.177  -4.995  0.00  0.00    -0.059 SA
ATOM     10  H   LIG d   1       5.663  -3.150  -4.490  0.00  0.00     0.149 HD
ENDROOT
BRANCH   1  11
ATOM     11  C   LIG d   1       6.876  -6.031  -5.268  0.00  0.00     0.021 A 
ATOM     12  C   LIG d   1       5.565  -5.820  -5.697  0.00  0.00    -0.048 A 
ATOM     13  C   LIG d   1       4.692  -6.883  -5.787  0.00  0.00    -0.019 A 
ATOM     14  H   LIG d   1       5.235  -4.826  -5.959  0.00  0.00     0.063 H 
ATOM     15  C   LIG d   1       5.115  -8.162  -5.451  0.00  0.00     0.120 A 
ATOM     16  H   LIG d   1       3.678  -6.722  -6.120  0.00  0.00     0.065 H 
ATOM     17  C   LIG d   1       6.419  -8.376  -5.023  0.00  0.00    -0.019 A 
ATOM     18  C   LIG d   1       7.300  -7.319  -4.936  0.00  0.00    -0.048 A 
ATOM     19  H   LIG d   1       6.744  -9.372  -4.762  0.00  0.00     0.065 H 
ATOM     20  H   LIG d   1       8.315  -7.487  -4.608  0.00  0.00     0.063 H 
BRANCH  15  21
ATOM     21  O   LIG d   1       4.252  -9.207  -5.540  0.00  0.00    -0.492 OA
BRANCH  21  22
ATOM     22  C   LIG d   1       4.461 -10.301  -4.645  0.00  0.00     0.087 C 
ATOM     23  H   LIG d   1       4.231 -11.237  -5.154  0.00  0.00     0.069 H 
ATOM     24  H   LIG d   1       5.503 -10.311  -4.320  0.00  0.00     0.069 H 
BRANCH  22  25
ATOM     25  C   LIG d   1       3.549 -10.145  -3.426  0.00  0.00    -0.031 C 
ATOM     26  H   LIG d   1       3.485  -9.092  -3.152  0.00  0.00     0.026 H 
ATOM     27  H   LIG d   1       2.554 -10.519  -3.668  0.00  0.00     0.026 H 
ATOM     28  H   LIG d   1       3.958 -10.714  -2.591  0.00  0.00     0.026 H 
ENDBRANCH  22  25
ENDBRANCH  21  22
ENDBRANCH  15  21
ENDBRANCH   1  11
BRANCH   7  29
ATOM     29  C   LIG d   1       5.782  -0.792  -3.877  0.00  0.00     0.023 A 
ATOM     30  C   LIG d   1       5.883   0.559  -3.577  0.00  0.00     0.122 A 
ATOM     31  C   LIG d   1       5.260   1.064  -2.445  0.00  0.00    -0.020 A 
ATOM     32  C   LIG d   1       4.541   0.222  -1.620  0.00  0.00    -0.058 A 
ATOM     33  H   LIG d   1       5.338   2.115  -2.210  0.00  0.00     0.065 H 
ATOM     34  C   LIG d   1       4.442  -1.124  -1.921  0.00  0.00    -0.061 A 
ATOM     35  H   LIG d   1       4.057   0.615  -0.738  0.00  0.00     0.062 H 
ATOM     36  C   LIG d   1       5.061  -1.630  -3.048  0.00  0.00    -0.053 A 
ATOM     37  H   LIG d   1       3.878  -1.781  -1.275  0.00  0.00     0.062 H 
ATOM     38  H   LIG d   1       4.982  -2.682  -3.280  0.00  0.00     0.062 H 
BRANCH  30  39
ATOM     39  O   LIG d   1       6.586   1.386  -4.395  0.00  0.00    -0.506 OA
ATOM     40  H   LIG d   1       6.076   2.137  -4.726  0.00  0.00     0.292 HD
ENDBRANCH  30  39
ENDBRANCH   7  29
TORSDOF 6
ENDMDL
