MODEL 1
REMARK VINA RESULT:      -7.0      0.000      0.000
REMARK  13 active torsions:
REMARK  status: ('A' for Active; 'I' for Inactive)
REMARK    1  A    between atoms: C_1  and  O_2 
REMARK    2  A    between atoms: O_2  and  C_3 
REMARK    3  A    between atoms: C_6  and  N_9 
REMARK       I    between atoms: N_9  and  C_10 
REMARK    4  A    between atoms: C_10  and  C_12 
REMARK    5  A    between atoms: C_12  and  C_13 
REMARK    6  A    between atoms: C_12  and  O_17 
REMARK    7  A    between atoms: O_17  and  C_18 
REMARK    8  A    between atoms: C_18  and  C_19 
REMARK    9  A    between atoms: C_19  and  C_20 
REMARK   10  A    between atoms: C_19  and  O_24 
REMARK   11  A    between atoms: O_24  and  C_25 
REMARK   12  A    between atoms: C_25  and  C_26 
REMARK   13  A    between atoms: C_26  and  C_27 
ROOT
ATOM      1  C   LIG d   1       3.463   0.317  -3.471  0.00  0.00     0.387 C 
ATOM      2  F   LIG d   1       2.589  -0.361  -2.616  0.00  0.00    -0.190 F 
ENDROOT
BRANCH   1   3
ATOM      3  C   LIG d   1       2.992   0.167  -4.895  0.00  0.00     0.292 C 
ATOM      4  N   LIG d   1       3.884   0.179  -5.905  0.00  0.00    -0.281 N 
ATOM      5  H   LIG d   1       4.833   0.235  -5.714  0.00  0.00     0.155 HD
ATOM      6  O   LIG d   1       1.809   0.036  -5.131  0.00  0.00    -0.269 OA
BRANCH   4   7
ATOM      7  C   LIG d   1       3.440   0.111  -7.233  0.00  0.00     0.034 A 
ATOM      8  C   LIG d   1       3.363  -1.115  -7.877  0.00  0.00    -0.037 A 
ATOM      9  C   LIG d   1       2.925  -1.182  -9.185  0.00  0.00    -0.018 A 
ATOM     10  H   LIG d   1       3.645  -2.018  -7.355  0.00  0.00     0.064 H 
ATOM     11  C   LIG d   1       2.562  -0.023  -9.855  0.00  0.00     0.120 A 
ATOM     12  H   LIG d   1       2.865  -2.137  -9.686  0.00  0.00     0.066 H 
ATOM     13  C   LIG d   1       2.644   1.205  -9.213  0.00  0.00    -0.018 A 
ATOM     14  C   LIG d   1       3.076   1.272  -7.904  0.00  0.00    -0.037 A 
ATOM     15  H   LIG d   1       2.366   2.107  -9.736  0.00  0.00     0.066 H 
ATOM     16  H   LIG d   1       3.135   2.227  -7.403  0.00  0.00     0.064 H 
BRANCH  11  17
ATOM     17  O   LIG d   1       2.131  -0.089 -11.143  0.00  0.00    -0.495 OA
BRANCH  17  18
ATOM     18  C   LIG d   1       1.287  -1.189 -11.490  0.00  0.00     0.079 C 
ATOM     19  H   LIG d   1       1.311  -1.931 -10.691  0.00  0.00     0.066 H 
ATOM     20  H   LIG d   1       0.266  -0.835 -11.626  0.00  0.00     0.066 H 
ATOM     21  H   LIG d   1       1.642  -1.641 -12.416  0.00  0.00     0.066 H 
ENDBRANCH  17  18
ENDBRANCH  11  17
ENDBRANCH   4   7
ENDBRANCH   1   3
BRANCH   1  22
ATOM     22  C   LIG d   1       3.494   1.801  -3.098  0.00  0.00     0.459 C 
ATOM     23  F   LIG d   1       4.819   2.251  -3.087  0.00  0.00    -0.165 F 
ATOM     24  F   LIG d   1       2.760   2.532  -4.037  0.00  0.00    -0.165 F 
ATOM     25  F   LIG d   1       2.933   1.974  -1.828  0.00  0.00    -0.165 F 
ENDBRANCH   1  22
BRANCH   1  26
ATOM     26  O   LIG d   1       4.776  -0.233  -3.345  0.00  0.00    -0.263 OA
BRANCH  26  27
ATOM     27  C   LIG d   1       4.803  -1.660  -3.270  0.00  0.00     0.428 C 
ATOM     28  F   LIG d   1       4.880  -2.056  -1.931  0.00  0.00    -0.169 F 
ATOM     29  F   LIG d   1       3.637  -2.179  -3.844  0.00  0.00    -0.169 F 
BRANCH  27  30
ATOM     30  C   LIG d   1       6.023  -2.187  -4.028  0.00  0.00     0.401 C 
ATOM     31  F   LIG d   1       7.058  -2.449  -3.123  0.00  0.00    -0.191 F 
BRANCH  30  32
ATOM     32  C   LIG d   1       5.649  -3.476  -4.762  0.00  0.00     0.458 C 
ATOM     33  F   LIG d   1       6.785  -4.281  -4.900  0.00  0.00    -0.165 F 
ATOM     34  F   LIG d   1       4.676  -4.165  -4.029  0.00  0.00    -0.165 F 
ATOM     35  F   LIG d   1       5.143  -3.162  -6.029  0.00  0.00    -0.165 F 
ENDBRANCH  30  32
BRANCH  30  36
ATOM     36  O   LIG d   1       6.456  -1.209  -4.974  0.00  0.00    -0.264 OA
BRANCH  36  37
ATOM     37  C   LIG d   1       7.739  -0.650  -4.687  0.00  0.00     0.432 C 
ATOM     38  F   LIG d   1       7.724  -0.077  -3.410  0.00  0.00    -0.168 F 
ATOM     39  F   LIG d   1       8.708  -1.656  -4.734  0.00  0.00    -0.168 F 
BRANCH  37  40
ATOM     40  C   LIG d   1       8.071   0.426  -5.724  0.00  0.00     0.429 C 
ATOM     41  F   LIG d   1       9.090  -0.034  -6.563  0.00  0.00    -0.186 F 
ATOM     42  F   LIG d   1       6.931   0.707  -6.485  0.00  0.00    -0.186 F 
BRANCH  40  43
ATOM     43  C   LIG d   1       8.532   1.698  -5.010  0.00  0.00     0.463 C 
ATOM     44  F   LIG d   1       7.498   2.176  -4.197  0.00  0.00    -0.165 F 
ATOM     45  F   LIG d   1       9.651   1.410  -4.220  0.00  0.00    -0.165 F 
ATOM     46  F   LIG d   1       8.868   2.670  -5.958  0.00  0.00    -0.165 F 
ENDBRANCH  40  43
ENDBRANCH  37  40
ENDBRANCH  36  37
ENDBRANCH  30  36
ENDBRANCH  27  30
ENDBRANCH  26  27
ENDBRANCH   1  26
TORSDOF 13
ENDMDL
MODEL 2
REMARK VINA RESULT:      -6.9      2.332      5.999
REMARK  13 active torsions:
REMARK  status: ('A' for Active; 'I' for Inactive)
REMARK    1  A    between atoms: C_1  and  O_2 
REMARK    2  A    between atoms: O_2  and  C_3 
REMARK    3  A    between atoms: C_6  and  N_9 
REMARK       I    between atoms: N_9  and  C_10 
REMARK    4  A    between atoms: C_10  and  C_12 
REMARK    5  A    between atoms: C_12  and  C_13 
REMARK    6  A    between atoms: C_12  and  O_17 
REMARK    7  A    between atoms: O_17  and  C_18 
REMARK    8  A    between atoms: C_18  and  C_19 
REMARK    9  A    between atoms: C_19  and  C_20 
REMARK   10  A    between atoms: C_19  and  O_24 
REMARK   11  A    between atoms: O_24  and  C_25 
REMARK   12  A    between atoms: C_25  and  C_26 
REMARK   13  A    between atoms: C_26  and  C_27 
ROOT
ATOM      1  C   LIG d   1       6.355  -2.169  -4.216  0.00  0.00     0.387 C 
ATOM      2  F   LIG d   1       6.658  -2.316  -2.859  0.00  0.00    -0.190 F 
ENDROOT
BRANCH   1   3
ATOM      3  C   LIG d   1       7.291  -1.162  -4.833  0.00  0.00     0.292 C 
ATOM      4  N   LIG d   1       6.795  -0.118  -5.527  0.00  0.00    -0.281 N 
ATOM      5  H   LIG d   1       5.836   0.013  -5.588  0.00  0.00     0.155 HD
ATOM      6  O   LIG d   1       8.490  -1.291  -4.706  0.00  0.00    -0.269 OA
BRANCH   4   7
ATOM      7  C   LIG d   1       7.666   0.779  -6.161  0.00  0.00     0.034 A 
ATOM      8  C   LIG d   1       8.001   0.596  -7.495  0.00  0.00    -0.037 A 
ATOM      9  C   LIG d   1       8.858   1.480  -8.119  0.00  0.00    -0.018 A 
ATOM     10  H   LIG d   1       7.592  -0.239  -8.044  0.00  0.00     0.064 H 
ATOM     11  C   LIG d   1       9.384   2.552  -7.413  0.00  0.00     0.120 A 
ATOM     12  H   LIG d   1       9.119   1.338  -9.157  0.00  0.00     0.066 H 
ATOM     13  C   LIG d   1       9.053   2.733  -6.077  0.00  0.00    -0.018 A 
ATOM     14  C   LIG d   1       8.192   1.853  -5.454  0.00  0.00    -0.037 A 
ATOM     15  H   LIG d   1       9.467   3.565  -5.527  0.00  0.00     0.066 H 
ATOM     16  H   LIG d   1       7.931   1.997  -4.415  0.00  0.00     0.064 H 
BRANCH  11  17
ATOM     17  O   LIG d   1      10.228   3.422  -8.028  0.00  0.00    -0.495 OA
BRANCH  17  18
ATOM     18  C   LIG d   1      10.485   4.660  -7.361  0.00  0.00     0.079 C 
ATOM     19  H   LIG d   1      10.388   4.519  -6.285  0.00  0.00     0.066 H 
ATOM     20  H   LIG d   1      11.494   4.997  -7.595  0.00  0.00     0.066 H 
ATOM     21  H   LIG d   1       9.766   5.408  -7.695  0.00  0.00     0.066 H 
ENDBRANCH  17  18
ENDBRANCH  11  17
ENDBRANCH   4   7
ENDBRANCH   1   3
BRANCH   1  22
ATOM     22  C   LIG d   1       6.516  -3.516  -4.924  0.00  0.00     0.459 C 
ATOM     23  F   LIG d   1       5.349  -4.270  -4.761  0.00  0.00    -0.165 F 
ATOM     24  F   LIG d   1       6.745  -3.300  -6.287  0.00  0.00    -0.165 F 
ATOM     25  F   LIG d   1       7.599  -4.207  -4.371  0.00  0.00    -0.165 F 
ENDBRANCH   1  22
BRANCH   1  26
ATOM     26  O   LIG d   1       5.007  -1.715  -4.357  0.00  0.00    -0.263 OA
BRANCH  26  27
ATOM     27  C   LIG d   1       4.504  -1.025  -3.211  0.00  0.00     0.428 C 
ATOM     28  F   LIG d   1       3.668  -1.877  -2.482  0.00  0.00    -0.169 F 
ATOM     29  F   LIG d   1       5.573  -0.619  -2.405  0.00  0.00    -0.169 F 
BRANCH  27  30
ATOM     30  C   LIG d   1       3.711   0.203  -3.663  0.00  0.00     0.401 C 
ATOM     31  F   LIG d   1       2.345  -0.022  -3.457  0.00  0.00    -0.191 F 
BRANCH  30  32
ATOM     32  C   LIG d   1       4.155   1.422  -2.852  0.00  0.00     0.458 C 
ATOM     33  F   LIG d   1       3.369   2.526  -3.201  0.00  0.00    -0.165 F 
ATOM     34  F   LIG d   1       4.004   1.156  -1.487  0.00  0.00    -0.165 F 
ATOM     35  F   LIG d   1       5.499   1.701  -3.127  0.00  0.00    -0.165 F 
ENDBRANCH  30  32
BRANCH  30  36
ATOM     36  O   LIG d   1       3.950   0.441  -5.051  0.00  0.00    -0.264 OA
BRANCH  36  37
ATOM     37  C   LIG d   1       2.760   0.596  -5.827  0.00  0.00     0.432 C 
ATOM     38  F   LIG d   1       1.716  -0.117  -5.227  0.00  0.00    -0.168 F 
ATOM     39  F   LIG d   1       2.421   1.950  -5.896  0.00  0.00    -0.168 F 
BRANCH  37  40
ATOM     40  C   LIG d   1       3.000   0.058  -7.239  0.00  0.00     0.429 C 
ATOM     41  F   LIG d   1       3.973  -0.946  -7.198  0.00  0.00    -0.186 F 
ATOM     42  F   LIG d   1       1.807  -0.471  -7.745  0.00  0.00    -0.186 F 
BRANCH  40  43
ATOM     43  C   LIG d   1       3.476   1.195  -8.145  0.00  0.00     0.463 C 
ATOM     44  F   LIG d   1       4.826   1.460  -7.887  0.00  0.00    -0.165 F 
ATOM     45  F   LIG d   1       3.323   0.820  -9.484  0.00  0.00    -0.165 F 
ATOM     46  F   LIG d   1       2.719   2.343  -7.891  0.00  0.00    -0.165 F 
ENDBRANCH  40  43
ENDBRANCH  37  40
ENDBRANCH  36  37
ENDBRANCH  30  36
ENDBRANCH  27  30
ENDBRANCH  26  27
ENDBRANCH   1  26
TORSDOF 13
ENDMDL
MODEL 3
REMARK VINA RESULT:      -6.9      2.575      4.953
REMARK  13 active torsions:
REMARK  status: ('A' for Active; 'I' for Inactive)
REMARK    1  A    between atoms: C_1  and  O_2 
REMARK    2  A    between atoms: O_2  and  C_3 
REMARK    3  A    between atoms: C_6  and  N_9 
REMARK       I    between atoms: N_9  and  C_10 
REMARK    4  A    between atoms: C_10  and  C_12 
REMARK    5  A    between atoms: C_12  and  C_13 
REMARK    6  A    between atoms: C_12  and  O_17 
REMARK    7  A    between atoms: O_17  and  C_18 
REMARK    8  A    between atoms: C_18  and  C_19 
REMARK    9  A    between atoms: C_19  and  C_20 
REMARK   10  A    between atoms: C_19  and  O_24 
REMARK   11  A    between atoms: O_24  and  C_25 
REMARK   12  A    between atoms: C_25  and  C_26 
REMARK   13  A    between atoms: C_26  and  C_27 
ROOT
ATOM      1  C   LIG d   1       3.629   1.035  -8.716  0.00  0.00     0.387 C 
ATOM      2  F   LIG d   1       2.531   1.540  -8.011  0.00  0.00    -0.190 F 
ENDROOT
BRANCH   1   3
ATOM      3  C   LIG d   1       3.166  -0.045  -9.660  0.00  0.00     0.292 C 
ATOM      4  N   LIG d   1       1.854  -0.336  -9.760  0.00  0.00    -0.281 N 
ATOM      5  H   LIG d   1       1.202   0.182  -9.261  0.00  0.00     0.155 HD
ATOM      6  O   LIG d   1       3.974  -0.652 -10.331  0.00  0.00    -0.269 OA
BRANCH   4   7
ATOM      7  C   LIG d   1       1.429  -1.387 -10.585  0.00  0.00     0.034 A 
ATOM      8  C   LIG d   1       1.038  -1.129 -11.891  0.00  0.00    -0.037 A 
ATOM      9  C   LIG d   1       0.621  -2.165 -12.703  0.00  0.00    -0.018 A 
ATOM     10  H   LIG d   1       1.060  -0.119 -12.272  0.00  0.00     0.064 H 
ATOM     11  C   LIG d   1       0.592  -3.463 -12.214  0.00  0.00     0.120 A 
ATOM     12  H   LIG d   1       0.316  -1.965 -13.720  0.00  0.00     0.066 H 
ATOM     13  C   LIG d   1       0.978  -3.720 -10.906  0.00  0.00    -0.018 A 
ATOM     14  C   LIG d   1       1.401  -2.686 -10.095  0.00  0.00    -0.037 A 
ATOM     15  H   LIG d   1       0.951  -4.729 -10.524  0.00  0.00     0.066 H 
ATOM     16  H   LIG d   1       1.706  -2.887  -9.078  0.00  0.00     0.064 H 
BRANCH  11  17
ATOM     17  O   LIG d   1       0.181  -4.482 -13.014  0.00  0.00    -0.495 OA
BRANCH  17  18
ATOM     18  C   LIG d   1       0.273  -5.805 -12.481  0.00  0.00     0.079 C 
ATOM     19  H   LIG d   1       1.296  -6.166 -12.580  0.00  0.00     0.066 H 
ATOM     20  H   LIG d   1      -0.008  -5.792 -11.428  0.00  0.00     0.066 H 
ATOM     21  H   LIG d   1      -0.400  -6.464 -13.028  0.00  0.00     0.066 H 
ENDBRANCH  17  18
ENDBRANCH  11  17
ENDBRANCH   4   7
ENDBRANCH   1   3
BRANCH   1  22
ATOM     22  C   LIG d   1       4.285   2.163  -9.515  0.00  0.00     0.459 C 
ATOM     23  F   LIG d   1       3.748   2.194 -10.806  0.00  0.00    -0.165 F 
ATOM     24  F   LIG d   1       4.042   3.385  -8.879  0.00  0.00    -0.165 F 
ATOM     25  F   LIG d   1       5.664   1.941  -9.589  0.00  0.00    -0.165 F 
ENDBRANCH   1  22
BRANCH   1  26
ATOM     26  O   LIG d   1       4.576   0.488  -7.796  0.00  0.00    -0.263 OA
BRANCH  26  27
ATOM     27  C   LIG d   1       4.005  -0.404  -6.836  0.00  0.00     0.428 C 
ATOM     28  F   LIG d   1       3.019   0.266  -6.105  0.00  0.00    -0.169 F 
ATOM     29  F   LIG d   1       3.434  -1.496  -7.498  0.00  0.00    -0.169 F 
BRANCH  27  30
ATOM     30  C   LIG d   1       5.098  -0.897  -5.886  0.00  0.00     0.401 C 
ATOM     31  F   LIG d   1       4.998  -2.285  -5.740  0.00  0.00    -0.191 F 
BRANCH  30  32
ATOM     32  C   LIG d   1       6.471  -0.543  -6.461  0.00  0.00     0.458 C 
ATOM     33  F   LIG d   1       7.471  -1.128  -5.678  0.00  0.00    -0.165 F 
ATOM     34  F   LIG d   1       6.566  -1.022  -7.772  0.00  0.00    -0.165 F 
ATOM     35  F   LIG d   1       6.632   0.848  -6.460  0.00  0.00    -0.165 F 
ENDBRANCH  30  32
BRANCH  30  36
ATOM     36  O   LIG d   1       4.940  -0.272  -4.612  0.00  0.00    -0.264 OA
BRANCH  36  37
ATOM     37  C   LIG d   1       4.702  -1.188  -3.541  0.00  0.00     0.432 C 
ATOM     38  F   LIG d   1       3.805  -2.176  -3.963  0.00  0.00    -0.168 F 
ATOM     39  F   LIG d   1       5.908  -1.785  -3.161  0.00  0.00    -0.168 F 
BRANCH  37  40
ATOM     40  C   LIG d   1       4.108  -0.436  -2.349  0.00  0.00     0.429 C 
ATOM     41  F   LIG d   1       2.728  -0.293  -2.528  0.00  0.00    -0.186 F 
ATOM     42  F   LIG d   1       4.353  -1.155  -1.174  0.00  0.00    -0.186 F 
BRANCH  40  43
ATOM     43  C   LIG d   1       4.755   0.947  -2.244  0.00  0.00     0.463 C 
ATOM     44  F   LIG d   1       4.761   1.357  -0.906  0.00  0.00    -0.165 F 
ATOM     45  F   LIG d   1       6.069   0.884  -2.719  0.00  0.00    -0.165 F 
ATOM     46  F   LIG d   1       4.026   1.863  -3.009  0.00  0.00    -0.165 F 
ENDBRANCH  40  43
ENDBRANCH  37  40
ENDBRANCH  36  37
ENDBRANCH  30  36
ENDBRANCH  27  30
ENDBRANCH  26  27
ENDBRANCH   1  26
TORSDOF 13
ENDMDL
MODEL 4
REMARK VINA RESULT:      -6.9      2.477      4.879
REMARK  13 active torsions:
REMARK  status: ('A' for Active; 'I' for Inactive)
REMARK    1  A    between atoms: C_1  and  O_2 
REMARK    2  A    between atoms: O_2  and  C_3 
REMARK    3  A    between atoms: C_6  and  N_9 
REMARK       I    between atoms: N_9  and  C_10 
REMARK    4  A    between atoms: C_10  and  C_12 
REMARK    5  A    between atoms: C_12  and  C_13 
REMARK    6  A    between atoms: C_12  and  O_17 
REMARK    7  A    between atoms: O_17  and  C_18 
REMARK    8  A    between atoms: C_18  and  C_19 
REMARK    9  A    between atoms: C_19  and  C_20 
REMARK   10  A    between atoms: C_19  and  O_24 
REMARK   11  A    between atoms: O_24  and  C_25 
REMARK   12  A    between atoms: C_25  and  C_26 
REMARK   13  A    between atoms: C_26  and  C_27 
ROOT
ATOM      1  C   LIG d   1       3.284   0.659  -8.134  0.00  0.00     0.387 C 
ATOM      2  F   LIG d   1       2.578   0.167  -7.031  0.00  0.00    -0.190 F 
ENDROOT
BRANCH   1   3
ATOM      3  C   LIG d   1       2.961  -0.172  -9.348  0.00  0.00     0.292 C 
ATOM      4  N   LIG d   1       1.833  -0.909  -9.380  0.00  0.00    -0.281 N 
ATOM      5  H   LIG d   1       1.204  -0.868  -8.642  0.00  0.00     0.155 HD
ATOM      6  O   LIG d   1       3.716  -0.179 -10.298  0.00  0.00    -0.269 OA
BRANCH   4   7
ATOM      7  C   LIG d   1       1.567  -1.737 -10.480  0.00  0.00     0.034 A 
ATOM      8  C   LIG d   1       1.005  -1.203 -11.631  0.00  0.00    -0.037 A 
ATOM      9  C   LIG d   1       0.744  -2.019 -12.714  0.00  0.00    -0.018 A 
ATOM     10  H   LIG d   1       0.773  -0.150 -11.679  0.00  0.00     0.064 H 
ATOM     11  C   LIG d   1       1.043  -3.372 -12.651  0.00  0.00     0.120 A 
ATOM     12  H   LIG d   1       0.307  -1.603 -13.610  0.00  0.00     0.066 H 
ATOM     13  C   LIG d   1       1.600  -3.907 -11.498  0.00  0.00    -0.018 A 
ATOM     14  C   LIG d   1       1.866  -3.092 -10.417  0.00  0.00    -0.037 A 
ATOM     15  H   LIG d   1       1.828  -4.962 -11.449  0.00  0.00     0.066 H 
ATOM     16  H   LIG d   1       2.304  -3.508  -9.522  0.00  0.00     0.064 H 
BRANCH  11  17
ATOM     17  O   LIG d   1       0.785  -4.175 -13.718  0.00  0.00    -0.495 OA
BRANCH  17  18
ATOM     18  C   LIG d   1       0.346  -5.506 -13.438  0.00  0.00     0.079 C 
ATOM     19  H   LIG d   1      -0.514  -5.471 -12.769  0.00  0.00     0.066 H 
ATOM     20  H   LIG d   1       0.064  -5.998 -14.368  0.00  0.00     0.066 H 
ATOM     21  H   LIG d   1       1.154  -6.062 -12.963  0.00  0.00     0.066 H 
ENDBRANCH  17  18
ENDBRANCH  11  17
ENDBRANCH   4   7
ENDBRANCH   1   3
BRANCH   1  22
ATOM     22  C   LIG d   1       2.882   2.113  -8.390  0.00  0.00     0.459 C 
ATOM     23  F   LIG d   1       4.002   2.839  -8.810  0.00  0.00    -0.165 F 
ATOM     24  F   LIG d   1       1.899   2.156  -9.384  0.00  0.00    -0.165 F 
ATOM     25  F   LIG d   1       2.380   2.673  -7.211  0.00  0.00    -0.165 F 
ENDBRANCH   1  22
BRANCH   1  26
ATOM     26  O   LIG d   1       4.687   0.592  -7.870  0.00  0.00    -0.263 OA
BRANCH  26  27
ATOM     27  C   LIG d   1       5.140  -0.701  -7.463  0.00  0.00     0.428 C 
ATOM     28  F   LIG d   1       4.047  -1.568  -7.358  0.00  0.00    -0.169 F 
ATOM     29  F   LIG d   1       6.041  -1.199  -8.412  0.00  0.00    -0.169 F 
BRANCH  27  30
ATOM     30  C   LIG d   1       5.837  -0.593  -6.106  0.00  0.00     0.401 C 
ATOM     31  F   LIG d   1       6.096  -1.876  -5.610  0.00  0.00    -0.191 F 
BRANCH  30  32
ATOM     32  C   LIG d   1       7.155   0.167  -6.269  0.00  0.00     0.458 C 
ATOM     33  F   LIG d   1       7.002   1.166  -7.236  0.00  0.00    -0.165 F 
ATOM     34  F   LIG d   1       7.511   0.752  -5.048  0.00  0.00    -0.165 F 
ATOM     35  F   LIG d   1       8.159  -0.721  -6.670  0.00  0.00    -0.165 F 
ENDBRANCH  30  32
BRANCH  30  36
ATOM     36  O   LIG d   1       4.993   0.109  -5.191  0.00  0.00    -0.264 OA
BRANCH  36  37
ATOM     37  C   LIG d   1       4.522  -0.691  -4.104  0.00  0.00     0.432 C 
ATOM     38  F   LIG d   1       3.965  -1.874  -4.603  0.00  0.00    -0.168 F 
ATOM     39  F   LIG d   1       5.590  -1.000  -3.256  0.00  0.00    -0.168 F 
BRANCH  37  40
ATOM     40  C   LIG d   1       3.459   0.084  -3.324  0.00  0.00     0.429 C 
ATOM     41  F   LIG d   1       2.750   0.914  -4.199  0.00  0.00    -0.186 F 
ATOM     42  F   LIG d   1       2.576  -0.817  -2.718  0.00  0.00    -0.186 F 
BRANCH  40  43
ATOM     43  C   LIG d   1       4.135   0.936  -2.248  0.00  0.00     0.463 C 
ATOM     44  F   LIG d   1       4.526   0.116  -1.183  0.00  0.00    -0.165 F 
ATOM     45  F   LIG d   1       5.261   1.564  -2.790  0.00  0.00    -0.165 F 
ATOM     46  F   LIG d   1       3.237   1.904  -1.786  0.00  0.00    -0.165 F 
ENDBRANCH  40  43
ENDBRANCH  37  40
ENDBRANCH  36  37
ENDBRANCH  30  36
ENDBRANCH  27  30
ENDBRANCH  26  27
ENDBRANCH   1  26
TORSDOF 13
ENDMDL
MODEL 5
REMARK VINA RESULT:      -6.8      3.237      6.984
REMARK  13 active torsions:
REMARK  status: ('A' for Active; 'I' for Inactive)
REMARK    1  A    between atoms: C_1  and  O_2 
REMARK    2  A    between atoms: O_2  and  C_3 
REMARK    3  A    between atoms: C_6  and  N_9 
REMARK       I    between atoms: N_9  and  C_10 
REMARK    4  A    between atoms: C_10  and  C_12 
REMARK    5  A    between atoms: C_12  and  C_13 
REMARK    6  A    between atoms: C_12  and  O_17 
REMARK    7  A    between atoms: O_17  and  C_18 
REMARK    8  A    between atoms: C_18  and  C_19 
REMARK    9  A    between atoms: C_19  and  C_20 
REMARK   10  A    between atoms: C_19  and  O_24 
REMARK   11  A    between atoms: O_24  and  C_25 
REMARK   12  A    between atoms: C_25  and  C_26 
REMARK   13  A    between atoms: C_26  and  C_27 
ROOT
ATOM      1  C   LIG d   1       8.529   0.717  -6.020  0.00  0.00     0.387 C 
ATOM      2  F   LIG d   1       9.624  -0.070  -5.647  0.00  0.00    -0.190 F 
ENDROOT
BRANCH   1   3
ATOM      3  C   LIG d   1       8.539   1.998  -5.225  0.00  0.00     0.292 C 
ATOM      4  N   LIG d   1       9.664   2.734  -5.146  0.00  0.00    -0.281 N 
ATOM      5  H   LIG d   1      10.456   2.467  -5.640  0.00  0.00     0.155 HD
ATOM      6  O   LIG d   1       7.532   2.366  -4.656  0.00  0.00    -0.269 OA
BRANCH   4   7
ATOM      7  C   LIG d   1       9.694   3.888  -4.350  0.00  0.00     0.034 A 
ATOM      8  C   LIG d   1       9.332   5.113  -4.891  0.00  0.00    -0.037 A 
ATOM      9  C   LIG d   1       9.360   6.249  -4.106  0.00  0.00    -0.018 A 
ATOM     10  H   LIG d   1       9.028   5.179  -5.925  0.00  0.00     0.064 H 
ATOM     11  C   LIG d   1       9.751   6.165  -2.778  0.00  0.00     0.120 A 
ATOM     12  H   LIG d   1       9.078   7.203  -4.526  0.00  0.00     0.066 H 
ATOM     13  C   LIG d   1      10.118   4.941  -2.238  0.00  0.00    -0.018 A 
ATOM     14  C   LIG d   1      10.085   3.804  -3.020  0.00  0.00    -0.037 A 
ATOM     15  H   LIG d   1      10.426   4.876  -1.205  0.00  0.00     0.066 H 
ATOM     16  H   LIG d   1      10.366   2.850  -2.598  0.00  0.00     0.064 H 
BRANCH  11  17
ATOM     17  O   LIG d   1       9.779   7.284  -2.006  0.00  0.00    -0.495 OA
BRANCH  17  18
ATOM     18  C   LIG d   1      10.193   8.498  -2.636  0.00  0.00     0.079 C 
ATOM     19  H   LIG d   1      11.272   8.479  -2.788  0.00  0.00     0.066 H 
ATOM     20  H   LIG d   1       9.691   8.598  -3.598  0.00  0.00     0.066 H 
ATOM     21  H   LIG d   1       9.931   9.344  -2.001  0.00  0.00     0.066 H 
ENDBRANCH  17  18
ENDBRANCH  11  17
ENDBRANCH   4   7
ENDBRANCH   1   3
BRANCH   1  22
ATOM     22  C   LIG d   1       8.619   1.043  -7.512  0.00  0.00     0.459 C 
ATOM     23  F   LIG d   1       7.999   2.273  -7.759  0.00  0.00    -0.165 F 
ATOM     24  F   LIG d   1       9.964   1.114  -7.893  0.00  0.00    -0.165 F 
ATOM     25  F   LIG d   1       7.978   0.042  -8.248  0.00  0.00    -0.165 F 
ENDBRANCH   1  22
BRANCH   1  26
ATOM     26  O   LIG d   1       7.318   0.005  -5.760  0.00  0.00    -0.263 OA
BRANCH  26  27
ATOM     27  C   LIG d   1       7.518  -1.299  -5.211  0.00  0.00     0.428 C 
ATOM     28  F   LIG d   1       8.283  -2.066  -6.096  0.00  0.00    -0.169 F 
ATOM     29  F   LIG d   1       8.188  -1.192  -3.987  0.00  0.00    -0.169 F 
BRANCH  27  30
ATOM     30  C   LIG d   1       6.162  -1.974  -4.993  0.00  0.00     0.401 C 
ATOM     31  F   LIG d   1       5.281  -1.590  -6.011  0.00  0.00    -0.191 F 
BRANCH  30  32
ATOM     32  C   LIG d   1       6.339  -3.493  -5.018  0.00  0.00     0.458 C 
ATOM     33  F   LIG d   1       5.171  -4.107  -4.555  0.00  0.00    -0.165 F 
ATOM     34  F   LIG d   1       6.598  -3.912  -6.328  0.00  0.00    -0.165 F 
ATOM     35  F   LIG d   1       7.412  -3.852  -4.194  0.00  0.00    -0.165 F 
ENDBRANCH  30  32
BRANCH  30  36
ATOM     36  O   LIG d   1       5.630  -1.577  -3.729  0.00  0.00    -0.264 OA
BRANCH  36  37
ATOM     37  C   LIG d   1       4.362  -0.923  -3.811  0.00  0.00     0.432 C 
ATOM     38  F   LIG d   1       4.434   0.118  -4.744  0.00  0.00    -0.168 F 
ATOM     39  F   LIG d   1       3.388  -1.843  -4.212  0.00  0.00    -0.168 F 
BRANCH  37  40
ATOM     40  C   LIG d   1       3.992  -0.355  -2.440  0.00  0.00     0.429 C 
ATOM     41  F   LIG d   1       2.613  -0.125  -2.387  0.00  0.00    -0.186 F 
ATOM     42  F   LIG d   1       4.350  -1.269  -1.443  0.00  0.00    -0.186 F 
BRANCH  40  43
ATOM     43  C   LIG d   1       4.738   0.962  -2.215  0.00  0.00     0.463 C 
ATOM     44  F   LIG d   1       4.745   1.266  -0.849  0.00  0.00    -0.165 F 
ATOM     45  F   LIG d   1       6.055   0.836  -2.671  0.00  0.00    -0.165 F 
ATOM     46  F   LIG d   1       4.097   1.988  -2.918  0.00  0.00    -0.165 F 
ENDBRANCH  40  43
ENDBRANCH  37  40
ENDBRANCH  36  37
ENDBRANCH  30  36
ENDBRANCH  27  30
ENDBRANCH  26  27
ENDBRANCH   1  26
TORSDOF 13
ENDMDL
MODEL 6
REMARK VINA RESULT:      -6.8      3.405      7.106
REMARK  13 active torsions:
REMARK  status: ('A' for Active; 'I' for Inactive)
REMARK    1  A    between atoms: C_1  and  O_2 
REMARK    2  A    between atoms: O_2  and  C_3 
REMARK    3  A    between atoms: C_6  and  N_9 
REMARK       I    between atoms: N_9  and  C_10 
REMARK    4  A    between atoms: C_10  and  C_12 
REMARK    5  A    between atoms: C_12  and  C_13 
REMARK    6  A    between atoms: C_12  and  O_17 
REMARK    7  A    between atoms: O_17  and  C_18 
REMARK    8  A    between atoms: C_18  and  C_19 
REMARK    9  A    between atoms: C_19  and  C_20 
REMARK   10  A    between atoms: C_19  and  O_24 
REMARK   11  A    between atoms: O_24  and  C_25 
REMARK   12  A    between atoms: C_25  and  C_26 
REMARK   13  A    between atoms: C_26  and  C_27 
ROOT
ATOM      1  C   LIG d   1       7.445   0.316  -4.965  0.00  0.00     0.387 C 
ATOM      2  F   LIG d   1       7.530  -0.667  -3.973  0.00  0.00    -0.190 F 
ENDROOT
BRANCH   1   3
ATOM      3  C   LIG d   1       7.841   1.650  -4.386  0.00  0.00     0.292 C 
ATOM      4  N   LIG d   1       9.040   2.186  -4.686  0.00  0.00    -0.281 N 
ATOM      5  H   LIG d   1       9.630   1.738  -5.313  0.00  0.00     0.155 HD
ATOM      6  O   LIG d   1       7.079   2.241  -3.649  0.00  0.00    -0.269 OA
BRANCH   4   7
ATOM      7  C   LIG d   1       9.438   3.392  -4.092  0.00  0.00     0.034 A 
ATOM      8  C   LIG d   1       9.180   4.597  -4.730  0.00  0.00    -0.037 A 
ATOM      9  C   LIG d   1       9.571   5.785  -4.144  0.00  0.00    -0.018 A 
ATOM     10  H   LIG d   1       8.674   4.607  -5.683  0.00  0.00     0.064 H 
ATOM     11  C   LIG d   1      10.222   5.774  -2.919  0.00  0.00     0.120 A 
ATOM     12  H   LIG d   1       9.370   6.723  -4.640  0.00  0.00     0.066 H 
ATOM     13  C   LIG d   1      10.484   4.568  -2.283  0.00  0.00    -0.018 A 
ATOM     14  C   LIG d   1      10.089   3.381  -2.865  0.00  0.00    -0.037 A 
ATOM     15  H   LIG d   1      10.994   4.559  -1.332  0.00  0.00     0.066 H 
ATOM     16  H   LIG d   1      10.289   2.442  -2.368  0.00  0.00     0.064 H 
BRANCH  11  17
ATOM     17  O   LIG d   1      10.606   6.943  -2.343  0.00  0.00    -0.495 OA
BRANCH  17  18
ATOM     18  C   LIG d   1      10.025   7.267  -1.078  0.00  0.00     0.079 C 
ATOM     19  H   LIG d   1      10.366   6.552  -0.328  0.00  0.00     0.066 H 
ATOM     20  H   LIG d   1      10.327   8.272  -0.785  0.00  0.00     0.066 H 
ATOM     21  H   LIG d   1       8.940   7.222  -1.155  0.00  0.00     0.066 H 
ENDBRANCH  17  18
ENDBRANCH  11  17
ENDBRANCH   4   7
ENDBRANCH   1   3
BRANCH   1  22
ATOM     22  C   LIG d   1       8.388  -0.039  -6.117  0.00  0.00     0.459 C 
ATOM     23  F   LIG d   1       8.442   1.028  -7.020  0.00  0.00    -0.165 F 
ATOM     24  F   LIG d   1       9.668  -0.288  -5.611  0.00  0.00    -0.165 F 
ATOM     25  F   LIG d   1       7.914  -1.180  -6.772  0.00  0.00    -0.165 F 
ENDBRANCH   1  22
BRANCH   1  26
ATOM     26  O   LIG d   1       6.103   0.388  -5.452  0.00  0.00    -0.263 OA
BRANCH  26  27
ATOM     27  C   LIG d   1       5.203  -0.516  -4.809  0.00  0.00     0.428 C 
ATOM     28  F   LIG d   1       5.655  -1.828  -4.981  0.00  0.00    -0.169 F 
ATOM     29  F   LIG d   1       5.143  -0.219  -3.442  0.00  0.00    -0.169 F 
BRANCH  27  30
ATOM     30  C   LIG d   1       3.809  -0.371  -5.424  0.00  0.00     0.401 C 
ATOM     31  F   LIG d   1       3.463  -1.558  -6.079  0.00  0.00    -0.191 F 
BRANCH  30  32
ATOM     32  C   LIG d   1       2.792  -0.083  -4.318  0.00  0.00     0.458 C 
ATOM     33  F   LIG d   1       2.758  -1.156  -3.423  0.00  0.00    -0.165 F 
ATOM     34  F   LIG d   1       3.162   1.082  -3.636  0.00  0.00    -0.165 F 
ATOM     35  F   LIG d   1       1.524   0.092  -4.885  0.00  0.00    -0.165 F 
ENDBRANCH  30  32
BRANCH  30  36
ATOM     36  O   LIG d   1       3.812   0.707  -6.361  0.00  0.00    -0.264 OA
BRANCH  36  37
ATOM     37  C   LIG d   1       3.383   0.336  -7.673  0.00  0.00     0.432 C 
ATOM     38  F   LIG d   1       4.385  -0.418  -8.296  0.00  0.00    -0.168 F 
ATOM     39  F   LIG d   1       2.214  -0.425  -7.585  0.00  0.00    -0.168 F 
BRANCH  37  40
ATOM     40  C   LIG d   1       3.110   1.597  -8.495  0.00  0.00     0.429 C 
ATOM     41  F   LIG d   1       2.176   1.309  -9.496  0.00  0.00    -0.186 F 
ATOM     42  F   LIG d   1       2.602   2.598  -7.659  0.00  0.00    -0.186 F 
BRANCH  40  43
ATOM     43  C   LIG d   1       4.412   2.081  -9.136  0.00  0.00     0.463 C 
ATOM     44  F   LIG d   1       4.417   3.480  -9.180  0.00  0.00    -0.165 F 
ATOM     45  F   LIG d   1       5.499   1.635  -8.377  0.00  0.00    -0.165 F 
ATOM     46  F   LIG d   1       4.510   1.573 -10.435  0.00  0.00    -0.165 F 
ENDBRANCH  40  43
ENDBRANCH  37  40
ENDBRANCH  36  37
ENDBRANCH  30  36
ENDBRANCH  27  30
ENDBRANCH  26  27
ENDBRANCH   1  26
TORSDOF 13
ENDMDL
MODEL 7
REMARK VINA RESULT:      -6.8      3.364      6.021
REMARK  13 active torsions:
REMARK  status: ('A' for Active; 'I' for Inactive)
REMARK    1  A    between atoms: C_1  and  O_2 
REMARK    2  A    between atoms: O_2  and  C_3 
REMARK    3  A    between atoms: C_6  and  N_9 
REMARK       I    between atoms: N_9  and  C_10 
REMARK    4  A    between atoms: C_10  and  C_12 
REMARK    5  A    between atoms: C_12  and  C_13 
REMARK    6  A    between atoms: C_12  and  O_17 
REMARK    7  A    between atoms: O_17  and  C_18 
REMARK    8  A    between atoms: C_18  and  C_19 
REMARK    9  A    between atoms: C_19  and  C_20 
REMARK   10  A    between atoms: C_19  and  O_24 
REMARK   11  A    between atoms: O_24  and  C_25 
REMARK   12  A    between atoms: C_25  and  C_26 
REMARK   13  A    between atoms: C_26  and  C_27 
ROOT
ATOM      1  C   LIG d   1       4.645   1.083  -8.812  0.00  0.00     0.387 C 
ATOM      2  F   LIG d   1       4.233  -0.023  -9.562  0.00  0.00    -0.190 F 
ENDROOT
BRANCH   1   3
ATOM      3  C   LIG d   1       6.099   1.366  -9.092  0.00  0.00     0.292 C 
ATOM      4  N   LIG d   1       6.894   1.842  -8.113  0.00  0.00    -0.281 N 
ATOM      5  H   LIG d   1       6.543   1.957  -7.215  0.00  0.00     0.155 HD
ATOM      6  O   LIG d   1       6.554   1.165 -10.198  0.00  0.00    -0.269 OA
BRANCH   4   7
ATOM      7  C   LIG d   1       8.227   2.172  -8.391  0.00  0.00     0.034 A 
ATOM      8  C   LIG d   1       8.538   3.416  -8.921  0.00  0.00    -0.037 A 
ATOM      9  C   LIG d   1       9.853   3.741  -9.194  0.00  0.00    -0.018 A 
ATOM     10  H   LIG d   1       7.753   4.130  -9.120  0.00  0.00     0.064 H 
ATOM     11  C   LIG d   1      10.862   2.824  -8.938  0.00  0.00     0.120 A 
ATOM     12  H   LIG d   1      10.095   4.709  -9.606  0.00  0.00     0.066 H 
ATOM     13  C   LIG d   1      10.550   1.578  -8.412  0.00  0.00    -0.018 A 
ATOM     14  C   LIG d   1       9.238   1.254  -8.134  0.00  0.00    -0.037 A 
ATOM     15  H   LIG d   1      11.336   0.863  -8.217  0.00  0.00     0.066 H 
ATOM     16  H   LIG d   1       8.996   0.286  -7.720  0.00  0.00     0.064 H 
BRANCH  11  17
ATOM     17  O   LIG d   1      12.155   3.144  -9.207  0.00  0.00    -0.495 OA
BRANCH  17  18
ATOM     18  C   LIG d   1      12.936   2.168  -9.898  0.00  0.00     0.079 C 
ATOM     19  H   LIG d   1      12.894   1.221  -9.359  0.00  0.00     0.066 H 
ATOM     20  H   LIG d   1      12.540   2.031 -10.904  0.00  0.00     0.066 H 
ATOM     21  H   LIG d   1      13.970   2.506  -9.958  0.00  0.00     0.066 H 
ENDBRANCH  17  18
ENDBRANCH  11  17
ENDBRANCH   4   7
ENDBRANCH   1   3
BRANCH   1  22
ATOM     22  C   LIG d   1       3.805   2.303  -9.198  0.00  0.00     0.459 C 
ATOM     23  F   LIG d   1       4.551   3.468  -8.988  0.00  0.00    -0.165 F 
ATOM     24  F   LIG d   1       3.450   2.214 -10.548  0.00  0.00    -0.165 F 
ATOM     25  F   LIG d   1       2.650   2.341  -8.412  0.00  0.00    -0.165 F 
ENDBRANCH   1  22
BRANCH   1  26
ATOM     26  O   LIG d   1       4.474   0.808  -7.421  0.00  0.00    -0.263 OA
BRANCH  26  27
ATOM     27  C   LIG d   1       3.885  -0.466  -7.149  0.00  0.00     0.428 C 
ATOM     28  F   LIG d   1       2.505  -0.317  -6.984  0.00  0.00    -0.169 F 
ATOM     29  F   LIG d   1       4.136  -1.332  -8.219  0.00  0.00    -0.169 F 
BRANCH  27  30
ATOM     30  C   LIG d   1       4.493  -1.046  -5.870  0.00  0.00     0.401 C 
ATOM     31  F   LIG d   1       4.065  -2.369  -5.709  0.00  0.00    -0.191 F 
BRANCH  30  32
ATOM     32  C   LIG d   1       6.019  -1.011  -5.970  0.00  0.00     0.458 C 
ATOM     33  F   LIG d   1       6.405  -1.202  -7.300  0.00  0.00    -0.165 F 
ATOM     34  F   LIG d   1       6.487   0.229  -5.522  0.00  0.00    -0.165 F 
ATOM     35  F   LIG d   1       6.562  -2.028  -5.176  0.00  0.00    -0.165 F 
ENDBRANCH  30  32
BRANCH  30  36
ATOM     36  O   LIG d   1       4.071  -0.270  -4.748  0.00  0.00    -0.264 OA
BRANCH  36  37
ATOM     37  C   LIG d   1       3.776  -1.044  -3.583  0.00  0.00     0.432 C 
ATOM     38  F   LIG d   1       2.427  -0.886  -3.247  0.00  0.00    -0.168 F 
ATOM     39  F   LIG d   1       4.037  -2.393  -3.842  0.00  0.00    -0.168 F 
BRANCH  37  40
ATOM     40  C   LIG d   1       4.650  -0.570  -2.421  0.00  0.00     0.429 C 
ATOM     41  F   LIG d   1       4.325  -1.292  -1.267  0.00  0.00    -0.186 F 
ATOM     42  F   LIG d   1       5.998  -0.777  -2.735  0.00  0.00    -0.186 F 
BRANCH  40  43
ATOM     43  C   LIG d   1       4.408   0.921  -2.175  0.00  0.00     0.463 C 
ATOM     44  F   LIG d   1       4.786   1.245  -0.868  0.00  0.00    -0.165 F 
ATOM     45  F   LIG d   1       5.167   1.672  -3.079  0.00  0.00    -0.165 F 
ATOM     46  F   LIG d   1       3.051   1.209  -2.354  0.00  0.00    -0.165 F 
ENDBRANCH  40  43
ENDBRANCH  37  40
ENDBRANCH  36  37
ENDBRANCH  30  36
ENDBRANCH  27  30
ENDBRANCH  26  27
ENDBRANCH   1  26
TORSDOF 13
ENDMDL
MODEL 8
REMARK VINA RESULT:      -6.7      3.314      7.098
REMARK  13 active torsions:
REMARK  status: ('A' for Active; 'I' for Inactive)
REMARK    1  A    between atoms: C_1  and  O_2 
REMARK    2  A    between atoms: O_2  and  C_3 
REMARK    3  A    between atoms: C_6  and  N_9 
REMARK       I    between atoms: N_9  and  C_10 
REMARK    4  A    between atoms: C_10  and  C_12 
REMARK    5  A    between atoms: C_12  and  C_13 
REMARK    6  A    between atoms: C_12  and  O_17 
REMARK    7  A    between atoms: O_17  and  C_18 
REMARK    8  A    between atoms: C_18  and  C_19 
REMARK    9  A    between atoms: C_19  and  C_20 
REMARK   10  A    between atoms: C_19  and  O_24 
REMARK   11  A    between atoms: O_24  and  C_25 
REMARK   12  A    between atoms: C_25  and  C_26 
REMARK   13  A    between atoms: C_26  and  C_27 
ROOT
ATOM      1  C   LIG d   1       7.427   0.046  -4.401  0.00  0.00     0.387 C 
ATOM      2  F   LIG d   1       7.264  -0.238  -3.042  0.00  0.00    -0.190 F 
ENDROOT
BRANCH   1   3
ATOM      3  C   LIG d   1       8.250   1.298  -4.558  0.00  0.00     0.292 C 
ATOM      4  N   LIG d   1       9.295   1.525  -3.738  0.00  0.00    -0.281 N 
ATOM      5  H   LIG d   1       9.547   0.860  -3.077  0.00  0.00     0.155 HD
ATOM      6  O   LIG d   1       7.973   2.102  -5.423  0.00  0.00    -0.269 OA
BRANCH   4   7
ATOM      7  C   LIG d   1      10.017   2.722  -3.837  0.00  0.00     0.034 A 
ATOM      8  C   LIG d   1       9.639   3.825  -3.084  0.00  0.00    -0.037 A 
ATOM      9  C   LIG d   1      10.352   5.004  -3.182  0.00  0.00    -0.018 A 
ATOM     10  H   LIG d   1       8.789   3.761  -2.422  0.00  0.00     0.064 H 
ATOM     11  C   LIG d   1      11.445   5.086  -4.032  0.00  0.00     0.120 A 
ATOM     12  H   LIG d   1      10.058   5.862  -2.595  0.00  0.00     0.066 H 
ATOM     13  C   LIG d   1      11.819   3.985  -4.789  0.00  0.00    -0.018 A 
ATOM     14  C   LIG d   1      11.111   2.804  -4.688  0.00  0.00    -0.037 A 
ATOM     15  H   LIG d   1      12.667   4.050  -5.454  0.00  0.00     0.066 H 
ATOM     16  H   LIG d   1      11.406   1.946  -5.274  0.00  0.00     0.064 H 
BRANCH  11  17
ATOM     17  O   LIG d   1      12.145   6.247  -4.128  0.00  0.00    -0.495 OA
BRANCH  17  18
ATOM     18  C   LIG d   1      11.397   7.464  -4.080  0.00  0.00     0.079 C 
ATOM     19  H   LIG d   1      11.932   8.241  -4.625  0.00  0.00     0.066 H 
ATOM     20  H   LIG d   1      10.419   7.307  -4.535  0.00  0.00     0.066 H 
ATOM     21  H   LIG d   1      11.269   7.770  -3.042  0.00  0.00     0.066 H 
ENDBRANCH  17  18
ENDBRANCH  11  17
ENDBRANCH   4   7
ENDBRANCH   1   3
BRANCH   1  22
ATOM     22  C   LIG d   1       8.141  -1.123  -5.084  0.00  0.00     0.459 C 
ATOM     23  F   LIG d   1       9.381  -0.692  -5.568  0.00  0.00    -0.165 F 
ATOM     24  F   LIG d   1       8.334  -2.154  -4.159  0.00  0.00    -0.165 F 
ATOM     25  F   LIG d   1       7.362  -1.589  -6.148  0.00  0.00    -0.165 F 
ENDBRANCH   1  22
BRANCH   1  26
ATOM     26  O   LIG d   1       6.146   0.239  -5.005  0.00  0.00    -0.263 OA
BRANCH  26  27
ATOM     27  C   LIG d   1       5.048  -0.151  -4.177  0.00  0.00     0.428 C 
ATOM     28  F   LIG d   1       5.316  -1.397  -3.603  0.00  0.00    -0.169 F 
ATOM     29  F   LIG d   1       4.868   0.799  -3.166  0.00  0.00    -0.169 F 
BRANCH  27  30
ATOM     30  C   LIG d   1       3.778  -0.242  -5.025  0.00  0.00     0.401 C 
ATOM     31  F   LIG d   1       3.546  -1.576  -5.376  0.00  0.00    -0.191 F 
BRANCH  30  32
ATOM     32  C   LIG d   1       2.590   0.289  -4.220  0.00  0.00     0.458 C 
ATOM     33  F   LIG d   1       2.603  -0.275  -2.940  0.00  0.00    -0.165 F 
ATOM     34  F   LIG d   1       2.680   1.681  -4.116  0.00  0.00    -0.165 F 
ATOM     35  F   LIG d   1       1.397  -0.054  -4.868  0.00  0.00    -0.165 F 
ENDBRANCH  30  32
BRANCH  30  36
ATOM     36  O   LIG d   1       3.938   0.541  -6.209  0.00  0.00    -0.264 OA
BRANCH  36  37
ATOM     37  C   LIG d   1       3.687  -0.178  -7.419  0.00  0.00     0.432 C 
ATOM     38  F   LIG d   1       4.412  -1.375  -7.408  0.00  0.00    -0.168 F 
ATOM     39  F   LIG d   1       2.322  -0.460  -7.520  0.00  0.00    -0.168 F 
BRANCH  37  40
ATOM     40  C   LIG d   1       4.122   0.671  -8.615  0.00  0.00     0.429 C 
ATOM     41  F   LIG d   1       5.292   1.367  -8.293  0.00  0.00    -0.186 F 
ATOM     42  F   LIG d   1       4.363  -0.161  -9.714  0.00  0.00    -0.186 F 
BRANCH  40  43
ATOM     43  C   LIG d   1       3.015   1.667  -8.964  0.00  0.00     0.463 C 
ATOM     44  F   LIG d   1       2.640   2.369  -7.813  0.00  0.00    -0.165 F 
ATOM     45  F   LIG d   1       3.483   2.567  -9.927  0.00  0.00    -0.165 F 
ATOM     46  F   LIG d   1       1.908   0.977  -9.470  0.00  0.00    -0.165 F 
ENDBRANCH  40  43
ENDBRANCH  37  40
ENDBRANCH  36  37
ENDBRANCH  30  36
ENDBRANCH  27  30
ENDBRANCH  26  27
ENDBRANCH   1  26
TORSDOF 13
ENDMDL
MODEL 9
REMARK VINA RESULT:      -6.7      2.727      4.690
REMARK  13 active torsions:
REMARK  status: ('A' for Active; 'I' for Inactive)
REMARK    1  A    between atoms: C_1  and  O_2 
REMARK    2  A    between atoms: O_2  and  C_3 
REMARK    3  A    between atoms: C_6  and  N_9 
REMARK       I    between atoms: N_9  and  C_10 
REMARK    4  A    between atoms: C_10  and  C_12 
REMARK    5  A    between atoms: C_12  and  C_13 
REMARK    6  A    between atoms: C_12  and  O_17 
REMARK    7  A    between atoms: O_17  and  C_18 
REMARK    8  A    between atoms: C_18  and  C_19 
REMARK    9  A    between atoms: C_19  and  C_20 
REMARK   10  A    between atoms: C_19  and  O_24 
REMARK   11  A    between atoms: O_24  and  C_25 
REMARK   12  A    between atoms: C_25  and  C_26 
REMARK   13  A    between atoms: C_26  and  C_27 
ROOT
ATOM      1  C   LIG d   1       2.991   0.105  -7.116  0.00  0.00     0.387 C 
ATOM      2  F   LIG d   1       1.670   0.058  -6.659  0.00  0.00    -0.190 F 
ENDROOT
BRANCH   1   3
ATOM      3  C   LIG d   1       3.398  -1.256  -7.617  0.00  0.00     0.292 C 
ATOM      4  N   LIG d   1       4.248  -2.014  -6.896  0.00  0.00    -0.281 N 
ATOM      5  H   LIG d   1       4.560  -1.704  -6.031  0.00  0.00     0.155 HD
ATOM      6  O   LIG d   1       2.960  -1.671  -8.670  0.00  0.00    -0.269 OA
BRANCH   4   7
ATOM      7  C   LIG d   1       4.682  -3.250  -7.395  0.00  0.00     0.034 A 
ATOM      8  C   LIG d   1       5.695  -3.298  -8.342  0.00  0.00    -0.037 A 
ATOM      9  C   LIG d   1       6.123  -4.516  -8.833  0.00  0.00    -0.018 A 
ATOM     10  H   LIG d   1       6.150  -2.384  -8.694  0.00  0.00     0.064 H 
ATOM     11  C   LIG d   1       5.540  -5.691  -8.381  0.00  0.00     0.120 A 
ATOM     12  H   LIG d   1       6.912  -4.554  -9.569  0.00  0.00     0.066 H 
ATOM     13  C   LIG d   1       4.522  -5.642  -7.438  0.00  0.00    -0.018 A 
ATOM     14  C   LIG d   1       4.097  -4.426  -6.942  0.00  0.00    -0.037 A 
ATOM     15  H   LIG d   1       4.065  -6.556  -7.089  0.00  0.00     0.066 H 
ATOM     16  H   LIG d   1       3.308  -4.388  -6.205  0.00  0.00     0.064 H 
BRANCH  11  17
ATOM     17  O   LIG d   1       5.961  -6.889  -8.864  0.00  0.00    -0.495 OA
BRANCH  17  18
ATOM     18  C   LIG d   1       5.247  -8.050  -8.436  0.00  0.00     0.079 C 
ATOM     19  H   LIG d   1       4.384  -7.747  -7.842  0.00  0.00     0.066 H 
ATOM     20  H   LIG d   1       4.910  -8.612  -9.306  0.00  0.00     0.066 H 
ATOM     21  H   LIG d   1       5.902  -8.676  -7.831  0.00  0.00     0.066 H 
ENDBRANCH  17  18
ENDBRANCH  11  17
ENDBRANCH   4   7
ENDBRANCH   1   3
BRANCH   1  22
ATOM     22  C   LIG d   1       3.101   1.122  -8.255  0.00  0.00     0.459 C 
ATOM     23  F   LIG d   1       2.828   2.403  -7.763  0.00  0.00    -0.165 F 
ATOM     24  F   LIG d   1       4.396   1.090  -8.782  0.00  0.00    -0.165 F 
ATOM     25  F   LIG d   1       2.180   0.801  -9.257  0.00  0.00    -0.165 F 
ENDBRANCH   1  22
BRANCH   1  26
ATOM     26  O   LIG d   1       3.853   0.495  -6.045  0.00  0.00    -0.263 OA
BRANCH  26  27
ATOM     27  C   LIG d   1       3.255   0.390  -4.751  0.00  0.00     0.428 C 
ATOM     28  F   LIG d   1       2.743   1.634  -4.370  0.00  0.00    -0.169 F 
ATOM     29  F   LIG d   1       2.217  -0.548  -4.792  0.00  0.00    -0.169 F 
BRANCH  27  30
ATOM     30  C   LIG d   1       4.309  -0.059  -3.737  0.00  0.00     0.401 C 
ATOM     31  F   LIG d   1       4.981   1.061  -3.235  0.00  0.00    -0.191 F 
BRANCH  30  32
ATOM     32  C   LIG d   1       3.626  -0.803  -2.588  0.00  0.00     0.458 C 
ATOM     33  F   LIG d   1       3.549  -2.165  -2.893  0.00  0.00    -0.165 F 
ATOM     34  F   LIG d   1       4.368  -0.629  -1.414  0.00  0.00    -0.165 F 
ATOM     35  F   LIG d   1       2.335  -0.293  -2.403  0.00  0.00    -0.165 F 
ENDBRANCH  30  32
BRANCH  30  36
ATOM     36  O   LIG d   1       5.245  -0.929  -4.376  0.00  0.00    -0.264 OA
BRANCH  36  37
ATOM     37  C   LIG d   1       6.612  -0.614  -4.101  0.00  0.00     0.432 C 
ATOM     38  F   LIG d   1       6.854   0.728  -4.416  0.00  0.00    -0.168 F 
ATOM     39  F   LIG d   1       6.876  -0.830  -2.745  0.00  0.00    -0.168 F 
BRANCH  37  40
ATOM     40  C   LIG d   1       7.521  -1.508  -4.946  0.00  0.00     0.429 C 
ATOM     41  F   LIG d   1       7.217  -1.335  -6.301  0.00  0.00    -0.186 F 
ATOM     42  F   LIG d   1       8.858  -1.161  -4.721  0.00  0.00    -0.186 F 
BRANCH  40  43
ATOM     43  C   LIG d   1       7.303  -2.971  -4.557  0.00  0.00     0.463 C 
ATOM     44  F   LIG d   1       7.637  -3.796  -5.637  0.00  0.00    -0.165 F 
ATOM     45  F   LIG d   1       8.113  -3.289  -3.461  0.00  0.00    -0.165 F 
ATOM     46  F   LIG d   1       5.961  -3.169  -4.217  0.00  0.00    -0.165 F 
ENDBRANCH  40  43
ENDBRANCH  37  40
ENDBRANCH  36  37
ENDBRANCH  30  36
ENDBRANCH  27  30
ENDBRANCH  26  27
ENDBRANCH   1  26
TORSDOF 13
ENDMDL
MODEL 10
REMARK VINA RESULT:      -6.5      2.946      6.998
REMARK  13 active torsions:
REMARK  status: ('A' for Active; 'I' for Inactive)
REMARK    1  A    between atoms: C_1  and  O_2 
REMARK    2  A    between atoms: O_2  and  C_3 
REMARK    3  A    between atoms: C_6  and  N_9 
REMARK       I    between atoms: N_9  and  C_10 
REMARK    4  A    between atoms: C_10  and  C_12 
REMARK    5  A    between atoms: C_12  and  C_13 
REMARK    6  A    between atoms: C_12  and  O_17 
REMARK    7  A    between atoms: O_17  and  C_18 
REMARK    8  A    between atoms: C_18  and  C_19 
REMARK    9  A    between atoms: C_19  and  C_20 
REMARK   10  A    between atoms: C_19  and  O_24 
REMARK   11  A    between atoms: O_24  and  C_25 
REMARK   12  A    between atoms: C_25  and  C_26 
REMARK   13  A    between atoms: C_26  and  C_27 
ROOT
ATOM      1  C   LIG d   1       7.572   1.118  -7.520  0.00  0.00     0.387 C 
ATOM      2  F   LIG d   1       8.106  -0.095  -7.966  0.00  0.00    -0.190 F 
ENDROOT
BRANCH   1   3
ATOM      3  C   LIG d   1       8.526   1.758  -6.545  0.00  0.00     0.292 C 
ATOM      4  N   LIG d   1       8.054   2.346  -5.428  0.00  0.00    -0.281 N 
ATOM      5  H   LIG d   1       7.105   2.314  -5.226  0.00  0.00     0.155 HD
ATOM      6  O   LIG d   1       9.719   1.745  -6.766  0.00  0.00    -0.269 OA
BRANCH   4   7
ATOM      7  C   LIG d   1       8.933   3.003  -4.556  0.00  0.00     0.034 A 
ATOM      8  C   LIG d   1       9.170   4.362  -4.704  0.00  0.00    -0.037 A 
ATOM      9  C   LIG d   1      10.035   5.010  -3.845  0.00  0.00    -0.018 A 
ATOM     10  H   LIG d   1       8.677   4.914  -5.490  0.00  0.00     0.064 H 
ATOM     11  C   LIG d   1      10.669   4.301  -2.834  0.00  0.00     0.120 A 
ATOM     12  H   LIG d   1      10.219   6.068  -3.959  0.00  0.00     0.066 H 
ATOM     13  C   LIG d   1      10.437   2.941  -2.689  0.00  0.00    -0.018 A 
ATOM     14  C   LIG d   1       9.568   2.294  -3.544  0.00  0.00    -0.037 A 
ATOM     15  H   LIG d   1      10.934   2.389  -1.905  0.00  0.00     0.066 H 
ATOM     16  H   LIG d   1       9.383   1.236  -3.428  0.00  0.00     0.064 H 
BRANCH  11  17
ATOM     17  O   LIG d   1      11.521   4.939  -1.988  0.00  0.00    -0.495 OA
BRANCH  17  18
ATOM     18  C   LIG d   1      11.060   6.156  -1.397  0.00  0.00     0.079 C 
ATOM     19  H   LIG d   1      10.000   6.065  -1.159  0.00  0.00     0.066 H 
ATOM     20  H   LIG d   1      11.622   6.352  -0.484  0.00  0.00     0.066 H 
ATOM     21  H   LIG d   1      11.207   6.978  -2.097  0.00  0.00     0.066 H 
ENDBRANCH  17  18
ENDBRANCH  11  17
ENDBRANCH   4   7
ENDBRANCH   1   3
BRANCH   1  22
ATOM     22  C   LIG d   1       7.361   2.052  -8.714  0.00  0.00     0.459 C 
ATOM     23  F   LIG d   1       6.010   2.409  -8.792  0.00  0.00    -0.165 F 
ATOM     24  F   LIG d   1       8.139   3.202  -8.549  0.00  0.00    -0.165 F 
ATOM     25  F   LIG d   1       7.738   1.397  -9.891  0.00  0.00    -0.165 F 
ENDBRANCH   1  22
BRANCH   1  26
ATOM     26  O   LIG d   1       6.320   0.879  -6.874  0.00  0.00    -0.263 OA
BRANCH  26  27
ATOM     27  C   LIG d   1       5.777  -0.419  -7.122  0.00  0.00     0.428 C 
ATOM     28  F   LIG d   1       4.658  -0.306  -7.954  0.00  0.00    -0.169 F 
ATOM     29  F   LIG d   1       6.743  -1.217  -7.745  0.00  0.00    -0.169 F 
BRANCH  27  30
ATOM     30  C   LIG d   1       5.364  -1.060  -5.796  0.00  0.00     0.401 C 
ATOM     31  F   LIG d   1       4.261  -1.896  -6.005  0.00  0.00    -0.191 F 
BRANCH  30  32
ATOM     32  C   LIG d   1       6.530  -1.882  -5.243  0.00  0.00     0.458 C 
ATOM     33  F   LIG d   1       6.184  -2.399  -3.990  0.00  0.00    -0.165 F 
ATOM     34  F   LIG d   1       6.815  -2.936  -6.118  0.00  0.00    -0.165 F 
ATOM     35  F   LIG d   1       7.658  -1.064  -5.114  0.00  0.00    -0.165 F 
ENDBRANCH  30  32
BRANCH  30  36
ATOM     36  O   LIG d   1       5.016  -0.038  -4.860  0.00  0.00    -0.264 OA
BRANCH  36  37
ATOM     37  C   LIG d   1       3.704  -0.178  -4.310  0.00  0.00     0.432 C 
ATOM     38  F   LIG d   1       2.759   0.281  -5.234  0.00  0.00    -0.168 F 
ATOM     39  F   LIG d   1       3.459  -1.524  -4.021  0.00  0.00    -0.168 F 
BRANCH  37  40
ATOM     40  C   LIG d   1       3.601   0.646  -3.024  0.00  0.00     0.429 C 
ATOM     41  F   LIG d   1       3.534   2.006  -3.345  0.00  0.00    -0.186 F 
ATOM     42  F   LIG d   1       2.448   0.275  -2.324  0.00  0.00    -0.186 F 
BRANCH  40  43
ATOM     43  C   LIG d   1       4.832   0.387  -2.153  0.00  0.00     0.463 C 
ATOM     44  F   LIG d   1       4.730   1.130  -0.971  0.00  0.00    -0.165 F 
ATOM     45  F   LIG d   1       4.906  -0.975  -1.842  0.00  0.00    -0.165 F 
ATOM     46  F   LIG d   1       5.984   0.771  -2.846  0.00  0.00    -0.165 F 
ENDBRANCH  40  43
ENDBRANCH  37  40
ENDBRANCH  36  37
ENDBRANCH  30  36
ENDBRANCH  27  30
ENDBRANCH  26  27
ENDBRANCH   1  26
TORSDOF 13
ENDMDL
