MODEL 1
REMARK VINA RESULT:      -6.1      0.000      0.000
REMARK  4 active torsions:
REMARK  status: ('A' for Active; 'I' for Inactive)
REMARK    1  A    between atoms: C_1  and  C_2 
REMARK    2  A    between atoms: C_13  and  O_15 
REMARK    3  A    between atoms: C_20  and  O_26 
REMARK    4  A    between atoms: C_24  and  C_25 
ROOT
ATOM      1  C   LIG d   1       4.335  -1.211  -9.137  0.00  0.00    -0.003 C 
ATOM      2  C   LIG d   1       5.740  -0.913  -8.647  0.00  0.00    -0.045 C 
ATOM      3  C   LIG d   1       5.741  -1.113  -7.123  0.00  0.00    -0.049 C 
ATOM      4  C   LIG d   1       4.705  -0.226  -6.438  0.00  0.00    -0.029 C 
ATOM      5  H   LIG d   1       5.008   0.814  -6.560  0.00  0.00     0.031 H 
ATOM      6  C   LIG d   1       3.304  -0.419  -7.036  0.00  0.00    -0.034 C 
ATOM      7  H   LIG d   1       2.973  -1.446  -6.877  0.00  0.00     0.031 H 
ATOM      8  C   LIG d   1       3.399  -0.136  -8.523  0.00  0.00    -0.030 C 
ATOM      9  H   LIG d   1       3.803   0.862  -8.694  0.00  0.00     0.031 H 
ATOM     10  C   LIG d   1       2.112  -0.350  -9.328  0.00  0.00    -0.047 C 
ATOM     11  C   LIG d   1       2.637  -0.571 -10.773  0.00  0.00    -0.026 C 
ATOM     12  C   LIG d   1       4.096  -1.073 -10.636  0.00  0.00     0.061 C 
ATOM     13  H   LIG d   1       4.787  -0.347 -11.064  0.00  0.00     0.060 H 
ATOM     14  C   LIG d   1       2.333   0.566  -6.381  0.00  0.00    -0.046 C 
ATOM     15  C   LIG d   1       2.205   0.242  -4.891  0.00  0.00    -0.031 C 
ATOM     16  C   LIG d   1       3.594   0.252  -4.276  0.00  0.00    -0.065 C 
ATOM     17  C   LIG d   1       3.788   0.962  -3.202  0.00  0.00    -0.056 C 
ATOM     18  C   LIG d   1       5.123   1.076  -2.524  0.00  0.00     0.074 C 
ATOM     19  H   LIG d   1       5.659   1.949  -2.897  0.00  0.00     0.064 H 
ATOM     20  C   LIG d   1       5.936  -0.188  -2.818  0.00  0.00    -0.022 C 
ATOM     21  C   LIG d   1       6.036  -0.356  -4.335  0.00  0.00    -0.041 C 
ATOM     22  C   LIG d   1       4.660  -0.564  -4.943  0.00  0.00    -0.008 C 
ATOM     23  H   LIG d   1       6.448  -1.598  -9.112  0.00  0.00     0.027 H 
ATOM     24  H   LIG d   1       6.006   0.116  -8.888  0.00  0.00     0.027 H 
ATOM     25  H   LIG d   1       6.730  -0.870  -6.734  0.00  0.00     0.027 H 
ATOM     26  H   LIG d   1       5.518  -2.156  -6.901  0.00  0.00     0.027 H 
ATOM     27  H   LIG d   1       1.578  -1.233  -8.974  0.00  0.00     0.027 H 
ATOM     28  H   LIG d   1       1.475   0.533  -9.279  0.00  0.00     0.027 H 
ATOM     29  H   LIG d   1       2.616   0.369 -11.325  0.00  0.00     0.029 H 
ATOM     30  H   LIG d   1       2.030  -1.319 -11.283  0.00  0.00     0.029 H 
ATOM     31  H   LIG d   1       1.356   0.483  -6.856  0.00  0.00     0.027 H 
ATOM     32  H   LIG d   1       2.710   1.582  -6.501  0.00  0.00     0.027 H 
ATOM     33  H   LIG d   1       1.755  -0.743  -4.766  0.00  0.00     0.031 H 
ATOM     34  H   LIG d   1       1.582   0.994  -4.404  0.00  0.00     0.031 H 
ATOM     35  H   LIG d   1       2.953   1.511  -2.791  0.00  0.00     0.060 H 
ATOM     36  H   LIG d   1       5.436  -1.054  -2.386  0.00  0.00     0.029 H 
ATOM     37  H   LIG d   1       6.935  -0.090  -2.393  0.00  0.00     0.029 H 
ATOM     38  H   LIG d   1       6.663  -1.218  -4.560  0.00  0.00     0.028 H 
ATOM     39  H   LIG d   1       6.487   0.538  -4.765  0.00  0.00     0.028 H 
ENDROOT
BRANCH   1  40
ATOM     40  C   LIG d   1       3.907  -2.602  -8.664  0.00  0.00    -0.057 C 
ATOM     41  H   LIG d   1       4.447  -3.361  -9.232  0.00  0.00     0.024 H 
ATOM     42  H   LIG d   1       4.134  -2.712  -7.604  0.00  0.00     0.024 H 
ATOM     43  H   LIG d   1       2.835  -2.725  -8.820  0.00  0.00     0.024 H 
ENDBRANCH   1  40
BRANCH  12  44
ATOM     44  O   LIG d   1       4.244  -2.340 -11.281  0.00  0.00    -0.391 OA
ATOM     45  H   LIG d   1       3.516  -2.953 -11.117  0.00  0.00     0.210 HD
ENDBRANCH  12  44
BRANCH  22  46
ATOM     46  C   LIG d   1       4.292  -2.042  -4.800  0.00  0.00    -0.056 C 
ATOM     47  H   LIG d   1       3.527  -2.153  -4.031  0.00  0.00     0.024 H 
ATOM     48  H   LIG d   1       3.910  -2.416  -5.749  0.00  0.00     0.024 H 
ATOM     49  H   LIG d   1       5.177  -2.611  -4.516  0.00  0.00     0.024 H 
ENDBRANCH  22  46
BRANCH  18  50
ATOM     50  O   LIG d   1       4.928   1.202  -1.114  0.00  0.00    -0.388 OA
ATOM     51  H   LIG d   1       4.454   2.004  -0.853  0.00  0.00     0.210 HD
ENDBRANCH  18  50
TORSDOF 4
ENDMDL
MODEL 2
REMARK VINA RESULT:      -5.9      7.677     10.532
REMARK  4 active torsions:
REMARK  status: ('A' for Active; 'I' for Inactive)
REMARK    1  A    between atoms: C_1  and  C_2 
REMARK    2  A    between atoms: C_13  and  O_15 
REMARK    3  A    between atoms: C_20  and  O_26 
REMARK    4  A    between atoms: C_24  and  C_25 
ROOT
ATOM      1  C   LIG d   1      10.441   5.093  -3.143  0.00  0.00    -0.003 C 
ATOM      2  C   LIG d   1       9.847   3.888  -3.847  0.00  0.00    -0.045 C 
ATOM      3  C   LIG d   1      10.139   4.049  -5.347  0.00  0.00    -0.049 C 
ATOM      4  C   LIG d   1       9.575   5.357  -5.894  0.00  0.00    -0.029 C 
ATOM      5  H   LIG d   1       8.487   5.307  -5.850  0.00  0.00     0.031 H 
ATOM      6  C   LIG d   1      10.060   6.570  -5.087  0.00  0.00    -0.034 C 
ATOM      7  H   LIG d   1      11.144   6.655  -5.164  0.00  0.00     0.031 H 
ATOM      8  C   LIG d   1       9.666   6.342  -3.639  0.00  0.00    -0.030 C 
ATOM      9  H   LIG d   1       8.591   6.178  -3.561  0.00  0.00     0.031 H 
ATOM     10  C   LIG d   1      10.131   7.412  -2.644  0.00  0.00    -0.047 C 
ATOM     11  C   LIG d   1      10.123   6.653  -1.289  0.00  0.00    -0.026 C 
ATOM     12  C   LIG d   1      10.268   5.149  -1.629  0.00  0.00     0.061 C 
ATOM     13  H   LIG d   1       9.370   4.606  -1.332  0.00  0.00     0.060 H 
ATOM     14  C   LIG d   1       9.383   7.836  -5.617  0.00  0.00    -0.046 C 
ATOM     15  C   LIG d   1       9.825   8.086  -7.060  0.00  0.00    -0.031 C 
ATOM     16  C   LIG d   1       9.521   6.842  -7.878  0.00  0.00    -0.065 C 
ATOM     17  C   LIG d   1       8.857   6.980  -8.988  0.00  0.00    -0.056 C 
ATOM     18  C   LIG d   1       8.470   5.822  -9.862  0.00  0.00     0.074 C 
ATOM     19  H   LIG d   1       7.471   5.473  -9.600  0.00  0.00     0.064 H 
ATOM     20  C   LIG d   1       9.479   4.689  -9.658  0.00  0.00    -0.022 C 
ATOM     21  C   LIG d   1       9.518   4.341  -8.169  0.00  0.00    -0.041 C 
ATOM     22  C   LIG d   1      10.011   5.524  -7.355  0.00  0.00    -0.008 C 
ATOM     23  H   LIG d   1      10.309   2.974  -3.475  0.00  0.00     0.027 H 
ATOM     24  H   LIG d   1       8.770   3.855  -3.679  0.00  0.00     0.027 H 
ATOM     25  H   LIG d   1       9.692   3.215  -5.888  0.00  0.00     0.027 H 
ATOM     26  H   LIG d   1      11.218   4.035  -5.502  0.00  0.00     0.027 H 
ATOM     27  H   LIG d   1      11.137   7.754  -2.888  0.00  0.00     0.027 H 
ATOM     28  H   LIG d   1       9.432   8.247  -2.622  0.00  0.00     0.027 H 
ATOM     29  H   LIG d   1       9.182   6.829  -0.767  0.00  0.00     0.029 H 
ATOM     30  H   LIG d   1      10.960   6.979  -0.672  0.00  0.00     0.029 H 
ATOM     31  H   LIG d   1       9.667   8.686  -4.997  0.00  0.00     0.027 H 
ATOM     32  H   LIG d   1       8.300   7.710  -5.584  0.00  0.00     0.027 H 
ATOM     33  H   LIG d   1      10.895   8.290  -7.087  0.00  0.00     0.031 H 
ATOM     34  H   LIG d   1       9.279   8.936  -7.469  0.00  0.00     0.031 H 
ATOM     35  H   LIG d   1       8.553   7.973  -9.284  0.00  0.00     0.060 H 
ATOM     36  H   LIG d   1      10.466   5.013  -9.984  0.00  0.00     0.029 H 
ATOM     37  H   LIG d   1       9.171   3.815 -10.231  0.00  0.00     0.029 H 
ATOM     38  H   LIG d   1      10.188   3.495  -8.016  0.00  0.00     0.028 H 
ATOM     39  H   LIG d   1       8.516   4.070  -7.839  0.00  0.00     0.028 H 
ENDROOT
BRANCH   1  40
ATOM     40  C   LIG d   1      11.922   5.225  -3.504  0.00  0.00    -0.057 C 
ATOM     41  H   LIG d   1      12.447   5.744  -2.702  0.00  0.00     0.024 H 
ATOM     42  H   LIG d   1      12.353   4.233  -3.638  0.00  0.00     0.024 H 
ATOM     43  H   LIG d   1      12.022   5.791  -4.430  0.00  0.00     0.024 H 
ENDBRANCH   1  40
BRANCH  12  44
ATOM     44  O   LIG d   1      11.416   4.603  -0.977  0.00  0.00    -0.391 OA
ATOM     45  H   LIG d   1      11.758   5.149  -0.257  0.00  0.00     0.210 HD
ENDBRANCH  12  44
BRANCH  22  46
ATOM     46  C   LIG d   1      11.540   5.531  -7.398  0.00  0.00    -0.056 C 
ATOM     47  H   LIG d   1      11.932   5.530  -6.380  0.00  0.00     0.024 H 
ATOM     48  H   LIG d   1      11.894   4.644  -7.924  0.00  0.00     0.024 H 
ATOM     49  H   LIG d   1      11.885   6.423  -7.919  0.00  0.00     0.024 H 
ENDBRANCH  22  46
BRANCH  18  50
ATOM     50  O   LIG d   1       8.486   6.237 -11.230  0.00  0.00    -0.388 OA
ATOM     51  H   LIG d   1       9.342   6.122 -11.666  0.00  0.00     0.210 HD
ENDBRANCH  18  50
TORSDOF 4
ENDMDL
MODEL 3
REMARK VINA RESULT:      -5.9      1.656      6.043
REMARK  4 active torsions:
REMARK  status: ('A' for Active; 'I' for Inactive)
REMARK    1  A    between atoms: C_1  and  C_2 
REMARK    2  A    between atoms: C_13  and  O_15 
REMARK    3  A    between atoms: C_20  and  O_26 
REMARK    4  A    between atoms: C_24  and  C_25 
ROOT
ATOM      1  C   LIG d   1       4.351  -1.260  -4.868  0.00  0.00    -0.003 C 
ATOM      2  C   LIG d   1       4.736  -2.451  -5.725  0.00  0.00    -0.045 C 
ATOM      3  C   LIG d   1       5.317  -1.900  -7.035  0.00  0.00    -0.049 C 
ATOM      4  C   LIG d   1       4.326  -0.987  -7.752  0.00  0.00    -0.029 C 
ATOM      5  H   LIG d   1       3.480  -1.590  -8.082  0.00  0.00     0.031 H 
ATOM      6  C   LIG d   1       3.821   0.138  -6.836  0.00  0.00    -0.034 C 
ATOM      7  H   LIG d   1       4.655   0.774  -6.539  0.00  0.00     0.031 H 
ATOM      8  C   LIG d   1       3.210  -0.513  -5.609  0.00  0.00    -0.030 C 
ATOM      9  H   LIG d   1       2.426  -1.211  -5.901  0.00  0.00     0.031 H 
ATOM     10  C   LIG d   1       2.711   0.447  -4.522  0.00  0.00    -0.047 C 
ATOM     11  C   LIG d   1       2.719  -0.438  -3.246  0.00  0.00    -0.026 C 
ATOM     12  C   LIG d   1       3.742  -1.571  -3.505  0.00  0.00     0.061 C 
ATOM     13  H   LIG d   1       3.239  -2.537  -3.529  0.00  0.00     0.060 H 
ATOM     14  C   LIG d   1       2.758   0.954  -7.575  0.00  0.00    -0.046 C 
ATOM     15  C   LIG d   1       3.394   1.647  -8.782  0.00  0.00    -0.031 C 
ATOM     16  C   LIG d   1       4.062   0.590  -9.645  0.00  0.00    -0.065 C 
ATOM     17  C   LIG d   1       3.787   0.567 -10.917  0.00  0.00    -0.056 C 
ATOM     18  C   LIG d   1       4.359  -0.449 -11.862  0.00  0.00     0.074 C 
ATOM     19  H   LIG d   1       3.681  -1.298 -11.955  0.00  0.00     0.064 H 
ATOM     20  C   LIG d   1       5.707  -0.928 -11.317  0.00  0.00    -0.022 C 
ATOM     21  C   LIG d   1       5.492  -1.466  -9.902  0.00  0.00    -0.041 C 
ATOM     22  C   LIG d   1       5.007  -0.364  -8.977  0.00  0.00    -0.008 C 
ATOM     23  H   LIG d   1       5.485  -3.052  -5.210  0.00  0.00     0.027 H 
ATOM     24  H   LIG d   1       3.854  -3.057  -5.934  0.00  0.00     0.027 H 
ATOM     25  H   LIG d   1       5.571  -2.733  -7.691  0.00  0.00     0.027 H 
ATOM     26  H   LIG d   1       6.223  -1.335  -6.813  0.00  0.00     0.027 H 
ATOM     27  H   LIG d   1       3.393   1.290  -4.411  0.00  0.00     0.027 H 
ATOM     28  H   LIG d   1       1.702   0.792  -4.747  0.00  0.00     0.027 H 
ATOM     29  H   LIG d   1       1.728  -0.860  -3.079  0.00  0.00     0.029 H 
ATOM     30  H   LIG d   1       3.025   0.153  -2.382  0.00  0.00     0.029 H 
ATOM     31  H   LIG d   1       2.344   1.705  -6.902  0.00  0.00     0.027 H 
ATOM     32  H   LIG d   1       1.961   0.292  -7.914  0.00  0.00     0.027 H 
ATOM     33  H   LIG d   1       4.137   2.368  -8.443  0.00  0.00     0.031 H 
ATOM     34  H   LIG d   1       2.623   2.159  -9.360  0.00  0.00     0.031 H 
ATOM     35  H   LIG d   1       3.098   1.302 -11.306  0.00  0.00     0.060 H 
ATOM     36  H   LIG d   1       6.408  -0.094 -11.288  0.00  0.00     0.029 H 
ATOM     37  H   LIG d   1       6.102  -1.719 -11.954  0.00  0.00     0.029 H 
ATOM     38  H   LIG d   1       6.432  -1.866  -9.523  0.00  0.00     0.028 H 
ATOM     39  H   LIG d   1       4.749  -2.263  -9.932  0.00  0.00     0.028 H 
ENDROOT
BRANCH   1  40
ATOM     40  C   LIG d   1       5.556  -0.331  -4.703  0.00  0.00    -0.057 C 
ATOM     41  H   LIG d   1       6.253  -0.490  -5.527  0.00  0.00     0.024 H 
ATOM     42  H   LIG d   1       5.220   0.705  -4.707  0.00  0.00     0.024 H 
ATOM     43  H   LIG d   1       6.055  -0.547  -3.758  0.00  0.00     0.024 H 
ENDBRANCH   1  40
BRANCH  12  44
ATOM     44  O   LIG d   1       4.754  -1.563  -2.497  0.00  0.00    -0.391 OA
ATOM     45  H   LIG d   1       4.541  -2.097  -1.720  0.00  0.00     0.210 HD
ENDBRANCH  12  44
BRANCH  22  46
ATOM     46  C   LIG d   1       6.225   0.426  -8.495  0.00  0.00    -0.056 C 
ATOM     47  H   LIG d   1       6.516   1.146  -9.260  0.00  0.00     0.024 H 
ATOM     48  H   LIG d   1       5.975   0.955  -7.575  0.00  0.00     0.024 H 
ATOM     49  H   LIG d   1       7.051  -0.258  -8.306  0.00  0.00     0.024 H 
ENDBRANCH  22  46
BRANCH  18  50
ATOM     50  O   LIG d   1       4.548   0.152 -13.145  0.00  0.00    -0.388 OA
ATOM     51  H   LIG d   1       4.187   1.046 -13.218  0.00  0.00     0.210 HD
ENDBRANCH  18  50
TORSDOF 4
ENDMDL
MODEL 4
REMARK VINA RESULT:      -5.7      3.856      6.390
REMARK  4 active torsions:
REMARK  status: ('A' for Active; 'I' for Inactive)
REMARK    1  A    between atoms: C_1  and  C_2 
REMARK    2  A    between atoms: C_13  and  O_15 
REMARK    3  A    between atoms: C_20  and  O_26 
REMARK    4  A    between atoms: C_24  and  C_25 
ROOT
ATOM      1  C   LIG d   1       4.827  -0.341  -3.202  0.00  0.00    -0.003 C 
ATOM      2  C   LIG d   1       5.471   0.894  -2.601  0.00  0.00    -0.045 C 
ATOM      3  C   LIG d   1       6.567   1.354  -3.575  0.00  0.00    -0.049 C 
ATOM      4  C   LIG d   1       7.591   0.253  -3.832  0.00  0.00    -0.029 C 
ATOM      5  H   LIG d   1       8.134   0.065  -2.906  0.00  0.00     0.031 H 
ATOM      6  C   LIG d   1       6.924  -1.049  -4.300  0.00  0.00    -0.034 C 
ATOM      7  H   LIG d   1       6.417  -0.882  -5.251  0.00  0.00     0.031 H 
ATOM      8  C   LIG d   1       5.912  -1.449  -3.243  0.00  0.00    -0.030 C 
ATOM      9  H   LIG d   1       6.396  -1.543  -2.271  0.00  0.00     0.031 H 
ATOM     10  C   LIG d   1       5.073  -2.693  -3.559  0.00  0.00    -0.047 C 
ATOM     11  C   LIG d   1       3.816  -2.500  -2.667  0.00  0.00    -0.026 C 
ATOM     12  C   LIG d   1       3.700  -0.980  -2.397  0.00  0.00     0.061 C 
ATOM     13  H   LIG d   1       3.831  -0.773  -1.335  0.00  0.00     0.060 H 
ATOM     14  C   LIG d   1       7.987  -2.141  -4.443  0.00  0.00    -0.046 C 
ATOM     15  C   LIG d   1       8.974  -1.752  -5.545  0.00  0.00    -0.031 C 
ATOM     16  C   LIG d   1       9.545  -0.383  -5.218  0.00  0.00    -0.065 C 
ATOM     17  C   LIG d   1      10.837  -0.234  -5.227  0.00  0.00    -0.056 C 
ATOM     18  C   LIG d   1      11.517   1.061  -4.888  0.00  0.00     0.074 C 
ATOM     19  H   LIG d   1      11.773   1.084  -3.828  0.00  0.00     0.064 H 
ATOM     20  C   LIG d   1      10.567   2.217  -5.211  0.00  0.00    -0.022 C 
ATOM     21  C   LIG d   1       9.262   1.997  -4.446  0.00  0.00    -0.041 C 
ATOM     22  C   LIG d   1       8.578   0.721  -4.907  0.00  0.00    -0.008 C 
ATOM     23  H   LIG d   1       4.726   1.680  -2.481  0.00  0.00     0.027 H 
ATOM     24  H   LIG d   1       5.911   0.649  -1.634  0.00  0.00     0.027 H 
ATOM     25  H   LIG d   1       7.075   2.221  -3.153  0.00  0.00     0.027 H 
ATOM     26  H   LIG d   1       6.105   1.638  -4.520  0.00  0.00     0.027 H 
ATOM     27  H   LIG d   1       4.798  -2.715  -4.613  0.00  0.00     0.027 H 
ATOM     28  H   LIG d   1       5.609  -3.600  -3.280  0.00  0.00     0.027 H 
ATOM     29  H   LIG d   1       3.938  -3.039  -1.727  0.00  0.00     0.029 H 
ATOM     30  H   LIG d   1       2.928  -2.856  -3.190  0.00  0.00     0.029 H 
ATOM     31  H   LIG d   1       7.506  -3.084  -4.701  0.00  0.00     0.027 H 
ATOM     32  H   LIG d   1       8.521  -2.253  -3.498  0.00  0.00     0.027 H 
ATOM     33  H   LIG d   1       8.459  -1.715  -6.504  0.00  0.00     0.031 H 
ATOM     34  H   LIG d   1       9.781  -2.485  -5.590  0.00  0.00     0.031 H 
ATOM     35  H   LIG d   1      11.451  -1.090  -5.470  0.00  0.00     0.060 H 
ATOM     36  H   LIG d   1      10.365   2.238  -6.282  0.00  0.00     0.029 H 
ATOM     37  H   LIG d   1      11.018   3.161  -4.904  0.00  0.00     0.029 H 
ATOM     38  H   LIG d   1       8.597   2.843  -4.619  0.00  0.00     0.028 H 
ATOM     39  H   LIG d   1       9.479   1.923  -3.381  0.00  0.00     0.028 H 
ENDROOT
BRANCH   1  40
ATOM     40  C   LIG d   1       4.346  -0.034  -4.622  0.00  0.00    -0.057 C 
ATOM     41  H   LIG d   1       4.419   1.038  -4.807  0.00  0.00     0.024 H 
ATOM     42  H   LIG d   1       4.966  -0.569  -5.340  0.00  0.00     0.024 H 
ATOM     43  H   LIG d   1       3.309  -0.351  -4.731  0.00  0.00     0.024 H 
ENDBRANCH   1  40
BRANCH  12  44
ATOM     44  O   LIG d   1       2.433  -0.493  -2.844  0.00  0.00    -0.391 OA
ATOM     45  H   LIG d   1       2.427  -0.197  -3.764  0.00  0.00     0.210 HD
ENDBRANCH  12  44
BRANCH  22  46
ATOM     46  C   LIG d   1       7.786   1.036  -6.178  0.00  0.00    -0.056 C 
ATOM     47  H   LIG d   1       7.286   1.998  -6.065  0.00  0.00     0.024 H 
ATOM     48  H   LIG d   1       8.464   1.076  -7.029  0.00  0.00     0.024 H 
ATOM     49  H   LIG d   1       7.041   0.257  -6.344  0.00  0.00     0.024 H 
ENDBRANCH  22  46
BRANCH  18  50
ATOM     50  O   LIG d   1      12.708   1.188  -5.668  0.00  0.00    -0.388 OA
ATOM     51  H   LIG d   1      12.897   0.421  -6.226  0.00  0.00     0.210 HD
ENDBRANCH  18  50
TORSDOF 4
ENDMDL
MODEL 5
REMARK VINA RESULT:      -5.6      1.845      6.234
REMARK  4 active torsions:
REMARK  status: ('A' for Active; 'I' for Inactive)
REMARK    1  A    between atoms: C_1  and  C_2 
REMARK    2  A    between atoms: C_13  and  O_15 
REMARK    3  A    between atoms: C_20  and  O_26 
REMARK    4  A    between atoms: C_24  and  C_25 
ROOT
ATOM      1  C   LIG d   1       4.480  -0.421  -2.943  0.00  0.00    -0.003 C 
ATOM      2  C   LIG d   1       4.412  -1.885  -2.552  0.00  0.00    -0.045 C 
ATOM      3  C   LIG d   1       5.023  -2.694  -3.707  0.00  0.00    -0.049 C 
ATOM      4  C   LIG d   1       4.300  -2.429  -5.024  0.00  0.00    -0.029 C 
ATOM      5  H   LIG d   1       3.286  -2.821  -4.945  0.00  0.00     0.031 H 
ATOM      6  C   LIG d   1       4.238  -0.929  -5.350  0.00  0.00    -0.034 C 
ATOM      7  H   LIG d   1       5.248  -0.537  -5.477  0.00  0.00     0.031 H 
ATOM      8  C   LIG d   1       3.563  -0.236  -4.181  0.00  0.00    -0.030 C 
ATOM      9  H   LIG d   1       2.582  -0.673  -3.996  0.00  0.00     0.031 H 
ATOM     10  C   LIG d   1       3.471   1.293  -4.273  0.00  0.00    -0.047 C 
ATOM     11  C   LIG d   1       3.316   1.722  -2.788  0.00  0.00    -0.026 C 
ATOM     12  C   LIG d   1       3.922   0.578  -1.937  0.00  0.00     0.061 C 
ATOM     13  H   LIG d   1       3.148   0.109  -1.329  0.00  0.00     0.060 H 
ATOM     14  C   LIG d   1       3.416  -0.719  -6.624  0.00  0.00    -0.046 C 
ATOM     15  C   LIG d   1       4.129  -1.379  -7.806  0.00  0.00    -0.031 C 
ATOM     16  C   LIG d   1       4.371  -2.840  -7.467  0.00  0.00    -0.065 C 
ATOM     17  C   LIG d   1       3.997  -3.743  -8.326  0.00  0.00    -0.056 C 
ATOM     18  C   LIG d   1       4.152  -5.217  -8.088  0.00  0.00     0.074 C 
ATOM     19  H   LIG d   1       3.243  -5.623  -7.643  0.00  0.00     0.064 H 
ATOM     20  C   LIG d   1       5.332  -5.442  -7.138  0.00  0.00    -0.022 C 
ATOM     21  C   LIG d   1       5.081  -4.643  -5.859  0.00  0.00    -0.041 C 
ATOM     22  C   LIG d   1       5.033  -3.154  -6.158  0.00  0.00    -0.008 C 
ATOM     23  H   LIG d   1       4.983  -2.052  -1.639  0.00  0.00     0.027 H 
ATOM     24  H   LIG d   1       3.373  -2.180  -2.399  0.00  0.00     0.027 H 
ATOM     25  H   LIG d   1       4.955  -3.756  -3.472  0.00  0.00     0.027 H 
ATOM     26  H   LIG d   1       6.072  -2.420  -3.816  0.00  0.00     0.027 H 
ATOM     27  H   LIG d   1       4.384   1.708  -4.700  0.00  0.00     0.027 H 
ATOM     28  H   LIG d   1       2.600   1.592  -4.855  0.00  0.00     0.027 H 
ATOM     29  H   LIG d   1       2.261   1.850  -2.545  0.00  0.00     0.029 H 
ATOM     30  H   LIG d   1       3.858   2.650  -2.608  0.00  0.00     0.029 H 
ATOM     31  H   LIG d   1       3.308   0.348  -6.814  0.00  0.00     0.027 H 
ATOM     32  H   LIG d   1       2.430  -1.168  -6.498  0.00  0.00     0.027 H 
ATOM     33  H   LIG d   1       5.083  -0.881  -7.984  0.00  0.00     0.031 H 
ATOM     34  H   LIG d   1       3.506  -1.307  -8.698  0.00  0.00     0.031 H 
ATOM     35  H   LIG d   1       3.534  -3.416  -9.246  0.00  0.00     0.060 H 
ATOM     36  H   LIG d   1       6.253  -5.101  -7.609  0.00  0.00     0.029 H 
ATOM     37  H   LIG d   1       5.413  -6.503  -6.898  0.00  0.00     0.029 H 
ATOM     38  H   LIG d   1       5.884  -4.841  -5.149  0.00  0.00     0.028 H 
ATOM     39  H   LIG d   1       4.132  -4.952  -5.424  0.00  0.00     0.028 H 
ENDROOT
BRANCH   1  40
ATOM     40  C   LIG d   1       5.920  -0.049  -3.305  0.00  0.00    -0.057 C 
ATOM     41  H   LIG d   1       6.603  -0.787  -2.882  0.00  0.00     0.024 H 
ATOM     42  H   LIG d   1       6.030  -0.034  -4.389  0.00  0.00     0.024 H 
ATOM     43  H   LIG d   1       6.153   0.936  -2.902  0.00  0.00     0.024 H 
ENDBRANCH   1  40
BRANCH  12  44
ATOM     44  O   LIG d   1       4.968   1.083  -1.105  0.00  0.00    -0.391 OA
ATOM     45  H   LIG d   1       5.522   1.751  -1.530  0.00  0.00     0.210 HD
ENDBRANCH  12  44
BRANCH  22  46
ATOM     46  C   LIG d   1       6.469  -2.630  -6.210  0.00  0.00    -0.056 C 
ATOM     47  H   LIG d   1       7.162  -3.471  -6.233  0.00  0.00     0.024 H 
ATOM     48  H   LIG d   1       6.604  -2.024  -7.106  0.00  0.00     0.024 H 
ATOM     49  H   LIG d   1       6.666  -2.021  -5.328  0.00  0.00     0.024 H 
ENDBRANCH  22  46
BRANCH  18  50
ATOM     50  O   LIG d   1       4.407  -5.873  -9.332  0.00  0.00    -0.388 OA
ATOM     51  H   LIG d   1       5.098  -6.548  -9.287  0.00  0.00     0.210 HD
ENDBRANCH  18  50
TORSDOF 4
ENDMDL
MODEL 6
REMARK VINA RESULT:      -5.6      3.218      5.142
REMARK  4 active torsions:
REMARK  status: ('A' for Active; 'I' for Inactive)
REMARK    1  A    between atoms: C_1  and  C_2 
REMARK    2  A    between atoms: C_13  and  O_15 
REMARK    3  A    between atoms: C_20  and  O_26 
REMARK    4  A    between atoms: C_24  and  C_25 
ROOT
ATOM      1  C   LIG d   1       6.677  -4.995  -5.835  0.00  0.00    -0.003 C 
ATOM      2  C   LIG d   1       5.232  -5.144  -5.397  0.00  0.00    -0.045 C 
ATOM      3  C   LIG d   1       4.644  -3.730  -5.282  0.00  0.00    -0.049 C 
ATOM      4  C   LIG d   1       5.441  -2.865  -4.309  0.00  0.00    -0.029 C 
ATOM      5  H   LIG d   1       5.319  -3.275  -3.307  0.00  0.00     0.031 H 
ATOM      6  C   LIG d   1       6.934  -2.833  -4.666  0.00  0.00    -0.034 C 
ATOM      7  H   LIG d   1       7.069  -2.381  -5.650  0.00  0.00     0.031 H 
ATOM      8  C   LIG d   1       7.429  -4.267  -4.689  0.00  0.00    -0.030 C 
ATOM      9  H   LIG d   1       7.228  -4.752  -3.734  0.00  0.00     0.031 H 
ATOM     10  C   LIG d   1       8.892  -4.462  -5.106  0.00  0.00    -0.047 C 
ATOM     11  C   LIG d   1       8.920  -5.935  -5.598  0.00  0.00    -0.026 C 
ATOM     12  C   LIG d   1       7.470  -6.285  -6.014  0.00  0.00     0.061 C 
ATOM     13  H   LIG d   1       7.069  -7.067  -5.368  0.00  0.00     0.060 H 
ATOM     14  C   LIG d   1       7.693  -2.038  -3.601  0.00  0.00    -0.046 C 
ATOM     15  C   LIG d   1       7.223  -0.582  -3.619  0.00  0.00    -0.031 C 
ATOM     16  C   LIG d   1       5.715  -0.562  -3.438  0.00  0.00    -0.065 C 
ATOM     17  C   LIG d   1       5.214   0.211  -2.519  0.00  0.00    -0.056 C 
ATOM     18  C   LIG d   1       3.744   0.291  -2.225  0.00  0.00     0.074 C 
ATOM     19  H   LIG d   1       3.483  -0.407  -1.429  0.00  0.00     0.064 H 
ATOM     20  C   LIG d   1       2.966  -0.067  -3.494  0.00  0.00    -0.022 C 
ATOM     21  C   LIG d   1       3.419  -1.450  -3.964  0.00  0.00    -0.041 C 
ATOM     22  C   LIG d   1       4.891  -1.434  -4.337  0.00  0.00    -0.008 C 
ATOM     23  H   LIG d   1       4.677  -5.718  -6.139  0.00  0.00     0.027 H 
ATOM     24  H   LIG d   1       5.188  -5.646  -4.430  0.00  0.00     0.027 H 
ATOM     25  H   LIG d   1       3.614  -3.800  -4.933  0.00  0.00     0.027 H 
ATOM     26  H   LIG d   1       4.654  -3.259  -6.265  0.00  0.00     0.027 H 
ATOM     27  H   LIG d   1       9.156  -3.781  -5.914  0.00  0.00     0.027 H 
ATOM     28  H   LIG d   1       9.556  -4.327  -4.252  0.00  0.00     0.027 H 
ATOM     29  H   LIG d   1       9.247  -6.592  -4.792  0.00  0.00     0.029 H 
ATOM     30  H   LIG d   1       9.588  -6.032  -6.454  0.00  0.00     0.029 H 
ATOM     31  H   LIG d   1       8.762  -2.078  -3.811  0.00  0.00     0.027 H 
ATOM     32  H   LIG d   1       7.500  -2.471  -2.619  0.00  0.00     0.027 H 
ATOM     33  H   LIG d   1       7.485  -0.123  -4.572  0.00  0.00     0.031 H 
ATOM     34  H   LIG d   1       7.698  -0.033  -2.805  0.00  0.00     0.031 H 
ATOM     35  H   LIG d   1       5.891   0.809  -1.925  0.00  0.00     0.060 H 
ATOM     36  H   LIG d   1       3.173   0.669  -4.271  0.00  0.00     0.029 H 
ATOM     37  H   LIG d   1       1.898  -0.084  -3.279  0.00  0.00     0.029 H 
ATOM     38  H   LIG d   1       2.831  -1.743  -4.833  0.00  0.00     0.028 H 
ATOM     39  H   LIG d   1       3.259  -2.170  -3.162  0.00  0.00     0.028 H 
ENDROOT
BRANCH   1  40
ATOM     40  C   LIG d   1       6.746  -4.158  -7.114  0.00  0.00    -0.057 C 
ATOM     41  H   LIG d   1       6.117  -3.273  -7.004  0.00  0.00     0.024 H 
ATOM     42  H   LIG d   1       7.776  -3.850  -7.292  0.00  0.00     0.024 H 
ATOM     43  H   LIG d   1       6.393  -4.752  -7.957  0.00  0.00     0.024 H 
ENDBRANCH   1  40
BRANCH  12  44
ATOM     44  O   LIG d   1       7.434  -6.704  -7.379  0.00  0.00    -0.391 OA
ATOM     45  H   LIG d   1       7.157  -6.014  -7.996  0.00  0.00     0.210 HD
ENDBRANCH  12  44
BRANCH  22  46
ATOM     46  C   LIG d   1       5.017  -0.903  -5.767  0.00  0.00    -0.056 C 
ATOM     47  H   LIG d   1       4.778  -1.699  -6.472  0.00  0.00     0.024 H 
ATOM     48  H   LIG d   1       4.326  -0.072  -5.908  0.00  0.00     0.024 H 
ATOM     49  H   LIG d   1       6.037  -0.560  -5.938  0.00  0.00     0.024 H 
ENDBRANCH  22  46
BRANCH  18  50
ATOM     50  O   LIG d   1       3.414   1.621  -1.820  0.00  0.00    -0.388 OA
ATOM     51  H   LIG d   1       3.643   2.299  -2.471  0.00  0.00     0.210 HD
ENDBRANCH  18  50
TORSDOF 4
ENDMDL
MODEL 7
REMARK VINA RESULT:      -5.5      8.950     11.786
REMARK  4 active torsions:
REMARK  status: ('A' for Active; 'I' for Inactive)
REMARK    1  A    between atoms: C_1  and  C_2 
REMARK    2  A    between atoms: C_13  and  O_15 
REMARK    3  A    between atoms: C_20  and  O_26 
REMARK    4  A    between atoms: C_24  and  C_25 
ROOT
ATOM      1  C   LIG d   1      10.779   5.898  -1.834  0.00  0.00    -0.003 C 
ATOM      2  C   LIG d   1       9.950   4.982  -2.714  0.00  0.00    -0.045 C 
ATOM      3  C   LIG d   1      10.253   5.357  -4.173  0.00  0.00    -0.049 C 
ATOM      4  C   LIG d   1       9.953   6.828  -4.451  0.00  0.00    -0.029 C 
ATOM      5  H   LIG d   1       8.878   6.981  -4.365  0.00  0.00     0.031 H 
ATOM      6  C   LIG d   1      10.677   7.754  -3.463  0.00  0.00    -0.034 C 
ATOM      7  H   LIG d   1      11.756   7.641  -3.574  0.00  0.00     0.031 H 
ATOM      8  C   LIG d   1      10.261   7.343  -2.063  0.00  0.00    -0.030 C 
ATOM      9  H   LIG d   1       9.176   7.379  -1.965  0.00  0.00     0.031 H 
ATOM     10  C   LIG d   1      10.939   8.101  -0.915  0.00  0.00    -0.047 C 
ATOM     11  C   LIG d   1      10.796   7.121   0.281  0.00  0.00    -0.026 C 
ATOM     12  C   LIG d   1      10.636   5.707  -0.328  0.00  0.00     0.061 C 
ATOM     13  H   LIG d   1       9.652   5.302  -0.091  0.00  0.00     0.060 H 
ATOM     14  C   LIG d   1      10.259   9.203  -3.726  0.00  0.00    -0.046 C 
ATOM     15  C   LIG d   1      10.726   9.624  -5.121  0.00  0.00    -0.031 C 
ATOM     16  C   LIG d   1      10.173   8.635  -6.132  0.00  0.00    -0.065 C 
ATOM     17  C   LIG d   1       9.539   9.101  -7.168  0.00  0.00    -0.056 C 
ATOM     18  C   LIG d   1       8.920   8.221  -8.216  0.00  0.00     0.074 C 
ATOM     19  H   LIG d   1       7.875   8.029  -7.974  0.00  0.00     0.064 H 
ATOM     20  C   LIG d   1       9.687   6.897  -8.264  0.00  0.00    -0.022 C 
ATOM     21  C   LIG d   1       9.672   6.279  -6.865  0.00  0.00    -0.041 C 
ATOM     22  C   LIG d   1      10.398   7.174  -5.876  0.00  0.00    -0.008 C 
ATOM     23  H   LIG d   1      10.226   3.944  -2.533  0.00  0.00     0.027 H 
ATOM     24  H   LIG d   1       8.890   5.126  -2.505  0.00  0.00     0.027 H 
ATOM     25  H   LIG d   1       9.644   4.740  -4.833  0.00  0.00     0.027 H 
ATOM     26  H   LIG d   1      11.306   5.165  -4.379  0.00  0.00     0.027 H 
ATOM     27  H   LIG d   1      11.991   8.282  -1.141  0.00  0.00     0.027 H 
ATOM     28  H   LIG d   1      10.420   9.037  -0.712  0.00  0.00     0.027 H 
ATOM     29  H   LIG d   1       9.914   7.377   0.869  0.00  0.00     0.029 H 
ATOM     30  H   LIG d   1      11.687   7.160   0.907  0.00  0.00     0.029 H 
ATOM     31  H   LIG d   1      10.713   9.853  -2.978  0.00  0.00     0.027 H 
ATOM     32  H   LIG d   1       9.173   9.284  -3.666  0.00  0.00     0.027 H 
ATOM     33  H   LIG d   1      11.816   9.620  -5.160  0.00  0.00     0.031 H 
ATOM     34  H   LIG d   1      10.356  10.625  -5.345  0.00  0.00     0.031 H 
ATOM     35  H   LIG d   1       9.434  10.172  -7.267  0.00  0.00     0.060 H 
ATOM     36  H   LIG d   1      10.716   7.079  -8.573  0.00  0.00     0.029 H 
ATOM     37  H   LIG d   1       9.206   6.219  -8.970  0.00  0.00     0.029 H 
ATOM     38  H   LIG d   1      10.162   5.307  -6.897  0.00  0.00     0.028 H 
ATOM     39  H   LIG d   1       8.639   6.150  -6.542  0.00  0.00     0.028 H 
ENDROOT
BRANCH   1  40
ATOM     40  C   LIG d   1      12.253   5.807  -2.235  0.00  0.00    -0.057 C 
ATOM     41  H   LIG d   1      12.340   5.261  -3.175  0.00  0.00     0.024 H 
ATOM     42  H   LIG d   1      12.659   6.810  -2.359  0.00  0.00     0.024 H 
ATOM     43  H   LIG d   1      12.809   5.283  -1.458  0.00  0.00     0.024 H 
ENDBRANCH   1  40
BRANCH  12  44
ATOM     44  O   LIG d   1      11.660   4.839   0.161  0.00  0.00    -0.391 OA
ATOM     45  H   LIG d   1      11.489   3.900   0.006  0.00  0.00     0.210 HD
ENDBRANCH  12  44
BRANCH  22  46
ATOM     46  C   LIG d   1      11.898   6.893  -5.989  0.00  0.00    -0.056 C 
ATOM     47  H   LIG d   1      12.065   5.816  -6.015  0.00  0.00     0.024 H 
ATOM     48  H   LIG d   1      12.285   7.343  -6.903  0.00  0.00     0.024 H 
ATOM     49  H   LIG d   1      12.413   7.320  -5.129  0.00  0.00     0.024 H 
ENDBRANCH  22  46
BRANCH  18  50
ATOM     50  O   LIG d   1       9.004   8.869  -9.487  0.00  0.00    -0.388 OA
ATOM     51  H   LIG d   1       9.188   8.270 -10.223  0.00  0.00     0.210 HD
ENDBRANCH  18  50
TORSDOF 4
ENDMDL
MODEL 8
REMARK VINA RESULT:      -5.5      8.189     11.946
REMARK  4 active torsions:
REMARK  status: ('A' for Active; 'I' for Inactive)
REMARK    1  A    between atoms: C_1  and  C_2 
REMARK    2  A    between atoms: C_13  and  O_15 
REMARK    3  A    between atoms: C_20  and  O_26 
REMARK    4  A    between atoms: C_24  and  C_25 
ROOT
ATOM      1  C   LIG d   1      11.532   7.515   0.344  0.00  0.00    -0.003 C 
ATOM      2  C   LIG d   1      11.323   6.085   0.805  0.00  0.00    -0.045 C 
ATOM      3  C   LIG d   1      11.482   5.182  -0.429  0.00  0.00    -0.049 C 
ATOM      4  C   LIG d   1      10.505   5.565  -1.537  0.00  0.00    -0.029 C 
ATOM      5  H   LIG d   1       9.493   5.352  -1.192  0.00  0.00     0.031 H 
ATOM      6  C   LIG d   1      10.612   7.054  -1.902  0.00  0.00    -0.034 C 
ATOM      7  H   LIG d   1      11.608   7.267  -2.292  0.00  0.00     0.031 H 
ATOM      8  C   LIG d   1      10.377   7.853  -0.635  0.00  0.00    -0.030 C 
ATOM      9  H   LIG d   1       9.415   7.590  -0.194  0.00  0.00     0.031 H 
ATOM     10  C   LIG d   1      10.520   9.374  -0.768  0.00  0.00    -0.047 C 
ATOM     11  C   LIG d   1      10.816   9.825   0.688  0.00  0.00    -0.026 C 
ATOM     12  C   LIG d   1      11.418   8.596   1.413  0.00  0.00     0.061 C 
ATOM     13  H   LIG d   1      10.755   8.267   2.214  0.00  0.00     0.060 H 
ATOM     14  C   LIG d   1       9.543   7.399  -2.941  0.00  0.00    -0.046 C 
ATOM     15  C   LIG d   1       9.817   6.626  -4.233  0.00  0.00    -0.031 C 
ATOM     16  C   LIG d   1       9.890   5.145  -3.900  0.00  0.00    -0.065 C 
ATOM     17  C   LIG d   1       9.168   4.319  -4.599  0.00  0.00    -0.056 C 
ATOM     18  C   LIG d   1       9.132   2.840  -4.342  0.00  0.00     0.074 C 
ATOM     19  H   LIG d   1       8.310   2.597  -3.669  0.00  0.00     0.064 H 
ATOM     20  C   LIG d   1      10.459   2.417  -3.705  0.00  0.00    -0.022 C 
ATOM     21  C   LIG d   1      10.673   3.249  -2.441  0.00  0.00    -0.041 C 
ATOM     22  C   LIG d   1      10.799   4.724  -2.784  0.00  0.00    -0.008 C 
ATOM     23  H   LIG d   1      12.070   5.823   1.555  0.00  0.00     0.027 H 
ATOM     24  H   LIG d   1      10.323   5.972   1.222  0.00  0.00     0.027 H 
ATOM     25  H   LIG d   1      11.301   4.147  -0.138  0.00  0.00     0.027 H 
ATOM     26  H   LIG d   1      12.500   5.272  -0.806  0.00  0.00     0.027 H 
ATOM     27  H   LIG d   1      11.351   9.627  -1.426  0.00  0.00     0.027 H 
ATOM     28  H   LIG d   1       9.592   9.818  -1.129  0.00  0.00     0.027 H 
ATOM     29  H   LIG d   1       9.892  10.133   1.179  0.00  0.00     0.029 H 
ATOM     30  H   LIG d   1      11.531  10.647   0.688  0.00  0.00     0.029 H 
ATOM     31  H   LIG d   1       9.568   8.469  -3.146  0.00  0.00     0.027 H 
ATOM     32  H   LIG d   1       8.560   7.126  -2.555  0.00  0.00     0.027 H 
ATOM     33  H   LIG d   1      10.763   6.953  -4.663  0.00  0.00     0.031 H 
ATOM     34  H   LIG d   1       9.010   6.803  -4.945  0.00  0.00     0.031 H 
ATOM     35  H   LIG d   1       8.549   4.720  -5.389  0.00  0.00     0.060 H 
ATOM     36  H   LIG d   1      11.275   2.596  -4.404  0.00  0.00     0.029 H 
ATOM     37  H   LIG d   1      10.421   1.359  -3.446  0.00  0.00     0.029 H 
ATOM     38  H   LIG d   1      11.585   2.918  -1.943  0.00  0.00     0.028 H 
ATOM     39  H   LIG d   1       9.826   3.107  -1.770  0.00  0.00     0.028 H 
ENDROOT
BRANCH   1  40
ATOM     40  C   LIG d   1      12.876   7.634  -0.379  0.00  0.00    -0.057 C 
ATOM     41  H   LIG d   1      13.402   6.680  -0.327  0.00  0.00     0.024 H 
ATOM     42  H   LIG d   1      12.705   7.898  -1.422  0.00  0.00     0.024 H 
ATOM     43  H   LIG d   1      13.478   8.408   0.097  0.00  0.00     0.024 H 
ENDBRANCH   1  40
BRANCH  12  44
ATOM     44  O   LIG d   1      12.709   8.915   1.936  0.00  0.00    -0.391 OA
ATOM     45  H   LIG d   1      13.438   8.471   1.484  0.00  0.00     0.210 HD
ENDBRANCH  12  44
BRANCH  22  46
ATOM     46  C   LIG d   1      12.242   4.994  -3.212  0.00  0.00    -0.056 C 
ATOM     47  H   LIG d   1      12.322   4.907  -4.296  0.00  0.00     0.024 H 
ATOM     48  H   LIG d   1      12.530   6.000  -2.907  0.00  0.00     0.024 H 
ATOM     49  H   LIG d   1      12.904   4.269  -2.740  0.00  0.00     0.024 H 
ENDBRANCH  22  46
BRANCH  18  50
ATOM     50  O   LIG d   1       8.954   2.149  -5.581  0.00  0.00    -0.388 OA
ATOM     51  H   LIG d   1       8.806   1.198  -5.483  0.00  0.00     0.210 HD
ENDBRANCH  18  50
TORSDOF 4
ENDMDL
MODEL 9
REMARK VINA RESULT:      -5.4      3.732      5.945
REMARK  4 active torsions:
REMARK  status: ('A' for Active; 'I' for Inactive)
REMARK    1  A    between atoms: C_1  and  C_2 
REMARK    2  A    between atoms: C_13  and  O_15 
REMARK    3  A    between atoms: C_20  and  O_26 
REMARK    4  A    between atoms: C_24  and  C_25 
ROOT
ATOM      1  C   LIG d   1       5.428  -1.663  -4.561  0.00  0.00    -0.003 C 
ATOM      2  C   LIG d   1       5.442  -1.493  -6.068  0.00  0.00    -0.045 C 
ATOM      3  C   LIG d   1       6.822  -0.934  -6.449  0.00  0.00    -0.049 C 
ATOM      4  C   LIG d   1       7.116   0.380  -5.732  0.00  0.00    -0.029 C 
ATOM      5  H   LIG d   1       6.423   1.136  -6.101  0.00  0.00     0.031 H 
ATOM      6  C   LIG d   1       6.956   0.247  -4.210  0.00  0.00    -0.034 C 
ATOM      7  H   LIG d   1       7.678  -0.474  -3.825  0.00  0.00     0.031 H 
ATOM      8  C   LIG d   1       5.547  -0.246  -3.940  0.00  0.00    -0.030 C 
ATOM      9  H   LIG d   1       4.818   0.429  -4.388  0.00  0.00     0.031 H 
ATOM     10  C   LIG d   1       5.206  -0.521  -2.470  0.00  0.00    -0.047 C 
ATOM     11  C   LIG d   1       4.019  -1.517  -2.569  0.00  0.00    -0.026 C 
ATOM     12  C   LIG d   1       4.142  -2.208  -3.950  0.00  0.00     0.061 C 
ATOM     13  H   LIG d   1       3.288  -1.953  -4.578  0.00  0.00     0.060 H 
ATOM     14  C   LIG d   1       7.163   1.616  -3.557  0.00  0.00    -0.046 C 
ATOM     15  C   LIG d   1       8.601   2.082  -3.792  0.00  0.00    -0.031 C 
ATOM     16  C   LIG d   1       8.872   2.071  -5.286  0.00  0.00    -0.065 C 
ATOM     17  C   LIG d   1       9.370   3.142  -5.831  0.00  0.00    -0.056 C 
ATOM     18  C   LIG d   1       9.648   3.261  -7.302  0.00  0.00     0.074 C 
ATOM     19  H   LIG d   1       8.791   3.703  -7.811  0.00  0.00     0.064 H 
ATOM     20  C   LIG d   1       9.917   1.865  -7.869  0.00  0.00    -0.022 C 
ATOM     21  C   LIG d   1       8.715   0.975  -7.547  0.00  0.00    -0.041 C 
ATOM     22  C   LIG d   1       8.551   0.818  -6.046  0.00  0.00    -0.008 C 
ATOM     23  H   LIG d   1       5.285  -2.457  -6.552  0.00  0.00     0.027 H 
ATOM     24  H   LIG d   1       4.661  -0.795  -6.369  0.00  0.00     0.027 H 
ATOM     25  H   LIG d   1       6.852  -0.766  -7.526  0.00  0.00     0.027 H 
ATOM     26  H   LIG d   1       7.586  -1.663  -6.182  0.00  0.00     0.027 H 
ATOM     27  H   LIG d   1       6.052  -0.980  -1.958  0.00  0.00     0.027 H 
ATOM     28  H   LIG d   1       4.900   0.396  -1.967  0.00  0.00     0.027 H 
ATOM     29  H   LIG d   1       3.073  -0.979  -2.504  0.00  0.00     0.029 H 
ATOM     30  H   LIG d   1       4.084  -2.259  -1.773  0.00  0.00     0.029 H 
ATOM     31  H   LIG d   1       6.976   1.539  -2.486  0.00  0.00     0.027 H 
ATOM     32  H   LIG d   1       6.471   2.336  -3.995  0.00  0.00     0.027 H 
ATOM     33  H   LIG d   1       9.293   1.407  -3.288  0.00  0.00     0.031 H 
ATOM     34  H   LIG d   1       8.727   3.093  -3.403  0.00  0.00     0.031 H 
ATOM     35  H   LIG d   1       9.574   3.993  -5.198  0.00  0.00     0.060 H 
ATOM     36  H   LIG d   1      10.814   1.449  -7.411  0.00  0.00     0.029 H 
ATOM     37  H   LIG d   1      10.050   1.925  -8.949  0.00  0.00     0.029 H 
ATOM     38  H   LIG d   1       8.866  -0.007  -7.997  0.00  0.00     0.028 H 
ATOM     39  H   LIG d   1       7.814   1.426  -7.962  0.00  0.00     0.028 H 
ENDROOT
BRANCH   1  40
ATOM     40  C   LIG d   1       6.618  -2.521  -4.126  0.00  0.00    -0.057 C 
ATOM     41  H   LIG d   1       6.533  -2.748  -3.063  0.00  0.00     0.024 H 
ATOM     42  H   LIG d   1       6.625  -3.449  -4.696  0.00  0.00     0.024 H 
ATOM     43  H   LIG d   1       7.545  -1.976  -4.308  0.00  0.00     0.024 H 
ENDBRANCH   1  40
BRANCH  12  44
ATOM     44  O   LIG d   1       4.232  -3.625  -3.788  0.00  0.00    -0.391 OA
ATOM     45  H   LIG d   1       4.996  -3.915  -3.271  0.00  0.00     0.210 HD
ENDBRANCH  12  44
BRANCH  22  46
ATOM     46  C   LIG d   1       9.500  -0.285  -5.573  0.00  0.00    -0.056 C 
ATOM     47  H   LIG d   1       9.545  -0.283  -4.484  0.00  0.00     0.024 H 
ATOM     48  H   LIG d   1       9.137  -1.252  -5.920  0.00  0.00     0.024 H 
ATOM     49  H   LIG d   1      10.496  -0.106  -5.978  0.00  0.00     0.024 H 
ENDBRANCH  22  46
BRANCH  18  50
ATOM     50  O   LIG d   1      10.798   4.087  -7.500  0.00  0.00    -0.388 OA
ATOM     51  H   LIG d   1      10.701   4.732  -8.214  0.00  0.00     0.210 HD
ENDBRANCH  18  50
TORSDOF 4
ENDMDL
MODEL 10
REMARK VINA RESULT:      -5.4      3.132      6.126
REMARK  4 active torsions:
REMARK  status: ('A' for Active; 'I' for Inactive)
REMARK    1  A    between atoms: C_1  and  C_2 
REMARK    2  A    between atoms: C_13  and  O_15 
REMARK    3  A    between atoms: C_20  and  O_26 
REMARK    4  A    between atoms: C_24  and  C_25 
ROOT
ATOM      1  C   LIG d   1       4.463  -0.541  -3.370  0.00  0.00    -0.003 C 
ATOM      2  C   LIG d   1       4.958  -1.668  -2.483  0.00  0.00    -0.045 C 
ATOM      3  C   LIG d   1       6.312  -2.126  -3.045  0.00  0.00    -0.049 C 
ATOM      4  C   LIG d   1       6.199  -2.565  -4.502  0.00  0.00    -0.029 C 
ATOM      5  H   LIG d   1       5.587  -3.465  -4.544  0.00  0.00     0.031 H 
ATOM      6  C   LIG d   1       5.559  -1.477  -5.377  0.00  0.00    -0.034 C 
ATOM      7  H   LIG d   1       6.189  -0.587  -5.379  0.00  0.00     0.031 H 
ATOM      8  C   LIG d   1       4.206  -1.145  -4.776  0.00  0.00    -0.030 C 
ATOM      9  H   LIG d   1       3.595  -2.044  -4.698  0.00  0.00     0.031 H 
ATOM     10  C   LIG d   1       3.429  -0.014  -5.462  0.00  0.00    -0.047 C 
ATOM     11  C   LIG d   1       2.465   0.472  -4.346  0.00  0.00    -0.026 C 
ATOM     12  C   LIG d   1       3.118   0.074  -2.999  0.00  0.00     0.061 C 
ATOM     13  H   LIG d   1       2.498  -0.657  -2.480  0.00  0.00     0.060 H 
ATOM     14  C   LIG d   1       5.379  -2.010  -6.800  0.00  0.00    -0.046 C 
ATOM     15  C   LIG d   1       6.750  -2.295  -7.416  0.00  0.00    -0.031 C 
ATOM     16  C   LIG d   1       7.502  -3.244  -6.498  0.00  0.00    -0.065 C 
ATOM     17  C   LIG d   1       8.027  -4.316  -7.015  0.00  0.00    -0.056 C 
ATOM     18  C   LIG d   1       8.764  -5.342  -6.203  0.00  0.00     0.074 C 
ATOM     19  H   LIG d   1       8.080  -6.131  -5.887  0.00  0.00     0.064 H 
ATOM     20  C   LIG d   1       9.363  -4.660  -4.970  0.00  0.00    -0.022 C 
ATOM     21  C   LIG d   1       8.233  -3.973  -4.202  0.00  0.00    -0.041 C 
ATOM     22  C   LIG d   1       7.597  -2.882  -5.045  0.00  0.00    -0.008 C 
ATOM     23  H   LIG d   1       5.082  -1.310  -1.462  0.00  0.00     0.027 H 
ATOM     24  H   LIG d   1       4.247  -2.495  -2.503  0.00  0.00     0.027 H 
ATOM     25  H   LIG d   1       6.679  -2.963  -2.450  0.00  0.00     0.027 H 
ATOM     26  H   LIG d   1       7.023  -1.303  -2.976  0.00  0.00     0.027 H 
ATOM     27  H   LIG d   1       4.103   0.787  -5.765  0.00  0.00     0.027 H 
ATOM     28  H   LIG d   1       2.871  -0.394  -6.317  0.00  0.00     0.027 H 
ATOM     29  H   LIG d   1       1.496  -0.018  -4.451  0.00  0.00     0.029 H 
ATOM     30  H   LIG d   1       2.345   1.554  -4.399  0.00  0.00     0.029 H 
ATOM     31  H   LIG d   1       4.857  -1.268  -7.403  0.00  0.00     0.027 H 
ATOM     32  H   LIG d   1       4.795  -2.931  -6.772  0.00  0.00     0.027 H 
ATOM     33  H   LIG d   1       7.308  -1.364  -7.519  0.00  0.00     0.031 H 
ATOM     34  H   LIG d   1       6.624  -2.756  -8.396  0.00  0.00     0.031 H 
ATOM     35  H   LIG d   1       7.911  -4.485  -8.075  0.00  0.00     0.060 H 
ATOM     36  H   LIG d   1      10.097  -3.918  -5.281  0.00  0.00     0.029 H 
ATOM     37  H   LIG d   1       9.839  -5.405  -4.332  0.00  0.00     0.029 H 
ATOM     38  H   LIG d   1       8.635  -3.534  -3.289  0.00  0.00     0.028 H 
ATOM     39  H   LIG d   1       7.476  -4.712  -3.942  0.00  0.00     0.028 H 
ENDROOT
BRANCH   1  40
ATOM     40  C   LIG d   1       5.530   0.551  -3.462  0.00  0.00    -0.057 C 
ATOM     41  H   LIG d   1       5.167   1.362  -4.095  0.00  0.00     0.024 H 
ATOM     42  H   LIG d   1       5.742   0.937  -2.465  0.00  0.00     0.024 H 
ATOM     43  H   LIG d   1       6.441   0.135  -3.891  0.00  0.00     0.024 H 
ENDBRANCH   1  40
BRANCH  12  44
ATOM     44  O   LIG d   1       3.310   1.231  -2.183  0.00  0.00    -0.391 OA
ATOM     45  H   LIG d   1       2.488   1.647  -1.889  0.00  0.00     0.210 HD
ENDBRANCH  12  44
BRANCH  22  46
ATOM     46  C   LIG d   1       8.454  -1.621  -4.921  0.00  0.00    -0.056 C 
ATOM     47  H   LIG d   1       8.653  -1.419  -3.868  0.00  0.00     0.024 H 
ATOM     48  H   LIG d   1       9.397  -1.768  -5.447  0.00  0.00     0.024 H 
ATOM     49  H   LIG d   1       7.923  -0.776  -5.359  0.00  0.00     0.024 H 
ENDBRANCH  22  46
BRANCH  18  50
ATOM     50  O   LIG d   1       9.812  -5.908  -6.993  0.00  0.00    -0.388 OA
ATOM     51  H   LIG d   1       9.750  -5.700  -7.936  0.00  0.00     0.210 HD
ENDBRANCH  18  50
TORSDOF 4
ENDMDL
