MODEL 1
REMARK VINA RESULT:      -7.8      0.000      0.000
REMARK  5 active torsions:
REMARK  status: ('A' for Active; 'I' for Inactive)
REMARK    1  A    between atoms: C_1  and  O_2 
REMARK    2  A    between atoms: O_2  and  C_3 
REMARK    3  A    between atoms: C_7  and  N_9 
REMARK    4  A    between atoms: N_9  and  C_10 
REMARK    5  A    between atoms: C_12  and  C_20 
ROOT
ATOM      1  C   LIG d   1       4.373  -1.105  -5.591  0.00  0.00     0.221 A 
ATOM      2  C   LIG d   1       5.380  -2.107  -5.570  0.00  0.00     0.053 A 
ATOM      3  C   LIG d   1       6.145  -2.262  -4.460  0.00  0.00     0.142 A 
ATOM      4  O   LIG d   1       5.991  -1.500  -3.362  0.00  0.00    -0.454 OA
ATOM      5  C   LIG d   1       5.062  -0.523  -3.285  0.00  0.00     0.142 A 
ATOM      6  C   LIG d   1       4.220  -0.272  -4.379  0.00  0.00     0.088 A 
ATOM      7  C   LIG d   1       3.263   0.736  -4.310  0.00  0.00    -0.045 A 
ATOM      8  C   LIG d   1       3.151   1.492  -3.162  0.00  0.00    -0.061 A 
ATOM      9  C   LIG d   1       3.985   1.249  -2.082  0.00  0.00    -0.058 A 
ATOM     10  C   LIG d   1       4.930   0.244  -2.135  0.00  0.00    -0.018 A 
ATOM     11  H   LIG d   1       5.537  -2.740  -6.431  0.00  0.00     0.072 H 
ATOM     12  H   LIG d   1       2.613   0.926  -5.152  0.00  0.00     0.063 H 
ATOM     13  H   LIG d   1       2.410   2.276  -3.103  0.00  0.00     0.062 H 
ATOM     14  H   LIG d   1       3.890   1.846  -1.187  0.00  0.00     0.062 H 
ATOM     15  H   LIG d   1       5.576   0.063  -1.287  0.00  0.00     0.065 H 
ENDROOT
BRANCH   1  16
ATOM     16  N   LIG d   1       3.607  -0.922  -6.655  0.00  0.00    -0.204 N 
ATOM     17  H   LIG d   1       2.879  -1.534  -6.840  0.00  0.00     0.454 HD
BRANCH  16  18
ATOM     18  C   LIG d   1       3.844   0.130  -7.492  0.00  0.00     0.210 A 
ATOM     19  C   LIG d   1       2.832   1.057  -7.757  0.00  0.00     0.010 A 
ATOM     20  C   LIG d   1       3.076   2.119  -8.604  0.00  0.00    -0.052 A 
ATOM     21  H   LIG d   1       1.861   0.943  -7.300  0.00  0.00     0.068 H 
ATOM     22  C   LIG d   1       4.318   2.269  -9.193  0.00  0.00    -0.019 A 
ATOM     23  H   LIG d   1       2.293   2.835  -8.808  0.00  0.00     0.062 H 
ATOM     24  C   LIG d   1       5.330   1.353  -8.936  0.00  0.00     0.126 A 
ATOM     25  H   LIG d   1       4.502   3.102  -9.854  0.00  0.00     0.065 H 
ATOM     26  C   LIG d   1       5.097   0.281  -8.092  0.00  0.00     0.051 A 
ATOM     27  H   LIG d   1       5.883  -0.435  -7.896  0.00  0.00     0.072 H 
BRANCH  24  28
ATOM     28  O   LIG d   1       6.549   1.505  -9.518  0.00  0.00    -0.495 OA
BRANCH  28  29
ATOM     29  C   LIG d   1       7.540   2.211  -8.769  0.00  0.00     0.079 C 
ATOM     30  H   LIG d   1       8.279   2.632  -9.451  0.00  0.00     0.066 H 
ATOM     31  H   LIG d   1       7.067   3.014  -8.205  0.00  0.00     0.066 H 
ATOM     32  H   LIG d   1       8.031   1.524  -8.079  0.00  0.00     0.066 H 
ENDBRANCH  28  29
ENDBRANCH  24  28
ENDBRANCH  16  18
ENDBRANCH   1  16
BRANCH   3  33
ATOM     33  C   LIG d   1       7.186  -3.308  -4.456  0.00  0.00     0.021 A 
ATOM     34  C   LIG d   1       8.299  -3.185  -3.619  0.00  0.00    -0.005 A 
ATOM     35  C   LIG d   1       9.269  -4.170  -3.616  0.00  0.00     0.167 A 
ATOM     36  H   LIG d   1       8.399  -2.325  -2.974  0.00  0.00     0.066 H 
ATOM     37  C   LIG d   1       9.141  -5.278  -4.454  0.00  0.00     0.166 A 
ATOM     38  O   LIG d   1      10.428  -4.292  -2.906  0.00  0.00    -0.453 OA
ATOM     39  C   LIG d   1       8.037  -5.395  -5.288  0.00  0.00    -0.015 A 
ATOM     40  O   LIG d   1      10.221  -6.091  -4.267  0.00  0.00    -0.453 OA
ATOM     41  C   LIG d   1       7.064  -4.420  -5.292  0.00  0.00    -0.047 A 
ATOM     42  H   LIG d   1       7.942  -6.255  -5.935  0.00  0.00     0.066 H 
ATOM     43  H   LIG d   1       6.207  -4.515  -5.943  0.00  0.00     0.063 H 
ATOM     44  C   LIG d   1      10.802  -5.677  -3.016  0.00  0.00     0.233 C 
ATOM     45  H   LIG d   1      11.886  -5.781  -3.047  0.00  0.00     0.117 H 
ATOM     46  H   LIG d   1      10.384  -6.254  -2.192  0.00  0.00     0.117 H 
ENDBRANCH   3  33
TORSDOF 5
ENDMDL
MODEL 2
REMARK VINA RESULT:      -7.6      2.997      3.747
REMARK  5 active torsions:
REMARK  status: ('A' for Active; 'I' for Inactive)
REMARK    1  A    between atoms: C_1  and  O_2 
REMARK    2  A    between atoms: O_2  and  C_3 
REMARK    3  A    between atoms: C_7  and  N_9 
REMARK    4  A    between atoms: N_9  and  C_10 
REMARK    5  A    between atoms: C_12  and  C_20 
ROOT
ATOM      1  C   LIG d   1       4.932  -1.074  -5.887  0.00  0.00     0.221 A 
ATOM      2  C   LIG d   1       4.872  -2.385  -6.429  0.00  0.00     0.053 A 
ATOM      3  C   LIG d   1       4.600  -3.434  -5.613  0.00  0.00     0.142 A 
ATOM      4  O   LIG d   1       4.381  -3.287  -4.294  0.00  0.00    -0.454 OA
ATOM      5  C   LIG d   1       4.416  -2.082  -3.685  0.00  0.00     0.142 A 
ATOM      6  C   LIG d   1       4.695  -0.929  -4.434  0.00  0.00     0.088 A 
ATOM      7  C   LIG d   1       4.737   0.316  -3.814  0.00  0.00    -0.045 A 
ATOM      8  C   LIG d   1       4.510   0.409  -2.457  0.00  0.00    -0.061 A 
ATOM      9  C   LIG d   1       4.240  -0.729  -1.714  0.00  0.00    -0.058 A 
ATOM     10  C   LIG d   1       4.183  -1.968  -2.321  0.00  0.00    -0.018 A 
ATOM     11  H   LIG d   1       5.042  -2.547  -7.484  0.00  0.00     0.072 H 
ATOM     12  H   LIG d   1       4.949   1.203  -4.393  0.00  0.00     0.063 H 
ATOM     13  H   LIG d   1       4.543   1.374  -1.971  0.00  0.00     0.062 H 
ATOM     14  H   LIG d   1       4.063  -0.646  -0.652  0.00  0.00     0.062 H 
ATOM     15  H   LIG d   1       3.972  -2.849  -1.732  0.00  0.00     0.065 H 
ENDROOT
BRANCH   1  16
ATOM     16  N   LIG d   1       5.196  -0.025  -6.650  0.00  0.00    -0.204 N 
ATOM     17  H   LIG d   1       5.874   0.613  -6.381  0.00  0.00     0.454 HD
BRANCH  16  18
ATOM     18  C   LIG d   1       4.512   0.157  -7.817  0.00  0.00     0.210 A 
ATOM     19  C   LIG d   1       3.153   0.483  -7.791  0.00  0.00     0.010 A 
ATOM     20  C   LIG d   1       2.466   0.667  -8.974  0.00  0.00    -0.052 A 
ATOM     21  H   LIG d   1       2.641   0.593  -6.847  0.00  0.00     0.068 H 
ATOM     22  C   LIG d   1       3.116   0.527 -10.185  0.00  0.00    -0.019 A 
ATOM     23  H   LIG d   1       1.416   0.919  -8.952  0.00  0.00     0.062 H 
ATOM     24  C   LIG d   1       4.467   0.203 -10.222  0.00  0.00     0.126 A 
ATOM     25  H   LIG d   1       2.573   0.672 -11.107  0.00  0.00     0.065 H 
ATOM     26  C   LIG d   1       5.166   0.012  -9.044  0.00  0.00     0.051 A 
ATOM     27  H   LIG d   1       6.216  -0.244  -9.072  0.00  0.00     0.072 H 
BRANCH  24  28
ATOM     28  O   LIG d   1       5.101   0.067 -11.417  0.00  0.00    -0.495 OA
BRANCH  28  29
ATOM     29  C   LIG d   1       4.298  -0.316 -12.536  0.00  0.00     0.079 C 
ATOM     30  H   LIG d   1       3.408   0.311 -12.575  0.00  0.00     0.066 H 
ATOM     31  H   LIG d   1       4.871  -0.192 -13.454  0.00  0.00     0.066 H 
ATOM     32  H   LIG d   1       4.004  -1.361 -12.430  0.00  0.00     0.066 H 
ENDBRANCH  28  29
ENDBRANCH  24  28
ENDBRANCH  16  18
ENDBRANCH   1  16
BRANCH   3  33
ATOM     33  C   LIG d   1       4.541  -4.789  -6.195  0.00  0.00     0.021 A 
ATOM     34  C   LIG d   1       4.968  -5.890  -5.448  0.00  0.00    -0.005 A 
ATOM     35  C   LIG d   1       4.907  -7.158  -5.995  0.00  0.00     0.167 A 
ATOM     36  H   LIG d   1       5.342  -5.752  -4.444  0.00  0.00     0.066 H 
ATOM     37  C   LIG d   1       4.430  -7.335  -7.294  0.00  0.00     0.166 A 
ATOM     38  O   LIG d   1       5.251  -8.378  -5.487  0.00  0.00    -0.453 OA
ATOM     39  C   LIG d   1       4.011  -6.239  -8.036  0.00  0.00    -0.015 A 
ATOM     40  O   LIG d   1       4.476  -8.664  -7.598  0.00  0.00    -0.453 OA
ATOM     41  C   LIG d   1       4.065  -4.973  -7.495  0.00  0.00    -0.047 A 
ATOM     42  H   LIG d   1       3.642  -6.380  -9.041  0.00  0.00     0.066 H 
ATOM     43  H   LIG d   1       3.738  -4.123  -8.075  0.00  0.00     0.063 H 
ATOM     44  C   LIG d   1       4.599  -9.343  -6.333  0.00  0.00     0.233 C 
ATOM     45  H   LIG d   1       5.213 -10.238  -6.438  0.00  0.00     0.117 H 
ATOM     46  H   LIG d   1       3.616  -9.597  -5.939  0.00  0.00     0.117 H 
ENDBRANCH   3  33
TORSDOF 5
ENDMDL
MODEL 3
REMARK VINA RESULT:      -7.5      3.085      7.073
REMARK  5 active torsions:
REMARK  status: ('A' for Active; 'I' for Inactive)
REMARK    1  A    between atoms: C_1  and  O_2 
REMARK    2  A    between atoms: O_2  and  C_3 
REMARK    3  A    between atoms: C_7  and  N_9 
REMARK    4  A    between atoms: N_9  and  C_10 
REMARK    5  A    between atoms: C_12  and  C_20 
ROOT
ATOM      1  C   LIG d   1       4.458  -2.407  -4.824  0.00  0.00     0.221 A 
ATOM      2  C   LIG d   1       4.326  -1.950  -6.162  0.00  0.00     0.053 A 
ATOM      3  C   LIG d   1       4.206  -0.620  -6.404  0.00  0.00     0.142 A 
ATOM      4  O   LIG d   1       4.206   0.298  -5.422  0.00  0.00    -0.454 OA
ATOM      5  C   LIG d   1       4.326  -0.038  -4.118  0.00  0.00     0.142 A 
ATOM      6  C   LIG d   1       4.450  -1.386  -3.754  0.00  0.00     0.088 A 
ATOM      7  C   LIG d   1       4.569  -1.742  -2.414  0.00  0.00    -0.045 A 
ATOM      8  C   LIG d   1       4.558  -0.760  -1.445  0.00  0.00    -0.061 A 
ATOM      9  C   LIG d   1       4.430   0.572  -1.803  0.00  0.00    -0.058 A 
ATOM     10  C   LIG d   1       4.323   0.937  -3.130  0.00  0.00    -0.018 A 
ATOM     11  H   LIG d   1       4.322  -2.654  -6.981  0.00  0.00     0.072 H 
ATOM     12  H   LIG d   1       4.668  -2.781  -2.134  0.00  0.00     0.063 H 
ATOM     13  H   LIG d   1       4.650  -1.031  -0.403  0.00  0.00     0.062 H 
ATOM     14  H   LIG d   1       4.422   1.334  -1.037  0.00  0.00     0.062 H 
ATOM     15  H   LIG d   1       4.223   1.979  -3.398  0.00  0.00     0.065 H 
ENDROOT
BRANCH   1  16
ATOM     16  N   LIG d   1       4.576  -3.697  -4.546  0.00  0.00    -0.204 N 
ATOM     17  H   LIG d   1       4.354  -4.025  -3.662  0.00  0.00     0.454 HD
BRANCH  16  18
ATOM     18  C   LIG d   1       5.011  -4.563  -5.507  0.00  0.00     0.210 A 
ATOM     19  C   LIG d   1       6.382  -4.743  -5.721  0.00  0.00     0.010 A 
ATOM     20  C   LIG d   1       6.816  -5.620  -6.693  0.00  0.00    -0.052 A 
ATOM     21  H   LIG d   1       7.098  -4.198  -5.125  0.00  0.00     0.068 H 
ATOM     22  C   LIG d   1       5.903  -6.321  -7.458  0.00  0.00    -0.019 A 
ATOM     23  H   LIG d   1       7.875  -5.759  -6.858  0.00  0.00     0.062 H 
ATOM     24  C   LIG d   1       4.539  -6.149  -7.254  0.00  0.00     0.126 A 
ATOM     25  H   LIG d   1       6.250  -7.006  -8.218  0.00  0.00     0.065 H 
ATOM     26  C   LIG d   1       4.090  -5.269  -6.285  0.00  0.00     0.051 A 
ATOM     27  H   LIG d   1       3.029  -5.132  -6.128  0.00  0.00     0.072 H 
BRANCH  24  28
ATOM     28  O   LIG d   1       3.646  -6.841  -8.010  0.00  0.00    -0.495 OA
BRANCH  28  29
ATOM     29  C   LIG d   1       3.988  -8.187  -8.347  0.00  0.00     0.079 C 
ATOM     30  H   LIG d   1       4.989  -8.410  -7.978  0.00  0.00     0.066 H 
ATOM     31  H   LIG d   1       3.272  -8.869  -7.890  0.00  0.00     0.066 H 
ATOM     32  H   LIG d   1       3.964  -8.306  -9.430  0.00  0.00     0.066 H 
ENDBRANCH  28  29
ENDBRANCH  24  28
ENDBRANCH  16  18
ENDBRANCH   1  16
BRANCH   3  33
ATOM     33  C   LIG d   1       4.071  -0.163  -7.801  0.00  0.00     0.021 A 
ATOM     34  C   LIG d   1       4.750  -0.831  -8.824  0.00  0.00    -0.005 A 
ATOM     35  C   LIG d   1       4.617  -0.402 -10.131  0.00  0.00     0.167 A 
ATOM     36  H   LIG d   1       5.374  -1.681  -8.595  0.00  0.00     0.066 H 
ATOM     37  C   LIG d   1       3.816   0.701 -10.426  0.00  0.00     0.166 A 
ATOM     38  O   LIG d   1       5.158  -0.870 -11.294  0.00  0.00    -0.453 OA
ATOM     39  C   LIG d   1       3.146   1.366  -9.407  0.00  0.00    -0.015 A 
ATOM     40  O   LIG d   1       3.856   0.922 -11.772  0.00  0.00    -0.453 OA
ATOM     41  C   LIG d   1       3.270   0.941  -8.103  0.00  0.00    -0.047 A 
ATOM     42  H   LIG d   1       2.526   2.219  -9.639  0.00  0.00     0.066 H 
ATOM     43  H   LIG d   1       2.748   1.461  -7.313  0.00  0.00     0.063 H 
ATOM     44  C   LIG d   1       4.358  -0.299 -12.346  0.00  0.00     0.233 C 
ATOM     45  H   LIG d   1       4.972  -0.085 -13.221  0.00  0.00     0.117 H 
ATOM     46  H   LIG d   1       3.537  -0.965 -12.608  0.00  0.00     0.117 H 
ENDBRANCH   3  33
TORSDOF 5
ENDMDL
MODEL 4
REMARK VINA RESULT:      -7.5      3.819      7.689
REMARK  5 active torsions:
REMARK  status: ('A' for Active; 'I' for Inactive)
REMARK    1  A    between atoms: C_1  and  O_2 
REMARK    2  A    between atoms: O_2  and  C_3 
REMARK    3  A    between atoms: C_7  and  N_9 
REMARK    4  A    between atoms: N_9  and  C_10 
REMARK    5  A    between atoms: C_12  and  C_20 
ROOT
ATOM      1  C   LIG d   1       7.489  -0.887  -4.363  0.00  0.00     0.221 A 
ATOM      2  C   LIG d   1       8.264   0.249  -4.714  0.00  0.00     0.053 A 
ATOM      3  C   LIG d   1       7.918   1.470  -4.230  0.00  0.00     0.142 A 
ATOM      4  O   LIG d   1       6.859   1.654  -3.423  0.00  0.00    -0.454 OA
ATOM      5  C   LIG d   1       6.060   0.636  -3.033  0.00  0.00     0.142 A 
ATOM      6  C   LIG d   1       6.324  -0.668  -3.479  0.00  0.00     0.088 A 
ATOM      7  C   LIG d   1       5.504  -1.722  -3.086  0.00  0.00    -0.045 A 
ATOM      8  C   LIG d   1       4.427  -1.476  -2.261  0.00  0.00    -0.061 A 
ATOM      9  C   LIG d   1       4.162  -0.188  -1.823  0.00  0.00    -0.058 A 
ATOM     10  C   LIG d   1       4.975   0.863  -2.197  0.00  0.00    -0.018 A 
ATOM     11  H   LIG d   1       9.123   0.145  -5.360  0.00  0.00     0.072 H 
ATOM     12  H   LIG d   1       5.710  -2.726  -3.428  0.00  0.00     0.063 H 
ATOM     13  H   LIG d   1       3.788  -2.291  -1.953  0.00  0.00     0.062 H 
ATOM     14  H   LIG d   1       3.316  -0.005  -1.177  0.00  0.00     0.062 H 
ATOM     15  H   LIG d   1       4.760   1.864  -1.850  0.00  0.00     0.065 H 
ENDROOT
BRANCH   1  16
ATOM     16  N   LIG d   1       7.794  -2.094  -4.815  0.00  0.00    -0.204 N 
ATOM     17  H   LIG d   1       7.261  -2.499  -5.516  0.00  0.00     0.454 HD
BRANCH  16  18
ATOM     18  C   LIG d   1       8.860  -2.767  -4.293  0.00  0.00     0.210 A 
ATOM     19  C   LIG d   1      10.119  -2.662  -4.893  0.00  0.00     0.010 A 
ATOM     20  C   LIG d   1      11.194  -3.345  -4.361  0.00  0.00    -0.052 A 
ATOM     21  H   LIG d   1      10.250  -2.047  -5.770  0.00  0.00     0.068 H 
ATOM     22  C   LIG d   1      11.031  -4.134  -3.238  0.00  0.00    -0.019 A 
ATOM     23  H   LIG d   1      12.166  -3.263  -4.826  0.00  0.00     0.062 H 
ATOM     24  C   LIG d   1       9.785  -4.245  -2.635  0.00  0.00     0.126 A 
ATOM     25  H   LIG d   1      11.877  -4.666  -2.827  0.00  0.00     0.065 H 
ATOM     26  C   LIG d   1       8.697  -3.570  -3.160  0.00  0.00     0.051 A 
ATOM     27  H   LIG d   1       7.727  -3.659  -2.694  0.00  0.00     0.072 H 
BRANCH  24  28
ATOM     28  O   LIG d   1       9.631  -5.023  -1.531  0.00  0.00    -0.495 OA
BRANCH  28  29
ATOM     29  C   LIG d   1      10.046  -6.387  -1.637  0.00  0.00     0.079 C 
ATOM     30  H   LIG d   1      10.213  -6.635  -2.684  0.00  0.00     0.066 H 
ATOM     31  H   LIG d   1      10.970  -6.530  -1.076  0.00  0.00     0.066 H 
ATOM     32  H   LIG d   1       9.270  -7.035  -1.228  0.00  0.00     0.066 H 
ENDBRANCH  28  29
ENDBRANCH  24  28
ENDBRANCH  16  18
ENDBRANCH   1  16
BRANCH   3  33
ATOM     33  C   LIG d   1       8.736   2.639  -4.605  0.00  0.00     0.021 A 
ATOM     34  C   LIG d   1       9.237   3.489  -3.614  0.00  0.00    -0.005 A 
ATOM     35  C   LIG d   1      10.006   4.581  -3.969  0.00  0.00     0.167 A 
ATOM     36  H   LIG d   1       9.027   3.290  -2.574  0.00  0.00     0.066 H 
ATOM     37  C   LIG d   1      10.272   4.839  -5.314  0.00  0.00     0.166 A 
ATOM     38  O   LIG d   1      10.608   5.545  -3.213  0.00  0.00    -0.453 OA
ATOM     39  C   LIG d   1       9.768   3.997  -6.297  0.00  0.00    -0.015 A 
ATOM     40  O   LIG d   1      11.039   5.964  -5.398  0.00  0.00    -0.453 OA
ATOM     41  C   LIG d   1       9.005   2.904  -5.949  0.00  0.00    -0.047 A 
ATOM     42  H   LIG d   1       9.977   4.200  -7.337  0.00  0.00     0.066 H 
ATOM     43  H   LIG d   1       8.615   2.251  -6.717  0.00  0.00     0.063 H 
ATOM     44  C   LIG d   1      11.581   6.159  -4.078  0.00  0.00     0.233 C 
ATOM     45  H   LIG d   1      11.674   7.222  -3.857  0.00  0.00     0.117 H 
ATOM     46  H   LIG d   1      12.546   5.662  -3.985  0.00  0.00     0.117 H 
ENDBRANCH   3  33
TORSDOF 5
ENDMDL
MODEL 5
REMARK VINA RESULT:      -7.2      3.402      4.451
REMARK  5 active torsions:
REMARK  status: ('A' for Active; 'I' for Inactive)
REMARK    1  A    between atoms: C_1  and  O_2 
REMARK    2  A    between atoms: O_2  and  C_3 
REMARK    3  A    between atoms: C_7  and  N_9 
REMARK    4  A    between atoms: N_9  and  C_10 
REMARK    5  A    between atoms: C_12  and  C_20 
ROOT
ATOM      1  C   LIG d   1       4.543  -0.775  -5.864  0.00  0.00     0.221 A 
ATOM      2  C   LIG d   1       4.528  -2.071  -6.443  0.00  0.00     0.053 A 
ATOM      3  C   LIG d   1       4.437  -3.161  -5.638  0.00  0.00     0.142 A 
ATOM      4  O   LIG d   1       4.359  -3.067  -4.299  0.00  0.00    -0.454 OA
ATOM      5  C   LIG d   1       4.366  -1.879  -3.655  0.00  0.00     0.142 A 
ATOM      6  C   LIG d   1       4.463  -0.688  -4.390  0.00  0.00     0.088 A 
ATOM      7  C   LIG d   1       4.475   0.540  -3.736  0.00  0.00    -0.045 A 
ATOM      8  C   LIG d   1       4.398   0.579  -2.359  0.00  0.00    -0.061 A 
ATOM      9  C   LIG d   1       4.307  -0.597  -1.631  0.00  0.00    -0.058 A 
ATOM     10  C   LIG d   1       4.282  -1.820  -2.271  0.00  0.00    -0.018 A 
ATOM     11  H   LIG d   1       4.589  -2.191  -7.515  0.00  0.00     0.072 H 
ATOM     12  H   LIG d   1       4.546   1.457  -4.303  0.00  0.00     0.063 H 
ATOM     13  H   LIG d   1       4.407   1.530  -1.846  0.00  0.00     0.062 H 
ATOM     14  H   LIG d   1       4.247  -0.556  -0.554  0.00  0.00     0.062 H 
ATOM     15  H   LIG d   1       4.212  -2.731  -1.694  0.00  0.00     0.065 H 
ENDROOT
BRANCH   1  16
ATOM     16  N   LIG d   1       4.632   0.312  -6.615  0.00  0.00    -0.204 N 
ATOM     17  H   LIG d   1       5.018   1.124  -6.252  0.00  0.00     0.454 HD
BRANCH  16  18
ATOM     18  C   LIG d   1       4.179   0.290  -7.903  0.00  0.00     0.210 A 
ATOM     19  C   LIG d   1       4.949   0.848  -8.928  0.00  0.00     0.010 A 
ATOM     20  C   LIG d   1       4.486   0.822 -10.227  0.00  0.00    -0.052 A 
ATOM     21  H   LIG d   1       5.904   1.297  -8.703  0.00  0.00     0.068 H 
ATOM     22  C   LIG d   1       3.263   0.249 -10.520  0.00  0.00    -0.019 A 
ATOM     23  H   LIG d   1       5.082   1.254 -11.019  0.00  0.00     0.062 H 
ATOM     24  C   LIG d   1       2.490  -0.308  -9.509  0.00  0.00     0.126 A 
ATOM     25  H   LIG d   1       2.907   0.232 -11.540  0.00  0.00     0.065 H 
ATOM     26  C   LIG d   1       2.940  -0.285  -8.201  0.00  0.00     0.051 A 
ATOM     27  H   LIG d   1       2.338  -0.715  -7.413  0.00  0.00     0.072 H 
BRANCH  24  28
ATOM     28  O   LIG d   1       1.289  -0.871  -9.804  0.00  0.00    -0.495 OA
BRANCH  28  29
ATOM     29  C   LIG d   1       1.296  -2.244 -10.200  0.00  0.00     0.079 C 
ATOM     30  H   LIG d   1       0.272  -2.612 -10.252  0.00  0.00     0.066 H 
ATOM     31  H   LIG d   1       1.767  -2.337 -11.179  0.00  0.00     0.066 H 
ATOM     32  H   LIG d   1       1.858  -2.829  -9.470  0.00  0.00     0.066 H 
ENDBRANCH  28  29
ENDBRANCH  24  28
ENDBRANCH  16  18
ENDBRANCH   1  16
BRANCH   3  33
ATOM     33  C   LIG d   1       4.423  -4.500  -6.257  0.00  0.00     0.021 A 
ATOM     34  C   LIG d   1       3.951  -4.663  -7.563  0.00  0.00    -0.005 A 
ATOM     35  C   LIG d   1       3.943  -5.919  -8.140  0.00  0.00     0.167 A 
ATOM     36  H   LIG d   1       3.597  -3.809  -8.121  0.00  0.00     0.066 H 
ATOM     37  C   LIG d   1       4.395  -7.022  -7.416  0.00  0.00     0.166 A 
ATOM     38  O   LIG d   1       3.547  -6.342  -9.376  0.00  0.00    -0.453 OA
ATOM     39  C   LIG d   1       4.858  -6.859  -6.116  0.00  0.00    -0.015 A 
ATOM     40  O   LIG d   1       4.281  -8.134  -8.199  0.00  0.00    -0.453 OA
ATOM     41  C   LIG d   1       4.873  -5.609  -5.537  0.00  0.00    -0.047 A 
ATOM     42  H   LIG d   1       5.208  -7.716  -5.559  0.00  0.00     0.066 H 
ATOM     43  H   LIG d   1       5.234  -5.487  -4.526  0.00  0.00     0.063 H 
ATOM     44  C   LIG d   1       4.140  -7.642  -9.545  0.00  0.00     0.233 C 
ATOM     45  H   LIG d   1       3.482  -8.292 -10.122  0.00  0.00     0.117 H 
ATOM     46  H   LIG d   1       5.115  -7.560 -10.025  0.00  0.00     0.117 H 
ENDBRANCH   3  33
TORSDOF 5
ENDMDL
MODEL 6
REMARK VINA RESULT:      -7.2      2.447      7.094
REMARK  5 active torsions:
REMARK  status: ('A' for Active; 'I' for Inactive)
REMARK    1  A    between atoms: C_1  and  O_2 
REMARK    2  A    between atoms: O_2  and  C_3 
REMARK    3  A    between atoms: C_7  and  N_9 
REMARK    4  A    between atoms: N_9  and  C_10 
REMARK    5  A    between atoms: C_12  and  C_20 
ROOT
ATOM      1  C   LIG d   1       4.770  -2.031  -4.643  0.00  0.00     0.221 A 
ATOM      2  C   LIG d   1       4.393  -1.881  -6.003  0.00  0.00     0.053 A 
ATOM      3  C   LIG d   1       3.781  -0.738  -6.405  0.00  0.00     0.142 A 
ATOM      4  O   LIG d   1       3.512   0.273  -5.561  0.00  0.00    -0.454 OA
ATOM      5  C   LIG d   1       3.831   0.225  -4.249  0.00  0.00     0.142 A 
ATOM      6  C   LIG d   1       4.462  -0.913  -3.725  0.00  0.00     0.088 A 
ATOM      7  C   LIG d   1       4.791  -0.973  -2.375  0.00  0.00    -0.045 A 
ATOM      8  C   LIG d   1       4.486   0.091  -1.551  0.00  0.00    -0.061 A 
ATOM      9  C   LIG d   1       3.858   1.214  -2.065  0.00  0.00    -0.058 A 
ATOM     10  C   LIG d   1       3.538   1.289  -3.406  0.00  0.00    -0.018 A 
ATOM     11  H   LIG d   1       4.591  -2.670  -6.714  0.00  0.00     0.072 H 
ATOM     12  H   LIG d   1       5.280  -1.849  -1.973  0.00  0.00     0.063 H 
ATOM     13  H   LIG d   1       4.739   0.049  -0.502  0.00  0.00     0.062 H 
ATOM     14  H   LIG d   1       3.624   2.042  -1.413  0.00  0.00     0.062 H 
ATOM     15  H   LIG d   1       3.048   2.170  -3.797  0.00  0.00     0.065 H 
ENDROOT
BRANCH   1  16
ATOM     16  N   LIG d   1       5.369  -3.132  -4.212  0.00  0.00    -0.204 N 
ATOM     17  H   LIG d   1       4.896  -3.745  -3.630  0.00  0.00     0.454 HD
BRANCH  16  18
ATOM     18  C   LIG d   1       6.652  -3.401  -4.590  0.00  0.00     0.210 A 
ATOM     19  C   LIG d   1       7.694  -2.563  -4.183  0.00  0.00     0.010 A 
ATOM     20  C   LIG d   1       8.990  -2.840  -4.567  0.00  0.00    -0.052 A 
ATOM     21  H   LIG d   1       7.486  -1.701  -3.567  0.00  0.00     0.068 H 
ATOM     22  C   LIG d   1       9.262  -3.942  -5.356  0.00  0.00    -0.019 A 
ATOM     23  H   LIG d   1       9.795  -2.192  -4.252  0.00  0.00     0.062 H 
ATOM     24  C   LIG d   1       8.234  -4.781  -5.766  0.00  0.00     0.126 A 
ATOM     25  H   LIG d   1      10.279  -4.153  -5.653  0.00  0.00     0.065 H 
ATOM     26  C   LIG d   1       6.929  -4.513  -5.391  0.00  0.00     0.051 A 
ATOM     27  H   LIG d   1       6.128  -5.162  -5.713  0.00  0.00     0.072 H 
BRANCH  24  28
ATOM     28  O   LIG d   1       8.508  -5.864  -6.541  0.00  0.00    -0.495 OA
BRANCH  28  29
ATOM     29  C   LIG d   1       9.295  -6.901  -5.951  0.00  0.00     0.079 C 
ATOM     30  H   LIG d   1       9.367  -7.739  -6.642  0.00  0.00     0.066 H 
ATOM     31  H   LIG d   1      10.292  -6.521  -5.733  0.00  0.00     0.066 H 
ATOM     32  H   LIG d   1       8.822  -7.231  -5.025  0.00  0.00     0.066 H 
ENDBRANCH  28  29
ENDBRANCH  24  28
ENDBRANCH  16  18
ENDBRANCH   1  16
BRANCH   3  33
ATOM     33  C   LIG d   1       3.397  -0.599  -7.823  0.00  0.00     0.021 A 
ATOM     34  C   LIG d   1       3.315  -1.731  -8.639  0.00  0.00    -0.005 A 
ATOM     35  C   LIG d   1       2.950  -1.596  -9.966  0.00  0.00     0.167 A 
ATOM     36  H   LIG d   1       3.532  -2.708  -8.234  0.00  0.00     0.066 H 
ATOM     37  C   LIG d   1       2.675  -0.333 -10.490  0.00  0.00     0.166 A 
ATOM     38  O   LIG d   1       2.794  -2.522 -10.957  0.00  0.00    -0.453 OA
ATOM     39  C   LIG d   1       2.763   0.790  -9.677  0.00  0.00    -0.015 A 
ATOM     40  O   LIG d   1       2.349  -0.469 -11.807  0.00  0.00    -0.453 OA
ATOM     41  C   LIG d   1       3.121   0.663  -8.353  0.00  0.00    -0.047 A 
ATOM     42  H   LIG d   1       2.549   1.767 -10.086  0.00  0.00     0.066 H 
ATOM     43  H   LIG d   1       3.187   1.539  -7.725  0.00  0.00     0.063 H 
ATOM     44  C   LIG d   1       2.027  -1.862 -11.981  0.00  0.00     0.233 C 
ATOM     45  H   LIG d   1       2.333  -2.204 -12.970  0.00  0.00     0.117 H 
ATOM     46  H   LIG d   1       0.962  -2.030 -11.830  0.00  0.00     0.117 H 
ENDBRANCH   3  33
TORSDOF 5
ENDMDL
MODEL 7
REMARK VINA RESULT:      -7.2      4.008      6.539
REMARK  5 active torsions:
REMARK  status: ('A' for Active; 'I' for Inactive)
REMARK    1  A    between atoms: C_1  and  O_2 
REMARK    2  A    between atoms: O_2  and  C_3 
REMARK    3  A    between atoms: C_7  and  N_9 
REMARK    4  A    between atoms: N_9  and  C_10 
REMARK    5  A    between atoms: C_12  and  C_20 
ROOT
ATOM      1  C   LIG d   1       6.278  -0.198  -5.093  0.00  0.00     0.221 A 
ATOM      2  C   LIG d   1       5.769  -0.631  -6.345  0.00  0.00     0.053 A 
ATOM      3  C   LIG d   1       4.427  -0.716  -6.528  0.00  0.00     0.142 A 
ATOM      4  O   LIG d   1       3.544  -0.405  -5.562  0.00  0.00    -0.454 OA
ATOM      5  C   LIG d   1       3.929   0.016  -4.338  0.00  0.00     0.142 A 
ATOM      6  C   LIG d   1       5.295   0.135  -4.039  0.00  0.00     0.088 A 
ATOM      7  C   LIG d   1       5.702   0.564  -2.779  0.00  0.00    -0.045 A 
ATOM      8  C   LIG d   1       4.754   0.865  -1.823  0.00  0.00    -0.061 A 
ATOM      9  C   LIG d   1       3.405   0.744  -2.115  0.00  0.00    -0.058 A 
ATOM     10  C   LIG d   1       2.990   0.330  -3.365  0.00  0.00    -0.018 A 
ATOM     11  H   LIG d   1       6.444  -0.891  -7.148  0.00  0.00     0.072 H 
ATOM     12  H   LIG d   1       6.753   0.659  -2.551  0.00  0.00     0.063 H 
ATOM     13  H   LIG d   1       5.065   1.199  -0.844  0.00  0.00     0.062 H 
ATOM     14  H   LIG d   1       2.670   0.982  -1.360  0.00  0.00     0.062 H 
ATOM     15  H   LIG d   1       1.935   0.238  -3.582  0.00  0.00     0.065 H 
ENDROOT
BRANCH   1  16
ATOM     16  N   LIG d   1       7.581  -0.102  -4.875  0.00  0.00    -0.204 N 
ATOM     17  H   LIG d   1       8.095  -0.892  -4.651  0.00  0.00     0.454 HD
BRANCH  16  18
ATOM     18  C   LIG d   1       8.199   1.111  -4.968  0.00  0.00     0.210 A 
ATOM     19  C   LIG d   1       8.459   1.673  -6.223  0.00  0.00     0.010 A 
ATOM     20  C   LIG d   1       9.084   2.899  -6.311  0.00  0.00    -0.052 A 
ATOM     21  H   LIG d   1       8.168   1.148  -7.120  0.00  0.00     0.068 H 
ATOM     22  C   LIG d   1       9.458   3.575  -5.165  0.00  0.00    -0.019 A 
ATOM     23  H   LIG d   1       9.284   3.332  -7.281  0.00  0.00     0.062 H 
ATOM     24  C   LIG d   1       9.205   3.025  -3.914  0.00  0.00     0.126 A 
ATOM     25  H   LIG d   1       9.947   4.535  -5.241  0.00  0.00     0.065 H 
ATOM     26  C   LIG d   1       8.583   1.794  -3.811  0.00  0.00     0.051 A 
ATOM     27  H   LIG d   1       8.390   1.364  -2.838  0.00  0.00     0.072 H 
BRANCH  24  28
ATOM     28  O   LIG d   1       9.575   3.695  -2.790  0.00  0.00    -0.495 OA
BRANCH  28  29
ATOM     29  C   LIG d   1       9.907   5.077  -2.939  0.00  0.00     0.079 C 
ATOM     30  H   LIG d   1      10.219   5.266  -3.966  0.00  0.00     0.066 H 
ATOM     31  H   LIG d   1       9.036   5.687  -2.705  0.00  0.00     0.066 H 
ATOM     32  H   LIG d   1      10.721   5.330  -2.259  0.00  0.00     0.066 H 
ENDBRANCH  28  29
ENDBRANCH  24  28
ENDBRANCH  16  18
ENDBRANCH   1  16
BRANCH   3  33
ATOM     33  C   LIG d   1       3.916  -1.168  -7.836  0.00  0.00     0.021 A 
ATOM     34  C   LIG d   1       2.736  -0.624  -8.352  0.00  0.00    -0.005 A 
ATOM     35  C   LIG d   1       2.264  -1.047  -9.581  0.00  0.00     0.167 A 
ATOM     36  H   LIG d   1       2.197   0.127  -7.795  0.00  0.00     0.066 H 
ATOM     37  C   LIG d   1       2.958  -2.021 -10.298  0.00  0.00     0.166 A 
ATOM     38  O   LIG d   1       1.162  -0.680 -10.299  0.00  0.00    -0.453 OA
ATOM     39  C   LIG d   1       4.127  -2.564  -9.780  0.00  0.00    -0.015 A 
ATOM     40  O   LIG d   1       2.290  -2.264 -11.462  0.00  0.00    -0.453 OA
ATOM     41  C   LIG d   1       4.606  -2.144  -8.559  0.00  0.00    -0.047 A 
ATOM     42  H   LIG d   1       4.662  -3.318 -10.338  0.00  0.00     0.066 H 
ATOM     43  H   LIG d   1       5.516  -2.569  -8.160  0.00  0.00     0.063 H 
ATOM     44  C   LIG d   1       1.407  -1.141 -11.640  0.00  0.00     0.233 C 
ATOM     45  H   LIG d   1       0.478  -1.457 -12.114  0.00  0.00     0.117 H 
ATOM     46  H   LIG d   1       1.893  -0.364 -12.229  0.00  0.00     0.117 H 
ENDBRANCH   3  33
TORSDOF 5
ENDMDL
MODEL 8
REMARK VINA RESULT:      -7.2      3.150      5.940
REMARK  5 active torsions:
REMARK  status: ('A' for Active; 'I' for Inactive)
REMARK    1  A    between atoms: C_1  and  O_2 
REMARK    2  A    between atoms: O_2  and  C_3 
REMARK    3  A    between atoms: C_7  and  N_9 
REMARK    4  A    between atoms: N_9  and  C_10 
REMARK    5  A    between atoms: C_12  and  C_20 
ROOT
ATOM      1  C   LIG d   1       3.722  -0.371  -7.056  0.00  0.00     0.221 A 
ATOM      2  C   LIG d   1       3.782  -1.789  -7.062  0.00  0.00     0.053 A 
ATOM      3  C   LIG d   1       3.852  -2.450  -8.245  0.00  0.00     0.142 A 
ATOM      4  O   LIG d   1       3.868  -1.813  -9.430  0.00  0.00    -0.454 OA
ATOM      5  C   LIG d   1       3.815  -0.467  -9.528  0.00  0.00     0.142 A 
ATOM      6  C   LIG d   1       3.734   0.315  -8.366  0.00  0.00     0.088 A 
ATOM      7  C   LIG d   1       3.674   1.702  -8.457  0.00  0.00    -0.045 A 
ATOM      8  C   LIG d   1       3.688   2.304  -9.698  0.00  0.00    -0.061 A 
ATOM      9  C   LIG d   1       3.763   1.533 -10.847  0.00  0.00    -0.058 A 
ATOM     10  C   LIG d   1       3.834   0.157 -10.768  0.00  0.00    -0.018 A 
ATOM     11  H   LIG d   1       3.771  -2.340  -6.132  0.00  0.00     0.072 H 
ATOM     12  H   LIG d   1       3.616   2.303  -7.562  0.00  0.00     0.063 H 
ATOM     13  H   LIG d   1       3.642   3.381  -9.774  0.00  0.00     0.062 H 
ATOM     14  H   LIG d   1       3.773   2.014 -11.815  0.00  0.00     0.062 H 
ATOM     15  H   LIG d   1       3.891  -0.435 -11.670  0.00  0.00     0.065 H 
ENDROOT
BRANCH   1  16
ATOM     16  N   LIG d   1       3.652   0.310  -5.922  0.00  0.00    -0.204 N 
ATOM     17  H   LIG d   1       3.421   1.251  -5.934  0.00  0.00     0.454 HD
BRANCH  16  18
ATOM     18  C   LIG d   1       3.904  -0.316  -4.735  0.00  0.00     0.210 A 
ATOM     19  C   LIG d   1       2.862  -0.559  -3.835  0.00  0.00     0.010 A 
ATOM     20  C   LIG d   1       3.121  -1.192  -2.637  0.00  0.00    -0.052 A 
ATOM     21  H   LIG d   1       1.855  -0.253  -4.077  0.00  0.00     0.068 H 
ATOM     22  C   LIG d   1       4.409  -1.586  -2.321  0.00  0.00    -0.019 A 
ATOM     23  H   LIG d   1       2.316  -1.379  -1.941  0.00  0.00     0.062 H 
ATOM     24  C   LIG d   1       5.451  -1.349  -3.209  0.00  0.00     0.126 A 
ATOM     25  H   LIG d   1       4.605  -2.080  -1.382  0.00  0.00     0.065 H 
ATOM     26  C   LIG d   1       5.205  -0.711  -4.412  0.00  0.00     0.051 A 
ATOM     27  H   LIG d   1       6.015  -0.522  -5.101  0.00  0.00     0.072 H 
BRANCH  24  28
ATOM     28  O   LIG d   1       6.714  -1.738  -2.893  0.00  0.00    -0.495 OA
BRANCH  28  29
ATOM     29  C   LIG d   1       7.456  -2.414  -3.910  0.00  0.00     0.079 C 
ATOM     30  H   LIG d   1       7.508  -1.787  -4.800  0.00  0.00     0.066 H 
ATOM     31  H   LIG d   1       8.464  -2.619  -3.550  0.00  0.00     0.066 H 
ATOM     32  H   LIG d   1       6.961  -3.354  -4.156  0.00  0.00     0.066 H 
ENDBRANCH  28  29
ENDBRANCH  24  28
ENDBRANCH  16  18
ENDBRANCH   1  16
BRANCH   3  33
ATOM     33  C   LIG d   1       3.914  -3.924  -8.233  0.00  0.00     0.021 A 
ATOM     34  C   LIG d   1       4.608  -4.586  -7.216  0.00  0.00    -0.005 A 
ATOM     35  C   LIG d   1       4.660  -5.968  -7.205  0.00  0.00     0.167 A 
ATOM     36  H   LIG d   1       5.100  -4.021  -6.439  0.00  0.00     0.066 H 
ATOM     37  C   LIG d   1       4.030  -6.697  -8.214  0.00  0.00     0.166 A 
ATOM     38  O   LIG d   1       5.255  -6.842  -6.342  0.00  0.00    -0.453 OA
ATOM     39  C   LIG d   1       3.345  -6.037  -9.225  0.00  0.00    -0.015 A 
ATOM     40  O   LIG d   1       4.232  -8.026  -7.980  0.00  0.00    -0.453 OA
ATOM     41  C   LIG d   1       3.286  -4.661  -9.239  0.00  0.00    -0.047 A 
ATOM     42  H   LIG d   1       2.858  -6.606 -10.004  0.00  0.00     0.066 H 
ATOM     43  H   LIG d   1       2.752  -4.151 -10.028  0.00  0.00     0.063 H 
ATOM     44  C   LIG d   1       4.640  -8.117  -6.602  0.00  0.00     0.233 C 
ATOM     45  H   LIG d   1       5.360  -8.924  -6.470  0.00  0.00     0.117 H 
ATOM     46  H   LIG d   1       3.776  -8.265  -5.957  0.00  0.00     0.117 H 
ENDBRANCH   3  33
TORSDOF 5
ENDMDL
MODEL 9
REMARK VINA RESULT:      -6.9      1.884      2.373
REMARK  5 active torsions:
REMARK  status: ('A' for Active; 'I' for Inactive)
REMARK    1  A    between atoms: C_1  and  O_2 
REMARK    2  A    between atoms: O_2  and  C_3 
REMARK    3  A    between atoms: C_7  and  N_9 
REMARK    4  A    between atoms: N_9  and  C_10 
REMARK    5  A    between atoms: C_12  and  C_20 
ROOT
ATOM      1  C   LIG d   1       5.380  -0.932  -5.922  0.00  0.00     0.221 A 
ATOM      2  C   LIG d   1       6.421  -1.892  -5.819  0.00  0.00     0.053 A 
ATOM      3  C   LIG d   1       6.464  -2.718  -4.742  0.00  0.00     0.142 A 
ATOM      4  O   LIG d   1       5.552  -2.668  -3.755  0.00  0.00    -0.454 OA
ATOM      5  C   LIG d   1       4.525  -1.790  -3.762  0.00  0.00     0.142 A 
ATOM      6  C   LIG d   1       4.388  -0.885  -4.825  0.00  0.00     0.088 A 
ATOM      7  C   LIG d   1       3.336   0.025  -4.839  0.00  0.00    -0.045 A 
ATOM      8  C   LIG d   1       2.432   0.037  -3.798  0.00  0.00    -0.061 A 
ATOM      9  C   LIG d   1       2.568  -0.853  -2.744  0.00  0.00    -0.058 A 
ATOM     10  C   LIG d   1       3.602  -1.768  -2.726  0.00  0.00    -0.018 A 
ATOM     11  H   LIG d   1       7.173  -1.965  -6.590  0.00  0.00     0.072 H 
ATOM     12  H   LIG d   1       3.229   0.719  -5.660  0.00  0.00     0.063 H 
ATOM     13  H   LIG d   1       1.613   0.742  -3.804  0.00  0.00     0.062 H 
ATOM     14  H   LIG d   1       1.855  -0.836  -1.933  0.00  0.00     0.062 H 
ATOM     15  H   LIG d   1       3.699  -2.457  -1.899  0.00  0.00     0.065 H 
ENDROOT
BRANCH   1  16
ATOM     16  N   LIG d   1       5.304  -0.108  -6.956  0.00  0.00    -0.204 N 
ATOM     17  H   LIG d   1       5.992   0.561  -7.095  0.00  0.00     0.454 HD
BRANCH  16  18
ATOM     18  C   LIG d   1       4.256  -0.201  -7.825  0.00  0.00     0.210 A 
ATOM     19  C   LIG d   1       3.597   0.955  -8.257  0.00  0.00     0.010 A 
ATOM     20  C   LIG d   1       2.539   0.856  -9.136  0.00  0.00    -0.052 A 
ATOM     21  H   LIG d   1       3.918   1.924  -7.904  0.00  0.00     0.068 H 
ATOM     22  C   LIG d   1       2.124  -0.382  -9.591  0.00  0.00    -0.019 A 
ATOM     23  H   LIG d   1       2.031   1.750  -9.469  0.00  0.00     0.062 H 
ATOM     24  C   LIG d   1       2.771  -1.536  -9.168  0.00  0.00     0.126 A 
ATOM     25  H   LIG d   1       1.295  -0.452 -10.279  0.00  0.00     0.065 H 
ATOM     26  C   LIG d   1       3.832  -1.451  -8.283  0.00  0.00     0.051 A 
ATOM     27  H   LIG d   1       4.333  -2.349  -7.950  0.00  0.00     0.072 H 
BRANCH  24  28
ATOM     28  O   LIG d   1       2.359  -2.750  -9.618  0.00  0.00    -0.495 OA
BRANCH  28  29
ATOM     29  C   LIG d   1       3.135  -3.884  -9.225  0.00  0.00     0.079 C 
ATOM     30  H   LIG d   1       3.648  -3.666  -8.289  0.00  0.00     0.066 H 
ATOM     31  H   LIG d   1       2.479  -4.744  -9.088  0.00  0.00     0.066 H 
ATOM     32  H   LIG d   1       3.869  -4.108 -10.000  0.00  0.00     0.066 H 
ENDBRANCH  28  29
ENDBRANCH  24  28
ENDBRANCH  16  18
ENDBRANCH   1  16
BRANCH   3  33
ATOM     33  C   LIG d   1       7.553  -3.709  -4.652  0.00  0.00     0.021 A 
ATOM     34  C   LIG d   1       8.636  -3.484  -3.798  0.00  0.00    -0.005 A 
ATOM     35  C   LIG d   1       9.651  -4.418  -3.714  0.00  0.00     0.167 A 
ATOM     36  H   LIG d   1       8.678  -2.584  -3.202  0.00  0.00     0.066 H 
ATOM     37  C   LIG d   1       9.599  -5.577  -4.488  0.00  0.00     0.166 A 
ATOM     38  O   LIG d   1      10.796  -4.442  -2.970  0.00  0.00    -0.453 OA
ATOM     39  C   LIG d   1       8.525  -5.796  -5.340  0.00  0.00    -0.015 A 
ATOM     40  O   LIG d   1      10.711  -6.324  -4.229  0.00  0.00    -0.453 OA
ATOM     41  C   LIG d   1       7.507  -4.872  -5.425  0.00  0.00    -0.047 A 
ATOM     42  H   LIG d   1       8.488  -6.695  -5.938  0.00  0.00     0.066 H 
ATOM     43  H   LIG d   1       6.673  -5.046  -6.090  0.00  0.00     0.063 H 
ATOM     44  C   LIG d   1      11.238  -5.812  -2.990  0.00  0.00     0.233 C 
ATOM     45  H   LIG d   1      12.327  -5.863  -2.989  0.00  0.00     0.117 H 
ATOM     46  H   LIG d   1      10.827  -6.360  -2.144  0.00  0.00     0.117 H 
ENDBRANCH   3  33
TORSDOF 5
ENDMDL
MODEL 10
REMARK VINA RESULT:      -6.7      3.604      5.812
REMARK  5 active torsions:
REMARK  status: ('A' for Active; 'I' for Inactive)
REMARK    1  A    between atoms: C_1  and  O_2 
REMARK    2  A    between atoms: O_2  and  C_3 
REMARK    3  A    between atoms: C_7  and  N_9 
REMARK    4  A    between atoms: N_9  and  C_10 
REMARK    5  A    between atoms: C_12  and  C_20 
ROOT
ATOM      1  C   LIG d   1       6.518  -0.349  -5.221  0.00  0.00     0.221 A 
ATOM      2  C   LIG d   1       7.548   0.622  -5.321  0.00  0.00     0.053 A 
ATOM      3  C   LIG d   1       7.645   1.594  -4.378  0.00  0.00     0.142 A 
ATOM      4  O   LIG d   1       6.797   1.679  -3.338  0.00  0.00    -0.454 OA
ATOM      5  C   LIG d   1       5.785   0.803  -3.155  0.00  0.00     0.142 A 
ATOM      6  C   LIG d   1       5.589  -0.238  -4.075  0.00  0.00     0.088 A 
ATOM      7  C   LIG d   1       4.547  -1.143  -3.898  0.00  0.00    -0.045 A 
ATOM      8  C   LIG d   1       3.703  -1.006  -2.816  0.00  0.00    -0.061 A 
ATOM      9  C   LIG d   1       3.891   0.025  -1.909  0.00  0.00    -0.058 A 
ATOM     10  C   LIG d   1       4.929   0.922  -2.069  0.00  0.00    -0.018 A 
ATOM     11  H   LIG d   1       8.251   0.590  -6.141  0.00  0.00     0.072 H 
ATOM     12  H   LIG d   1       4.399  -1.946  -4.605  0.00  0.00     0.063 H 
ATOM     13  H   LIG d   1       2.892  -1.705  -2.674  0.00  0.00     0.062 H 
ATOM     14  H   LIG d   1       3.225   0.125  -1.065  0.00  0.00     0.062 H 
ATOM     15  H   LIG d   1       5.067   1.722  -1.356  0.00  0.00     0.065 H 
ENDROOT
BRANCH   1  16
ATOM     16  N   LIG d   1       6.390  -1.312  -6.122  0.00  0.00    -0.204 N 
ATOM     17  H   LIG d   1       6.995  -2.068  -6.112  0.00  0.00     0.454 HD
BRANCH  16  18
ATOM     18  C   LIG d   1       5.404  -1.237  -7.063  0.00  0.00     0.210 A 
ATOM     19  C   LIG d   1       4.663  -2.376  -7.394  0.00  0.00     0.010 A 
ATOM     20  C   LIG d   1       3.668  -2.295  -8.346  0.00  0.00    -0.052 A 
ATOM     21  H   LIG d   1       4.868  -3.316  -6.905  0.00  0.00     0.068 H 
ATOM     22  C   LIG d   1       3.401  -1.094  -8.976  0.00  0.00    -0.019 A 
ATOM     23  H   LIG d   1       3.095  -3.175  -8.602  0.00  0.00     0.062 H 
ATOM     24  C   LIG d   1       4.132   0.043  -8.654  0.00  0.00     0.126 A 
ATOM     25  H   LIG d   1       2.621  -1.038  -9.720  0.00  0.00     0.065 H 
ATOM     26  C   LIG d   1       5.136  -0.025  -7.704  0.00  0.00     0.051 A 
ATOM     27  H   LIG d   1       5.708   0.858  -7.456  0.00  0.00     0.072 H 
BRANCH  24  28
ATOM     28  O   LIG d   1       3.866   1.221  -9.277  0.00  0.00    -0.495 OA
BRANCH  28  29
ATOM     29  C   LIG d   1       2.799   2.009  -8.743  0.00  0.00     0.079 C 
ATOM     30  H   LIG d   1       2.620   2.865  -9.392  0.00  0.00     0.066 H 
ATOM     31  H   LIG d   1       1.895   1.403  -8.682  0.00  0.00     0.066 H 
ATOM     32  H   LIG d   1       3.069   2.358  -7.746  0.00  0.00     0.066 H 
ENDBRANCH  28  29
ENDBRANCH  24  28
ENDBRANCH  16  18
ENDBRANCH   1  16
BRANCH   3  33
ATOM     33  C   LIG d   1       8.723   2.594  -4.498  0.00  0.00     0.021 A 
ATOM     34  C   LIG d   1       9.083   3.088  -5.755  0.00  0.00    -0.005 A 
ATOM     35  C   LIG d   1      10.090   4.029  -5.862  0.00  0.00     0.167 A 
ATOM     36  H   LIG d   1       8.572   2.739  -6.640  0.00  0.00     0.066 H 
ATOM     37  C   LIG d   1      10.753   4.475  -4.718  0.00  0.00     0.166 A 
ATOM     38  O   LIG d   1      10.620   4.663  -6.948  0.00  0.00    -0.453 OA
ATOM     39  C   LIG d   1      10.397   3.978  -3.471  0.00  0.00    -0.015 A 
ATOM     40  O   LIG d   1      11.697   5.387  -5.090  0.00  0.00    -0.453 OA
ATOM     41  C   LIG d   1       9.391   3.045  -3.357  0.00  0.00    -0.047 A 
ATOM     42  H   LIG d   1      10.913   4.326  -2.588  0.00  0.00     0.066 H 
ATOM     43  H   LIG d   1       9.118   2.661  -2.385  0.00  0.00     0.063 H 
ATOM     44  C   LIG d   1      11.330   5.799  -6.420  0.00  0.00     0.233 C 
ATOM     45  H   LIG d   1      12.220   6.005  -7.015  0.00  0.00     0.117 H 
ATOM     46  H   LIG d   1      10.682   6.674  -6.384  0.00  0.00     0.117 H 
ENDBRANCH   3  33
TORSDOF 5
ENDMDL
