MODEL 1
REMARK VINA RESULT:      -7.1      0.000      0.000
REMARK  8 active torsions:
REMARK  status: ('A' for Active; 'I' for Inactive)
REMARK    1  A    between atoms: C_1  and  C_2 
REMARK    2  A    between atoms: C_11  and  O_13 
REMARK    3  A    between atoms: O_13  and  C_14 
REMARK    4  A    between atoms: C_14  and  C_15 
REMARK    5  A    between atoms: C_15  and  O_17 
REMARK    6  A    between atoms: O_17  and  C_18 
REMARK    7  A    between atoms: C_26  and  O_29 
REMARK    8  A    between atoms: O_29  and  C_30 
ROOT
ATOM      1  C   LIG d   1       1.451  -2.296 -10.726  0.00  0.00     0.135 A 
ATOM      2  C   LIG d   1       1.033  -0.988 -10.496  0.00  0.00    -0.018 A 
ATOM      3  C   LIG d   1       1.580  -0.255  -9.481  0.00  0.00    -0.044 A 
ATOM      4  C   LIG d   1       2.573  -0.819  -8.679  0.00  0.00     0.068 A 
ATOM      5  C   LIG d   1       3.006  -2.137  -8.907  0.00  0.00     0.142 A 
ATOM      6  C   LIG d   1       2.435  -2.870  -9.939  0.00  0.00     0.024 A 
ATOM      7  O   LIG d   1       3.966  -2.672  -8.125  0.00  0.00    -0.459 OA
ATOM      8  C   LIG d   1       4.536  -1.991  -7.122  0.00  0.00     0.138 A 
ATOM      9  C   LIG d   1       4.197  -0.723  -6.816  0.00  0.00     0.210 A 
ATOM     10  C   LIG d   1       3.192  -0.061  -7.577  0.00  0.00     0.234 A 
ATOM     11  O   LIG d   1       2.859   1.085  -7.329  0.00  0.00    -0.283 OA
ATOM     12  H   LIG d   1       0.267  -0.552 -11.120  0.00  0.00     0.065 H 
ATOM     13  H   LIG d   1       1.249   0.757  -9.304  0.00  0.00     0.063 H 
ATOM     14  H   LIG d   1       2.757  -3.883 -10.126  0.00  0.00     0.069 H 
ATOM     15  H   LIG d   1       5.300  -2.479  -6.535  0.00  0.00     0.107 H 
ENDROOT
BRANCH   1  16
ATOM     16  O   LIG d   1       0.894  -3.014 -11.736  0.00  0.00    -0.423 OA
BRANCH  16  17
ATOM     17  C   LIG d   1       1.124  -2.584 -12.987  0.00  0.00     0.350 C 
ATOM     18  O   LIG d   1       0.274  -1.959 -13.577  0.00  0.00    -0.247 OA
BRANCH  17  19
ATOM     19  C   LIG d   1       2.442  -2.879 -13.654  0.00  0.00     0.186 C 
ATOM     20  H   LIG d   1       3.012  -3.579 -13.042  0.00  0.00     0.082 H 
ATOM     21  H   LIG d   1       2.263  -3.318 -14.636  0.00  0.00     0.082 H 
BRANCH  19  22
ATOM     22  O   LIG d   1       3.183  -1.665 -13.804  0.00  0.00    -0.481 OA
BRANCH  22  23
ATOM     23  C   LIG d   1       4.027  -1.330 -12.795  0.00  0.00     0.125 A 
ATOM     24  C   LIG d   1       4.989  -2.244 -12.366  0.00  0.00    -0.019 A 
ATOM     25  C   LIG d   1       5.848  -1.920 -11.357  0.00  0.00    -0.047 A 
ATOM     26  H   LIG d   1       5.057  -3.212 -12.840  0.00  0.00     0.065 H 
ATOM     27  C   LIG d   1       5.756  -0.667 -10.740  0.00  0.00     0.021 A 
ATOM     28  H   LIG d   1       6.594  -2.629 -11.031  0.00  0.00     0.063 H 
ATOM     29  C   LIG d   1       6.661  -0.294  -9.651  0.00  0.00    -0.033 A 
ATOM     30  C   LIG d   1       4.783   0.258 -11.165  0.00  0.00     0.143 A 
ATOM     31  C   LIG d   1       6.522   0.937  -9.094  0.00  0.00     0.026 A 
ATOM     32  C   LIG d   1       5.524   1.814  -9.569  0.00  0.00     0.338 A 
ATOM     33  H   LIG d   1       7.173   1.244  -8.289  0.00  0.00     0.069 H 
ATOM     34  O   LIG d   1       5.411   2.915  -9.061  0.00  0.00    -0.245 OA
ATOM     35  O   LIG d   1       4.698   1.466 -10.568  0.00  0.00    -0.422 OA
ATOM     36  C   LIG d   1       3.922  -0.085 -12.196  0.00  0.00     0.023 A 
ATOM     37  H   LIG d   1       3.172   0.615 -12.531  0.00  0.00     0.069 H 
BRANCH  29  38
ATOM     38  C   LIG d   1       7.718  -1.250  -9.162  0.00  0.00    -0.039 C 
ATOM     39  H   LIG d   1       7.494  -1.545  -8.136  0.00  0.00     0.028 H 
ATOM     40  H   LIG d   1       7.731  -2.134  -9.798  0.00  0.00     0.028 H 
ATOM     41  H   LIG d   1       8.692  -0.763  -9.194  0.00  0.00     0.028 H 
ENDBRANCH  29  38
ENDBRANCH  22  23
ENDBRANCH  19  22
ENDBRANCH  17  19
ENDBRANCH  16  17
ENDBRANCH   1  16
BRANCH   9  42
ATOM     42  O   LIG d   1       4.810  -0.080  -5.785  0.00  0.00    -0.449 OA
BRANCH  42  43
ATOM     43  C   LIG d   1       4.620  -0.563  -4.529  0.00  0.00     0.129 A 
ATOM     44  C   LIG d   1       5.687  -1.095  -3.820  0.00  0.00    -0.019 A 
ATOM     45  C   LIG d   1       5.492  -1.584  -2.544  0.00  0.00    -0.058 A 
ATOM     46  H   LIG d   1       6.670  -1.126  -4.266  0.00  0.00     0.065 H 
ATOM     47  C   LIG d   1       4.234  -1.545  -1.971  0.00  0.00    -0.061 A 
ATOM     48  H   LIG d   1       6.322  -1.999  -1.992  0.00  0.00     0.062 H 
ATOM     49  C   LIG d   1       3.167  -1.015  -2.675  0.00  0.00    -0.058 A 
ATOM     50  H   LIG d   1       4.083  -1.928  -0.972  0.00  0.00     0.062 H 
ATOM     51  C   LIG d   1       3.359  -0.519  -3.951  0.00  0.00    -0.019 A 
ATOM     52  H   LIG d   1       2.186  -0.985  -2.226  0.00  0.00     0.062 H 
ATOM     53  H   LIG d   1       2.527  -0.102  -4.499  0.00  0.00     0.065 H 
ENDBRANCH  42  43
ENDBRANCH   9  42
TORSDOF 8
ENDMDL
MODEL 2
REMARK VINA RESULT:      -6.7      1.079      1.800
REMARK  8 active torsions:
REMARK  status: ('A' for Active; 'I' for Inactive)
REMARK    1  A    between atoms: C_1  and  C_2 
REMARK    2  A    between atoms: C_11  and  O_13 
REMARK    3  A    between atoms: O_13  and  C_14 
REMARK    4  A    between atoms: C_14  and  C_15 
REMARK    5  A    between atoms: C_15  and  O_17 
REMARK    6  A    between atoms: O_17  and  C_18 
REMARK    7  A    between atoms: C_26  and  O_29 
REMARK    8  A    between atoms: O_29  and  C_30 
ROOT
ATOM      1  C   LIG d   1       1.666  -2.342 -10.751  0.00  0.00     0.135 A 
ATOM      2  C   LIG d   1       1.229  -1.031 -10.575  0.00  0.00    -0.018 A 
ATOM      3  C   LIG d   1       1.717  -0.272  -9.550  0.00  0.00    -0.044 A 
ATOM      4  C   LIG d   1       2.667  -0.812  -8.681  0.00  0.00     0.068 A 
ATOM      5  C   LIG d   1       3.118  -2.133  -8.855  0.00  0.00     0.142 A 
ATOM      6  C   LIG d   1       2.608  -2.892  -9.899  0.00  0.00     0.024 A 
ATOM      7  O   LIG d   1       4.037  -2.643  -8.010  0.00  0.00    -0.459 OA
ATOM      8  C   LIG d   1       4.548  -1.936  -6.994  0.00  0.00     0.138 A 
ATOM      9  C   LIG d   1       4.187  -0.664  -6.736  0.00  0.00     0.210 A 
ATOM     10  C   LIG d   1       3.223  -0.025  -7.566  0.00  0.00     0.234 A 
ATOM     11  O   LIG d   1       2.872   1.125  -7.364  0.00  0.00    -0.283 OA
ATOM     12  H   LIG d   1       0.497  -0.614 -11.251  0.00  0.00     0.065 H 
ATOM     13  H   LIG d   1       1.373   0.742  -9.415  0.00  0.00     0.063 H 
ATOM     14  H   LIG d   1       2.944  -3.907 -10.045  0.00  0.00     0.069 H 
ATOM     15  H   LIG d   1       5.281  -2.406  -6.354  0.00  0.00     0.107 H 
ENDROOT
BRANCH   1  16
ATOM     16  O   LIG d   1       1.167  -3.086 -11.773  0.00  0.00    -0.423 OA
BRANCH  16  17
ATOM     17  C   LIG d   1       1.645  -2.831 -13.002  0.00  0.00     0.350 C 
ATOM     18  O   LIG d   1       0.953  -2.263 -13.813  0.00  0.00    -0.247 OA
BRANCH  17  19
ATOM     19  C   LIG d   1       3.045  -3.251 -13.367  0.00  0.00     0.186 C 
ATOM     20  H   LIG d   1       3.500  -3.776 -12.526  0.00  0.00     0.082 H 
ATOM     21  H   LIG d   1       3.012  -3.912 -14.233  0.00  0.00     0.082 H 
BRANCH  19  22
ATOM     22  O   LIG d   1       3.823  -2.093 -13.682  0.00  0.00    -0.481 OA
BRANCH  22  23
ATOM     23  C   LIG d   1       4.459  -1.479 -12.652  0.00  0.00     0.125 A 
ATOM     24  C   LIG d   1       4.144  -0.160 -12.334  0.00  0.00    -0.019 A 
ATOM     25  C   LIG d   1       4.771   0.470 -11.297  0.00  0.00    -0.047 A 
ATOM     26  H   LIG d   1       3.396   0.367 -12.908  0.00  0.00     0.065 H 
ATOM     27  C   LIG d   1       5.744  -0.210 -10.557  0.00  0.00     0.021 A 
ATOM     28  H   LIG d   1       4.521   1.491 -11.052  0.00  0.00     0.063 H 
ATOM     29  C   LIG d   1       6.437   0.441  -9.444  0.00  0.00    -0.033 A 
ATOM     30  C   LIG d   1       6.070  -1.542 -10.878  0.00  0.00     0.143 A 
ATOM     31  C   LIG d   1       7.371  -0.273  -8.763  0.00  0.00     0.026 A 
ATOM     32  C   LIG d   1       7.648  -1.603  -9.139  0.00  0.00     0.338 A 
ATOM     33  H   LIG d   1       7.901   0.177  -7.936  0.00  0.00     0.069 H 
ATOM     34  O   LIG d   1       8.487  -2.232  -8.519  0.00  0.00    -0.245 OA
ATOM     35  O   LIG d   1       7.009  -2.195 -10.160  0.00  0.00    -0.422 OA
ATOM     36  C   LIG d   1       5.420  -2.168 -11.929  0.00  0.00     0.023 A 
ATOM     37  H   LIG d   1       5.661  -3.189 -12.184  0.00  0.00     0.069 H 
BRANCH  29  38
ATOM     38  C   LIG d   1       6.122   1.865  -9.063  0.00  0.00    -0.039 C 
ATOM     39  H   LIG d   1       6.360   2.021  -8.010  0.00  0.00     0.028 H 
ATOM     40  H   LIG d   1       6.717   2.544  -9.673  0.00  0.00     0.028 H 
ATOM     41  H   LIG d   1       5.063   2.060  -9.230  0.00  0.00     0.028 H 
ENDBRANCH  29  38
ENDBRANCH  22  23
ENDBRANCH  19  22
ENDBRANCH  17  19
ENDBRANCH  16  17
ENDBRANCH   1  16
BRANCH   9  42
ATOM     42  O   LIG d   1       4.740   0.007  -5.688  0.00  0.00    -0.449 OA
BRANCH  42  43
ATOM     43  C   LIG d   1       4.567  -0.505  -4.442  0.00  0.00     0.129 A 
ATOM     44  C   LIG d   1       5.665  -0.929  -3.707  0.00  0.00    -0.019 A 
ATOM     45  C   LIG d   1       5.487  -1.448  -2.439  0.00  0.00    -0.058 A 
ATOM     46  H   LIG d   1       6.657  -0.854  -4.125  0.00  0.00     0.065 H 
ATOM     47  C   LIG d   1       4.217  -1.545  -1.902  0.00  0.00    -0.061 A 
ATOM     48  H   LIG d   1       6.341  -1.779  -1.867  0.00  0.00     0.062 H 
ATOM     49  C   LIG d   1       3.120  -1.122  -2.632  0.00  0.00    -0.058 A 
ATOM     50  H   LIG d   1       4.079  -1.951  -0.910  0.00  0.00     0.062 H 
ATOM     51  C   LIG d   1       3.294  -0.597  -3.899  0.00  0.00    -0.019 A 
ATOM     52  H   LIG d   1       2.129  -1.198  -2.210  0.00  0.00     0.062 H 
ATOM     53  H   LIG d   1       2.438  -0.264  -4.467  0.00  0.00     0.065 H 
ENDBRANCH  42  43
ENDBRANCH   9  42
TORSDOF 8
ENDMDL
MODEL 3
REMARK VINA RESULT:      -6.4      5.172      8.397
REMARK  8 active torsions:
REMARK  status: ('A' for Active; 'I' for Inactive)
REMARK    1  A    between atoms: C_1  and  C_2 
REMARK    2  A    between atoms: C_11  and  O_13 
REMARK    3  A    between atoms: O_13  and  C_14 
REMARK    4  A    between atoms: C_14  and  C_15 
REMARK    5  A    between atoms: C_15  and  O_17 
REMARK    6  A    between atoms: O_17  and  C_18 
REMARK    7  A    between atoms: C_26  and  O_29 
REMARK    8  A    between atoms: O_29  and  C_30 
ROOT
ATOM      1  C   LIG d   1       9.111   2.890  -9.135  0.00  0.00     0.135 A 
ATOM      2  C   LIG d   1      10.220   2.511  -8.382  0.00  0.00    -0.018 A 
ATOM      3  C   LIG d   1      10.078   1.654  -7.328  0.00  0.00    -0.044 A 
ATOM      4  C   LIG d   1       8.817   1.148  -7.012  0.00  0.00     0.068 A 
ATOM      5  C   LIG d   1       7.693   1.520  -7.771  0.00  0.00     0.142 A 
ATOM      6  C   LIG d   1       7.853   2.396  -8.835  0.00  0.00     0.024 A 
ATOM      7  O   LIG d   1       6.479   1.024  -7.457  0.00  0.00    -0.459 OA
ATOM      8  C   LIG d   1       6.292   0.178  -6.437  0.00  0.00     0.138 A 
ATOM      9  C   LIG d   1       7.297  -0.245  -5.645  0.00  0.00     0.210 A 
ATOM     10  C   LIG d   1       8.622   0.217  -5.887  0.00  0.00     0.234 A 
ATOM     11  O   LIG d   1       9.557  -0.143  -5.192  0.00  0.00    -0.283 OA
ATOM     12  H   LIG d   1      11.196   2.901  -8.630  0.00  0.00     0.065 H 
ATOM     13  H   LIG d   1      10.940   1.366  -6.744  0.00  0.00     0.063 H 
ATOM     14  H   LIG d   1       6.999   2.692  -9.427  0.00  0.00     0.069 H 
ATOM     15  H   LIG d   1       5.292  -0.182  -6.240  0.00  0.00     0.107 H 
ENDROOT
BRANCH   1  16
ATOM     16  O   LIG d   1       9.267   3.747 -10.178  0.00  0.00    -0.423 OA
BRANCH  16  17
ATOM     17  C   LIG d   1       9.138   5.057  -9.914  0.00  0.00     0.350 C 
ATOM     18  O   LIG d   1       8.154   5.654 -10.280  0.00  0.00    -0.247 OA
BRANCH  17  19
ATOM     19  C   LIG d   1      10.222   5.783  -9.158  0.00  0.00     0.186 C 
ATOM     20  H   LIG d   1      10.758   5.077  -8.523  0.00  0.00     0.082 H 
ATOM     21  H   LIG d   1      10.917   6.236  -9.865  0.00  0.00     0.082 H 
BRANCH  19  22
ATOM     22  O   LIG d   1       9.635   6.803  -8.347  0.00  0.00    -0.481 OA
BRANCH  22  23
ATOM     23  C   LIG d   1       9.670   6.617  -7.002  0.00  0.00     0.125 A 
ATOM     24  C   LIG d   1       9.467   7.700  -6.150  0.00  0.00    -0.019 A 
ATOM     25  C   LIG d   1       9.493   7.528  -4.796  0.00  0.00    -0.047 A 
ATOM     26  H   LIG d   1       9.282   8.681  -6.562  0.00  0.00     0.065 H 
ATOM     27  C   LIG d   1       9.737   6.258  -4.260  0.00  0.00     0.021 A 
ATOM     28  H   LIG d   1       9.330   8.369  -4.139  0.00  0.00     0.063 H 
ATOM     29  C   LIG d   1       9.777   6.045  -2.812  0.00  0.00    -0.033 A 
ATOM     30  C   LIG d   1       9.949   5.161  -5.118  0.00  0.00     0.143 A 
ATOM     31  C   LIG d   1      10.018   4.788  -2.355  0.00  0.00     0.026 A 
ATOM     32  C   LIG d   1      10.222   3.736  -3.271  0.00  0.00     0.338 A 
ATOM     33  H   LIG d   1      10.054   4.596  -1.293  0.00  0.00     0.069 H 
ATOM     34  O   LIG d   1      10.436   2.614  -2.848  0.00  0.00    -0.245 OA
ATOM     35  O   LIG d   1      10.184   3.938  -4.597  0.00  0.00    -0.422 OA
ATOM     36  C   LIG d   1       9.913   5.353  -6.490  0.00  0.00     0.023 A 
ATOM     37  H   LIG d   1      10.073   4.519  -7.158  0.00  0.00     0.069 H 
BRANCH  29  38
ATOM     38  C   LIG d   1       9.557   7.188  -1.856  0.00  0.00    -0.039 C 
ATOM     39  H   LIG d   1       9.152   8.043  -2.398  0.00  0.00     0.028 H 
ATOM     40  H   LIG d   1       8.853   6.883  -1.082  0.00  0.00     0.028 H 
ATOM     41  H   LIG d   1      10.505   7.465  -1.397  0.00  0.00     0.028 H 
ENDBRANCH  29  38
ENDBRANCH  22  23
ENDBRANCH  19  22
ENDBRANCH  17  19
ENDBRANCH  16  17
ENDBRANCH   1  16
BRANCH   9  42
ATOM     42  O   LIG d   1       7.049  -1.106  -4.621  0.00  0.00    -0.449 OA
BRANCH  42  43
ATOM     43  C   LIG d   1       6.165  -0.721  -3.664  0.00  0.00     0.129 A 
ATOM     44  C   LIG d   1       5.330  -1.656  -3.072  0.00  0.00    -0.019 A 
ATOM     45  C   LIG d   1       4.433  -1.262  -2.098  0.00  0.00    -0.058 A 
ATOM     46  H   LIG d   1       5.381  -2.693  -3.370  0.00  0.00     0.065 H 
ATOM     47  C   LIG d   1       4.366   0.064  -1.714  0.00  0.00    -0.061 A 
ATOM     48  H   LIG d   1       3.782  -1.990  -1.637  0.00  0.00     0.062 H 
ATOM     49  C   LIG d   1       5.198   1.000  -2.303  0.00  0.00    -0.058 A 
ATOM     50  H   LIG d   1       3.664   0.371  -0.952  0.00  0.00     0.062 H 
ATOM     51  C   LIG d   1       6.100   0.610  -3.273  0.00  0.00    -0.019 A 
ATOM     52  H   LIG d   1       5.144   2.035  -2.000  0.00  0.00     0.062 H 
ATOM     53  H   LIG d   1       6.752   1.340  -3.730  0.00  0.00     0.065 H 
ENDBRANCH  42  43
ENDBRANCH   9  42
TORSDOF 8
ENDMDL
MODEL 4
REMARK VINA RESULT:      -6.4      6.826      9.663
REMARK  8 active torsions:
REMARK  status: ('A' for Active; 'I' for Inactive)
REMARK    1  A    between atoms: C_1  and  C_2 
REMARK    2  A    between atoms: C_11  and  O_13 
REMARK    3  A    between atoms: O_13  and  C_14 
REMARK    4  A    between atoms: C_14  and  C_15 
REMARK    5  A    between atoms: C_15  and  O_17 
REMARK    6  A    between atoms: O_17  and  C_18 
REMARK    7  A    between atoms: C_26  and  O_29 
REMARK    8  A    between atoms: O_29  and  C_30 
ROOT
ATOM      1  C   LIG d   1       9.487   3.712  -7.926  0.00  0.00     0.135 A 
ATOM      2  C   LIG d   1       9.879   4.272  -6.712  0.00  0.00    -0.018 A 
ATOM      3  C   LIG d   1       9.508   3.692  -5.532  0.00  0.00    -0.044 A 
ATOM      4  C   LIG d   1       8.743   2.526  -5.545  0.00  0.00     0.068 A 
ATOM      5  C   LIG d   1       8.347   1.950  -6.766  0.00  0.00     0.142 A 
ATOM      6  C   LIG d   1       8.727   2.555  -7.956  0.00  0.00     0.024 A 
ATOM      7  O   LIG d   1       7.607   0.823  -6.766  0.00  0.00    -0.459 OA
ATOM      8  C   LIG d   1       7.225   0.215  -5.636  0.00  0.00     0.138 A 
ATOM      9  C   LIG d   1       7.548   0.680  -4.412  0.00  0.00     0.210 A 
ATOM     10  C   LIG d   1       8.327   1.866  -4.295  0.00  0.00     0.234 A 
ATOM     11  O   LIG d   1       8.638   2.316  -3.205  0.00  0.00    -0.283 OA
ATOM     12  H   LIG d   1      10.475   5.172  -6.704  0.00  0.00     0.065 H 
ATOM     13  H   LIG d   1       9.812   4.132  -4.594  0.00  0.00     0.063 H 
ATOM     14  H   LIG d   1       8.431   2.126  -8.901  0.00  0.00     0.069 H 
ATOM     15  H   LIG d   1       6.633  -0.686  -5.707  0.00  0.00     0.107 H 
ENDROOT
BRANCH   1  16
ATOM     16  O   LIG d   1       9.858   4.304  -9.092  0.00  0.00    -0.423 OA
BRANCH  16  17
ATOM     17  C   LIG d   1       9.130   5.355  -9.500  0.00  0.00     0.350 C 
ATOM     18  O   LIG d   1       7.975   5.203  -9.818  0.00  0.00    -0.247 OA
BRANCH  17  19
ATOM     19  C   LIG d   1       9.755   6.725  -9.561  0.00  0.00     0.186 C 
ATOM     20  H   LIG d   1      10.369   6.806 -10.458  0.00  0.00     0.082 H 
ATOM     21  H   LIG d   1       8.970   7.481  -9.588  0.00  0.00     0.082 H 
BRANCH  19  22
ATOM     22  O   LIG d   1      10.571   6.929  -8.405  0.00  0.00    -0.481 OA
BRANCH  22  23
ATOM     23  C   LIG d   1      10.303   8.022  -7.646  0.00  0.00     0.125 A 
ATOM     24  C   LIG d   1      10.152   7.887  -6.268  0.00  0.00    -0.019 A 
ATOM     25  C   LIG d   1       9.888   8.978  -5.491  0.00  0.00    -0.047 A 
ATOM     26  H   LIG d   1      10.250   6.913  -5.810  0.00  0.00     0.065 H 
ATOM     27  C   LIG d   1       9.756  10.238  -6.084  0.00  0.00     0.021 A 
ATOM     28  H   LIG d   1       9.776   8.869  -4.422  0.00  0.00     0.063 H 
ATOM     29  C   LIG d   1       9.467  11.425  -5.276  0.00  0.00    -0.033 A 
ATOM     30  C   LIG d   1       9.902  10.380  -7.477  0.00  0.00     0.143 A 
ATOM     31  C   LIG d   1       9.352  12.621  -5.911  0.00  0.00     0.026 A 
ATOM     32  C   LIG d   1       9.510  12.690  -7.311  0.00  0.00     0.338 A 
ATOM     33  H   LIG d   1       9.140  13.516  -5.346  0.00  0.00     0.069 H 
ATOM     34  O   LIG d   1       9.404  13.768  -7.867  0.00  0.00    -0.245 OA
ATOM     35  O   LIG d   1       9.775  11.598  -8.046  0.00  0.00    -0.422 OA
ATOM     36  C   LIG d   1      10.176   9.263  -8.250  0.00  0.00     0.023 A 
ATOM     37  H   LIG d   1      10.290   9.359  -9.320  0.00  0.00     0.069 H 
BRANCH  29  38
ATOM     38  C   LIG d   1       9.302  11.323  -3.782  0.00  0.00    -0.039 C 
ATOM     39  H   LIG d   1       9.765  12.188  -3.306  0.00  0.00     0.028 H 
ATOM     40  H   LIG d   1       8.242  11.297  -3.535  0.00  0.00     0.028 H 
ATOM     41  H   LIG d   1       9.782  10.412  -3.425  0.00  0.00     0.028 H 
ENDBRANCH  29  38
ENDBRANCH  22  23
ENDBRANCH  19  22
ENDBRANCH  17  19
ENDBRANCH  16  17
ENDBRANCH   1  16
BRANCH   9  42
ATOM     42  O   LIG d   1       7.131   0.021  -3.297  0.00  0.00    -0.449 OA
BRANCH  42  43
ATOM     43  C   LIG d   1       5.802   0.024  -3.013  0.00  0.00     0.129 A 
ATOM     44  C   LIG d   1       5.082  -1.161  -3.046  0.00  0.00    -0.019 A 
ATOM     45  C   LIG d   1       3.732  -1.155  -2.757  0.00  0.00    -0.058 A 
ATOM     46  H   LIG d   1       5.576  -2.087  -3.298  0.00  0.00     0.065 H 
ATOM     47  C   LIG d   1       3.097   0.030  -2.434  0.00  0.00    -0.061 A 
ATOM     48  H   LIG d   1       3.170  -2.077  -2.783  0.00  0.00     0.062 H 
ATOM     49  C   LIG d   1       3.813   1.214  -2.400  0.00  0.00    -0.058 A 
ATOM     50  H   LIG d   1       2.041   0.032  -2.208  0.00  0.00     0.062 H 
ATOM     51  C   LIG d   1       5.165   1.212  -2.684  0.00  0.00    -0.019 A 
ATOM     52  H   LIG d   1       3.315   2.138  -2.148  0.00  0.00     0.062 H 
ATOM     53  H   LIG d   1       5.724   2.136  -2.653  0.00  0.00     0.065 H 
ENDBRANCH  42  43
ENDBRANCH   9  42
TORSDOF 8
ENDMDL
MODEL 5
REMARK VINA RESULT:      -6.3      6.491      9.417
REMARK  8 active torsions:
REMARK  status: ('A' for Active; 'I' for Inactive)
REMARK    1  A    between atoms: C_1  and  C_2 
REMARK    2  A    between atoms: C_11  and  O_13 
REMARK    3  A    between atoms: O_13  and  C_14 
REMARK    4  A    between atoms: C_14  and  C_15 
REMARK    5  A    between atoms: C_15  and  O_17 
REMARK    6  A    between atoms: O_17  and  C_18 
REMARK    7  A    between atoms: C_26  and  O_29 
REMARK    8  A    between atoms: O_29  and  C_30 
ROOT
ATOM      1  C   LIG d   1       9.428   3.726  -8.002  0.00  0.00     0.135 A 
ATOM      2  C   LIG d   1       9.880   4.258  -6.796  0.00  0.00    -0.018 A 
ATOM      3  C   LIG d   1       9.544   3.666  -5.611  0.00  0.00    -0.044 A 
ATOM      4  C   LIG d   1       8.754   2.516  -5.612  0.00  0.00     0.068 A 
ATOM      5  C   LIG d   1       8.298   1.969  -6.825  0.00  0.00     0.142 A 
ATOM      6  C   LIG d   1       8.644   2.586  -8.019  0.00  0.00     0.024 A 
ATOM      7  O   LIG d   1       7.535   0.857  -6.814  0.00  0.00    -0.459 OA
ATOM      8  C   LIG d   1       7.185   0.239  -5.679  0.00  0.00     0.138 A 
ATOM      9  C   LIG d   1       7.565   0.677  -4.462  0.00  0.00     0.210 A 
ATOM     10  C   LIG d   1       8.374   1.844  -4.357  0.00  0.00     0.234 A 
ATOM     11  O   LIG d   1       8.737   2.270  -3.274  0.00  0.00    -0.283 OA
ATOM     12  H   LIG d   1      10.495   5.145  -6.797  0.00  0.00     0.065 H 
ATOM     13  H   LIG d   1       9.893   4.084  -4.679  0.00  0.00     0.063 H 
ATOM     14  H   LIG d   1       8.301   2.178  -8.959  0.00  0.00     0.069 H 
ATOM     15  H   LIG d   1       6.572  -0.648  -5.741  0.00  0.00     0.107 H 
ENDROOT
BRANCH   1  16
ATOM     16  O   LIG d   1       9.766   4.329  -9.172  0.00  0.00    -0.423 OA
BRANCH  16  17
ATOM     17  C   LIG d   1       9.136   5.476  -9.470  0.00  0.00     0.350 C 
ATOM     18  O   LIG d   1       8.008   5.451  -9.902  0.00  0.00    -0.247 OA
BRANCH  17  19
ATOM     19  C   LIG d   1       9.835   6.795  -9.263  0.00  0.00     0.186 C 
ATOM     20  H   LIG d   1      10.685   6.656  -8.594  0.00  0.00     0.082 H 
ATOM     21  H   LIG d   1      10.186   7.175 -10.223  0.00  0.00     0.082 H 
BRANCH  19  22
ATOM     22  O   LIG d   1       8.923   7.733  -8.686  0.00  0.00    -0.481 OA
BRANCH  22  23
ATOM     23  C   LIG d   1       9.273   8.278  -7.492  0.00  0.00     0.125 A 
ATOM     24  C   LIG d   1       9.599   9.631  -7.421  0.00  0.00    -0.019 A 
ATOM     25  C   LIG d   1       9.948  10.196  -6.228  0.00  0.00    -0.047 A 
ATOM     26  H   LIG d   1       9.571  10.238  -8.314  0.00  0.00     0.065 H 
ATOM     27  C   LIG d   1       9.990   9.408  -5.072  0.00  0.00     0.021 A 
ATOM     28  H   LIG d   1      10.196  11.245  -6.176  0.00  0.00     0.063 H 
ATOM     29  C   LIG d   1      10.366   9.985  -3.780  0.00  0.00    -0.033 A 
ATOM     30  C   LIG d   1       9.666   8.039  -5.140  0.00  0.00     0.143 A 
ATOM     31  C   LIG d   1      10.386   9.169  -2.694  0.00  0.00     0.026 A 
ATOM     32  C   LIG d   1      10.051   7.806  -2.834  0.00  0.00     0.338 A 
ATOM     33  H   LIG d   1      10.659   9.562  -1.726  0.00  0.00     0.069 H 
ATOM     34  O   LIG d   1      10.073   7.085  -1.853  0.00  0.00    -0.245 OA
ATOM     35  O   LIG d   1       9.707   7.283  -4.022  0.00  0.00    -0.422 OA
ATOM     36  C   LIG d   1       9.309   7.484  -6.358  0.00  0.00     0.023 A 
ATOM     37  H   LIG d   1       9.058   6.435  -6.423  0.00  0.00     0.069 H 
BRANCH  29  38
ATOM     38  C   LIG d   1      10.720  11.444  -3.658  0.00  0.00    -0.039 C 
ATOM     39  H   LIG d   1      11.769  11.587  -3.921  0.00  0.00     0.028 H 
ATOM     40  H   LIG d   1      10.095  12.028  -4.332  0.00  0.00     0.028 H 
ATOM     41  H   LIG d   1      10.556  11.774  -2.632  0.00  0.00     0.028 H 
ENDBRANCH  29  38
ENDBRANCH  22  23
ENDBRANCH  19  22
ENDBRANCH  17  19
ENDBRANCH  16  17
ENDBRANCH   1  16
BRANCH   9  42
ATOM     42  O   LIG d   1       7.180   0.008  -3.341  0.00  0.00    -0.449 OA
BRANCH  42  43
ATOM     43  C   LIG d   1       5.857  -0.003  -3.029  0.00  0.00     0.129 A 
ATOM     44  C   LIG d   1       5.165  -1.204  -2.983  0.00  0.00    -0.019 A 
ATOM     45  C   LIG d   1       3.821  -1.213  -2.665  0.00  0.00    -0.058 A 
ATOM     46  H   LIG d   1       5.675  -2.132  -3.196  0.00  0.00     0.065 H 
ATOM     47  C   LIG d   1       3.165  -0.027  -2.393  0.00  0.00    -0.061 A 
ATOM     48  H   LIG d   1       3.280  -2.148  -2.630  0.00  0.00     0.062 H 
ATOM     49  C   LIG d   1       3.853   1.172  -2.438  0.00  0.00    -0.058 A 
ATOM     50  H   LIG d   1       2.113  -0.036  -2.144  0.00  0.00     0.062 H 
ATOM     51  C   LIG d   1       5.199   1.186  -2.750  0.00  0.00    -0.019 A 
ATOM     52  H   LIG d   1       3.338   2.097  -2.224  0.00  0.00     0.062 H 
ATOM     53  H   LIG d   1       5.736   2.122  -2.781  0.00  0.00     0.065 H 
ENDBRANCH  42  43
ENDBRANCH   9  42
TORSDOF 8
ENDMDL
MODEL 6
REMARK VINA RESULT:      -6.2      3.889      6.291
REMARK  8 active torsions:
REMARK  status: ('A' for Active; 'I' for Inactive)
REMARK    1  A    between atoms: C_1  and  C_2 
REMARK    2  A    between atoms: C_11  and  O_13 
REMARK    3  A    between atoms: O_13  and  C_14 
REMARK    4  A    between atoms: C_14  and  C_15 
REMARK    5  A    between atoms: C_15  and  O_17 
REMARK    6  A    between atoms: O_17  and  C_18 
REMARK    7  A    between atoms: C_26  and  O_29 
REMARK    8  A    between atoms: O_29  and  C_30 
ROOT
ATOM      1  C   LIG d   1       1.532  -2.385 -11.054  0.00  0.00     0.135 A 
ATOM      2  C   LIG d   1       1.151  -1.053 -10.906  0.00  0.00    -0.018 A 
ATOM      3  C   LIG d   1       1.657  -0.299  -9.886  0.00  0.00    -0.044 A 
ATOM      4  C   LIG d   1       2.571  -0.863  -8.995  0.00  0.00     0.068 A 
ATOM      5  C   LIG d   1       2.966  -2.205  -9.140  0.00  0.00     0.142 A 
ATOM      6  C   LIG d   1       2.438  -2.960 -10.178  0.00  0.00     0.024 A 
ATOM      7  O   LIG d   1       3.850  -2.740  -8.273  0.00  0.00    -0.459 OA
ATOM      8  C   LIG d   1       4.377  -2.039  -7.262  0.00  0.00     0.138 A 
ATOM      9  C   LIG d   1       4.068  -0.748  -7.030  0.00  0.00     0.210 A 
ATOM     10  C   LIG d   1       3.144  -0.082  -7.885  0.00  0.00     0.234 A 
ATOM     11  O   LIG d   1       2.840   1.085  -7.707  0.00  0.00    -0.283 OA
ATOM     12  H   LIG d   1       0.447  -0.617 -11.599  0.00  0.00     0.065 H 
ATOM     13  H   LIG d   1       1.355   0.732  -9.773  0.00  0.00     0.063 H 
ATOM     14  H   LIG d   1       2.732  -3.991 -10.303  0.00  0.00     0.069 H 
ATOM     15  H   LIG d   1       5.080  -2.529  -6.604  0.00  0.00     0.107 H 
ENDROOT
BRANCH   1  16
ATOM     16  O   LIG d   1       1.016  -3.124 -12.070  0.00  0.00    -0.423 OA
BRANCH  16  17
ATOM     17  C   LIG d   1      -0.220  -3.619 -11.897  0.00  0.00     0.350 C 
ATOM     18  O   LIG d   1      -0.460  -4.325 -10.946  0.00  0.00    -0.247 OA
BRANCH  17  19
ATOM     19  C   LIG d   1      -1.307  -3.291 -12.887  0.00  0.00     0.186 C 
ATOM     20  H   LIG d   1      -1.232  -3.959 -13.746  0.00  0.00     0.082 H 
ATOM     21  H   LIG d   1      -2.281  -3.418 -12.413  0.00  0.00     0.082 H 
BRANCH  19  22
ATOM     22  O   LIG d   1      -1.163  -1.937 -13.323  0.00  0.00    -0.481 OA
BRANCH  22  23
ATOM     23  C   LIG d   1      -2.287  -1.175 -13.348  0.00  0.00     0.125 A 
ATOM     24  C   LIG d   1      -3.530  -1.782 -13.516  0.00  0.00    -0.019 A 
ATOM     25  C   LIG d   1      -4.669  -1.031 -13.538  0.00  0.00    -0.047 A 
ATOM     26  H   LIG d   1      -3.593  -2.855 -13.623  0.00  0.00     0.065 H 
ATOM     27  C   LIG d   1      -4.587   0.360 -13.404  0.00  0.00     0.021 A 
ATOM     28  H   LIG d   1      -5.630  -1.506 -13.663  0.00  0.00     0.063 H 
ATOM     29  C   LIG d   1      -5.791   1.192 -13.430  0.00  0.00    -0.033 A 
ATOM     30  C   LIG d   1      -3.333   0.979 -13.240  0.00  0.00     0.143 A 
ATOM     31  C   LIG d   1      -5.645   2.536 -13.294  0.00  0.00     0.026 A 
ATOM     32  C   LIG d   1      -4.358   3.090 -13.134  0.00  0.00     0.338 A 
ATOM     33  H   LIG d   1      -6.513   3.179 -13.309  0.00  0.00     0.069 H 
ATOM     34  O   LIG d   1      -4.242   4.296 -13.013  0.00  0.00    -0.245 OA
ATOM     35  O   LIG d   1      -3.258   2.321 -13.111  0.00  0.00    -0.422 OA
ATOM     36  C   LIG d   1      -2.187   0.200 -13.214  0.00  0.00     0.023 A 
ATOM     37  H   LIG d   1      -1.219   0.664 -13.089  0.00  0.00     0.069 H 
BRANCH  29  38
ATOM     38  C   LIG d   1      -7.155   0.575 -13.603  0.00  0.00    -0.039 C 
ATOM     39  H   LIG d   1      -7.669   1.058 -14.435  0.00  0.00     0.028 H 
ATOM     40  H   LIG d   1      -7.048  -0.489 -13.812  0.00  0.00     0.028 H 
ATOM     41  H   LIG d   1      -7.734   0.711 -12.691  0.00  0.00     0.028 H 
ENDBRANCH  29  38
ENDBRANCH  22  23
ENDBRANCH  19  22
ENDBRANCH  17  19
ENDBRANCH  16  17
ENDBRANCH   1  16
BRANCH   9  42
ATOM     42  O   LIG d   1       4.635  -0.083  -5.986  0.00  0.00    -0.449 OA
BRANCH  42  43
ATOM     43  C   LIG d   1       4.400  -0.549  -4.732  0.00  0.00     0.129 A 
ATOM     44  C   LIG d   1       5.425  -1.134  -4.004  0.00  0.00    -0.019 A 
ATOM     45  C   LIG d   1       5.183  -1.606  -2.728  0.00  0.00    -0.058 A 
ATOM     46  H   LIG d   1       6.412  -1.222  -4.434  0.00  0.00     0.065 H 
ATOM     47  C   LIG d   1       3.921  -1.494  -2.176  0.00  0.00    -0.061 A 
ATOM     48  H   LIG d   1       5.981  -2.063  -2.161  0.00  0.00     0.062 H 
ATOM     49  C   LIG d   1       2.896  -0.911  -2.899  0.00  0.00    -0.058 A 
ATOM     50  H   LIG d   1       3.734  -1.863  -1.178  0.00  0.00     0.062 H 
ATOM     51  C   LIG d   1       3.134  -0.433  -4.174  0.00  0.00    -0.019 A 
ATOM     52  H   LIG d   1       1.911  -0.824  -2.465  0.00  0.00     0.062 H 
ATOM     53  H   LIG d   1       2.335   0.027  -4.736  0.00  0.00     0.065 H 
ENDBRANCH  42  43
ENDBRANCH   9  42
TORSDOF 8
ENDMDL
MODEL 7
REMARK VINA RESULT:      -6.1      4.716      7.647
REMARK  8 active torsions:
REMARK  status: ('A' for Active; 'I' for Inactive)
REMARK    1  A    between atoms: C_1  and  C_2 
REMARK    2  A    between atoms: C_11  and  O_13 
REMARK    3  A    between atoms: O_13  and  C_14 
REMARK    4  A    between atoms: C_14  and  C_15 
REMARK    5  A    between atoms: C_15  and  O_17 
REMARK    6  A    between atoms: O_17  and  C_18 
REMARK    7  A    between atoms: C_26  and  O_29 
REMARK    8  A    between atoms: O_29  and  C_30 
ROOT
ATOM      1  C   LIG d   1       1.839  -2.242 -10.862  0.00  0.00     0.135 A 
ATOM      2  C   LIG d   1       1.318  -0.975 -10.608  0.00  0.00    -0.018 A 
ATOM      3  C   LIG d   1       1.772  -0.240  -9.550  0.00  0.00    -0.044 A 
ATOM      4  C   LIG d   1       2.773  -0.758  -8.727  0.00  0.00     0.068 A 
ATOM      5  C   LIG d   1       3.309  -2.034  -8.979  0.00  0.00     0.142 A 
ATOM      6  C   LIG d   1       2.832  -2.769 -10.055  0.00  0.00     0.024 A 
ATOM      7  O   LIG d   1       4.276  -2.524  -8.177  0.00  0.00    -0.459 OA
ATOM      8  C   LIG d   1       4.757  -1.839  -7.132  0.00  0.00     0.138 A 
ATOM      9  C   LIG d   1       4.316  -0.610  -6.800  0.00  0.00     0.210 A 
ATOM     10  C   LIG d   1       3.295   0.005  -7.579  0.00  0.00     0.234 A 
ATOM     11  O   LIG d   1       2.870   1.115  -7.309  0.00  0.00    -0.283 OA
ATOM     12  H   LIG d   1       0.546  -0.574 -11.248  0.00  0.00     0.065 H 
ATOM     13  H   LIG d   1       1.362   0.740  -9.355  0.00  0.00     0.063 H 
ATOM     14  H   LIG d   1       3.234  -3.750 -10.261  0.00  0.00     0.069 H 
ATOM     15  H   LIG d   1       5.533  -2.290  -6.530  0.00  0.00     0.107 H 
ENDROOT
BRANCH   1  16
ATOM     16  O   LIG d   1       1.373  -2.963 -11.915  0.00  0.00    -0.423 OA
BRANCH  16  17
ATOM     17  C   LIG d   1       0.195  -3.586 -11.752  0.00  0.00     0.350 C 
ATOM     18  O   LIG d   1      -0.727  -3.339 -12.494  0.00  0.00    -0.247 OA
BRANCH  17  19
ATOM     19  C   LIG d   1       0.023  -4.595 -10.646  0.00  0.00     0.186 C 
ATOM     20  H   LIG d   1       0.387  -5.567 -10.980  0.00  0.00     0.082 H 
ATOM     21  H   LIG d   1       0.590  -4.275  -9.771  0.00  0.00     0.082 H 
BRANCH  19  22
ATOM     22  O   LIG d   1      -1.361  -4.696 -10.305  0.00  0.00    -0.481 OA
BRANCH  22  23
ATOM     23  C   LIG d   1      -1.925  -5.929 -10.379  0.00  0.00     0.125 A 
ATOM     24  C   LIG d   1      -1.150  -7.060 -10.132  0.00  0.00    -0.019 A 
ATOM     25  C   LIG d   1      -1.704  -8.306 -10.197  0.00  0.00    -0.047 A 
ATOM     26  H   LIG d   1      -0.105  -6.950  -9.881  0.00  0.00     0.065 H 
ATOM     27  C   LIG d   1      -3.056  -8.449 -10.527  0.00  0.00     0.021 A 
ATOM     28  H   LIG d   1      -1.100  -9.179 -10.000  0.00  0.00     0.063 H 
ATOM     29  C   LIG d   1      -3.676  -9.773 -10.611  0.00  0.00    -0.033 A 
ATOM     30  C   LIG d   1      -3.843  -7.310 -10.784  0.00  0.00     0.143 A 
ATOM     31  C   LIG d   1      -4.993  -9.846 -10.935  0.00  0.00     0.026 A 
ATOM     32  C   LIG d   1      -5.722  -8.663 -11.180  0.00  0.00     0.338 A 
ATOM     33  H   LIG d   1      -5.481 -10.806 -11.005  0.00  0.00     0.069 H 
ATOM     34  O   LIG d   1      -6.902  -8.743 -11.469  0.00  0.00    -0.245 OA
ATOM     35  O   LIG d   1      -5.148  -7.453 -11.102  0.00  0.00    -0.422 OA
ATOM     36  C   LIG d   1      -3.266  -6.052 -10.707  0.00  0.00     0.023 A 
ATOM     37  H   LIG d   1      -3.859  -5.171 -10.902  0.00  0.00     0.069 H 
BRANCH  29  38
ATOM     38  C   LIG d   1      -2.874 -11.021 -10.345  0.00  0.00    -0.039 C 
ATOM     39  H   LIG d   1      -1.926 -10.965 -10.882  0.00  0.00     0.028 H 
ATOM     40  H   LIG d   1      -2.680 -11.107  -9.277  0.00  0.00     0.028 H 
ATOM     41  H   LIG d   1      -3.433 -11.892 -10.685  0.00  0.00     0.028 H 
ENDBRANCH  29  38
ENDBRANCH  22  23
ENDBRANCH  19  22
ENDBRANCH  17  19
ENDBRANCH  16  17
ENDBRANCH   1  16
BRANCH   9  42
ATOM     42  O   LIG d   1       4.842   0.041  -5.726  0.00  0.00    -0.449 OA
BRANCH  42  43
ATOM     43  C   LIG d   1       4.595  -0.467  -4.490  0.00  0.00     0.129 A 
ATOM     44  C   LIG d   1       3.300  -0.491  -3.994  0.00  0.00    -0.019 A 
ATOM     45  C   LIG d   1       3.052  -1.009  -2.738  0.00  0.00    -0.058 A 
ATOM     46  H   LIG d   1       2.486  -0.105  -4.589  0.00  0.00     0.065 H 
ATOM     47  C   LIG d   1       4.093  -1.504  -1.975  0.00  0.00    -0.061 A 
ATOM     48  H   LIG d   1       2.044  -1.027  -2.351  0.00  0.00     0.062 H 
ATOM     49  C   LIG d   1       5.386  -1.482  -2.466  0.00  0.00    -0.058 A 
ATOM     50  H   LIG d   1       3.897  -1.909  -0.992  0.00  0.00     0.062 H 
ATOM     51  C   LIG d   1       5.638  -0.970  -3.725  0.00  0.00    -0.019 A 
ATOM     52  H   LIG d   1       6.197  -1.870  -1.869  0.00  0.00     0.062 H 
ATOM     53  H   LIG d   1       6.647  -0.957  -4.110  0.00  0.00     0.065 H 
ENDBRANCH  42  43
ENDBRANCH   9  42
TORSDOF 8
ENDMDL
MODEL 8
REMARK VINA RESULT:      -6.0      2.400      3.955
REMARK  8 active torsions:
REMARK  status: ('A' for Active; 'I' for Inactive)
REMARK    1  A    between atoms: C_1  and  C_2 
REMARK    2  A    between atoms: C_11  and  O_13 
REMARK    3  A    between atoms: O_13  and  C_14 
REMARK    4  A    between atoms: C_14  and  C_15 
REMARK    5  A    between atoms: C_15  and  O_17 
REMARK    6  A    between atoms: O_17  and  C_18 
REMARK    7  A    between atoms: C_26  and  O_29 
REMARK    8  A    between atoms: O_29  and  C_30 
ROOT
ATOM      1  C   LIG d   1       2.552  -1.797 -11.182  0.00  0.00     0.135 A 
ATOM      2  C   LIG d   1       1.810  -0.685 -10.789  0.00  0.00    -0.018 A 
ATOM      3  C   LIG d   1       2.098  -0.041  -9.619  0.00  0.00    -0.044 A 
ATOM      4  C   LIG d   1       3.149  -0.494  -8.821  0.00  0.00     0.068 A 
ATOM      5  C   LIG d   1       3.907  -1.612  -9.213  0.00  0.00     0.142 A 
ATOM      6  C   LIG d   1       3.598  -2.258 -10.402  0.00  0.00     0.024 A 
ATOM      7  O   LIG d   1       4.921  -2.041  -8.434  0.00  0.00    -0.459 OA
ATOM      8  C   LIG d   1       5.244  -1.439  -7.282  0.00  0.00     0.138 A 
ATOM      9  C   LIG d   1       4.585  -0.362  -6.811  0.00  0.00     0.210 A 
ATOM     10  C   LIG d   1       3.496   0.175  -7.554  0.00  0.00     0.234 A 
ATOM     11  O   LIG d   1       2.876   1.148  -7.160  0.00  0.00    -0.283 OA
ATOM     12  H   LIG d   1       1.000  -0.333 -11.409  0.00  0.00     0.065 H 
ATOM     13  H   LIG d   1       1.518   0.817  -9.316  0.00  0.00     0.063 H 
ATOM     14  H   LIG d   1       4.171  -3.118 -10.716  0.00  0.00     0.069 H 
ATOM     15  H   LIG d   1       6.068  -1.834  -6.705  0.00  0.00     0.107 H 
ENDROOT
BRANCH   1  16
ATOM     16  O   LIG d   1       2.250  -2.429 -12.346  0.00  0.00    -0.423 OA
BRANCH  16  17
ATOM     17  C   LIG d   1       1.056  -3.038 -12.416  0.00  0.00     0.350 C 
ATOM     18  O   LIG d   1       0.216  -2.634 -13.186  0.00  0.00    -0.247 OA
BRANCH  17  19
ATOM     19  C   LIG d   1       0.763  -4.226 -11.537  0.00  0.00     0.186 C 
ATOM     20  H   LIG d   1       0.877  -3.941 -10.490  0.00  0.00     0.082 H 
ATOM     21  H   LIG d   1      -0.258  -4.565 -11.712  0.00  0.00     0.082 H 
BRANCH  19  22
ATOM     22  O   LIG d   1       1.675  -5.283 -11.845  0.00  0.00    -0.481 OA
BRANCH  22  23
ATOM     23  C   LIG d   1       2.688  -5.499 -10.966  0.00  0.00     0.125 A 
ATOM     24  C   LIG d   1       3.958  -5.815 -11.442  0.00  0.00    -0.019 A 
ATOM     25  C   LIG d   1       4.988  -6.030 -10.572  0.00  0.00    -0.047 A 
ATOM     26  H   LIG d   1       4.131  -5.886 -12.505  0.00  0.00     0.065 H 
ATOM     27  C   LIG d   1       4.763  -5.943  -9.193  0.00  0.00     0.021 A 
ATOM     28  H   LIG d   1       5.972  -6.271 -10.944  0.00  0.00     0.063 H 
ATOM     29  C   LIG d   1       5.847  -6.174  -8.236  0.00  0.00    -0.033 A 
ATOM     30  C   LIG d   1       3.479  -5.629  -8.707  0.00  0.00     0.143 A 
ATOM     31  C   LIG d   1       5.565  -6.074  -6.911  0.00  0.00     0.026 A 
ATOM     32  C   LIG d   1       4.256  -5.756  -6.494  0.00  0.00     0.338 A 
ATOM     33  H   LIG d   1       6.341  -6.238  -6.178  0.00  0.00     0.069 H 
ATOM     34  O   LIG d   1       4.017  -5.669  -5.303  0.00  0.00    -0.245 OA
ATOM     35  O   LIG d   1       3.267  -5.545  -7.376  0.00  0.00    -0.422 OA
ATOM     36  C   LIG d   1       2.447  -5.408  -9.605  0.00  0.00     0.023 A 
ATOM     37  H   LIG d   1       1.458  -5.166  -9.244  0.00  0.00     0.069 H 
BRANCH  29  38
ATOM     38  C   LIG d   1       7.237  -6.513  -8.708  0.00  0.00    -0.039 C 
ATOM     39  H   LIG d   1       7.501  -7.515  -8.370  0.00  0.00     0.028 H 
ATOM     40  H   LIG d   1       7.270  -6.477  -9.797  0.00  0.00     0.028 H 
ATOM     41  H   LIG d   1       7.945  -5.793  -8.299  0.00  0.00     0.028 H 
ENDBRANCH  29  38
ENDBRANCH  22  23
ENDBRANCH  19  22
ENDBRANCH  17  19
ENDBRANCH  16  17
ENDBRANCH   1  16
BRANCH   9  42
ATOM     42  O   LIG d   1       4.957   0.209  -5.633  0.00  0.00    -0.449 OA
BRANCH  42  43
ATOM     43  C   LIG d   1       4.631  -0.435  -4.482  0.00  0.00     0.129 A 
ATOM     44  C   LIG d   1       5.620  -1.041  -3.721  0.00  0.00    -0.019 A 
ATOM     45  C   LIG d   1       5.285  -1.694  -2.550  0.00  0.00    -0.058 A 
ATOM     46  H   LIG d   1       6.649  -1.004  -4.043  0.00  0.00     0.065 H 
ATOM     47  C   LIG d   1       3.967  -1.743  -2.136  0.00  0.00    -0.061 A 
ATOM     48  H   LIG d   1       6.054  -2.168  -1.958  0.00  0.00     0.062 H 
ATOM     49  C   LIG d   1       2.979  -1.139  -2.893  0.00  0.00    -0.058 A 
ATOM     50  H   LIG d   1       3.708  -2.254  -1.220  0.00  0.00     0.062 H 
ATOM     51  C   LIG d   1       3.309  -0.480  -4.062  0.00  0.00    -0.019 A 
ATOM     52  H   LIG d   1       1.951  -1.178  -2.567  0.00  0.00     0.062 H 
ATOM     53  H   LIG d   1       2.538  -0.005  -4.650  0.00  0.00     0.065 H 
ENDBRANCH  42  43
ENDBRANCH   9  42
TORSDOF 8
ENDMDL
MODEL 9
REMARK VINA RESULT:      -6.0      2.760      4.845
REMARK  8 active torsions:
REMARK  status: ('A' for Active; 'I' for Inactive)
REMARK    1  A    between atoms: C_1  and  C_2 
REMARK    2  A    between atoms: C_11  and  O_13 
REMARK    3  A    between atoms: O_13  and  C_14 
REMARK    4  A    between atoms: C_14  and  C_15 
REMARK    5  A    between atoms: C_15  and  O_17 
REMARK    6  A    between atoms: O_17  and  C_18 
REMARK    7  A    between atoms: C_26  and  O_29 
REMARK    8  A    between atoms: O_29  and  C_30 
ROOT
ATOM      1  C   LIG d   1       8.819  -1.917  -9.000  0.00  0.00     0.135 A 
ATOM      2  C   LIG d   1       8.485  -0.565  -8.998  0.00  0.00    -0.018 A 
ATOM      3  C   LIG d   1       8.023   0.031  -7.859  0.00  0.00    -0.044 A 
ATOM      4  C   LIG d   1       7.896  -0.718  -6.689  0.00  0.00     0.068 A 
ATOM      5  C   LIG d   1       8.235  -2.083  -6.680  0.00  0.00     0.142 A 
ATOM      6  C   LIG d   1       8.698  -2.674  -7.848  0.00  0.00     0.024 A 
ATOM      7  O   LIG d   1       8.109  -2.797  -5.544  0.00  0.00    -0.459 OA
ATOM      8  C   LIG d   1       7.666  -2.256  -4.402  0.00  0.00     0.138 A 
ATOM      9  C   LIG d   1       7.313  -0.959  -4.298  0.00  0.00     0.210 A 
ATOM     10  C   LIG d   1       7.407  -0.112  -5.438  0.00  0.00     0.234 A 
ATOM     11  O   LIG d   1       7.096   1.066  -5.383  0.00  0.00    -0.283 OA
ATOM     12  H   LIG d   1       8.588   0.015  -9.903  0.00  0.00     0.065 H 
ATOM     13  H   LIG d   1       7.763   1.079  -7.864  0.00  0.00     0.063 H 
ATOM     14  H   LIG d   1       8.963  -3.721  -7.857  0.00  0.00     0.069 H 
ATOM     15  H   LIG d   1       7.588  -2.885  -3.527  0.00  0.00     0.107 H 
ENDROOT
BRANCH   1  16
ATOM     16  O   LIG d   1       9.272  -2.497 -10.142  0.00  0.00    -0.423 OA
BRANCH  16  17
ATOM     17  C   LIG d   1       8.518  -3.475 -10.670  0.00  0.00     0.350 C 
ATOM     18  O   LIG d   1       8.934  -4.608 -10.702  0.00  0.00    -0.247 OA
BRANCH  17  19
ATOM     19  C   LIG d   1       7.151  -3.157 -11.219  0.00  0.00     0.186 C 
ATOM     20  H   LIG d   1       7.069  -2.084 -11.395  0.00  0.00     0.082 H 
ATOM     21  H   LIG d   1       7.003  -3.692 -12.157  0.00  0.00     0.082 H 
BRANCH  19  22
ATOM     22  O   LIG d   1       6.153  -3.563 -10.279  0.00  0.00    -0.481 OA
BRANCH  22  23
ATOM     23  C   LIG d   1       5.470  -2.578  -9.641  0.00  0.00     0.125 A 
ATOM     24  C   LIG d   1       4.974  -2.800  -8.359  0.00  0.00    -0.019 A 
ATOM     25  C   LIG d   1       4.291  -1.817  -7.702  0.00  0.00    -0.047 A 
ATOM     26  H   LIG d   1       5.136  -3.754  -7.878  0.00  0.00     0.065 H 
ATOM     27  C   LIG d   1       4.076  -0.583  -8.326  0.00  0.00     0.021 A 
ATOM     28  H   LIG d   1       3.911  -1.992  -6.707  0.00  0.00     0.063 H 
ATOM     29  C   LIG d   1       3.341   0.487  -7.649  0.00  0.00    -0.033 A 
ATOM     30  C   LIG d   1       4.571  -0.356  -9.625  0.00  0.00     0.143 A 
ATOM     31  C   LIG d   1       3.168   1.662  -8.308  0.00  0.00     0.026 A 
ATOM     32  C   LIG d   1       3.690   1.822  -9.608  0.00  0.00     0.338 A 
ATOM     33  H   LIG d   1       2.630   2.473  -7.838  0.00  0.00     0.069 H 
ATOM     34  O   LIG d   1       3.527   2.881 -10.187  0.00  0.00    -0.245 OA
ATOM     35  O   LIG d   1       4.363   0.837 -10.224  0.00  0.00    -0.422 OA
ATOM     36  C   LIG d   1       5.268  -1.362 -10.274  0.00  0.00     0.023 A 
ATOM     37  H   LIG d   1       5.653  -1.199 -11.270  0.00  0.00     0.069 H 
BRANCH  29  38
ATOM     38  C   LIG d   1       2.793   0.290  -6.260  0.00  0.00    -0.039 C 
ATOM     39  H   LIG d   1       1.710   0.172  -6.310  0.00  0.00     0.028 H 
ATOM     40  H   LIG d   1       3.234  -0.603  -5.819  0.00  0.00     0.028 H 
ATOM     41  H   LIG d   1       3.036   1.157  -5.647  0.00  0.00     0.028 H 
ENDBRANCH  29  38
ENDBRANCH  22  23
ENDBRANCH  19  22
ENDBRANCH  17  19
ENDBRANCH  16  17
ENDBRANCH   1  16
BRANCH   9  42
ATOM     42  O   LIG d   1       6.868  -0.462  -3.111  0.00  0.00    -0.449 OA
BRANCH  42  43
ATOM     43  C   LIG d   1       5.526  -0.391  -2.913  0.00  0.00     0.129 A 
ATOM     44  C   LIG d   1       4.915   0.841  -2.736  0.00  0.00    -0.019 A 
ATOM     45  C   LIG d   1       3.550   0.911  -2.536  0.00  0.00    -0.058 A 
ATOM     46  H   LIG d   1       5.504   1.745  -2.755  0.00  0.00     0.065 H 
ATOM     47  C   LIG d   1       2.793  -0.245  -2.511  0.00  0.00    -0.061 A 
ATOM     48  H   LIG d   1       3.073   1.870  -2.397  0.00  0.00     0.062 H 
ATOM     49  C   LIG d   1       3.400  -1.476  -2.687  0.00  0.00    -0.058 A 
ATOM     50  H   LIG d   1       1.725  -0.189  -2.355  0.00  0.00     0.062 H 
ATOM     51  C   LIG d   1       4.764  -1.551  -2.893  0.00  0.00    -0.019 A 
ATOM     52  H   LIG d   1       2.806  -2.378  -2.668  0.00  0.00     0.062 H 
ATOM     53  H   LIG d   1       5.237  -2.511  -3.035  0.00  0.00     0.065 H 
ENDBRANCH  42  43
ENDBRANCH   9  42
TORSDOF 8
ENDMDL
MODEL 10
REMARK VINA RESULT:      -6.0      3.493      6.046
REMARK  8 active torsions:
REMARK  status: ('A' for Active; 'I' for Inactive)
REMARK    1  A    between atoms: C_1  and  C_2 
REMARK    2  A    between atoms: C_11  and  O_13 
REMARK    3  A    between atoms: O_13  and  C_14 
REMARK    4  A    between atoms: C_14  and  C_15 
REMARK    5  A    between atoms: C_15  and  O_17 
REMARK    6  A    between atoms: O_17  and  C_18 
REMARK    7  A    between atoms: C_26  and  O_29 
REMARK    8  A    between atoms: O_29  and  C_30 
ROOT
ATOM      1  C   LIG d   1       2.189  -2.127 -11.112  0.00  0.00     0.135 A 
ATOM      2  C   LIG d   1       1.789  -0.798 -10.991  0.00  0.00    -0.018 A 
ATOM      3  C   LIG d   1       2.176  -0.056  -9.911  0.00  0.00    -0.044 A 
ATOM      4  C   LIG d   1       2.988  -0.630  -8.932  0.00  0.00     0.068 A 
ATOM      5  C   LIG d   1       3.402  -1.969  -9.050  0.00  0.00     0.142 A 
ATOM      6  C   LIG d   1       2.995  -2.711 -10.150  0.00  0.00     0.024 A 
ATOM      7  O   LIG d   1       4.186  -2.514  -8.097  0.00  0.00    -0.459 OA
ATOM      8  C   LIG d   1       4.596  -1.824  -7.025  0.00  0.00     0.138 A 
ATOM      9  C   LIG d   1       4.259  -0.537  -6.812  0.00  0.00     0.210 A 
ATOM     10  C   LIG d   1       3.432   0.138  -7.756  0.00  0.00     0.234 A 
ATOM     11  O   LIG d   1       3.106   1.302  -7.597  0.00  0.00    -0.283 OA
ATOM     12  H   LIG d   1       1.164  -0.354 -11.751  0.00  0.00     0.065 H 
ATOM     13  H   LIG d   1       1.860   0.973  -9.820  0.00  0.00     0.063 H 
ATOM     14  H   LIG d   1       3.304  -3.740 -10.254  0.00  0.00     0.069 H 
ATOM     15  H   LIG d   1       5.223  -2.321  -6.299  0.00  0.00     0.107 H 
ENDROOT
BRANCH   1  16
ATOM     16  O   LIG d   1       1.792  -2.854 -12.189  0.00  0.00    -0.423 OA
BRANCH  16  17
ATOM     17  C   LIG d   1       2.755  -3.445 -12.914  0.00  0.00     0.350 C 
ATOM     18  O   LIG d   1       3.634  -2.780 -13.408  0.00  0.00    -0.247 OA
BRANCH  17  19
ATOM     19  C   LIG d   1       2.740  -4.939 -13.109  0.00  0.00     0.186 C 
ATOM     20  H   LIG d   1       1.832  -5.229 -13.638  0.00  0.00     0.082 H 
ATOM     21  H   LIG d   1       3.612  -5.239 -13.691  0.00  0.00     0.082 H 
BRANCH  19  22
ATOM     22  O   LIG d   1       2.775  -5.587 -11.834  0.00  0.00    -0.481 OA
BRANCH  22  23
ATOM     23  C   LIG d   1       1.681  -6.311 -11.481  0.00  0.00     0.125 A 
ATOM     24  C   LIG d   1       1.551  -7.625 -11.923  0.00  0.00    -0.019 A 
ATOM     25  C   LIG d   1       0.461  -8.368 -11.572  0.00  0.00    -0.047 A 
ATOM     26  H   LIG d   1       2.320  -8.061 -12.544  0.00  0.00     0.065 H 
ATOM     27  C   LIG d   1      -0.538  -7.801 -10.773  0.00  0.00     0.021 A 
ATOM     28  H   LIG d   1       0.366  -9.388 -11.914  0.00  0.00     0.063 H 
ATOM     29  C   LIG d   1      -1.721  -8.572 -10.385  0.00  0.00    -0.033 A 
ATOM     30  C   LIG d   1      -0.414  -6.471 -10.327  0.00  0.00     0.143 A 
ATOM     31  C   LIG d   1      -2.655  -7.965  -9.607  0.00  0.00     0.026 A 
ATOM     32  C   LIG d   1      -2.467  -6.629  -9.197  0.00  0.00     0.338 A 
ATOM     33  H   LIG d   1      -3.540  -8.505  -9.303  0.00  0.00     0.069 H 
ATOM     34  O   LIG d   1      -3.312  -6.098  -8.499  0.00  0.00    -0.245 OA
ATOM     35  O   LIG d   1      -1.380  -5.928  -9.555  0.00  0.00    -0.422 OA
ATOM     36  C   LIG d   1       0.703  -5.734 -10.688  0.00  0.00     0.023 A 
ATOM     37  H   LIG d   1       0.809  -4.713 -10.353  0.00  0.00     0.069 H 
BRANCH  29  38
ATOM     38  C   LIG d   1      -1.898  -9.998 -10.838  0.00  0.00    -0.039 C 
ATOM     39  H   LIG d   1      -0.951 -10.376 -11.225  0.00  0.00     0.028 H 
ATOM     40  H   LIG d   1      -2.216 -10.610  -9.994  0.00  0.00     0.028 H 
ATOM     41  H   LIG d   1      -2.653 -10.039 -11.622  0.00  0.00     0.028 H 
ENDBRANCH  29  38
ENDBRANCH  22  23
ENDBRANCH  19  22
ENDBRANCH  17  19
ENDBRANCH  16  17
ENDBRANCH   1  16
BRANCH   9  42
ATOM     42  O   LIG d   1       4.704   0.115  -5.704  0.00  0.00    -0.449 OA
BRANCH  42  43
ATOM     43  C   LIG d   1       4.477  -0.459  -4.493  0.00  0.00     0.129 A 
ATOM     44  C   LIG d   1       3.189  -0.516  -3.982  0.00  0.00    -0.019 A 
ATOM     45  C   LIG d   1       2.961  -1.101  -2.751  0.00  0.00    -0.058 A 
ATOM     46  H   LIG d   1       2.365  -0.103  -4.544  0.00  0.00     0.065 H 
ATOM     47  C   LIG d   1       4.014  -1.630  -2.029  0.00  0.00    -0.061 A 
ATOM     48  H   LIG d   1       1.958  -1.144  -2.352  0.00  0.00     0.062 H 
ATOM     49  C   LIG d   1       5.300  -1.575  -2.537  0.00  0.00    -0.058 A 
ATOM     50  H   LIG d   1       3.834  -2.087  -1.067  0.00  0.00     0.062 H 
ATOM     51  C   LIG d   1       5.533  -0.996  -3.770  0.00  0.00    -0.019 A 
ATOM     52  H   LIG d   1       6.121  -1.990  -1.972  0.00  0.00     0.062 H 
ATOM     53  H   LIG d   1       6.536  -0.957  -4.167  0.00  0.00     0.065 H 
ENDBRANCH  42  43
ENDBRANCH   9  42
TORSDOF 8
ENDMDL
