MODEL 1
REMARK VINA RESULT:      -5.8      0.000      0.000
REMARK  8 active torsions:
REMARK  status: ('A' for Active; 'I' for Inactive)
REMARK    1  A    between atoms: C_1  and  C_2 
REMARK    2  A    between atoms: C_11  and  C_24 
REMARK    3  A    between atoms: C_16  and  C_17 
REMARK    4  A    between atoms: C_16  and  O_20 
REMARK    5  A    between atoms: C_17  and  C_19 
REMARK    6  A    between atoms: O_20  and  C_21 
REMARK    7  A    between atoms: C_21  and  C_23 
REMARK    8  A    between atoms: C_25  and  C_32 
ROOT
ATOM      1  C   LIG d   1       7.470  -4.245  -6.567  0.00  0.00    -0.021 C 
ATOM      2  H   LIG d   1       6.694  -5.036  -6.629  0.00  0.00     0.034 H 
ATOM      3  C   LIG d   1       6.759  -2.929  -6.254  0.00  0.00    -0.043 C 
ATOM      4  C   LIG d   1       7.726  -1.856  -5.778  0.00  0.00    -0.033 C 
ATOM      5  H   LIG d   1       8.448  -1.663  -6.591  0.00  0.00     0.031 H 
ATOM      6  C   LIG d   1       8.494  -2.306  -4.541  0.00  0.00    -0.029 C 
ATOM      7  H   LIG d   1       9.181  -1.512  -4.233  0.00  0.00     0.031 H 
ATOM      8  C   LIG d   1       7.475  -2.550  -3.420  0.00  0.00    -0.049 C 
ATOM      9  C   LIG d   1       6.865  -1.209  -3.040  0.00  0.00    -0.043 C 
ATOM     10  C   LIG d   1       6.243  -0.463  -4.191  0.00  0.00     0.018 C 
ATOM     11  C   LIG d   1       7.009  -0.534  -5.512  0.00  0.00    -0.028 C 
ATOM     12  H   LIG d   1       7.748   0.297  -5.563  0.00  0.00     0.031 H 
ATOM     13  C   LIG d   1       5.924  -0.342  -6.602  0.00  0.00    -0.045 C 
ATOM     14  C   LIG d   1       4.648  -0.962  -5.998  0.00  0.00    -0.005 C 
ATOM     15  C   LIG d   1       4.777  -0.788  -4.472  0.00  0.00     0.176 C 
ATOM     16  C   LIG d   1       9.282  -3.581  -4.812  0.00  0.00    -0.007 C 
ATOM     17  C   LIG d   1       8.404  -4.612  -5.435  0.00  0.00    -0.057 C 
ATOM     18  C   LIG d   1       8.395  -5.892  -5.045  0.00  0.00    -0.019 C 
ATOM     19  C   LIG d   1       9.213  -6.304  -3.900  0.00  0.00     0.156 C 
ATOM     20  O   LIG d   1       9.626  -7.432  -3.756  0.00  0.00    -0.293 OA
ATOM     21  C   LIG d   1       9.469  -5.218  -2.870  0.00  0.00     0.011 C 
ATOM     22  C   LIG d   1      10.064  -4.015  -3.589  0.00  0.00    -0.037 C 
ATOM     23  H   LIG d   1       6.001  -3.115  -5.492  0.00  0.00     0.027 H 
ATOM     24  H   LIG d   1       6.253  -2.592  -7.165  0.00  0.00     0.027 H 
ATOM     25  H   LIG d   1       6.715  -3.250  -3.754  0.00  0.00     0.027 H 
ATOM     26  H   LIG d   1       7.991  -2.973  -2.553  0.00  0.00     0.027 H 
ATOM     27  H   LIG d   1       7.682  -0.577  -2.643  0.00  0.00     0.027 H 
ATOM     28  H   LIG d   1       6.162  -1.331  -2.220  0.00  0.00     0.027 H 
ATOM     29  H   LIG d   1       5.766   0.724  -6.800  0.00  0.00     0.027 H 
ATOM     30  H   LIG d   1       6.200  -0.840  -7.530  0.00  0.00     0.027 H 
ATOM     31  H   LIG d   1       4.569  -2.015  -6.256  0.00  0.00     0.031 H 
ATOM     32  H   LIG d   1       3.765  -0.428  -6.357  0.00  0.00     0.031 H 
ATOM     33  H   LIG d   1       7.785  -6.611  -5.573  0.00  0.00     0.065 H 
ATOM     34  H   LIG d   1       8.607  -4.965  -2.431  0.00  0.00     0.035 H 
ATOM     35  H   LIG d   1      10.168  -5.586  -2.117  0.00  0.00     0.035 H 
ATOM     36  H   LIG d   1      10.117  -3.172  -2.899  0.00  0.00     0.028 H 
ATOM     37  H   LIG d   1      11.080  -4.260  -3.909  0.00  0.00     0.028 H 
ENDROOT
BRANCH  15  38
ATOM     38  C   LIG d   1       4.295  -2.025  -3.765  0.00  0.00     0.174 C 
ATOM     39  O   LIG d   1       4.198  -3.066  -4.369  0.00  0.00    -0.293 OA
BRANCH  38  40
ATOM     40  C   LIG d   1       3.934  -1.965  -2.303  0.00  0.00    -0.002 C 
ATOM     41  H   LIG d   1       4.588  -2.508  -1.776  0.00  0.00     0.031 H 
ATOM     42  H   LIG d   1       3.964  -0.930  -1.964  0.00  0.00     0.031 H 
ATOM     43  H   LIG d   1       2.930  -2.365  -2.160  0.00  0.00     0.031 H 
ENDBRANCH  38  40
ENDBRANCH  15  38
BRANCH  15  44
ATOM     44  O   LIG d   1       3.950   0.344  -4.057  0.00  0.00    -0.450 OA
BRANCH  44  45
ATOM     45  C   LIG d   1       2.815   0.553  -4.742  0.00  0.00     0.305 C 
ATOM     46  O   LIG d   1       2.782   1.384  -5.618  0.00  0.00    -0.251 OA
BRANCH  45  47
ATOM     47  C   LIG d   1       1.580  -0.248  -4.417  0.00  0.00     0.033 C 
ATOM     48  H   LIG d   1       0.770   0.045  -5.085  0.00  0.00     0.034 H 
ATOM     49  H   LIG d   1       1.791  -1.310  -4.545  0.00  0.00     0.034 H 
ATOM     50  H   LIG d   1       1.286  -0.058  -3.384  0.00  0.00     0.034 H 
ENDBRANCH  45  47
ENDBRANCH  44  45
ENDBRANCH  15  44
BRANCH  10  51
ATOM     51  C   LIG d   1       6.266   1.034  -3.768  0.00  0.00    -0.055 C 
ATOM     52  H   LIG d   1       6.218   1.106  -2.682  0.00  0.00     0.024 H 
ATOM     53  H   LIG d   1       7.188   1.498  -4.122  0.00  0.00     0.024 H 
ATOM     54  H   LIG d   1       5.410   1.549  -4.205  0.00  0.00     0.024 H 
ENDBRANCH  10  51
BRANCH  16  55
ATOM     55  C   LIG d   1      10.371  -3.217  -5.830  0.00  0.00    -0.056 C 
ATOM     56  H   LIG d   1      11.274  -2.909  -5.301  0.00  0.00     0.024 H 
ATOM     57  H   LIG d   1      10.592  -4.084  -6.451  0.00  0.00     0.024 H 
ATOM     58  H   LIG d   1      10.022  -2.398  -6.459  0.00  0.00     0.024 H 
ENDBRANCH  16  55
BRANCH   1  59
ATOM     59  C   LIG d   1       8.174  -4.192  -7.918  0.00  0.00    -0.059 C 
ATOM     60  H   LIG d   1       7.439  -4.021  -8.705  0.00  0.00     0.024 H 
ATOM     61  H   LIG d   1       8.902  -3.381  -7.917  0.00  0.00     0.024 H 
ATOM     62  H   LIG d   1       8.685  -5.139  -8.098  0.00  0.00     0.024 H 
ENDBRANCH   1  59
TORSDOF 8
ENDMDL
MODEL 2
REMARK VINA RESULT:      -5.7      1.675      3.162
REMARK  8 active torsions:
REMARK  status: ('A' for Active; 'I' for Inactive)
REMARK    1  A    between atoms: C_1  and  C_2 
REMARK    2  A    between atoms: C_11  and  C_24 
REMARK    3  A    between atoms: C_16  and  C_17 
REMARK    4  A    between atoms: C_16  and  O_20 
REMARK    5  A    between atoms: C_17  and  C_19 
REMARK    6  A    between atoms: O_20  and  C_21 
REMARK    7  A    between atoms: C_21  and  C_23 
REMARK    8  A    between atoms: C_25  and  C_32 
ROOT
ATOM      1  C   LIG d   1       9.272  -1.927  -5.932  0.00  0.00    -0.021 C 
ATOM      2  H   LIG d   1       9.320  -1.275  -6.829  0.00  0.00     0.034 H 
ATOM      3  C   LIG d   1       8.038  -1.514  -5.130  0.00  0.00    -0.043 C 
ATOM      4  C   LIG d   1       7.654  -2.559  -4.094  0.00  0.00    -0.033 C 
ATOM      5  H   LIG d   1       8.495  -2.663  -3.387  0.00  0.00     0.031 H 
ATOM      6  C   LIG d   1       7.390  -3.914  -4.739  0.00  0.00    -0.029 C 
ATOM      7  H   LIG d   1       7.123  -4.639  -3.965  0.00  0.00     0.031 H 
ATOM      8  C   LIG d   1       6.207  -3.753  -5.704  0.00  0.00    -0.049 C 
ATOM      9  C   LIG d   1       4.964  -3.460  -4.876  0.00  0.00    -0.043 C 
ATOM     10  C   LIG d   1       5.093  -2.268  -3.963  0.00  0.00     0.018 C 
ATOM     11  C   LIG d   1       6.447  -2.114  -3.271  0.00  0.00    -0.028 C 
ATOM     12  H   LIG d   1       6.441  -2.669  -2.305  0.00  0.00     0.031 H 
ATOM     13  C   LIG d   1       6.575  -0.593  -3.003  0.00  0.00    -0.045 C 
ATOM     14  C   LIG d   1       5.817   0.075  -4.167  0.00  0.00    -0.005 C 
ATOM     15  C   LIG d   1       4.716  -0.923  -4.580  0.00  0.00     0.176 C 
ATOM     16  C   LIG d   1       8.613  -4.413  -5.498  0.00  0.00    -0.007 C 
ATOM     17  C   LIG d   1       9.125  -3.354  -6.413  0.00  0.00    -0.057 C 
ATOM     18  C   LIG d   1       9.482  -3.596  -7.680  0.00  0.00    -0.019 C 
ATOM     19  C   LIG d   1       9.290  -4.937  -8.240  0.00  0.00     0.156 C 
ATOM     20  O   LIG d   1       9.957  -5.373  -9.150  0.00  0.00    -0.293 OA
ATOM     21  C   LIG d   1       8.150  -5.732  -7.628  0.00  0.00     0.011 C 
ATOM     22  C   LIG d   1       8.358  -5.771  -6.121  0.00  0.00    -0.037 C 
ATOM     23  H   LIG d   1       7.211  -1.351  -5.823  0.00  0.00     0.027 H 
ATOM     24  H   LIG d   1       8.260  -0.564  -4.632  0.00  0.00     0.027 H 
ATOM     25  H   LIG d   1       6.409  -2.952  -6.409  0.00  0.00     0.027 H 
ATOM     26  H   LIG d   1       6.065  -4.686  -6.256  0.00  0.00     0.027 H 
ATOM     27  H   LIG d   1       4.780  -4.344  -4.237  0.00  0.00     0.027 H 
ATOM     28  H   LIG d   1       4.092  -3.375  -5.519  0.00  0.00     0.027 H 
ATOM     29  H   LIG d   1       6.105  -0.332  -2.049  0.00  0.00     0.027 H 
ATOM     30  H   LIG d   1       7.619  -0.279  -2.985  0.00  0.00     0.027 H 
ATOM     31  H   LIG d   1       6.483   0.274  -5.003  0.00  0.00     0.031 H 
ATOM     32  H   LIG d   1       5.360   1.009  -3.830  0.00  0.00     0.031 H 
ATOM     33  H   LIG d   1       9.906  -2.803  -8.280  0.00  0.00     0.065 H 
ATOM     34  H   LIG d   1       7.280  -5.288  -7.844  0.00  0.00     0.035 H 
ATOM     35  H   LIG d   1       8.152  -6.745  -8.032  0.00  0.00     0.035 H 
ATOM     36  H   LIG d   1       7.477  -6.206  -5.646  0.00  0.00     0.028 H 
ATOM     37  H   LIG d   1       9.217  -6.410  -5.898  0.00  0.00     0.028 H 
ENDROOT
BRANCH  15  38
ATOM     38  C   LIG d   1       4.590  -0.967  -6.078  0.00  0.00     0.174 C 
ATOM     39  O   LIG d   1       3.624  -1.482  -6.587  0.00  0.00    -0.293 OA
BRANCH  38  40
ATOM     40  C   LIG d   1       5.669  -0.369  -6.943  0.00  0.00    -0.002 C 
ATOM     41  H   LIG d   1       5.491  -0.594  -7.901  0.00  0.00     0.031 H 
ATOM     42  H   LIG d   1       5.675   0.714  -6.820  0.00  0.00     0.031 H 
ATOM     43  H   LIG d   1       6.637  -0.773  -6.649  0.00  0.00     0.031 H 
ENDBRANCH  38  40
ENDBRANCH  15  38
BRANCH  15  44
ATOM     44  O   LIG d   1       3.443  -0.479  -4.014  0.00  0.00    -0.450 OA
BRANCH  44  45
ATOM     45  C   LIG d   1       3.290   0.840  -3.818  0.00  0.00     0.305 C 
ATOM     46  O   LIG d   1       2.909   1.545  -4.723  0.00  0.00    -0.251 OA
BRANCH  45  47
ATOM     47  C   LIG d   1       3.594   1.443  -2.471  0.00  0.00     0.033 C 
ATOM     48  H   LIG d   1       2.925   2.284  -2.289  0.00  0.00     0.034 H 
ATOM     49  H   LIG d   1       3.450   0.690  -1.695  0.00  0.00     0.034 H 
ATOM     50  H   LIG d   1       4.627   1.789  -2.453  0.00  0.00     0.034 H 
ENDBRANCH  45  47
ENDBRANCH  44  45
ENDBRANCH  15  44
BRANCH  10  51
ATOM     51  C   LIG d   1       4.060  -2.512  -2.825  0.00  0.00    -0.055 C 
ATOM     52  H   LIG d   1       4.090  -1.679  -2.123  0.00  0.00     0.024 H 
ATOM     53  H   LIG d   1       3.060  -2.590  -3.252  0.00  0.00     0.024 H 
ATOM     54  H   LIG d   1       4.305  -3.436  -2.303  0.00  0.00     0.024 H 
ENDBRANCH  10  51
BRANCH  16  55
ATOM     55  C   LIG d   1       9.698  -4.691  -4.450  0.00  0.00    -0.056 C 
ATOM     56  H   LIG d   1       9.268  -5.257  -3.624  0.00  0.00     0.024 H 
ATOM     57  H   LIG d   1      10.503  -5.268  -4.905  0.00  0.00     0.024 H 
ATOM     58  H   LIG d   1      10.093  -3.746  -4.077  0.00  0.00     0.024 H 
ENDBRANCH  16  55
BRANCH   1  59
ATOM     59  C   LIG d   1      10.554  -1.703  -5.139  0.00  0.00    -0.059 C 
ATOM     60  H   LIG d   1      10.318  -1.643  -4.076  0.00  0.00     0.024 H 
ATOM     61  H   LIG d   1      11.240  -2.532  -5.313  0.00  0.00     0.024 H 
ATOM     62  H   LIG d   1      11.022  -0.771  -5.460  0.00  0.00     0.024 H 
ENDBRANCH   1  59
TORSDOF 8
ENDMDL
MODEL 3
REMARK VINA RESULT:      -5.6      3.593      5.866
REMARK  8 active torsions:
REMARK  status: ('A' for Active; 'I' for Inactive)
REMARK    1  A    between atoms: C_1  and  C_2 
REMARK    2  A    between atoms: C_11  and  C_24 
REMARK    3  A    between atoms: C_16  and  C_17 
REMARK    4  A    between atoms: C_16  and  O_20 
REMARK    5  A    between atoms: C_17  and  C_19 
REMARK    6  A    between atoms: O_20  and  C_21 
REMARK    7  A    between atoms: C_21  and  C_23 
REMARK    8  A    between atoms: C_25  and  C_32 
ROOT
ATOM      1  C   LIG d   1       6.020  -2.493  -6.187  0.00  0.00    -0.021 C 
ATOM      2  H   LIG d   1       5.648  -3.532  -6.304  0.00  0.00     0.034 H 
ATOM      3  C   LIG d   1       5.746  -1.758  -7.499  0.00  0.00    -0.043 C 
ATOM      4  C   LIG d   1       5.863  -0.250  -7.344  0.00  0.00    -0.033 C 
ATOM      5  H   LIG d   1       6.897  -0.017  -7.037  0.00  0.00     0.031 H 
ATOM      6  C   LIG d   1       4.909   0.277  -6.278  0.00  0.00    -0.029 C 
ATOM      7  H   LIG d   1       5.025   1.361  -6.191  0.00  0.00     0.031 H 
ATOM      8  C   LIG d   1       3.478  -0.040  -6.731  0.00  0.00    -0.049 C 
ATOM      9  C   LIG d   1       3.183   0.792  -7.971  0.00  0.00    -0.043 C 
ATOM     10  C   LIG d   1       4.168   0.601  -9.094  0.00  0.00     0.018 C 
ATOM     11  C   LIG d   1       5.631   0.469  -8.671  0.00  0.00    -0.028 C 
ATOM     12  H   LIG d   1       6.101   1.478  -8.626  0.00  0.00     0.031 H 
ATOM     13  C   LIG d   1       6.288  -0.368  -9.798  0.00  0.00    -0.045 C 
ATOM     14  C   LIG d   1       5.166  -1.299 -10.299  0.00  0.00    -0.005 C 
ATOM     15  C   LIG d   1       3.848  -0.534 -10.064  0.00  0.00     0.176 C 
ATOM     16  C   LIG d   1       5.179  -0.370  -4.926  0.00  0.00    -0.007 C 
ATOM     17  C   LIG d   1       5.238  -1.854  -5.061  0.00  0.00    -0.057 C 
ATOM     18  C   LIG d   1       4.623  -2.687  -4.214  0.00  0.00    -0.019 C 
ATOM     19  C   LIG d   1       3.779  -2.139  -3.147  0.00  0.00     0.156 C 
ATOM     20  O   LIG d   1       3.567  -2.722  -2.109  0.00  0.00    -0.293 OA
ATOM     21  C   LIG d   1       3.141  -0.796  -3.459  0.00  0.00     0.011 C 
ATOM     22  C   LIG d   1       4.246   0.169  -3.861  0.00  0.00    -0.037 C 
ATOM     23  H   LIG d   1       4.747  -2.024  -7.846  0.00  0.00     0.027 H 
ATOM     24  H   LIG d   1       6.471  -2.109  -8.242  0.00  0.00     0.027 H 
ATOM     25  H   LIG d   1       3.379  -1.102  -6.936  0.00  0.00     0.027 H 
ATOM     26  H   LIG d   1       2.780   0.235  -5.934  0.00  0.00     0.027 H 
ATOM     27  H   LIG d   1       3.231   1.856  -7.670  0.00  0.00     0.027 H 
ATOM     28  H   LIG d   1       2.163   0.627  -8.305  0.00  0.00     0.027 H 
ATOM     29  H   LIG d   1       6.625   0.284 -10.611  0.00  0.00     0.027 H 
ATOM     30  H   LIG d   1       7.135  -0.941  -9.425  0.00  0.00     0.027 H 
ATOM     31  H   LIG d   1       5.164  -2.237  -9.749  0.00  0.00     0.031 H 
ATOM     32  H   LIG d   1       5.292  -1.498 -11.366  0.00  0.00     0.031 H 
ATOM     33  H   LIG d   1       4.750  -3.755  -4.322  0.00  0.00     0.065 H 
ATOM     34  H   LIG d   1       2.488  -0.903  -4.208  0.00  0.00     0.035 H 
ATOM     35  H   LIG d   1       2.623  -0.424  -2.574  0.00  0.00     0.035 H 
ATOM     36  H   LIG d   1       3.801   1.094  -4.232  0.00  0.00     0.028 H 
ATOM     37  H   LIG d   1       4.846   0.409  -2.978  0.00  0.00     0.028 H 
ENDROOT
BRANCH  15  38
ATOM     38  C   LIG d   1       2.786  -1.471  -9.557  0.00  0.00     0.174 C 
ATOM     39  O   LIG d   1       3.101  -2.516  -9.040  0.00  0.00    -0.293 OA
BRANCH  38  40
ATOM     40  C   LIG d   1       1.331  -1.105  -9.693  0.00  0.00    -0.002 C 
ATOM     41  H   LIG d   1       0.765  -1.890  -9.439  0.00  0.00     0.031 H 
ATOM     42  H   LIG d   1       1.104  -0.266  -9.035  0.00  0.00     0.031 H 
ATOM     43  H   LIG d   1       1.121  -0.825 -10.725  0.00  0.00     0.031 H 
ENDBRANCH  38  40
ENDBRANCH  15  38
BRANCH  15  44
ATOM     44  O   LIG d   1       3.403   0.036 -11.335  0.00  0.00    -0.450 OA
BRANCH  44  45
ATOM     45  C   LIG d   1       3.742  -0.626 -12.453  0.00  0.00     0.305 C 
ATOM     46  O   LIG d   1       4.773  -0.360 -13.024  0.00  0.00    -0.251 OA
BRANCH  45  47
ATOM     47  C   LIG d   1       2.835  -1.701 -12.995  0.00  0.00     0.033 C 
ATOM     48  H   LIG d   1       1.850  -1.279 -13.192  0.00  0.00     0.034 H 
ATOM     49  H   LIG d   1       3.254  -2.096 -13.921  0.00  0.00     0.034 H 
ATOM     50  H   LIG d   1       2.748  -2.505 -12.264  0.00  0.00     0.034 H 
ENDBRANCH  45  47
ENDBRANCH  44  45
ENDBRANCH  15  44
BRANCH  10  51
ATOM     51  C   LIG d   1       4.087   1.907  -9.936  0.00  0.00    -0.055 C 
ATOM     52  H   LIG d   1       5.014   2.469  -9.826  0.00  0.00     0.024 H 
ATOM     53  H   LIG d   1       3.938   1.654 -10.986  0.00  0.00     0.024 H 
ATOM     54  H   LIG d   1       3.251   2.513  -9.587  0.00  0.00     0.024 H 
ENDBRANCH  10  51
BRANCH  16  55
ATOM     55  C   LIG d   1       6.564   0.113  -4.475  0.00  0.00    -0.056 C 
ATOM     56  H   LIG d   1       6.821  -0.355  -3.525  0.00  0.00     0.024 H 
ATOM     57  H   LIG d   1       7.306  -0.159  -5.225  0.00  0.00     0.024 H 
ATOM     58  H   LIG d   1       6.549   1.196  -4.354  0.00  0.00     0.024 H 
ENDBRANCH  16  55
BRANCH   1  59
ATOM     59  C   LIG d   1       7.514  -2.575  -5.893  0.00  0.00    -0.059 C 
ATOM     60  H   LIG d   1       8.067  -2.624  -6.832  0.00  0.00     0.024 H 
ATOM     61  H   LIG d   1       7.823  -1.692  -5.334  0.00  0.00     0.024 H 
ATOM     62  H   LIG d   1       7.719  -3.469  -5.303  0.00  0.00     0.024 H 
ENDBRANCH   1  59
TORSDOF 8
ENDMDL
MODEL 4
REMARK VINA RESULT:      -5.4      2.334      4.425
REMARK  8 active torsions:
REMARK  status: ('A' for Active; 'I' for Inactive)
REMARK    1  A    between atoms: C_1  and  C_2 
REMARK    2  A    between atoms: C_11  and  C_24 
REMARK    3  A    between atoms: C_16  and  C_17 
REMARK    4  A    between atoms: C_16  and  O_20 
REMARK    5  A    between atoms: C_17  and  C_19 
REMARK    6  A    between atoms: O_20  and  C_21 
REMARK    7  A    between atoms: C_21  and  C_23 
REMARK    8  A    between atoms: C_25  and  C_32 
ROOT
ATOM      1  C   LIG d   1       7.462  -4.790  -5.842  0.00  0.00    -0.021 C 
ATOM      2  H   LIG d   1       8.517  -4.471  -5.975  0.00  0.00     0.034 H 
ATOM      3  C   LIG d   1       6.725  -3.651  -5.138  0.00  0.00    -0.043 C 
ATOM      4  C   LIG d   1       5.215  -3.804  -5.232  0.00  0.00    -0.033 C 
ATOM      5  H   LIG d   1       4.935  -4.746  -4.731  0.00  0.00     0.031 H 
ATOM      6  C   LIG d   1       4.750  -3.867  -6.682  0.00  0.00    -0.029 C 
ATOM      7  H   LIG d   1       3.662  -3.982  -6.710  0.00  0.00     0.031 H 
ATOM      8  C   LIG d   1       5.131  -2.542  -7.356  0.00  0.00    -0.049 C 
ATOM      9  C   LIG d   1       4.298  -1.437  -6.721  0.00  0.00    -0.043 C 
ATOM     10  C   LIG d   1       4.426  -1.346  -5.224  0.00  0.00     0.018 C 
ATOM     11  C   LIG d   1       4.491  -2.684  -4.487  0.00  0.00    -0.028 C 
ATOM     12  H   LIG d   1       3.461  -3.023  -4.232  0.00  0.00     0.031 H 
ATOM     13  C   LIG d   1       5.280  -2.375  -3.189  0.00  0.00    -0.045 C 
ATOM     14  C   LIG d   1       6.259  -1.251  -3.584  0.00  0.00    -0.005 C 
ATOM     15  C   LIG d   1       5.563  -0.464  -4.712  0.00  0.00     0.176 C 
ATOM     16  C   LIG d   1       5.400  -5.030  -7.421  0.00  0.00    -0.007 C 
ATOM     17  C   LIG d   1       6.877  -5.014  -7.219  0.00  0.00    -0.057 C 
ATOM     18  C   LIG d   1       7.750  -5.199  -8.215  0.00  0.00    -0.019 C 
ATOM     19  C   LIG d   1       7.258  -5.340  -9.589  0.00  0.00     0.156 C 
ATOM     20  O   LIG d   1       7.864  -5.938 -10.449  0.00  0.00    -0.293 OA
ATOM     21  C   LIG d   1       5.945  -4.634  -9.877  0.00  0.00     0.011 C 
ATOM     22  C   LIG d   1       4.921  -5.107  -8.856  0.00  0.00    -0.037 C 
ATOM     23  H   LIG d   1       7.035  -2.706  -5.585  0.00  0.00     0.027 H 
ATOM     24  H   LIG d   1       7.030  -3.649  -4.085  0.00  0.00     0.027 H 
ATOM     25  H   LIG d   1       6.194  -2.355  -7.234  0.00  0.00     0.027 H 
ATOM     26  H   LIG d   1       4.901  -2.604  -8.424  0.00  0.00     0.027 H 
ATOM     27  H   LIG d   1       3.237  -1.655  -6.948  0.00  0.00     0.027 H 
ATOM     28  H   LIG d   1       4.510  -0.483  -7.197  0.00  0.00     0.027 H 
ATOM     29  H   LIG d   1       4.602  -2.023  -2.404  0.00  0.00     0.027 H 
ATOM     30  H   LIG d   1       5.816  -3.253  -2.831  0.00  0.00     0.027 H 
ATOM     31  H   LIG d   1       7.203  -1.663  -3.933  0.00  0.00     0.031 H 
ATOM     32  H   LIG d   1       6.438  -0.593  -2.731  0.00  0.00     0.031 H 
ATOM     33  H   LIG d   1       8.809  -5.240  -8.002  0.00  0.00     0.065 H 
ATOM     34  H   LIG d   1       6.074  -3.645  -9.802  0.00  0.00     0.035 H 
ATOM     35  H   LIG d   1       5.610  -4.882 -10.885  0.00  0.00     0.035 H 
ATOM     36  H   LIG d   1       4.014  -4.506  -8.948  0.00  0.00     0.028 H 
ATOM     37  H   LIG d   1       4.663  -6.148  -9.069  0.00  0.00     0.028 H 
ENDROOT
BRANCH  15  38
ATOM     38  C   LIG d   1       6.558  -0.095  -5.778  0.00  0.00     0.174 C 
ATOM     39  O   LIG d   1       6.268   0.724  -6.616  0.00  0.00    -0.293 OA
BRANCH  38  40
ATOM     40  C   LIG d   1       7.916  -0.747  -5.800  0.00  0.00    -0.002 C 
ATOM     41  H   LIG d   1       8.578  -0.124  -6.218  0.00  0.00     0.031 H 
ATOM     42  H   LIG d   1       8.226  -0.975  -4.780  0.00  0.00     0.031 H 
ATOM     43  H   LIG d   1       7.868  -1.669  -6.380  0.00  0.00     0.031 H 
ENDBRANCH  38  40
ENDBRANCH  15  38
BRANCH  15  44
ATOM     44  O   LIG d   1       4.999   0.762  -4.150  0.00  0.00    -0.450 OA
BRANCH  44  45
ATOM     45  C   LIG d   1       5.473   1.161  -2.960  0.00  0.00     0.305 C 
ATOM     46  O   LIG d   1       6.567   1.670  -2.884  0.00  0.00    -0.251 OA
BRANCH  45  47
ATOM     47  C   LIG d   1       4.641   0.974  -1.717  0.00  0.00     0.033 C 
ATOM     48  H   LIG d   1       5.288   0.695  -0.885  0.00  0.00     0.034 H 
ATOM     49  H   LIG d   1       4.127   1.906  -1.480  0.00  0.00     0.034 H 
ATOM     50  H   LIG d   1       3.907   0.187  -1.887  0.00  0.00     0.034 H 
ENDBRANCH  45  47
ENDBRANCH  44  45
ENDBRANCH  15  44
BRANCH  10  51
ATOM     51  C   LIG d   1       3.115  -0.661  -4.743  0.00  0.00    -0.055 C 
ATOM     52  H   LIG d   1       3.361   0.184  -4.100  0.00  0.00     0.024 H 
ATOM     53  H   LIG d   1       2.551  -0.307  -5.606  0.00  0.00     0.024 H 
ATOM     54  H   LIG d   1       2.513  -1.378  -4.185  0.00  0.00     0.024 H 
ENDBRANCH  10  51
BRANCH  16  55
ATOM     55  C   LIG d   1       4.855  -6.315  -6.785  0.00  0.00    -0.056 C 
ATOM     56  H   LIG d   1       4.804  -6.193  -5.703  0.00  0.00     0.024 H 
ATOM     57  H   LIG d   1       3.857  -6.518  -7.174  0.00  0.00     0.024 H 
ATOM     58  H   LIG d   1       5.515  -7.148  -7.026  0.00  0.00     0.024 H 
ENDBRANCH  16  55
BRANCH   1  59
ATOM     59  C   LIG d   1       7.474  -6.056  -4.994  0.00  0.00    -0.059 C 
ATOM     60  H   LIG d   1       6.983  -5.860  -4.040  0.00  0.00     0.024 H 
ATOM     61  H   LIG d   1       6.944  -6.851  -5.520  0.00  0.00     0.024 H 
ATOM     62  H   LIG d   1       8.505  -6.364  -4.815  0.00  0.00     0.024 H 
ENDBRANCH   1  59
TORSDOF 8
ENDMDL
MODEL 5
REMARK VINA RESULT:      -5.1      5.668      8.179
REMARK  8 active torsions:
REMARK  status: ('A' for Active; 'I' for Inactive)
REMARK    1  A    between atoms: C_1  and  C_2 
REMARK    2  A    between atoms: C_11  and  C_24 
REMARK    3  A    between atoms: C_16  and  C_17 
REMARK    4  A    between atoms: C_16  and  O_20 
REMARK    5  A    between atoms: C_17  and  C_19 
REMARK    6  A    between atoms: O_20  and  C_21 
REMARK    7  A    between atoms: C_21  and  C_23 
REMARK    8  A    between atoms: C_25  and  C_32 
ROOT
ATOM      1  C   LIG d   1       4.225   1.115  -9.939  0.00  0.00    -0.021 C 
ATOM      2  H   LIG d   1       5.098   1.268 -10.608  0.00  0.00     0.034 H 
ATOM      3  C   LIG d   1       3.322   0.071 -10.597  0.00  0.00    -0.043 C 
ATOM      4  C   LIG d   1       2.302  -0.496  -9.622  0.00  0.00    -0.033 C 
ATOM      5  H   LIG d   1       1.661   0.334  -9.278  0.00  0.00     0.031 H 
ATOM      6  C   LIG d   1       2.978  -1.125  -8.410  0.00  0.00    -0.029 C 
ATOM      7  H   LIG d   1       2.214  -1.516  -7.731  0.00  0.00     0.031 H 
ATOM      8  C   LIG d   1       3.848  -2.287  -8.908  0.00  0.00    -0.049 C 
ATOM      9  C   LIG d   1       2.923  -3.367  -9.450  0.00  0.00    -0.043 C 
ATOM     10  C   LIG d   1       1.977  -2.893 -10.522  0.00  0.00     0.018 C 
ATOM     11  C   LIG d   1       1.378  -1.504 -10.303  0.00  0.00    -0.028 C 
ATOM     12  H   LIG d   1       0.436  -1.589  -9.715  0.00  0.00     0.031 H 
ATOM     13  C   LIG d   1       1.062  -0.988 -11.730  0.00  0.00    -0.045 C 
ATOM     14  C   LIG d   1       2.143  -1.626 -12.626  0.00  0.00    -0.005 C 
ATOM     15  C   LIG d   1       2.514  -2.962 -11.950  0.00  0.00     0.176 C 
ATOM     16  C   LIG d   1       3.841  -0.111  -7.670  0.00  0.00    -0.007 C 
ATOM     17  C   LIG d   1       4.749   0.592  -8.620  0.00  0.00    -0.057 C 
ATOM     18  C   LIG d   1       6.046   0.801  -8.368  0.00  0.00    -0.019 C 
ATOM     19  C   LIG d   1       6.642   0.250  -7.147  0.00  0.00     0.156 C 
ATOM     20  O   LIG d   1       7.613   0.733  -6.611  0.00  0.00    -0.293 OA
ATOM     21  C   LIG d   1       5.980  -1.012  -6.622  0.00  0.00     0.011 C 
ATOM     22  C   LIG d   1       4.494  -0.730  -6.451  0.00  0.00    -0.037 C 
ATOM     23  H   LIG d   1       3.947  -0.729 -10.995  0.00  0.00     0.027 H 
ATOM     24  H   LIG d   1       2.805   0.551 -11.435  0.00  0.00     0.027 H 
ATOM     25  H   LIG d   1       4.535  -1.936  -9.672  0.00  0.00     0.027 H 
ATOM     26  H   LIG d   1       4.424  -2.688  -8.069  0.00  0.00     0.027 H 
ATOM     27  H   LIG d   1       2.306  -3.726  -8.604  0.00  0.00     0.027 H 
ATOM     28  H   LIG d   1       3.498  -4.228  -9.780  0.00  0.00     0.027 H 
ATOM     29  H   LIG d   1       0.068  -1.321 -12.046  0.00  0.00     0.027 H 
ATOM     30  H   LIG d   1       1.107   0.100 -11.778  0.00  0.00     0.027 H 
ATOM     31  H   LIG d   1       3.015  -0.983 -12.701  0.00  0.00     0.031 H 
ATOM     32  H   LIG d   1       1.738  -1.817 -13.622  0.00  0.00     0.031 H 
ATOM     33  H   LIG d   1       6.644   1.371  -9.065  0.00  0.00     0.065 H 
ATOM     34  H   LIG d   1       6.116  -1.757  -7.276  0.00  0.00     0.035 H 
ATOM     35  H   LIG d   1       6.422  -1.285  -5.663  0.00  0.00     0.035 H 
ATOM     36  H   LIG d   1       3.974  -1.662  -6.219  0.00  0.00     0.028 H 
ATOM     37  H   LIG d   1       4.358  -0.044  -5.611  0.00  0.00     0.028 H 
ENDROOT
BRANCH  15  38
ATOM     38  C   LIG d   1       3.999  -3.184 -12.020  0.00  0.00     0.174 C 
ATOM     39  O   LIG d   1       4.457  -4.276 -11.781  0.00  0.00    -0.293 OA
BRANCH  38  40
ATOM     40  C   LIG d   1       4.915  -2.046 -12.387  0.00  0.00    -0.002 C 
ATOM     41  H   LIG d   1       4.423  -1.180 -12.299  0.00  0.00     0.031 H 
ATOM     42  H   LIG d   1       5.777  -2.043 -11.719  0.00  0.00     0.031 H 
ATOM     43  H   LIG d   1       5.253  -2.169 -13.416  0.00  0.00     0.031 H 
ENDBRANCH  38  40
ENDBRANCH  15  38
BRANCH  15  44
ATOM     44  O   LIG d   1       1.841  -4.049 -12.660  0.00  0.00    -0.450 OA
BRANCH  44  45
ATOM     45  C   LIG d   1       1.670  -3.900 -13.983  0.00  0.00     0.305 C 
ATOM     46  O   LIG d   1       2.600  -4.072 -14.736  0.00  0.00    -0.251 OA
BRANCH  45  47
ATOM     47  C   LIG d   1       0.319  -3.516 -14.529  0.00  0.00     0.033 C 
ATOM     48  H   LIG d   1       0.005  -2.570 -14.090  0.00  0.00     0.034 H 
ATOM     49  H   LIG d   1       0.381  -3.412 -15.613  0.00  0.00     0.034 H 
ATOM     50  H   LIG d   1      -0.407  -4.292 -14.280  0.00  0.00     0.034 H 
ENDBRANCH  45  47
ENDBRANCH  44  45
ENDBRANCH  15  44
BRANCH  10  51
ATOM     51  C   LIG d   1       0.778  -3.883 -10.476  0.00  0.00    -0.055 C 
ATOM     52  H   LIG d   1       0.598  -4.283 -11.474  0.00  0.00     0.024 H 
ATOM     53  H   LIG d   1       1.009  -4.703  -9.794  0.00  0.00     0.024 H 
ATOM     54  H   LIG d   1      -0.112  -3.361 -10.128  0.00  0.00     0.024 H 
ENDBRANCH  10  51
BRANCH  16  55
ATOM     55  C   LIG d   1       2.884   0.933  -7.078  0.00  0.00    -0.056 C 
ATOM     56  H   LIG d   1       2.335   0.492  -6.247  0.00  0.00     0.024 H 
ATOM     57  H   LIG d   1       3.456   1.789  -6.723  0.00  0.00     0.024 H 
ATOM     58  H   LIG d   1       2.182   1.258  -7.846  0.00  0.00     0.024 H 
ENDBRANCH  16  55
BRANCH   1  59
ATOM     59  C   LIG d   1       3.518   2.458  -9.801  0.00  0.00    -0.059 C 
ATOM     60  H   LIG d   1       2.524   2.304  -9.379  0.00  0.00     0.024 H 
ATOM     61  H   LIG d   1       4.096   3.107  -9.143  0.00  0.00     0.024 H 
ATOM     62  H   LIG d   1       3.427   2.924 -10.782  0.00  0.00     0.024 H 
ENDBRANCH   1  59
TORSDOF 8
ENDMDL
MODEL 6
REMARK VINA RESULT:      -5.0      8.437     10.860
REMARK  8 active torsions:
REMARK  status: ('A' for Active; 'I' for Inactive)
REMARK    1  A    between atoms: C_1  and  C_2 
REMARK    2  A    between atoms: C_11  and  C_24 
REMARK    3  A    between atoms: C_16  and  C_17 
REMARK    4  A    between atoms: C_16  and  O_20 
REMARK    5  A    between atoms: C_17  and  C_19 
REMARK    6  A    between atoms: O_20  and  C_21 
REMARK    7  A    between atoms: C_21  and  C_23 
REMARK    8  A    between atoms: C_25  and  C_32 
ROOT
ATOM      1  C   LIG d   1       9.586   6.442  -4.460  0.00  0.00    -0.021 C 
ATOM      2  H   LIG d   1       8.573   6.662  -4.062  0.00  0.00     0.034 H 
ATOM      3  C   LIG d   1      10.601   7.033  -3.482  0.00  0.00    -0.043 C 
ATOM      4  C   LIG d   1      12.000   6.484  -3.709  0.00  0.00    -0.033 C 
ATOM      5  H   LIG d   1      12.315   6.763  -4.730  0.00  0.00     0.031 H 
ATOM      6  C   LIG d   1      12.030   4.965  -3.589  0.00  0.00    -0.029 C 
ATOM      7  H   LIG d   1      13.049   4.608  -3.763  0.00  0.00     0.031 H 
ATOM      8  C   LIG d   1      11.609   4.600  -2.159  0.00  0.00    -0.049 C 
ATOM      9  C   LIG d   1      12.692   5.094  -1.210  0.00  0.00    -0.043 C 
ATOM     10  C   LIG d   1      13.000   6.563  -1.331  0.00  0.00     0.018 C 
ATOM     11  C   LIG d   1      13.012   7.117  -2.756  0.00  0.00    -0.028 C 
ATOM     12  H   LIG d   1      14.033   7.017  -3.189  0.00  0.00     0.031 H 
ATOM     13  C   LIG d   1      12.654   8.616  -2.592  0.00  0.00    -0.045 C 
ATOM     14  C   LIG d   1      11.720   8.665  -1.367  0.00  0.00    -0.005 C 
ATOM     15  C   LIG d   1      12.146   7.488  -0.467  0.00  0.00     0.176 C 
ATOM     16  C   LIG d   1      11.086   4.312  -4.590  0.00  0.00    -0.007 C 
ATOM     17  C   LIG d   1       9.735   4.937  -4.515  0.00  0.00    -0.057 C 
ATOM     18  C   LIG d   1       8.603   4.224  -4.500  0.00  0.00    -0.019 C 
ATOM     19  C   LIG d   1       8.672   2.760  -4.468  0.00  0.00     0.156 C 
ATOM     20  O   LIG d   1       7.793   2.049  -4.897  0.00  0.00    -0.293 OA
ATOM     21  C   LIG d   1       9.915   2.190  -3.808  0.00  0.00     0.011 C 
ATOM     22  C   LIG d   1      11.133   2.801  -4.486  0.00  0.00    -0.037 C 
ATOM     23  H   LIG d   1      10.273   6.816  -2.465  0.00  0.00     0.027 H 
ATOM     24  H   LIG d   1      10.605   8.121  -3.615  0.00  0.00     0.027 H 
ATOM     25  H   LIG d   1      10.647   5.049  -1.928  0.00  0.00     0.027 H 
ATOM     26  H   LIG d   1      11.522   3.512  -2.078  0.00  0.00     0.027 H 
ATOM     27  H   LIG d   1      13.620   4.543  -1.456  0.00  0.00     0.027 H 
ATOM     28  H   LIG d   1      12.451   4.821  -0.186  0.00  0.00     0.027 H 
ATOM     29  H   LIG d   1      13.557   9.206  -2.401  0.00  0.00     0.027 H 
ATOM     30  H   LIG d   1      12.156   9.005  -3.480  0.00  0.00     0.027 H 
ATOM     31  H   LIG d   1      10.681   8.559  -1.666  0.00  0.00     0.031 H 
ATOM     32  H   LIG d   1      11.855   9.607  -0.830  0.00  0.00     0.031 H 
ATOM     33  H   LIG d   1       7.648   4.731  -4.508  0.00  0.00     0.065 H 
ATOM     34  H   LIG d   1       9.911   2.420  -2.834  0.00  0.00     0.035 H 
ATOM     35  H   LIG d   1       9.927   1.106  -3.925  0.00  0.00     0.035 H 
ATOM     36  H   LIG d   1      12.032   2.523  -3.933  0.00  0.00     0.028 H 
ATOM     37  H   LIG d   1      11.216   2.397  -5.498  0.00  0.00     0.028 H 
ENDROOT
BRANCH  15  38
ATOM     38  C   LIG d   1      10.934   6.812   0.113  0.00  0.00     0.174 C 
ATOM     39  O   LIG d   1       9.853   6.965  -0.404  0.00  0.00    -0.293 OA
BRANCH  38  40
ATOM     40  C   LIG d   1      11.068   5.945   1.338  0.00  0.00    -0.002 C 
ATOM     41  H   LIG d   1      10.182   5.880   1.799  0.00  0.00     0.031 H 
ATOM     42  H   LIG d   1      11.397   4.948   1.042  0.00  0.00     0.031 H 
ATOM     43  H   LIG d   1      11.799   6.383   2.015  0.00  0.00     0.031 H 
ENDBRANCH  38  40
ENDBRANCH  15  38
BRANCH  15  44
ATOM     44  O   LIG d   1      12.964   8.006   0.629  0.00  0.00    -0.450 OA
BRANCH  44  45
ATOM     45  C   LIG d   1      12.802   9.299   0.952  0.00  0.00     0.305 C 
ATOM     46  O   LIG d   1      13.540  10.136   0.488  0.00  0.00    -0.251 OA
BRANCH  45  47
ATOM     47  C   LIG d   1      11.699   9.707   1.896  0.00  0.00     0.033 C 
ATOM     48  H   LIG d   1      10.765   9.801   1.344  0.00  0.00     0.034 H 
ATOM     49  H   LIG d   1      11.588   8.950   2.673  0.00  0.00     0.034 H 
ATOM     50  H   LIG d   1      11.950  10.664   2.354  0.00  0.00     0.034 H 
ENDBRANCH  45  47
ENDBRANCH  44  45
ENDBRANCH  15  44
BRANCH  10  51
ATOM     51  C   LIG d   1      14.455   6.720  -0.803  0.00  0.00    -0.055 C 
ATOM     52  H   LIG d   1      14.691   5.892  -0.137  0.00  0.00     0.024 H 
ATOM     53  H   LIG d   1      15.149   6.719  -1.644  0.00  0.00     0.024 H 
ATOM     54  H   LIG d   1      14.545   7.661  -0.260  0.00  0.00     0.024 H 
ENDBRANCH  10  51
BRANCH  16  55
ATOM     55  C   LIG d   1      11.658   4.598  -5.985  0.00  0.00    -0.056 C 
ATOM     56  H   LIG d   1      11.929   3.659  -6.466  0.00  0.00     0.024 H 
ATOM     57  H   LIG d   1      10.908   5.111  -6.587  0.00  0.00     0.024 H 
ATOM     58  H   LIG d   1      12.543   5.228  -5.893  0.00  0.00     0.024 H 
ENDBRANCH  16  55
BRANCH   1  59
ATOM     59  C   LIG d   1       9.687   7.094  -5.833  0.00  0.00    -0.059 C 
ATOM     60  H   LIG d   1      10.688   6.939  -6.237  0.00  0.00     0.024 H 
ATOM     61  H   LIG d   1       8.951   6.649  -6.503  0.00  0.00     0.024 H 
ATOM     62  H   LIG d   1       9.494   8.164  -5.742  0.00  0.00     0.024 H 
ENDBRANCH   1  59
TORSDOF 8
ENDMDL
MODEL 7
REMARK VINA RESULT:      -4.9      5.604      8.284
REMARK  8 active torsions:
REMARK  status: ('A' for Active; 'I' for Inactive)
REMARK    1  A    between atoms: C_1  and  C_2 
REMARK    2  A    between atoms: C_11  and  C_24 
REMARK    3  A    between atoms: C_16  and  C_17 
REMARK    4  A    between atoms: C_16  and  O_20 
REMARK    5  A    between atoms: C_17  and  C_19 
REMARK    6  A    between atoms: O_20  and  C_21 
REMARK    7  A    between atoms: C_21  and  C_23 
REMARK    8  A    between atoms: C_25  and  C_32 
ROOT
ATOM      1  C   LIG d   1       5.669  -0.672  -9.421  0.00  0.00    -0.021 C 
ATOM      2  H   LIG d   1       6.245  -1.536  -9.029  0.00  0.00     0.034 H 
ATOM      3  C   LIG d   1       4.761  -1.196 -10.534  0.00  0.00    -0.043 C 
ATOM      4  C   LIG d   1       3.665  -0.204 -10.892  0.00  0.00    -0.033 C 
ATOM      5  H   LIG d   1       4.146   0.720 -11.257  0.00  0.00     0.031 H 
ATOM      6  C   LIG d   1       2.807   0.141  -9.680  0.00  0.00    -0.029 C 
ATOM      7  H   LIG d   1       2.036   0.858  -9.974  0.00  0.00     0.031 H 
ATOM      8  C   LIG d   1       2.133  -1.151  -9.200  0.00  0.00    -0.049 C 
ATOM      9  C   LIG d   1       1.145  -1.591 -10.271  0.00  0.00    -0.043 C 
ATOM     10  C   LIG d   1       1.751  -1.766 -11.639  0.00  0.00     0.018 C 
ATOM     11  C   LIG d   1       2.793  -0.720 -12.034  0.00  0.00    -0.028 C 
ATOM     12  H   LIG d   1       2.291   0.143 -12.528  0.00  0.00     0.031 H 
ATOM     13  C   LIG d   1       3.708  -1.449 -13.052  0.00  0.00    -0.045 C 
ATOM     14  C   LIG d   1       3.698  -2.924 -12.602  0.00  0.00    -0.005 C 
ATOM     15  C   LIG d   1       2.328  -3.149 -11.931  0.00  0.00     0.176 C 
ATOM     16  C   LIG d   1       3.649   0.734  -8.557  0.00  0.00    -0.007 C 
ATOM     17  C   LIG d   1       4.833  -0.129  -8.283  0.00  0.00    -0.057 C 
ATOM     18  C   LIG d   1       5.222  -0.460  -7.047  0.00  0.00    -0.019 C 
ATOM     19  C   LIG d   1       4.414  -0.038  -5.898  0.00  0.00     0.156 C 
ATOM     20  O   LIG d   1       4.874   0.120  -4.791  0.00  0.00    -0.293 OA
ATOM     21  C   LIG d   1       2.933   0.141  -6.186  0.00  0.00     0.011 C 
ATOM     22  C   LIG d   1       2.793   1.098  -7.361  0.00  0.00    -0.037 C 
ATOM     23  H   LIG d   1       4.321  -2.140 -10.211  0.00  0.00     0.027 H 
ATOM     24  H   LIG d   1       5.383  -1.392 -11.415  0.00  0.00     0.027 H 
ATOM     25  H   LIG d   1       2.882  -1.916  -9.016  0.00  0.00     0.027 H 
ATOM     26  H   LIG d   1       1.594  -0.950  -8.269  0.00  0.00     0.027 H 
ATOM     27  H   LIG d   1       0.375  -0.800 -10.352  0.00  0.00     0.027 H 
ATOM     28  H   LIG d   1       0.616  -2.485  -9.954  0.00  0.00     0.027 H 
ATOM     29  H   LIG d   1       3.298  -1.363 -14.064  0.00  0.00     0.027 H 
ATOM     30  H   LIG d   1       4.718  -1.043 -13.040  0.00  0.00     0.027 H 
ATOM     31  H   LIG d   1       4.503  -3.120 -11.899  0.00  0.00     0.031 H 
ATOM     32  H   LIG d   1       3.797  -3.581 -13.469  0.00  0.00     0.031 H 
ATOM     33  H   LIG d   1       6.125  -1.037  -6.903  0.00  0.00     0.065 H 
ATOM     34  H   LIG d   1       2.528  -0.745  -6.413  0.00  0.00     0.035 H 
ATOM     35  H   LIG d   1       2.438   0.554  -5.307  0.00  0.00     0.035 H 
ATOM     36  H   LIG d   1       1.750   1.126  -7.682  0.00  0.00     0.028 H 
ATOM     37  H   LIG d   1       3.078   2.102  -7.037  0.00  0.00     0.028 H 
ENDROOT
BRANCH  15  38
ATOM     38  C   LIG d   1       2.485  -4.002 -10.703  0.00  0.00     0.174 C 
ATOM     39  O   LIG d   1       1.514  -4.502 -10.187  0.00  0.00    -0.293 OA
BRANCH  38  40
ATOM     40  C   LIG d   1       3.854  -4.235 -10.116  0.00  0.00    -0.002 C 
ATOM     41  H   LIG d   1       4.538  -3.754 -10.666  0.00  0.00     0.031 H 
ATOM     42  H   LIG d   1       3.879  -3.857  -9.094  0.00  0.00     0.031 H 
ATOM     43  H   LIG d   1       4.072  -5.302 -10.115  0.00  0.00     0.031 H 
ENDBRANCH  38  40
ENDBRANCH  15  38
BRANCH  15  44
ATOM     44  O   LIG d   1       1.451  -3.841 -12.876  0.00  0.00    -0.450 OA
BRANCH  44  45
ATOM     45  C   LIG d   1       2.025  -4.731 -13.701  0.00  0.00     0.305 C 
ATOM     46  O   LIG d   1       2.355  -5.816 -13.284  0.00  0.00    -0.251 OA
BRANCH  45  47
ATOM     47  C   LIG d   1       2.259  -4.375 -15.147  0.00  0.00     0.033 C 
ATOM     48  H   LIG d   1       1.320  -4.444 -15.694  0.00  0.00     0.034 H 
ATOM     49  H   LIG d   1       2.646  -3.358 -15.213  0.00  0.00     0.034 H 
ATOM     50  H   LIG d   1       2.984  -5.068 -15.577  0.00  0.00     0.034 H 
ENDBRANCH  45  47
ENDBRANCH  44  45
ENDBRANCH  15  44
BRANCH  10  51
ATOM     51  C   LIG d   1       0.570  -1.585 -12.635  0.00  0.00    -0.055 C 
ATOM     52  H   LIG d   1      -0.100  -0.808 -12.268  0.00  0.00     0.024 H 
ATOM     53  H   LIG d   1       0.959  -1.296 -13.612  0.00  0.00     0.024 H 
ATOM     54  H   LIG d   1       0.023  -2.523 -12.725  0.00  0.00     0.024 H 
ENDBRANCH  10  51
BRANCH  16  55
ATOM     55  C   LIG d   1       4.163   2.088  -9.062  0.00  0.00    -0.056 C 
ATOM     56  H   LIG d   1       5.016   1.930  -9.722  0.00  0.00     0.024 H 
ATOM     57  H   LIG d   1       3.371   2.598  -9.609  0.00  0.00     0.024 H 
ATOM     58  H   LIG d   1       4.470   2.699  -8.213  0.00  0.00     0.024 H 
ENDBRANCH  16  55
BRANCH   1  59
ATOM     59  C   LIG d   1       6.674   0.343  -9.951  0.00  0.00    -0.059 C 
ATOM     60  H   LIG d   1       7.549  -0.180 -10.339  0.00  0.00     0.024 H 
ATOM     61  H   LIG d   1       6.214   0.927 -10.749  0.00  0.00     0.024 H 
ATOM     62  H   LIG d   1       6.977   1.009  -9.143  0.00  0.00     0.024 H 
ENDBRANCH   1  59
TORSDOF 8
ENDMDL
MODEL 8
REMARK VINA RESULT:      -4.8      8.758     11.296
REMARK  8 active torsions:
REMARK  status: ('A' for Active; 'I' for Inactive)
REMARK    1  A    between atoms: C_1  and  C_2 
REMARK    2  A    between atoms: C_11  and  C_24 
REMARK    3  A    between atoms: C_16  and  C_17 
REMARK    4  A    between atoms: C_16  and  O_20 
REMARK    5  A    between atoms: C_17  and  C_19 
REMARK    6  A    between atoms: O_20  and  C_21 
REMARK    7  A    between atoms: C_21  and  C_23 
REMARK    8  A    between atoms: C_25  and  C_32 
ROOT
ATOM      1  C   LIG d   1      12.908   6.267  -4.534  0.00  0.00    -0.021 C 
ATOM      2  H   LIG d   1      12.802   7.203  -5.121  0.00  0.00     0.034 H 
ATOM      3  C   LIG d   1      12.807   6.641  -3.055  0.00  0.00    -0.043 C 
ATOM      4  C   LIG d   1      12.561   5.426  -2.175  0.00  0.00    -0.033 C 
ATOM      5  H   LIG d   1      13.419   4.741  -2.291  0.00  0.00     0.031 H 
ATOM      6  C   LIG d   1      11.291   4.688  -2.582  0.00  0.00    -0.029 C 
ATOM      7  H   LIG d   1      11.151   3.820  -1.932  0.00  0.00     0.031 H 
ATOM      8  C   LIG d   1      10.110   5.650  -2.396  0.00  0.00    -0.049 C 
ATOM      9  C   LIG d   1       9.952   5.915  -0.905  0.00  0.00    -0.043 C 
ATOM     10  C   LIG d   1      11.194   6.438  -0.233  0.00  0.00     0.018 C 
ATOM     11  C   LIG d   1      12.507   5.806  -0.697  0.00  0.00    -0.028 C 
ATOM     12  H   LIG d   1      12.730   4.906  -0.080  0.00  0.00     0.031 H 
ATOM     13  C   LIG d   1      13.576   6.899  -0.437  0.00  0.00    -0.045 C 
ATOM     14  C   LIG d   1      12.829   8.233  -0.636  0.00  0.00    -0.005 C 
ATOM     15  C   LIG d   1      11.363   7.955  -0.249  0.00  0.00     0.176 C 
ATOM     16  C   LIG d   1      11.361   4.228  -4.033  0.00  0.00    -0.007 C 
ATOM     17  C   LIG d   1      11.762   5.358  -4.919  0.00  0.00    -0.057 C 
ATOM     18  C   LIG d   1      11.152   5.625  -6.080  0.00  0.00    -0.019 C 
ATOM     19  C   LIG d   1       9.982   4.837  -6.478  0.00  0.00     0.156 C 
ATOM     20  O   LIG d   1       9.655   4.678  -7.632  0.00  0.00    -0.293 OA
ATOM     21  C   LIG d   1       9.168   4.269  -5.328  0.00  0.00     0.011 C 
ATOM     22  C   LIG d   1      10.108   3.475  -4.432  0.00  0.00    -0.037 C 
ATOM     23  H   LIG d   1      11.999   7.363  -2.932  0.00  0.00     0.027 H 
ATOM     24  H   LIG d   1      13.746   7.124  -2.763  0.00  0.00     0.027 H 
ATOM     25  H   LIG d   1      10.290   6.570  -2.944  0.00  0.00     0.027 H 
ATOM     26  H   LIG d   1       9.200   5.179  -2.780  0.00  0.00     0.027 H 
ATOM     27  H   LIG d   1       9.701   4.950  -0.425  0.00  0.00     0.027 H 
ATOM     28  H   LIG d   1       9.100   6.564  -0.724  0.00  0.00     0.027 H 
ATOM     29  H   LIG d   1      13.953   6.828   0.589  0.00  0.00     0.027 H 
ATOM     30  H   LIG d   1      14.411   6.810  -1.131  0.00  0.00     0.027 H 
ATOM     31  H   LIG d   1      12.894   8.565  -1.669  0.00  0.00     0.031 H 
ATOM     32  H   LIG d   1      13.246   8.997   0.024  0.00  0.00     0.031 H 
ATOM     33  H   LIG d   1      11.524   6.418  -6.713  0.00  0.00     0.065 H 
ATOM     34  H   LIG d   1       8.751   5.017  -4.813  0.00  0.00     0.035 H 
ATOM     35  H   LIG d   1       8.387   3.617  -5.721  0.00  0.00     0.035 H 
ATOM     36  H   LIG d   1       9.579   3.183  -3.523  0.00  0.00     0.028 H 
ATOM     37  H   LIG d   1      10.414   2.566  -4.956  0.00  0.00     0.028 H 
ENDROOT
BRANCH  15  38
ATOM     38  C   LIG d   1      10.433   8.649  -1.207  0.00  0.00     0.174 C 
ATOM     39  O   LIG d   1      10.833   8.995  -2.292  0.00  0.00    -0.293 OA
BRANCH  38  40
ATOM     40  C   LIG d   1       9.003   8.911  -0.812  0.00  0.00    -0.002 C 
ATOM     41  H   LIG d   1       8.825   8.507   0.086  0.00  0.00     0.031 H 
ATOM     42  H   LIG d   1       8.830   9.986  -0.767  0.00  0.00     0.031 H 
ATOM     43  H   LIG d   1       8.335   8.466  -1.549  0.00  0.00     0.031 H 
ENDBRANCH  38  40
ENDBRANCH  15  38
BRANCH  15  44
ATOM     44  O   LIG d   1      11.125   8.475   1.097  0.00  0.00    -0.450 OA
BRANCH  44  45
ATOM     45  C   LIG d   1      11.893   9.500   1.499  0.00  0.00     0.305 C 
ATOM     46  O   LIG d   1      12.890   9.290   2.149  0.00  0.00    -0.251 OA
BRANCH  45  47
ATOM     47  C   LIG d   1      11.512  10.914   1.140  0.00  0.00     0.033 C 
ATOM     48  H   LIG d   1      12.408  11.478   0.883  0.00  0.00     0.034 H 
ATOM     49  H   LIG d   1      10.832  10.902   0.288  0.00  0.00     0.034 H 
ATOM     50  H   LIG d   1      11.018  11.383   1.992  0.00  0.00     0.034 H 
ENDBRANCH  45  47
ENDBRANCH  44  45
ENDBRANCH  15  44
BRANCH  10  51
ATOM     51  C   LIG d   1      11.043   6.048   1.265  0.00  0.00    -0.055 C 
ATOM     52  H   LIG d   1      11.379   6.874   1.891  0.00  0.00     0.024 H 
ATOM     53  H   LIG d   1       9.996   5.833   1.481  0.00  0.00     0.024 H 
ATOM     54  H   LIG d   1      11.646   5.165   1.475  0.00  0.00     0.024 H 
ENDBRANCH  10  51
BRANCH  16  55
ATOM     55  C   LIG d   1      12.463   3.163  -4.104  0.00  0.00    -0.056 C 
ATOM     56  H   LIG d   1      12.077   2.274  -4.602  0.00  0.00     0.024 H 
ATOM     57  H   LIG d   1      13.310   3.555  -4.666  0.00  0.00     0.024 H 
ATOM     58  H   LIG d   1      12.784   2.904  -3.096  0.00  0.00     0.024 H 
ENDBRANCH  16  55
BRANCH   1  59
ATOM     59  C   LIG d   1      14.270   5.671  -4.868  0.00  0.00    -0.059 C 
ATOM     60  H   LIG d   1      14.325   5.466  -5.938  0.00  0.00     0.024 H 
ATOM     61  H   LIG d   1      15.053   6.378  -4.592  0.00  0.00     0.024 H 
ATOM     62  H   LIG d   1      14.406   4.743  -4.313  0.00  0.00     0.024 H 
ENDBRANCH   1  59
TORSDOF 8
ENDMDL
MODEL 9
REMARK VINA RESULT:      -4.8      8.676     11.364
REMARK  8 active torsions:
REMARK  status: ('A' for Active; 'I' for Inactive)
REMARK    1  A    between atoms: C_1  and  C_2 
REMARK    2  A    between atoms: C_11  and  C_24 
REMARK    3  A    between atoms: C_16  and  C_17 
REMARK    4  A    between atoms: C_16  and  O_20 
REMARK    5  A    between atoms: C_17  and  C_19 
REMARK    6  A    between atoms: O_20  and  C_21 
REMARK    7  A    between atoms: C_21  and  C_23 
REMARK    8  A    between atoms: C_25  and  C_32 
ROOT
ATOM      1  C   LIG d   1      12.089   4.163  -3.745  0.00  0.00    -0.021 C 
ATOM      2  H   LIG d   1      13.194   4.191  -3.847  0.00  0.00     0.034 H 
ATOM      3  C   LIG d   1      11.711   5.112  -2.607  0.00  0.00    -0.043 C 
ATOM      4  C   LIG d   1      10.228   5.449  -2.612  0.00  0.00    -0.033 C 
ATOM      5  H   LIG d   1       9.665   4.510  -2.469  0.00  0.00     0.031 H 
ATOM      6  C   LIG d   1       9.803   6.075  -3.935  0.00  0.00    -0.029 C 
ATOM      7  H   LIG d   1       8.732   6.297  -3.903  0.00  0.00     0.031 H 
ATOM      8  C   LIG d   1      10.582   7.385  -4.106  0.00  0.00    -0.049 C 
ATOM      9  C   LIG d   1      10.105   8.358  -3.037  0.00  0.00    -0.043 C 
ATOM     10  C   LIG d   1      10.216   7.835  -1.629  0.00  0.00     0.018 C 
ATOM     11  C   LIG d   1       9.856   6.361  -1.445  0.00  0.00    -0.028 C 
ATOM     12  H   LIG d   1       8.766   6.263  -1.239  0.00  0.00     0.031 H 
ATOM     13  C   LIG d   1      10.669   5.915  -0.202  0.00  0.00    -0.045 C 
ATOM     14  C   LIG d   1      11.951   6.770  -0.244  0.00  0.00    -0.005 C 
ATOM     15  C   LIG d   1      11.553   8.090  -0.936  0.00  0.00     0.176 C 
ATOM     16  C   LIG d   1      10.091   5.144  -5.106  0.00  0.00    -0.007 C 
ATOM     17  C   LIG d   1      11.499   4.655  -5.048  0.00  0.00    -0.057 C 
ATOM     18  C   LIG d   1      12.301   4.618  -6.118  0.00  0.00    -0.019 C 
ATOM     19  C   LIG d   1      11.825   5.155  -7.396  0.00  0.00     0.156 C 
ATOM     20  O   LIG d   1      12.244   4.779  -8.467  0.00  0.00    -0.293 OA
ATOM     21  C   LIG d   1      10.793   6.264  -7.283  0.00  0.00     0.011 C 
ATOM     22  C   LIG d   1       9.648   5.756  -6.419  0.00  0.00    -0.037 C 
ATOM     23  H   LIG d   1      12.303   6.023  -2.701  0.00  0.00     0.027 H 
ATOM     24  H   LIG d   1      11.976   4.628  -1.660  0.00  0.00     0.027 H 
ATOM     25  H   LIG d   1      11.649   7.198  -4.022  0.00  0.00     0.027 H 
ATOM     26  H   LIG d   1      10.372   7.801  -5.096  0.00  0.00     0.027 H 
ATOM     27  H   LIG d   1       9.034   8.557  -3.230  0.00  0.00     0.027 H 
ATOM     28  H   LIG d   1      10.606   9.316  -3.146  0.00  0.00     0.027 H 
ATOM     29  H   LIG d   1      10.108   6.123   0.715  0.00  0.00     0.027 H 
ATOM     30  H   LIG d   1      10.906   4.852  -0.243  0.00  0.00     0.027 H 
ATOM     31  H   LIG d   1      12.735   6.269  -0.805  0.00  0.00     0.031 H 
ATOM     32  H   LIG d   1      12.297   6.976   0.771  0.00  0.00     0.031 H 
ATOM     33  H   LIG d   1      13.293   4.196  -6.032  0.00  0.00     0.065 H 
ATOM     34  H   LIG d   1      11.212   7.068  -6.862  0.00  0.00     0.035 H 
ATOM     35  H   LIG d   1      10.425   6.523  -8.277  0.00  0.00     0.035 H 
ATOM     36  H   LIG d   1       8.967   6.581  -6.200  0.00  0.00     0.028 H 
ATOM     37  H   LIG d   1       9.094   4.995  -6.975  0.00  0.00     0.028 H 
ENDROOT
BRANCH  15  38
ATOM     38  C   LIG d   1      12.639   8.531  -1.877  0.00  0.00     0.174 C 
ATOM     39  O   LIG d   1      12.630   9.652  -2.326  0.00  0.00    -0.293 OA
BRANCH  38  40
ATOM     40  C   LIG d   1      13.739   7.575  -2.261  0.00  0.00    -0.002 C 
ATOM     41  H   LIG d   1      13.824   7.547  -3.257  0.00  0.00     0.031 H 
ATOM     42  H   LIG d   1      14.680   7.911  -1.825  0.00  0.00     0.031 H 
ATOM     43  H   LIG d   1      13.501   6.579  -1.888  0.00  0.00     0.031 H 
ENDBRANCH  38  40
ENDBRANCH  15  38
BRANCH  15  44
ATOM     44  O   LIG d   1      11.370   9.119   0.087  0.00  0.00    -0.450 OA
BRANCH  44  45
ATOM     45  C   LIG d   1      12.171   9.060   1.162  0.00  0.00     0.305 C 
ATOM     46  O   LIG d   1      11.793   8.508   2.168  0.00  0.00    -0.251 OA
BRANCH  45  47
ATOM     47  C   LIG d   1      13.543   9.683   1.115  0.00  0.00     0.033 C 
ATOM     48  H   LIG d   1      13.989   9.656   2.109  0.00  0.00     0.034 H 
ATOM     49  H   LIG d   1      14.172   9.126   0.419  0.00  0.00     0.034 H 
ATOM     50  H   LIG d   1      13.460  10.717   0.781  0.00  0.00     0.034 H 
ENDBRANCH  45  47
ENDBRANCH  44  45
ENDBRANCH  15  44
BRANCH  10  51
ATOM     51  C   LIG d   1       9.161   8.634  -0.812  0.00  0.00    -0.055 C 
ATOM     52  H   LIG d   1       9.070   8.203   0.184  0.00  0.00     0.024 H 
ATOM     53  H   LIG d   1       9.476   9.675  -0.729  0.00  0.00     0.024 H 
ATOM     54  H   LIG d   1       8.197   8.586  -1.318  0.00  0.00     0.024 H 
ENDBRANCH  10  51
BRANCH  16  55
ATOM     55  C   LIG d   1       9.168   3.929  -4.940  0.00  0.00    -0.056 C 
ATOM     56  H   LIG d   1       8.234   4.108  -5.473  0.00  0.00     0.024 H 
ATOM     57  H   LIG d   1       9.655   3.045  -5.349  0.00  0.00     0.024 H 
ATOM     58  H   LIG d   1       8.959   3.774  -3.882  0.00  0.00     0.024 H 
ENDBRANCH  16  55
BRANCH   1  59
ATOM     59  C   LIG d   1      11.697   2.726  -3.426  0.00  0.00    -0.059 C 
ATOM     60  H   LIG d   1      10.861   2.427  -4.061  0.00  0.00     0.024 H 
ATOM     61  H   LIG d   1      12.547   2.068  -3.611  0.00  0.00     0.024 H 
ATOM     62  H   LIG d   1      11.402   2.653  -2.379  0.00  0.00     0.024 H 
ENDBRANCH   1  59
TORSDOF 8
ENDMDL
