MODEL 1
REMARK VINA RESULT:      -5.9      0.000      0.000
REMARK  9 active torsions:
REMARK  status: ('A' for Active; 'I' for Inactive)
REMARK    1  A    between atoms: C_1  and  C_2 
REMARK    2  A    between atoms: C_2  and  O_3 
REMARK    3  A    between atoms: O_3  and  C_4 
REMARK    4  A    between atoms: C_4  and  C_6 
REMARK    5  A    between atoms: C_6  and  C_7 
REMARK    6  A    between atoms: C_7  and  C_8 
REMARK    7  A    between atoms: C_8  and  C_10 
REMARK    8  A    between atoms: C_8  and  C_16 
REMARK    9  A    between atoms: C_16  and  C_18 
ROOT
ATOM      1  C   LIG d   1       3.959  -1.153  -7.537  0.00  0.00     0.048 C 
ATOM      2  H   LIG d   1       3.056  -1.464  -7.242  0.00  0.00     0.043 H 
ENDROOT
BRANCH   1   3
ATOM      3  C   LIG d   1       4.624  -2.245  -8.378  0.00  0.00    -0.029 C 
ATOM      4  H   LIG d   1       4.575  -1.973  -9.432  0.00  0.00     0.028 H 
ATOM      5  H   LIG d   1       5.666  -2.351  -8.078  0.00  0.00     0.028 H 
BRANCH   3   6
ATOM      6  C   LIG d   1       3.893  -3.572  -8.159  0.00  0.00     0.046 C 
ATOM      7  H   LIG d   1       4.623  -4.370  -8.024  0.00  0.00     0.038 H 
ATOM      8  H   LIG d   1       3.265  -3.499  -7.270  0.00  0.00     0.038 H 
BRANCH   6   9
ATOM      9  C   LIG d   1       3.033  -3.875  -9.359  0.00  0.00     0.307 C 
ATOM     10  O   LIG d   1       2.601  -4.992  -9.526  0.00  0.00    -0.251 OA
BRANCH   9  11
ATOM     11  O   LIG d   1       2.746  -2.905 -10.241  0.00  0.00    -0.465 OA
BRANCH  11  12
ATOM     12  C   LIG d   1       1.370  -2.444 -10.289  0.00  0.00     0.090 C 
ATOM     13  H   LIG d   1       0.784  -3.117 -10.913  0.00  0.00     0.069 H 
ATOM     14  H   LIG d   1       0.956  -2.429  -9.281  0.00  0.00     0.069 H 
BRANCH  12  15
ATOM     15  C   LIG d   1       1.326  -1.032 -10.879  0.00  0.00    -0.031 C 
ATOM     16  H   LIG d   1       0.350  -0.589 -10.687  0.00  0.00     0.026 H 
ATOM     17  H   LIG d   1       2.101  -0.421 -10.416  0.00  0.00     0.026 H 
ATOM     18  H   LIG d   1       1.497  -1.083 -11.955  0.00  0.00     0.026 H 
ENDBRANCH  12  15
ENDBRANCH  11  12
ENDBRANCH   9  11
ENDBRANCH   6   9
ENDBRANCH   3   6
ENDBRANCH   1   3
BRANCH   1  19
ATOM     19  C   LIG d   1       3.815   0.099  -8.363  0.00  0.00    -0.037 A 
ATOM     20  C   LIG d   1       4.476   0.208  -9.573  0.00  0.00    -0.058 A 
ATOM     21  C   LIG d   1       4.345   1.356 -10.331  0.00  0.00    -0.061 A 
ATOM     22  H   LIG d   1       5.096  -0.604  -9.924  0.00  0.00     0.062 H 
ATOM     23  C   LIG d   1       3.551   2.394  -9.882  0.00  0.00    -0.062 A 
ATOM     24  H   LIG d   1       4.861   1.441 -11.276  0.00  0.00     0.062 H 
ATOM     25  C   LIG d   1       2.889   2.285  -8.673  0.00  0.00    -0.061 A 
ATOM     26  H   LIG d   1       3.448   3.291 -10.474  0.00  0.00     0.062 H 
ATOM     27  C   LIG d   1       3.018   1.135  -7.916  0.00  0.00    -0.058 A 
ATOM     28  H   LIG d   1       2.270   3.096  -8.321  0.00  0.00     0.062 H 
ATOM     29  H   LIG d   1       2.497   1.048  -6.974  0.00  0.00     0.062 H 
ENDBRANCH   1  19
BRANCH   1  30
ATOM     30  C   LIG d   1       4.811  -0.863  -6.328  0.00  0.00     0.171 C 
ATOM     31  O   LIG d   1       5.935  -0.432  -6.468  0.00  0.00    -0.291 OA
BRANCH  30  32
ATOM     32  C   LIG d   1       4.278  -1.102  -4.978  0.00  0.00     0.018 A 
ATOM     33  C   LIG d   1       4.734  -2.188  -4.224  0.00  0.00    -0.051 A 
ATOM     34  C   LIG d   1       4.228  -2.406  -2.960  0.00  0.00    -0.061 A 
ATOM     35  H   LIG d   1       5.478  -2.856  -4.632  0.00  0.00     0.062 H 
ATOM     36  C   LIG d   1       3.272  -1.553  -2.435  0.00  0.00    -0.062 A 
ATOM     37  H   LIG d   1       4.580  -3.245  -2.377  0.00  0.00     0.062 H 
ATOM     38  C   LIG d   1       2.817  -0.475  -3.176  0.00  0.00    -0.061 A 
ATOM     39  H   LIG d   1       2.881  -1.729  -1.445  0.00  0.00     0.062 H 
ATOM     40  C   LIG d   1       3.308  -0.247  -4.443  0.00  0.00    -0.051 A 
ATOM     41  H   LIG d   1       2.071   0.185  -2.760  0.00  0.00     0.062 H 
ATOM     42  H   LIG d   1       2.948   0.592  -5.020  0.00  0.00     0.062 H 
ENDBRANCH  30  32
ENDBRANCH   1  30
TORSDOF 9
ENDMDL
MODEL 2
REMARK VINA RESULT:      -5.8      2.389      4.090
REMARK  9 active torsions:
REMARK  status: ('A' for Active; 'I' for Inactive)
REMARK    1  A    between atoms: C_1  and  C_2 
REMARK    2  A    between atoms: C_2  and  O_3 
REMARK    3  A    between atoms: O_3  and  C_4 
REMARK    4  A    between atoms: C_4  and  C_6 
REMARK    5  A    between atoms: C_6  and  C_7 
REMARK    6  A    between atoms: C_7  and  C_8 
REMARK    7  A    between atoms: C_8  and  C_10 
REMARK    8  A    between atoms: C_8  and  C_16 
REMARK    9  A    between atoms: C_16  and  C_18 
ROOT
ATOM      1  C   LIG d   1       3.622   0.506  -6.448  0.00  0.00     0.048 C 
ATOM      2  H   LIG d   1       4.107   1.366  -6.289  0.00  0.00     0.043 H 
ENDROOT
BRANCH   1   3
ATOM      3  C   LIG d   1       2.745   0.639  -7.694  0.00  0.00    -0.029 C 
ATOM      4  H   LIG d   1       3.071  -0.080  -8.447  0.00  0.00     0.028 H 
ATOM      5  H   LIG d   1       1.706   0.442  -7.431  0.00  0.00     0.028 H 
BRANCH   3   6
ATOM      6  C   LIG d   1       2.868   2.058  -8.256  0.00  0.00     0.046 C 
ATOM      7  H   LIG d   1       1.932   2.340  -8.737  0.00  0.00     0.038 H 
ATOM      8  H   LIG d   1       3.084   2.753  -7.443  0.00  0.00     0.038 H 
BRANCH   6   9
ATOM      9  C   LIG d   1       3.987   2.102  -9.265  0.00  0.00     0.307 C 
ATOM     10  O   LIG d   1       5.119   2.318  -8.903  0.00  0.00    -0.251 OA
BRANCH   9  11
ATOM     11  O   LIG d   1       3.724   1.902 -10.566  0.00  0.00    -0.465 OA
BRANCH  11  12
ATOM     12  C   LIG d   1       4.214   0.668 -11.155  0.00  0.00     0.090 C 
ATOM     13  H   LIG d   1       4.637   0.878 -12.137  0.00  0.00     0.069 H 
ATOM     14  H   LIG d   1       4.981   0.239 -10.512  0.00  0.00     0.069 H 
BRANCH  12  15
ATOM     15  C   LIG d   1       3.056  -0.322 -11.299  0.00  0.00    -0.031 C 
ATOM     16  H   LIG d   1       2.188   0.052 -10.757  0.00  0.00     0.026 H 
ATOM     17  H   LIG d   1       2.804  -0.435 -12.354  0.00  0.00     0.026 H 
ATOM     18  H   LIG d   1       3.351  -1.288 -10.890  0.00  0.00     0.026 H 
ENDBRANCH  12  15
ENDBRANCH  11  12
ENDBRANCH   9  11
ENDBRANCH   6   9
ENDBRANCH   3   6
ENDBRANCH   1   3
BRANCH   1  19
ATOM     19  C   LIG d   1       4.619  -0.605  -6.651  0.00  0.00    -0.037 A 
ATOM     20  C   LIG d   1       4.215  -1.801  -7.214  0.00  0.00    -0.058 A 
ATOM     21  C   LIG d   1       5.129  -2.821  -7.401  0.00  0.00    -0.061 A 
ATOM     22  H   LIG d   1       3.184  -1.939  -7.506  0.00  0.00     0.062 H 
ATOM     23  C   LIG d   1       6.447  -2.644  -7.027  0.00  0.00    -0.062 A 
ATOM     24  H   LIG d   1       4.813  -3.755  -7.841  0.00  0.00     0.062 H 
ATOM     25  C   LIG d   1       6.852  -1.448  -6.466  0.00  0.00    -0.061 A 
ATOM     26  H   LIG d   1       7.162  -3.441  -7.173  0.00  0.00     0.062 H 
ATOM     27  C   LIG d   1       5.939  -0.426  -6.282  0.00  0.00    -0.058 A 
ATOM     28  H   LIG d   1       7.882  -1.309  -6.173  0.00  0.00     0.062 H 
ATOM     29  H   LIG d   1       6.256   0.510  -5.847  0.00  0.00     0.062 H 
ENDBRANCH   1  19
BRANCH   1  30
ATOM     30  C   LIG d   1       2.755   0.192  -5.256  0.00  0.00     0.171 C 
ATOM     31  O   LIG d   1       1.547   0.214  -5.362  0.00  0.00    -0.291 OA
BRANCH  30  32
ATOM     32  C   LIG d   1       3.374  -0.143  -3.964  0.00  0.00     0.018 A 
ATOM     33  C   LIG d   1       3.434  -1.473  -3.536  0.00  0.00    -0.051 A 
ATOM     34  C   LIG d   1       4.015  -1.778  -2.323  0.00  0.00    -0.061 A 
ATOM     35  H   LIG d   1       3.024  -2.259  -4.153  0.00  0.00     0.062 H 
ATOM     36  C   LIG d   1       4.539  -0.772  -1.529  0.00  0.00    -0.062 A 
ATOM     37  H   LIG d   1       4.062  -2.805  -1.992  0.00  0.00     0.062 H 
ATOM     38  C   LIG d   1       4.484   0.547  -1.947  0.00  0.00    -0.061 A 
ATOM     39  H   LIG d   1       4.993  -1.018  -0.581  0.00  0.00     0.062 H 
ATOM     40  C   LIG d   1       3.901   0.869  -3.154  0.00  0.00    -0.051 A 
ATOM     41  H   LIG d   1       4.895   1.326  -1.322  0.00  0.00     0.062 H 
ATOM     42  H   LIG d   1       3.856   1.899  -3.475  0.00  0.00     0.062 H 
ENDBRANCH  30  32
ENDBRANCH   1  30
TORSDOF 9
ENDMDL
MODEL 3
REMARK VINA RESULT:      -5.8      1.616      2.980
REMARK  9 active torsions:
REMARK  status: ('A' for Active; 'I' for Inactive)
REMARK    1  A    between atoms: C_1  and  C_2 
REMARK    2  A    between atoms: C_2  and  O_3 
REMARK    3  A    between atoms: O_3  and  C_4 
REMARK    4  A    between atoms: C_4  and  C_6 
REMARK    5  A    between atoms: C_6  and  C_7 
REMARK    6  A    between atoms: C_7  and  C_8 
REMARK    7  A    between atoms: C_8  and  C_10 
REMARK    8  A    between atoms: C_8  and  C_16 
REMARK    9  A    between atoms: C_16  and  C_18 
ROOT
ATOM      1  C   LIG d   1       3.878  -1.302  -7.564  0.00  0.00     0.048 C 
ATOM      2  H   LIG d   1       2.971  -1.572  -7.243  0.00  0.00     0.043 H 
ENDROOT
BRANCH   1   3
ATOM      3  C   LIG d   1       4.481  -2.435  -8.398  0.00  0.00    -0.029 C 
ATOM      4  H   LIG d   1       4.503  -2.141  -9.448  0.00  0.00     0.028 H 
ATOM      5  H   LIG d   1       5.496  -2.638  -8.057  0.00  0.00     0.028 H 
BRANCH   3   6
ATOM      6  C   LIG d   1       3.627  -3.695  -8.239  0.00  0.00     0.046 C 
ATOM      7  H   LIG d   1       2.596  -3.411  -8.032  0.00  0.00     0.038 H 
ATOM      8  H   LIG d   1       3.666  -4.279  -9.159  0.00  0.00     0.038 H 
BRANCH   6   9
ATOM      9  C   LIG d   1       4.161  -4.522  -7.097  0.00  0.00     0.307 C 
ATOM     10  O   LIG d   1       3.407  -5.196  -6.435  0.00  0.00    -0.251 OA
BRANCH   9  11
ATOM     11  O   LIG d   1       5.473  -4.509  -6.816  0.00  0.00    -0.465 OA
BRANCH  11  12
ATOM     12  C   LIG d   1       5.959  -5.518  -5.892  0.00  0.00     0.090 C 
ATOM     13  H   LIG d   1       5.210  -5.696  -5.121  0.00  0.00     0.069 H 
ATOM     14  H   LIG d   1       6.150  -6.444  -6.434  0.00  0.00     0.069 H 
BRANCH  12  15
ATOM     15  C   LIG d   1       7.256  -5.032  -5.241  0.00  0.00    -0.031 C 
ATOM     16  H   LIG d   1       7.292  -5.371  -4.206  0.00  0.00     0.026 H 
ATOM     17  H   LIG d   1       8.109  -5.435  -5.787  0.00  0.00     0.026 H 
ATOM     18  H   LIG d   1       7.289  -3.942  -5.267  0.00  0.00     0.026 H 
ENDBRANCH  12  15
ENDBRANCH  11  12
ENDBRANCH   9  11
ENDBRANCH   6   9
ENDBRANCH   3   6
ENDBRANCH   1   3
BRANCH   1  19
ATOM     19  C   LIG d   1       3.764  -0.061  -8.411  0.00  0.00    -0.037 A 
ATOM     20  C   LIG d   1       4.356  -0.020  -9.660  0.00  0.00    -0.058 A 
ATOM     21  C   LIG d   1       4.252   1.118 -10.437  0.00  0.00    -0.061 A 
ATOM     22  H   LIG d   1       4.901  -0.877 -10.027  0.00  0.00     0.062 H 
ATOM     23  C   LIG d   1       3.555   2.215  -9.967  0.00  0.00    -0.062 A 
ATOM     24  H   LIG d   1       4.714   1.150 -11.412  0.00  0.00     0.062 H 
ATOM     25  C   LIG d   1       2.962   2.173  -8.719  0.00  0.00    -0.061 A 
ATOM     26  H   LIG d   1       3.473   3.104 -10.573  0.00  0.00     0.062 H 
ATOM     27  C   LIG d   1       3.063   1.033  -7.943  0.00  0.00    -0.058 A 
ATOM     28  H   LIG d   1       2.418   3.030  -8.350  0.00  0.00     0.062 H 
ATOM     29  H   LIG d   1       2.596   1.000  -6.969  0.00  0.00     0.062 H 
ENDBRANCH   1  19
BRANCH   1  30
ATOM     30  C   LIG d   1       4.768  -1.024  -6.380  0.00  0.00     0.171 C 
ATOM     31  O   LIG d   1       5.916  -0.675  -6.553  0.00  0.00    -0.291 OA
BRANCH  30  32
ATOM     32  C   LIG d   1       4.242  -1.174  -5.014  0.00  0.00     0.018 A 
ATOM     33  C   LIG d   1       3.342  -0.237  -4.500  0.00  0.00    -0.051 A 
ATOM     34  C   LIG d   1       2.855  -0.385  -3.218  0.00  0.00    -0.061 A 
ATOM     35  H   LIG d   1       3.030   0.602  -5.104  0.00  0.00     0.062 H 
ATOM     36  C   LIG d   1       3.254  -1.458  -2.441  0.00  0.00    -0.062 A 
ATOM     37  H   LIG d   1       2.158   0.340  -2.820  0.00  0.00     0.062 H 
ATOM     38  C   LIG d   1       4.144  -2.391  -2.944  0.00  0.00    -0.061 A 
ATOM     39  H   LIG d   1       2.868  -1.568  -1.438  0.00  0.00     0.062 H 
ATOM     40  C   LIG d   1       4.645  -2.254  -4.221  0.00  0.00    -0.051 A 
ATOM     41  H   LIG d   1       4.452  -3.226  -2.331  0.00  0.00     0.062 H 
ATOM     42  H   LIG d   1       5.343  -2.981  -4.609  0.00  0.00     0.062 H 
ENDBRANCH  30  32
ENDBRANCH   1  30
TORSDOF 9
ENDMDL
MODEL 4
REMARK VINA RESULT:      -5.7      2.599      5.420
REMARK  9 active torsions:
REMARK  status: ('A' for Active; 'I' for Inactive)
REMARK    1  A    between atoms: C_1  and  C_2 
REMARK    2  A    between atoms: C_2  and  O_3 
REMARK    3  A    between atoms: O_3  and  C_4 
REMARK    4  A    between atoms: C_4  and  C_6 
REMARK    5  A    between atoms: C_6  and  C_7 
REMARK    6  A    between atoms: C_7  and  C_8 
REMARK    7  A    between atoms: C_8  and  C_10 
REMARK    8  A    between atoms: C_8  and  C_16 
REMARK    9  A    between atoms: C_16  and  C_18 
ROOT
ATOM      1  C   LIG d   1       5.829  -2.377  -5.259  0.00  0.00     0.048 C 
ATOM      2  H   LIG d   1       6.165  -1.446  -5.400  0.00  0.00     0.043 H 
ENDROOT
BRANCH   1   3
ATOM      3  C   LIG d   1       5.288  -2.930  -6.579  0.00  0.00    -0.029 C 
ATOM      4  H   LIG d   1       6.111  -3.066  -7.281  0.00  0.00     0.028 H 
ATOM      5  H   LIG d   1       4.802  -3.889  -6.400  0.00  0.00     0.028 H 
BRANCH   3   6
ATOM      6  C   LIG d   1       4.273  -1.945  -7.166  0.00  0.00     0.046 C 
ATOM      7  H   LIG d   1       3.726  -2.428  -7.976  0.00  0.00     0.038 H 
ATOM      8  H   LIG d   1       3.574  -1.637  -6.388  0.00  0.00     0.038 H 
BRANCH   6   9
ATOM      9  C   LIG d   1       4.998  -0.736  -7.699  0.00  0.00     0.307 C 
ATOM     10  O   LIG d   1       6.018  -0.873  -8.332  0.00  0.00    -0.251 OA
BRANCH   9  11
ATOM     11  O   LIG d   1       4.509   0.494  -7.469  0.00  0.00    -0.465 OA
BRANCH  11  12
ATOM     12  C   LIG d   1       3.107   0.713  -7.776  0.00  0.00     0.090 C 
ATOM     13  H   LIG d   1       2.738  -0.106  -8.392  0.00  0.00     0.069 H 
ATOM     14  H   LIG d   1       2.535   0.757  -6.850  0.00  0.00     0.069 H 
BRANCH  12  15
ATOM     15  C   LIG d   1       2.952   2.033  -8.535  0.00  0.00    -0.031 C 
ATOM     16  H   LIG d   1       3.050   2.865  -7.839  0.00  0.00     0.026 H 
ATOM     17  H   LIG d   1       3.726   2.104  -9.300  0.00  0.00     0.026 H 
ATOM     18  H   LIG d   1       1.970   2.067  -9.007  0.00  0.00     0.026 H 
ENDBRANCH  12  15
ENDBRANCH  11  12
ENDBRANCH   9  11
ENDBRANCH   6   9
ENDBRANCH   3   6
ENDBRANCH   1   3
BRANCH   1  19
ATOM     19  C   LIG d   1       6.956  -3.251  -4.774  0.00  0.00    -0.037 A 
ATOM     20  C   LIG d   1       7.791  -2.806  -3.765  0.00  0.00    -0.058 A 
ATOM     21  C   LIG d   1       8.825  -3.607  -3.320  0.00  0.00    -0.061 A 
ATOM     22  H   LIG d   1       7.635  -1.831  -3.326  0.00  0.00     0.062 H 
ATOM     23  C   LIG d   1       9.025  -4.854  -3.881  0.00  0.00    -0.062 A 
ATOM     24  H   LIG d   1       9.477  -3.259  -2.532  0.00  0.00     0.062 H 
ATOM     25  C   LIG d   1       8.190  -5.300  -4.888  0.00  0.00    -0.061 A 
ATOM     26  H   LIG d   1       9.833  -5.480  -3.533  0.00  0.00     0.062 H 
ATOM     27  C   LIG d   1       7.153  -4.500  -5.331  0.00  0.00    -0.058 A 
ATOM     28  H   LIG d   1       8.346  -6.274  -5.327  0.00  0.00     0.062 H 
ATOM     29  H   LIG d   1       6.498  -4.850  -6.116  0.00  0.00     0.062 H 
ENDBRANCH   1  19
BRANCH   1  30
ATOM     30  C   LIG d   1       4.726  -2.363  -4.232  0.00  0.00     0.171 C 
ATOM     31  O   LIG d   1       4.137  -3.387  -3.960  0.00  0.00    -0.291 OA
BRANCH  30  32
ATOM     32  C   LIG d   1       4.365  -1.105  -3.559  0.00  0.00     0.018 A 
ATOM     33  C   LIG d   1       3.493  -0.202  -4.176  0.00  0.00    -0.051 A 
ATOM     34  C   LIG d   1       3.160   0.974  -3.538  0.00  0.00    -0.061 A 
ATOM     35  H   LIG d   1       3.084  -0.425  -5.150  0.00  0.00     0.062 H 
ATOM     36  C   LIG d   1       3.685   1.263  -2.291  0.00  0.00    -0.062 A 
ATOM     37  H   LIG d   1       2.486   1.672  -4.014  0.00  0.00     0.062 H 
ATOM     38  C   LIG d   1       4.548   0.374  -1.673  0.00  0.00    -0.061 A 
ATOM     39  H   LIG d   1       3.419   2.186  -1.797  0.00  0.00     0.062 H 
ATOM     40  C   LIG d   1       4.895  -0.804  -2.299  0.00  0.00    -0.051 A 
ATOM     41  H   LIG d   1       4.953   0.606  -0.700  0.00  0.00     0.062 H 
ATOM     42  H   LIG d   1       5.571  -1.495  -1.817  0.00  0.00     0.062 H 
ENDBRANCH  30  32
ENDBRANCH   1  30
TORSDOF 9
ENDMDL
MODEL 5
REMARK VINA RESULT:      -5.4      2.853      5.490
REMARK  9 active torsions:
REMARK  status: ('A' for Active; 'I' for Inactive)
REMARK    1  A    between atoms: C_1  and  C_2 
REMARK    2  A    between atoms: C_2  and  O_3 
REMARK    3  A    between atoms: O_3  and  C_4 
REMARK    4  A    between atoms: C_4  and  C_6 
REMARK    5  A    between atoms: C_6  and  C_7 
REMARK    6  A    between atoms: C_7  and  C_8 
REMARK    7  A    between atoms: C_8  and  C_10 
REMARK    8  A    between atoms: C_8  and  C_16 
REMARK    9  A    between atoms: C_16  and  C_18 
ROOT
ATOM      1  C   LIG d   1       5.750  -1.940  -5.640  0.00  0.00     0.048 C 
ATOM      2  H   LIG d   1       5.333  -2.808  -5.911  0.00  0.00     0.043 H 
ENDROOT
BRANCH   1   3
ATOM      3  C   LIG d   1       5.377  -0.857  -6.654  0.00  0.00    -0.029 C 
ATOM      4  H   LIG d   1       5.445   0.123  -6.181  0.00  0.00     0.028 H 
ATOM      5  H   LIG d   1       6.063  -0.900  -7.500  0.00  0.00     0.028 H 
BRANCH   3   6
ATOM      6  C   LIG d   1       3.946  -1.090  -7.145  0.00  0.00     0.046 C 
ATOM      7  H   LIG d   1       3.972  -1.533  -8.140  0.00  0.00     0.038 H 
ATOM      8  H   LIG d   1       3.432  -1.764  -6.459  0.00  0.00     0.038 H 
BRANCH   6   9
ATOM      9  C   LIG d   1       3.214   0.227  -7.200  0.00  0.00     0.307 C 
ATOM     10  O   LIG d   1       2.990   0.835  -6.180  0.00  0.00    -0.251 OA
BRANCH   9  11
ATOM     11  O   LIG d   1       2.812   0.722  -8.381  0.00  0.00    -0.465 OA
BRANCH  11  12
ATOM     12  C   LIG d   1       2.830   2.166  -8.530  0.00  0.00     0.090 C 
ATOM     13  H   LIG d   1       1.956   2.483  -9.099  0.00  0.00     0.069 H 
ATOM     14  H   LIG d   1       2.812   2.633  -7.546  0.00  0.00     0.069 H 
BRANCH  12  15
ATOM     15  C   LIG d   1       4.101   2.586  -9.272  0.00  0.00    -0.031 C 
ATOM     16  H   LIG d   1       4.612   3.363  -8.705  0.00  0.00     0.026 H 
ATOM     17  H   LIG d   1       4.758   1.723  -9.382  0.00  0.00     0.026 H 
ATOM     18  H   LIG d   1       3.837   2.970 -10.257  0.00  0.00     0.026 H 
ENDBRANCH  12  15
ENDBRANCH  11  12
ENDBRANCH   9  11
ENDBRANCH   6   9
ENDBRANCH   3   6
ENDBRANCH   1   3
BRANCH   1  19
ATOM     19  C   LIG d   1       5.249  -1.545  -4.276  0.00  0.00    -0.037 A 
ATOM     20  C   LIG d   1       4.448  -2.412  -3.556  0.00  0.00    -0.058 A 
ATOM     21  C   LIG d   1       3.987  -2.049  -2.304  0.00  0.00    -0.061 A 
ATOM     22  H   LIG d   1       4.181  -3.372  -3.972  0.00  0.00     0.062 H 
ATOM     23  C   LIG d   1       4.328  -0.821  -1.771  0.00  0.00    -0.062 A 
ATOM     24  H   LIG d   1       3.362  -2.727  -1.742  0.00  0.00     0.062 H 
ATOM     25  C   LIG d   1       5.130   0.046  -2.490  0.00  0.00    -0.061 A 
ATOM     26  H   LIG d   1       3.969  -0.537  -0.793  0.00  0.00     0.062 H 
ATOM     27  C   LIG d   1       5.594  -0.318  -3.741  0.00  0.00    -0.058 A 
ATOM     28  H   LIG d   1       5.397   1.006  -2.074  0.00  0.00     0.062 H 
ATOM     29  H   LIG d   1       6.224   0.358  -4.301  0.00  0.00     0.062 H 
ENDBRANCH   1  19
BRANCH   1  30
ATOM     30  C   LIG d   1       7.249  -2.094  -5.600  0.00  0.00     0.171 C 
ATOM     31  O   LIG d   1       7.959  -1.246  -6.095  0.00  0.00    -0.291 OA
BRANCH  30  32
ATOM     32  C   LIG d   1       7.850  -3.274  -4.958  0.00  0.00     0.018 A 
ATOM     33  C   LIG d   1       7.643  -4.549  -5.495  0.00  0.00    -0.051 A 
ATOM     34  C   LIG d   1       8.209  -5.649  -4.887  0.00  0.00    -0.061 A 
ATOM     35  H   LIG d   1       7.038  -4.670  -6.382  0.00  0.00     0.062 H 
ATOM     36  C   LIG d   1       8.982  -5.496  -3.750  0.00  0.00    -0.062 A 
ATOM     37  H   LIG d   1       8.049  -6.634  -5.302  0.00  0.00     0.062 H 
ATOM     38  C   LIG d   1       9.193  -4.237  -3.213  0.00  0.00    -0.061 A 
ATOM     39  H   LIG d   1       9.423  -6.362  -3.279  0.00  0.00     0.062 H 
ATOM     40  C   LIG d   1       8.629  -3.128  -3.805  0.00  0.00    -0.051 A 
ATOM     41  H   LIG d   1       9.798  -4.126  -2.325  0.00  0.00     0.062 H 
ATOM     42  H   LIG d   1       8.792  -2.147  -3.383  0.00  0.00     0.062 H 
ENDBRANCH  30  32
ENDBRANCH   1  30
TORSDOF 9
ENDMDL
MODEL 6
REMARK VINA RESULT:      -5.4      2.306      5.290
REMARK  9 active torsions:
REMARK  status: ('A' for Active; 'I' for Inactive)
REMARK    1  A    between atoms: C_1  and  C_2 
REMARK    2  A    between atoms: C_2  and  O_3 
REMARK    3  A    between atoms: O_3  and  C_4 
REMARK    4  A    between atoms: C_4  and  C_6 
REMARK    5  A    between atoms: C_6  and  C_7 
REMARK    6  A    between atoms: C_7  and  C_8 
REMARK    7  A    between atoms: C_8  and  C_10 
REMARK    8  A    between atoms: C_8  and  C_16 
REMARK    9  A    between atoms: C_16  and  C_18 
ROOT
ATOM      1  C   LIG d   1       3.678  -0.919  -5.720  0.00  0.00     0.048 C 
ATOM      2  H   LIG d   1       3.023  -1.665  -5.839  0.00  0.00     0.043 H 
ENDROOT
BRANCH   1   3
ATOM      3  C   LIG d   1       3.120   0.355  -6.359  0.00  0.00    -0.029 C 
ATOM      4  H   LIG d   1       2.303   0.739  -5.748  0.00  0.00     0.028 H 
ATOM      5  H   LIG d   1       3.908   1.104  -6.424  0.00  0.00     0.028 H 
BRANCH   3   6
ATOM      6  C   LIG d   1       2.601   0.036  -7.763  0.00  0.00     0.046 C 
ATOM      7  H   LIG d   1       3.147  -0.817  -8.166  0.00  0.00     0.038 H 
ATOM      8  H   LIG d   1       1.538  -0.203  -7.712  0.00  0.00     0.038 H 
BRANCH   6   9
ATOM      9  C   LIG d   1       2.805   1.232  -8.657  0.00  0.00     0.307 C 
ATOM     10  O   LIG d   1       2.984   2.325  -8.172  0.00  0.00    -0.251 OA
BRANCH   9  11
ATOM     11  O   LIG d   1       2.787   1.083  -9.991  0.00  0.00    -0.465 OA
BRANCH  11  12
ATOM     12  C   LIG d   1       4.032   1.330 -10.698  0.00  0.00     0.090 C 
ATOM     13  H   LIG d   1       3.970   2.285 -11.218  0.00  0.00     0.069 H 
ATOM     14  H   LIG d   1       4.855   1.357  -9.985  0.00  0.00     0.069 H 
BRANCH  12  15
ATOM     15  C   LIG d   1       4.272   0.210 -11.713  0.00  0.00    -0.031 C 
ATOM     16  H   LIG d   1       3.580  -0.609 -11.520  0.00  0.00     0.026 H 
ATOM     17  H   LIG d   1       4.111   0.593 -12.720  0.00  0.00     0.026 H 
ATOM     18  H   LIG d   1       5.296  -0.151 -11.620  0.00  0.00     0.026 H 
ENDBRANCH  12  15
ENDBRANCH  11  12
ENDBRANCH   9  11
ENDBRANCH   6   9
ENDBRANCH   3   6
ENDBRANCH   1   3
BRANCH   1  19
ATOM     19  C   LIG d   1       3.912  -0.683  -4.251  0.00  0.00    -0.037 A 
ATOM     20  C   LIG d   1       3.723   0.577  -3.715  0.00  0.00    -0.058 A 
ATOM     21  C   LIG d   1       3.938   0.794  -2.367  0.00  0.00    -0.061 A 
ATOM     22  H   LIG d   1       3.409   1.392  -4.350  0.00  0.00     0.062 H 
ATOM     23  C   LIG d   1       4.340  -0.249  -1.554  0.00  0.00    -0.062 A 
ATOM     24  H   LIG d   1       3.790   1.779  -1.948  0.00  0.00     0.062 H 
ATOM     25  C   LIG d   1       4.528  -1.510  -2.090  0.00  0.00    -0.061 A 
ATOM     26  H   LIG d   1       4.508  -0.080  -0.501  0.00  0.00     0.062 H 
ATOM     27  C   LIG d   1       4.310  -1.727  -3.438  0.00  0.00    -0.058 A 
ATOM     28  H   LIG d   1       4.843  -2.324  -1.456  0.00  0.00     0.062 H 
ATOM     29  H   LIG d   1       4.453  -2.713  -3.855  0.00  0.00     0.062 H 
ENDBRANCH   1  19
BRANCH   1  30
ATOM     30  C   LIG d   1       4.981  -1.283  -6.386  0.00  0.00     0.171 C 
ATOM     31  O   LIG d   1       5.154  -2.407  -6.805  0.00  0.00    -0.291 OA
BRANCH  30  32
ATOM     32  C   LIG d   1       6.042  -0.274  -6.526  0.00  0.00     0.018 A 
ATOM     33  C   LIG d   1       6.857   0.047  -5.436  0.00  0.00    -0.051 A 
ATOM     34  C   LIG d   1       7.848   0.994  -5.575  0.00  0.00    -0.061 A 
ATOM     35  H   LIG d   1       6.708  -0.446  -4.486  0.00  0.00     0.062 H 
ATOM     36  C   LIG d   1       8.040   1.628  -6.791  0.00  0.00    -0.062 A 
ATOM     37  H   LIG d   1       8.479   1.242  -4.733  0.00  0.00     0.062 H 
ATOM     38  C   LIG d   1       7.238   1.315  -7.875  0.00  0.00    -0.061 A 
ATOM     39  H   LIG d   1       8.819   2.369  -6.894  0.00  0.00     0.062 H 
ATOM     40  C   LIG d   1       6.238   0.374  -7.750  0.00  0.00    -0.051 A 
ATOM     41  H   LIG d   1       7.393   1.814  -8.821  0.00  0.00     0.062 H 
ATOM     42  H   LIG d   1       5.611   0.135  -8.597  0.00  0.00     0.062 H 
ENDBRANCH  30  32
ENDBRANCH   1  30
TORSDOF 9
ENDMDL
MODEL 7
REMARK VINA RESULT:      -5.4      2.793      5.467
REMARK  9 active torsions:
REMARK  status: ('A' for Active; 'I' for Inactive)
REMARK    1  A    between atoms: C_1  and  C_2 
REMARK    2  A    between atoms: C_2  and  O_3 
REMARK    3  A    between atoms: O_3  and  C_4 
REMARK    4  A    between atoms: C_4  and  C_6 
REMARK    5  A    between atoms: C_6  and  C_7 
REMARK    6  A    between atoms: C_7  and  C_8 
REMARK    7  A    between atoms: C_8  and  C_10 
REMARK    8  A    between atoms: C_8  and  C_16 
REMARK    9  A    between atoms: C_16  and  C_18 
ROOT
ATOM      1  C   LIG d   1       6.607  -2.671  -5.405  0.00  0.00     0.048 C 
ATOM      2  H   LIG d   1       7.405  -2.497  -5.981  0.00  0.00     0.043 H 
ENDROOT
BRANCH   1   3
ATOM      3  C   LIG d   1       5.424  -1.841  -5.909  0.00  0.00    -0.029 C 
ATOM      4  H   LIG d   1       4.499  -2.397  -5.755  0.00  0.00     0.028 H 
ATOM      5  H   LIG d   1       5.379  -0.901  -5.360  0.00  0.00     0.028 H 
BRANCH   3   6
ATOM      6  C   LIG d   1       5.604  -1.551  -7.401  0.00  0.00     0.046 C 
ATOM      7  H   LIG d   1       6.659  -1.379  -7.613  0.00  0.00     0.038 H 
ATOM      8  H   LIG d   1       5.252  -2.404  -7.982  0.00  0.00     0.038 H 
BRANCH   6   9
ATOM      9  C   LIG d   1       4.809  -0.326  -7.774  0.00  0.00     0.307 C 
ATOM     10  O   LIG d   1       4.642  -0.045  -8.938  0.00  0.00    -0.251 OA
BRANCH   9  11
ATOM     11  O   LIG d   1       4.286   0.452  -6.813  0.00  0.00    -0.465 OA
BRANCH  11  12
ATOM     12  C   LIG d   1       2.846   0.405  -6.638  0.00  0.00     0.090 C 
ATOM     13  H   LIG d   1       2.394   1.277  -7.109  0.00  0.00     0.069 H 
ATOM     14  H   LIG d   1       2.453  -0.501  -7.100  0.00  0.00     0.069 H 
BRANCH  12  15
ATOM     15  C   LIG d   1       2.513   0.401  -5.145  0.00  0.00    -0.031 C 
ATOM     16  H   LIG d   1       2.570  -0.617  -4.762  0.00  0.00     0.026 H 
ATOM     17  H   LIG d   1       3.228   1.031  -4.613  0.00  0.00     0.026 H 
ATOM     18  H   LIG d   1       1.505   0.789  -4.996  0.00  0.00     0.026 H 
ENDBRANCH  12  15
ENDBRANCH  11  12
ENDBRANCH   9  11
ENDBRANCH   6   9
ENDBRANCH   3   6
ENDBRANCH   1   3
BRANCH   1  19
ATOM     19  C   LIG d   1       6.255  -4.134  -5.462  0.00  0.00    -0.037 A 
ATOM     20  C   LIG d   1       4.937  -4.533  -5.330  0.00  0.00    -0.058 A 
ATOM     21  C   LIG d   1       4.613  -5.875  -5.382  0.00  0.00    -0.061 A 
ATOM     22  H   LIG d   1       4.162  -3.796  -5.185  0.00  0.00     0.062 H 
ATOM     23  C   LIG d   1       5.605  -6.820  -5.568  0.00  0.00    -0.062 A 
ATOM     24  H   LIG d   1       3.584  -6.187  -5.279  0.00  0.00     0.062 H 
ATOM     25  C   LIG d   1       6.922  -6.421  -5.701  0.00  0.00    -0.061 A 
ATOM     26  H   LIG d   1       5.353  -7.869  -5.609  0.00  0.00     0.062 H 
ATOM     27  C   LIG d   1       7.246  -5.078  -5.653  0.00  0.00    -0.058 A 
ATOM     28  H   LIG d   1       7.698  -7.158  -5.846  0.00  0.00     0.062 H 
ATOM     29  H   LIG d   1       8.275  -4.766  -5.761  0.00  0.00     0.062 H 
ENDBRANCH   1  19
BRANCH   1  30
ATOM     30  C   LIG d   1       6.920  -2.283  -3.982  0.00  0.00     0.171 C 
ATOM     31  O   LIG d   1       7.875  -2.772  -3.417  0.00  0.00    -0.291 OA
BRANCH  30  32
ATOM     32  C   LIG d   1       6.067  -1.312  -3.280  0.00  0.00     0.018 A 
ATOM     33  C   LIG d   1       6.351   0.056  -3.354  0.00  0.00    -0.051 A 
ATOM     34  C   LIG d   1       5.547   0.959  -2.692  0.00  0.00    -0.061 A 
ATOM     35  H   LIG d   1       7.199   0.402  -3.926  0.00  0.00     0.062 H 
ATOM     36  C   LIG d   1       4.461   0.518  -1.956  0.00  0.00    -0.062 A 
ATOM     37  H   LIG d   1       5.765   2.016  -2.748  0.00  0.00     0.062 H 
ATOM     38  C   LIG d   1       4.173  -0.835  -1.880  0.00  0.00    -0.061 A 
ATOM     39  H   LIG d   1       3.835   1.231  -1.441  0.00  0.00     0.062 H 
ATOM     40  C   LIG d   1       4.970  -1.751  -2.531  0.00  0.00    -0.051 A 
ATOM     41  H   LIG d   1       3.324  -1.172  -1.304  0.00  0.00     0.062 H 
ATOM     42  H   LIG d   1       4.746  -2.806  -2.466  0.00  0.00     0.062 H 
ENDBRANCH  30  32
ENDBRANCH   1  30
TORSDOF 9
ENDMDL
MODEL 8
REMARK VINA RESULT:      -5.4      2.480      3.850
REMARK  9 active torsions:
REMARK  status: ('A' for Active; 'I' for Inactive)
REMARK    1  A    between atoms: C_1  and  C_2 
REMARK    2  A    between atoms: C_2  and  O_3 
REMARK    3  A    between atoms: O_3  and  C_4 
REMARK    4  A    between atoms: C_4  and  C_6 
REMARK    5  A    between atoms: C_6  and  C_7 
REMARK    6  A    between atoms: C_7  and  C_8 
REMARK    7  A    between atoms: C_8  and  C_10 
REMARK    8  A    between atoms: C_8  and  C_16 
REMARK    9  A    between atoms: C_16  and  C_18 
ROOT
ATOM      1  C   LIG d   1       4.017  -0.700  -6.696  0.00  0.00     0.048 C 
ATOM      2  H   LIG d   1       3.518  -1.562  -6.784  0.00  0.00     0.043 H 
ENDROOT
BRANCH   1   3
ATOM      3  C   LIG d   1       5.501  -0.992  -6.465  0.00  0.00    -0.029 C 
ATOM      4  H   LIG d   1       6.100  -0.407  -7.163  0.00  0.00     0.028 H 
ATOM      5  H   LIG d   1       5.769  -0.723  -5.443  0.00  0.00     0.028 H 
BRANCH   3   6
ATOM      6  C   LIG d   1       5.768  -2.482  -6.687  0.00  0.00     0.046 C 
ATOM      7  H   LIG d   1       5.392  -3.049  -5.836  0.00  0.00     0.038 H 
ATOM      8  H   LIG d   1       5.262  -2.811  -7.595  0.00  0.00     0.038 H 
BRANCH   6   9
ATOM      9  C   LIG d   1       7.252  -2.711  -6.829  0.00  0.00     0.307 C 
ATOM     10  O   LIG d   1       7.773  -2.639  -7.916  0.00  0.00    -0.251 OA
BRANCH   9  11
ATOM     11  O   LIG d   1       7.992  -2.994  -5.746  0.00  0.00    -0.465 OA
BRANCH  11  12
ATOM     12  C   LIG d   1       7.278  -3.391  -4.545  0.00  0.00     0.090 C 
ATOM     13  H   LIG d   1       6.222  -3.522  -4.777  0.00  0.00     0.069 H 
ATOM     14  H   LIG d   1       7.687  -4.330  -4.173  0.00  0.00     0.069 H 
BRANCH  12  15
ATOM     15  C   LIG d   1       7.436  -2.307  -3.477  0.00  0.00    -0.031 C 
ATOM     16  H   LIG d   1       8.377  -2.453  -2.947  0.00  0.00     0.026 H 
ATOM     17  H   LIG d   1       7.433  -1.326  -3.952  0.00  0.00     0.026 H 
ATOM     18  H   LIG d   1       6.608  -2.371  -2.770  0.00  0.00     0.026 H 
ENDBRANCH  12  15
ENDBRANCH  11  12
ENDBRANCH   9  11
ENDBRANCH   6   9
ENDBRANCH   3   6
ENDBRANCH   1   3
BRANCH   1  19
ATOM     19  C   LIG d   1       3.855   0.107  -7.959  0.00  0.00    -0.037 A 
ATOM     20  C   LIG d   1       4.848   0.987  -8.348  0.00  0.00    -0.058 A 
ATOM     21  C   LIG d   1       4.700   1.727  -9.506  0.00  0.00    -0.061 A 
ATOM     22  H   LIG d   1       5.738   1.097  -7.747  0.00  0.00     0.062 H 
ATOM     23  C   LIG d   1       3.561   1.587 -10.276  0.00  0.00    -0.062 A 
ATOM     24  H   LIG d   1       5.476   2.414  -9.810  0.00  0.00     0.062 H 
ATOM     25  C   LIG d   1       2.569   0.706  -9.887  0.00  0.00    -0.061 A 
ATOM     26  H   LIG d   1       3.445   2.165 -11.180  0.00  0.00     0.062 H 
ATOM     27  C   LIG d   1       2.718  -0.037  -8.731  0.00  0.00    -0.058 A 
ATOM     28  H   LIG d   1       1.678   0.596 -10.488  0.00  0.00     0.062 H 
ATOM     29  H   LIG d   1       1.945  -0.729  -8.429  0.00  0.00     0.062 H 
ENDBRANCH   1  19
BRANCH   1  30
ATOM     30  C   LIG d   1       3.471   0.080  -5.528  0.00  0.00     0.171 C 
ATOM     31  O   LIG d   1       2.748   1.034  -5.719  0.00  0.00    -0.291 OA
BRANCH  30  32
ATOM     32  C   LIG d   1       3.816  -0.318  -4.153  0.00  0.00     0.018 A 
ATOM     33  C   LIG d   1       3.589  -1.629  -3.723  0.00  0.00    -0.051 A 
ATOM     34  C   LIG d   1       3.914  -1.993  -2.433  0.00  0.00    -0.061 A 
ATOM     35  H   LIG d   1       3.159  -2.353  -4.398  0.00  0.00     0.062 H 
ATOM     36  C   LIG d   1       4.464  -1.066  -1.565  0.00  0.00    -0.062 A 
ATOM     37  H   LIG d   1       3.739  -3.006  -2.100  0.00  0.00     0.062 H 
ATOM     38  C   LIG d   1       4.692   0.234  -1.985  0.00  0.00    -0.061 A 
ATOM     39  H   LIG d   1       4.716  -1.357  -0.557  0.00  0.00     0.062 H 
ATOM     40  C   LIG d   1       4.368   0.615  -3.269  0.00  0.00    -0.051 A 
ATOM     41  H   LIG d   1       5.121   0.952  -1.301  0.00  0.00     0.062 H 
ATOM     42  H   LIG d   1       4.543   1.631  -3.593  0.00  0.00     0.062 H 
ENDBRANCH  30  32
ENDBRANCH   1  30
TORSDOF 9
ENDMDL
MODEL 9
REMARK VINA RESULT:      -5.3      2.346      6.505
REMARK  9 active torsions:
REMARK  status: ('A' for Active; 'I' for Inactive)
REMARK    1  A    between atoms: C_1  and  C_2 
REMARK    2  A    between atoms: C_2  and  O_3 
REMARK    3  A    between atoms: O_3  and  C_4 
REMARK    4  A    between atoms: C_4  and  C_6 
REMARK    5  A    between atoms: C_6  and  C_7 
REMARK    6  A    between atoms: C_7  and  C_8 
REMARK    7  A    between atoms: C_8  and  C_10 
REMARK    8  A    between atoms: C_8  and  C_16 
REMARK    9  A    between atoms: C_16  and  C_18 
ROOT
ATOM      1  C   LIG d   1       5.422  -0.586  -5.874  0.00  0.00     0.048 C 
ATOM      2  H   LIG d   1       5.734   0.362  -5.813  0.00  0.00     0.043 H 
ENDROOT
BRANCH   1   3
ATOM      3  C   LIG d   1       6.634  -1.517  -5.952  0.00  0.00    -0.029 C 
ATOM      4  H   LIG d   1       6.831  -1.940  -4.967  0.00  0.00     0.028 H 
ATOM      5  H   LIG d   1       6.430  -2.321  -6.659  0.00  0.00     0.028 H 
BRANCH   3   6
ATOM      6  C   LIG d   1       7.856  -0.723  -6.421  0.00  0.00     0.046 C 
ATOM      7  H   LIG d   1       8.751  -1.335  -6.306  0.00  0.00     0.038 H 
ATOM      8  H   LIG d   1       7.733  -0.452  -7.470  0.00  0.00     0.038 H 
BRANCH   6   9
ATOM      9  C   LIG d   1       7.991   0.528  -5.591  0.00  0.00     0.307 C 
ATOM     10  O   LIG d   1       8.340   0.452  -4.437  0.00  0.00    -0.251 OA
BRANCH   9  11
ATOM     11  O   LIG d   1       7.723   1.725  -6.135  0.00  0.00    -0.465 OA
BRANCH  11  12
ATOM     12  C   LIG d   1       8.583   2.163  -7.220  0.00  0.00     0.090 C 
ATOM     13  H   LIG d   1       9.105   1.303  -7.638  0.00  0.00     0.069 H 
ATOM     14  H   LIG d   1       7.978   2.633  -7.995  0.00  0.00     0.069 H 
BRANCH  12  15
ATOM     15  C   LIG d   1       9.603   3.171  -6.687  0.00  0.00    -0.031 C 
ATOM     16  H   LIG d   1      10.046   2.788  -5.768  0.00  0.00     0.026 H 
ATOM     17  H   LIG d   1      10.385   3.324  -7.432  0.00  0.00     0.026 H 
ATOM     18  H   LIG d   1       9.105   4.119  -6.482  0.00  0.00     0.026 H 
ENDBRANCH  12  15
ENDBRANCH  11  12
ENDBRANCH   9  11
ENDBRANCH   6   9
ENDBRANCH   3   6
ENDBRANCH   1   3
BRANCH   1  19
ATOM     19  C   LIG d   1       4.605  -0.927  -4.655  0.00  0.00    -0.037 A 
ATOM     20  C   LIG d   1       3.488  -0.175  -4.339  0.00  0.00    -0.058 A 
ATOM     21  C   LIG d   1       2.739  -0.488  -3.221  0.00  0.00    -0.061 A 
ATOM     22  H   LIG d   1       3.202   0.656  -4.966  0.00  0.00     0.062 H 
ATOM     23  C   LIG d   1       3.104  -1.552  -2.418  0.00  0.00    -0.062 A 
ATOM     24  H   LIG d   1       1.866   0.099  -2.975  0.00  0.00     0.062 H 
ATOM     25  C   LIG d   1       4.220  -2.304  -2.734  0.00  0.00    -0.061 A 
ATOM     26  H   LIG d   1       2.519  -1.796  -1.545  0.00  0.00     0.062 H 
ATOM     27  C   LIG d   1       4.968  -1.994  -3.855  0.00  0.00    -0.058 A 
ATOM     28  H   LIG d   1       4.506  -3.135  -2.108  0.00  0.00     0.062 H 
ATOM     29  H   LIG d   1       5.838  -2.584  -4.104  0.00  0.00     0.062 H 
ENDBRANCH   1  19
BRANCH   1  30
ATOM     30  C   LIG d   1       4.577  -0.758  -7.110  0.00  0.00     0.171 C 
ATOM     31  O   LIG d   1       4.155  -1.855  -7.408  0.00  0.00    -0.291 OA
BRANCH  30  32
ATOM     32  C   LIG d   1       4.263   0.405  -7.954  0.00  0.00     0.018 A 
ATOM     33  C   LIG d   1       5.283   1.077  -8.634  0.00  0.00    -0.051 A 
ATOM     34  C   LIG d   1       4.980   2.167  -9.423  0.00  0.00    -0.061 A 
ATOM     35  H   LIG d   1       6.306   0.744  -8.540  0.00  0.00     0.062 H 
ATOM     36  C   LIG d   1       3.670   2.596  -9.544  0.00  0.00    -0.062 A 
ATOM     37  H   LIG d   1       5.768   2.686  -9.949  0.00  0.00     0.062 H 
ATOM     38  C   LIG d   1       2.654   1.936  -8.874  0.00  0.00    -0.061 A 
ATOM     39  H   LIG d   1       3.440   3.450 -10.163  0.00  0.00     0.062 H 
ATOM     40  C   LIG d   1       2.941   0.848  -8.078  0.00  0.00    -0.051 A 
ATOM     41  H   LIG d   1       1.634   2.277  -8.973  0.00  0.00     0.062 H 
ATOM     42  H   LIG d   1       2.147   0.337  -7.553  0.00  0.00     0.062 H 
ENDBRANCH  30  32
ENDBRANCH   1  30
TORSDOF 9
ENDMDL
MODEL 10
REMARK VINA RESULT:      -5.3      3.229      6.081
REMARK  9 active torsions:
REMARK  status: ('A' for Active; 'I' for Inactive)
REMARK    1  A    between atoms: C_1  and  C_2 
REMARK    2  A    between atoms: C_2  and  O_3 
REMARK    3  A    between atoms: O_3  and  C_4 
REMARK    4  A    between atoms: C_4  and  C_6 
REMARK    5  A    between atoms: C_6  and  C_7 
REMARK    6  A    between atoms: C_7  and  C_8 
REMARK    7  A    between atoms: C_8  and  C_10 
REMARK    8  A    between atoms: C_8  and  C_16 
REMARK    9  A    between atoms: C_16  and  C_18 
ROOT
ATOM      1  C   LIG d   1       7.284  -2.504  -4.847  0.00  0.00     0.048 C 
ATOM      2  H   LIG d   1       7.773  -1.653  -4.658  0.00  0.00     0.043 H 
ENDROOT
BRANCH   1   3
ATOM      3  C   LIG d   1       7.105  -2.665  -6.358  0.00  0.00    -0.029 C 
ATOM      4  H   LIG d   1       7.750  -3.467  -6.717  0.00  0.00     0.028 H 
ATOM      5  H   LIG d   1       6.066  -2.910  -6.577  0.00  0.00     0.028 H 
BRANCH   3   6
ATOM      6  C   LIG d   1       7.479  -1.356  -7.058  0.00  0.00     0.046 C 
ATOM      7  H   LIG d   1       8.219  -0.824  -6.460  0.00  0.00     0.038 H 
ATOM      8  H   LIG d   1       7.896  -1.576  -8.041  0.00  0.00     0.038 H 
BRANCH   6   9
ATOM      9  C   LIG d   1       6.248  -0.500  -7.213  0.00  0.00     0.307 C 
ATOM     10  O   LIG d   1       6.334   0.703  -7.133  0.00  0.00    -0.251 OA
BRANCH   9  11
ATOM     11  O   LIG d   1       5.056  -1.075  -7.440  0.00  0.00    -0.465 OA
BRANCH  11  12
ATOM     12  C   LIG d   1       3.923  -0.559  -6.691  0.00  0.00     0.090 C 
ATOM     13  H   LIG d   1       3.530  -1.342  -6.044  0.00  0.00     0.069 H 
ATOM     14  H   LIG d   1       4.244   0.287  -6.085  0.00  0.00     0.069 H 
BRANCH  12  15
ATOM     15  C   LIG d   1       2.833  -0.106  -7.665  0.00  0.00    -0.031 C 
ATOM     16  H   LIG d   1       3.139  -0.336  -8.685  0.00  0.00     0.026 H 
ATOM     17  H   LIG d   1       1.903  -0.628  -7.437  0.00  0.00     0.026 H 
ATOM     18  H   LIG d   1       2.681   0.969  -7.565  0.00  0.00     0.026 H 
ENDBRANCH  12  15
ENDBRANCH  11  12
ENDBRANCH   9  11
ENDBRANCH   6   9
ENDBRANCH   3   6
ENDBRANCH   1   3
BRANCH   1  19
ATOM     19  C   LIG d   1       8.073  -3.668  -4.308  0.00  0.00    -0.037 A 
ATOM     20  C   LIG d   1       8.046  -4.885  -4.965  0.00  0.00    -0.058 A 
ATOM     21  C   LIG d   1       8.770  -5.953  -4.471  0.00  0.00    -0.061 A 
ATOM     22  H   LIG d   1       7.458  -5.000  -5.863  0.00  0.00     0.062 H 
ATOM     23  C   LIG d   1       9.524  -5.806  -3.322  0.00  0.00    -0.062 A 
ATOM     24  H   LIG d   1       8.749  -6.903  -4.985  0.00  0.00     0.062 H 
ATOM     25  C   LIG d   1       9.552  -4.589  -2.666  0.00  0.00    -0.061 A 
ATOM     26  H   LIG d   1      10.090  -6.640  -2.936  0.00  0.00     0.062 H 
ATOM     27  C   LIG d   1       8.831  -3.520  -3.162  0.00  0.00    -0.058 A 
ATOM     28  H   LIG d   1      10.140  -4.474  -1.768  0.00  0.00     0.062 H 
ATOM     29  H   LIG d   1       8.856  -2.568  -2.651  0.00  0.00     0.062 H 
ENDBRANCH   1  19
BRANCH   1  30
ATOM     30  C   LIG d   1       5.931  -2.464  -4.184  0.00  0.00     0.171 C 
ATOM     31  O   LIG d   1       5.169  -3.399  -4.303  0.00  0.00    -0.291 OA
BRANCH  30  32
ATOM     32  C   LIG d   1       5.535  -1.290  -3.390  0.00  0.00     0.018 A 
ATOM     33  C   LIG d   1       4.591  -1.418  -2.367  0.00  0.00    -0.051 A 
ATOM     34  C   LIG d   1       4.225  -0.312  -1.628  0.00  0.00    -0.061 A 
ATOM     35  H   LIG d   1       4.148  -2.380  -2.157  0.00  0.00     0.062 H 
ATOM     36  C   LIG d   1       4.790   0.923  -1.897  0.00  0.00    -0.062 A 
ATOM     37  H   LIG d   1       3.496  -0.411  -0.837  0.00  0.00     0.062 H 
ATOM     38  C   LIG d   1       5.727   1.057  -2.908  0.00  0.00    -0.061 A 
ATOM     39  H   LIG d   1       4.500   1.784  -1.314  0.00  0.00     0.062 H 
ATOM     40  C   LIG d   1       6.099  -0.037  -3.659  0.00  0.00    -0.051 A 
ATOM     41  H   LIG d   1       6.163   2.024  -3.111  0.00  0.00     0.062 H 
ATOM     42  H   LIG d   1       6.826   0.071  -4.450  0.00  0.00     0.062 H 
ENDBRANCH  30  32
ENDBRANCH   1  30
TORSDOF 9
ENDMDL
