MODEL 1
REMARK VINA RESULT:      -6.0      0.000      0.000
REMARK  8 active torsions:
REMARK  status: ('A' for Active; 'I' for Inactive)
REMARK    1  A    between atoms: C_1  and  C_2 
REMARK    2  A    between atoms: C_10  and  C_23 
REMARK    3  A    between atoms: C_15  and  C_16 
REMARK    4  A    between atoms: C_15  and  O_19 
REMARK    5  A    between atoms: C_16  and  C_18 
REMARK    6  A    between atoms: O_19  and  C_20 
REMARK    7  A    between atoms: C_20  and  C_22 
REMARK    8  A    between atoms: C_24  and  C_31 
ROOT
ATOM      1  C   LIG d   1       9.023  -3.199  -5.590  0.00  0.00    -0.050 C 
ATOM      2  C   LIG d   1       8.466  -2.513  -4.573  0.00  0.00    -0.077 C 
ATOM      3  C   LIG d   1       6.962  -2.394  -4.570  0.00  0.00    -0.015 C 
ATOM      4  H   LIG d   1       6.662  -1.725  -5.378  0.00  0.00     0.035 H 
ATOM      5  C   LIG d   1       6.313  -3.749  -4.795  0.00  0.00    -0.025 C 
ATOM      6  H   LIG d   1       6.542  -4.390  -3.944  0.00  0.00     0.032 H 
ATOM      7  C   LIG d   1       4.795  -3.567  -4.879  0.00  0.00    -0.048 C 
ATOM      8  C   LIG d   1       4.302  -3.032  -3.534  0.00  0.00    -0.043 C 
ATOM      9  C   LIG d   1       4.961  -1.716  -3.192  0.00  0.00     0.018 C 
ATOM     10  C   LIG d   1       6.497  -1.797  -3.240  0.00  0.00    -0.025 C 
ATOM     11  H   LIG d   1       6.923  -2.318  -2.384  0.00  0.00     0.031 H 
ATOM     12  C   LIG d   1       6.869  -0.284  -3.277  0.00  0.00    -0.045 C 
ATOM     13  C   LIG d   1       5.794   0.339  -4.193  0.00  0.00    -0.005 C 
ATOM     14  C   LIG d   1       4.571  -0.591  -4.161  0.00  0.00     0.176 C 
ATOM     15  C   LIG d   1       6.807  -4.430  -6.065  0.00  0.00    -0.003 C 
ATOM     16  C   LIG d   1       8.089  -3.758  -6.579  0.00  0.00    -0.035 C 
ATOM     17  C   LIG d   1       8.387  -3.677  -7.896  0.00  0.00    -0.015 C 
ATOM     18  C   LIG d   1       7.541  -4.223  -8.875  0.00  0.00     0.156 C 
ATOM     19  O   LIG d   1       7.827  -4.115 -10.051  0.00  0.00    -0.293 OA
ATOM     20  C   LIG d   1       6.278  -4.942  -8.471  0.00  0.00     0.011 C 
ATOM     21  C   LIG d   1       5.711  -4.359  -7.131  0.00  0.00    -0.036 C 
ATOM     22  H   LIG d   1       9.068  -2.067  -3.796  0.00  0.00     0.058 H 
ATOM     23  H   LIG d   1       4.553  -2.855  -5.669  0.00  0.00     0.027 H 
ATOM     24  H   LIG d   1       4.321  -4.526  -5.089  0.00  0.00     0.027 H 
ATOM     25  H   LIG d   1       3.223  -2.888  -3.580  0.00  0.00     0.027 H 
ATOM     26  H   LIG d   1       4.532  -3.759  -2.755  0.00  0.00     0.027 H 
ATOM     27  H   LIG d   1       6.817   0.147  -2.278  0.00  0.00     0.027 H 
ATOM     28  H   LIG d   1       7.862  -0.145  -3.704  0.00  0.00     0.027 H 
ATOM     29  H   LIG d   1       5.521   1.331  -3.830  0.00  0.00     0.031 H 
ATOM     30  H   LIG d   1       6.165   0.405  -5.215  0.00  0.00     0.031 H 
ATOM     31  H   LIG d   1       9.295  -3.181  -8.201  0.00  0.00     0.066 H 
ATOM     32  H   LIG d   1       5.532  -4.838  -9.258  0.00  0.00     0.035 H 
ATOM     33  H   LIG d   1       6.496  -5.997  -8.309  0.00  0.00     0.035 H 
ATOM     34  H   LIG d   1       4.830  -4.900  -6.784  0.00  0.00     0.028 H 
ATOM     35  H   LIG d   1       5.448  -3.317  -7.315  0.00  0.00     0.028 H 
ENDROOT
BRANCH  14  36
ATOM     36  C   LIG d   1       3.374   0.158  -3.634  0.00  0.00     0.174 C 
ATOM     37  O   LIG d   1       2.268  -0.315  -3.751  0.00  0.00    -0.293 OA
BRANCH  36  38
ATOM     38  C   LIG d   1       3.556   1.495  -2.963  0.00  0.00    -0.002 C 
ATOM     39  H   LIG d   1       4.499   1.501  -2.417  0.00  0.00     0.031 H 
ATOM     40  H   LIG d   1       3.568   2.280  -3.718  0.00  0.00     0.031 H 
ATOM     41  H   LIG d   1       2.733   1.668  -2.270  0.00  0.00     0.031 H 
ENDBRANCH  36  38
ENDBRANCH  14  36
BRANCH  14  42
ATOM     42  O   LIG d   1       4.285  -1.133  -5.452  0.00  0.00    -0.450 OA
BRANCH  42  43
ATOM     43  C   LIG d   1       4.537  -0.347  -6.511  0.00  0.00     0.305 C 
ATOM     44  O   LIG d   1       3.786   0.559  -6.783  0.00  0.00    -0.251 OA
BRANCH  43  45
ATOM     45  C   LIG d   1       5.756  -0.597  -7.361  0.00  0.00     0.033 C 
ATOM     46  H   LIG d   1       5.488  -0.519  -8.414  0.00  0.00     0.034 H 
ATOM     47  H   LIG d   1       6.521   0.143  -7.125  0.00  0.00     0.034 H 
ATOM     48  H   LIG d   1       6.142  -1.596  -7.158  0.00  0.00     0.034 H 
ENDBRANCH  43  45
ENDBRANCH  42  43
ENDBRANCH  14  42
BRANCH   9  49
ATOM     49  C   LIG d   1       4.554  -1.310  -1.773  0.00  0.00    -0.055 C 
ATOM     50  H   LIG d   1       3.677  -1.880  -1.469  0.00  0.00     0.024 H 
ATOM     51  H   LIG d   1       5.377  -1.515  -1.087  0.00  0.00     0.024 H 
ATOM     52  H   LIG d   1       4.322  -0.245  -1.752  0.00  0.00     0.024 H 
ENDBRANCH   9  49
BRANCH  15  53
ATOM     53  C   LIG d   1       7.112  -5.898  -5.758  0.00  0.00    -0.055 C 
ATOM     54  H   LIG d   1       6.178  -6.439  -5.609  0.00  0.00     0.024 H 
ATOM     55  H   LIG d   1       7.657  -6.337  -6.592  0.00  0.00     0.024 H 
ATOM     56  H   LIG d   1       7.718  -5.962  -4.853  0.00  0.00     0.024 H 
ENDBRANCH  15  53
BRANCH   1  57
ATOM     57  C   LIG d   1      10.515  -3.377  -5.710  0.00  0.00    -0.040 C 
ATOM     58  H   LIG d   1      10.980  -3.200  -4.741  0.00  0.00     0.028 H 
ATOM     59  H   LIG d   1      10.734  -4.392  -6.039  0.00  0.00     0.028 H 
ATOM     60  H   LIG d   1      10.908  -2.666  -6.438  0.00  0.00     0.028 H 
ENDBRANCH   1  57
TORSDOF 8
ENDMDL
MODEL 2
REMARK VINA RESULT:      -5.7      1.800      3.108
REMARK  8 active torsions:
REMARK  status: ('A' for Active; 'I' for Inactive)
REMARK    1  A    between atoms: C_1  and  C_2 
REMARK    2  A    between atoms: C_10  and  C_23 
REMARK    3  A    between atoms: C_15  and  C_16 
REMARK    4  A    between atoms: C_15  and  O_19 
REMARK    5  A    between atoms: C_16  and  C_18 
REMARK    6  A    between atoms: O_19  and  C_20 
REMARK    7  A    between atoms: C_20  and  C_22 
REMARK    8  A    between atoms: C_24  and  C_31 
ROOT
ATOM      1  C   LIG d   1       6.123  -4.249  -6.342  0.00  0.00    -0.050 C 
ATOM      2  C   LIG d   1       5.356  -3.854  -5.307  0.00  0.00    -0.077 C 
ATOM      3  C   LIG d   1       5.037  -2.382  -5.213  0.00  0.00    -0.015 C 
ATOM      4  H   LIG d   1       5.945  -1.845  -4.935  0.00  0.00     0.035 H 
ATOM      5  C   LIG d   1       4.547  -1.850  -6.548  0.00  0.00    -0.025 C 
ATOM      6  H   LIG d   1       3.595  -2.325  -6.784  0.00  0.00     0.032 H 
ATOM      7  C   LIG d   1       4.327  -0.339  -6.432  0.00  0.00    -0.048 C 
ATOM      8  C   LIG d   1       3.226  -0.094  -5.400  0.00  0.00    -0.043 C 
ATOM      9  C   LIG d   1       3.599  -0.666  -4.052  0.00  0.00     0.018 C 
ATOM     10  C   LIG d   1       3.981  -2.154  -4.130  0.00  0.00    -0.025 C 
ATOM     11  H   LIG d   1       3.119  -2.809  -4.252  0.00  0.00     0.031 H 
ATOM     12  C   LIG d   1       4.698  -2.345  -2.760  0.00  0.00    -0.045 C 
ATOM     13  C   LIG d   1       5.497  -1.036  -2.576  0.00  0.00    -0.005 C 
ATOM     14  C   LIG d   1       4.808   0.043  -3.425  0.00  0.00     0.176 C 
ATOM     15  C   LIG d   1       5.524  -2.128  -7.683  0.00  0.00    -0.003 C 
ATOM     16  C   LIG d   1       6.554  -3.189  -7.266  0.00  0.00    -0.035 C 
ATOM     17  C   LIG d   1       7.826  -3.184  -7.726  0.00  0.00    -0.015 C 
ATOM     18  C   LIG d   1       8.276  -2.211  -8.633  0.00  0.00     0.156 C 
ATOM     19  O   LIG d   1       9.431  -2.222  -9.012  0.00  0.00    -0.293 OA
ATOM     20  C   LIG d   1       7.330  -1.150  -9.137  0.00  0.00     0.011 C 
ATOM     21  C   LIG d   1       6.234  -0.826  -8.064  0.00  0.00    -0.036 C 
ATOM     22  H   LIG d   1       4.987  -4.558  -4.577  0.00  0.00     0.058 H 
ATOM     23  H   LIG d   1       5.249   0.143  -6.107  0.00  0.00     0.027 H 
ATOM     24  H   LIG d   1       4.022   0.064  -7.398  0.00  0.00     0.027 H 
ATOM     25  H   LIG d   1       3.063   0.979  -5.299  0.00  0.00     0.027 H 
ATOM     26  H   LIG d   1       2.303  -0.563  -5.744  0.00  0.00     0.027 H 
ATOM     27  H   LIG d   1       3.970  -2.464  -1.959  0.00  0.00     0.027 H 
ATOM     28  H   LIG d   1       5.372  -3.201  -2.797  0.00  0.00     0.027 H 
ATOM     29  H   LIG d   1       5.500  -0.744  -1.525  0.00  0.00     0.031 H 
ATOM     30  H   LIG d   1       6.519  -1.169  -2.929  0.00  0.00     0.031 H 
ATOM     31  H   LIG d   1       8.511  -3.946  -7.389  0.00  0.00     0.066 H 
ATOM     32  H   LIG d   1       7.889  -0.244  -9.371  0.00  0.00     0.035 H 
ATOM     33  H   LIG d   1       6.823  -1.509 -10.033  0.00  0.00     0.035 H 
ATOM     34  H   LIG d   1       5.500  -0.105  -8.426  0.00  0.00     0.028 H 
ATOM     35  H   LIG d   1       6.744  -0.420  -7.191  0.00  0.00     0.028 H 
ENDROOT
BRANCH  14  36
ATOM     36  C   LIG d   1       4.346   1.171  -2.539  0.00  0.00     0.174 C 
ATOM     37  O   LIG d   1       4.630   1.171  -1.364  0.00  0.00    -0.293 OA
BRANCH  36  38
ATOM     38  C   LIG d   1       3.531   2.299  -3.118  0.00  0.00    -0.002 C 
ATOM     39  H   LIG d   1       2.496   2.203  -2.792  0.00  0.00     0.031 H 
ATOM     40  H   LIG d   1       3.934   3.251  -2.773  0.00  0.00     0.031 H 
ATOM     41  H   LIG d   1       3.577   2.258  -4.206  0.00  0.00     0.031 H 
ENDBRANCH  36  38
ENDBRANCH  14  36
BRANCH  14  42
ATOM     42  O   LIG d   1       5.671   0.542  -4.449  0.00  0.00    -0.450 OA
BRANCH  42  43
ATOM     43  C   LIG d   1       6.972   0.663  -4.143  0.00  0.00     0.305 C 
ATOM     44  O   LIG d   1       7.344   1.563  -3.429  0.00  0.00    -0.251 OA
BRANCH  43  45
ATOM     45  C   LIG d   1       7.969  -0.326  -4.690  0.00  0.00     0.033 C 
ATOM     46  H   LIG d   1       7.751  -0.519  -5.741  0.00  0.00     0.034 H 
ATOM     47  H   LIG d   1       8.975   0.084  -4.598  0.00  0.00     0.034 H 
ATOM     48  H   LIG d   1       7.903  -1.257  -4.129  0.00  0.00     0.034 H 
ENDBRANCH  43  45
ENDBRANCH  42  43
ENDBRANCH  14  42
BRANCH   9  49
ATOM     49  C   LIG d   1       2.402  -0.534  -3.106  0.00  0.00    -0.055 C 
ATOM     50  H   LIG d   1       2.758  -0.422  -2.083  0.00  0.00     0.024 H 
ATOM     51  H   LIG d   1       1.815   0.340  -3.386  0.00  0.00     0.024 H 
ATOM     52  H   LIG d   1       1.782  -1.427  -3.179  0.00  0.00     0.024 H 
ENDBRANCH   9  49
BRANCH  15  53
ATOM     53  C   LIG d   1       4.748  -2.649  -8.895  0.00  0.00    -0.055 C 
ATOM     54  H   LIG d   1       3.741  -2.230  -8.887  0.00  0.00     0.024 H 
ATOM     55  H   LIG d   1       5.259  -2.349  -9.809  0.00  0.00     0.024 H 
ATOM     56  H   LIG d   1       4.690  -3.736  -8.850  0.00  0.00     0.024 H 
ENDBRANCH  15  53
BRANCH   1  57
ATOM     57  C   LIG d   1       6.519  -5.690  -6.539  0.00  0.00    -0.040 C 
ATOM     58  H   LIG d   1       6.057  -6.301  -5.765  0.00  0.00     0.028 H 
ATOM     59  H   LIG d   1       6.184  -6.028  -7.519  0.00  0.00     0.028 H 
ATOM     60  H   LIG d   1       7.603  -5.779  -6.474  0.00  0.00     0.028 H 
ENDBRANCH   1  57
TORSDOF 8
ENDMDL
MODEL 3
REMARK VINA RESULT:      -5.6      2.255      5.610
REMARK  8 active torsions:
REMARK  status: ('A' for Active; 'I' for Inactive)
REMARK    1  A    between atoms: C_1  and  C_2 
REMARK    2  A    between atoms: C_10  and  C_23 
REMARK    3  A    between atoms: C_15  and  C_16 
REMARK    4  A    between atoms: C_15  and  O_19 
REMARK    5  A    between atoms: C_16  and  C_18 
REMARK    6  A    between atoms: O_19  and  C_20 
REMARK    7  A    between atoms: C_20  and  C_22 
REMARK    8  A    between atoms: C_24  and  C_31 
ROOT
ATOM      1  C   LIG d   1       4.949  -4.095  -5.696  0.00  0.00    -0.050 C 
ATOM      2  C   LIG d   1       4.987  -3.777  -7.005  0.00  0.00    -0.077 C 
ATOM      3  C   LIG d   1       5.337  -2.352  -7.355  0.00  0.00    -0.015 C 
ATOM      4  H   LIG d   1       4.503  -1.708  -7.074  0.00  0.00     0.035 H 
ATOM      5  C   LIG d   1       6.576  -1.901  -6.602  0.00  0.00    -0.025 C 
ATOM      6  H   LIG d   1       7.427  -2.487  -6.948  0.00  0.00     0.032 H 
ATOM      7  C   LIG d   1       6.838  -0.424  -6.913  0.00  0.00    -0.048 C 
ATOM      8  C   LIG d   1       7.129  -0.295  -8.409  0.00  0.00    -0.043 C 
ATOM      9  C   LIG d   1       5.971  -0.800  -9.239  0.00  0.00     0.018 C 
ATOM     10  C   LIG d   1       5.560  -2.234  -8.864  0.00  0.00    -0.025 C 
ATOM     11  H   LIG d   1       6.253  -2.987  -9.238  0.00  0.00     0.031 H 
ATOM     12  C   LIG d   1       4.154  -2.319  -9.531  0.00  0.00    -0.045 C 
ATOM     13  C   LIG d   1       3.542  -0.923  -9.282  0.00  0.00    -0.005 C 
ATOM     14  C   LIG d   1       4.707   0.055  -9.070  0.00  0.00     0.176 C 
ATOM     15  C   LIG d   1       6.441  -2.079  -5.096  0.00  0.00    -0.003 C 
ATOM     16  C   LIG d   1       5.263  -3.004  -4.760  0.00  0.00    -0.035 C 
ATOM     17  C   LIG d   1       4.522  -2.857  -3.638  0.00  0.00    -0.015 C 
ATOM     18  C   LIG d   1       4.803  -1.851  -2.699  0.00  0.00     0.156 C 
ATOM     19  O   LIG d   1       4.105  -1.733  -1.711  0.00  0.00    -0.293 OA
ATOM     20  C   LIG d   1       5.966  -0.916  -2.915  0.00  0.00     0.011 C 
ATOM     21  C   LIG d   1       6.236  -0.707  -4.445  0.00  0.00    -0.036 C 
ATOM     22  H   LIG d   1       4.775  -4.509  -7.770  0.00  0.00     0.058 H 
ATOM     23  H   LIG d   1       5.959   0.168  -6.658  0.00  0.00     0.027 H 
ATOM     24  H   LIG d   1       7.697  -0.074  -6.341  0.00  0.00     0.027 H 
ATOM     25  H   LIG d   1       7.309   0.753  -8.649  0.00  0.00     0.027 H 
ATOM     26  H   LIG d   1       8.020  -0.875  -8.651  0.00  0.00     0.027 H 
ATOM     27  H   LIG d   1       4.247  -2.511 -10.599  0.00  0.00     0.027 H 
ATOM     28  H   LIG d   1       3.550  -3.091  -9.053  0.00  0.00     0.027 H 
ATOM     29  H   LIG d   1       2.946  -0.617 -10.143  0.00  0.00     0.031 H 
ATOM     30  H   LIG d   1       2.922  -0.940  -8.386  0.00  0.00     0.031 H 
ATOM     31  H   LIG d   1       3.696  -3.529  -3.460  0.00  0.00     0.066 H 
ATOM     32  H   LIG d   1       5.752   0.045  -2.449  0.00  0.00     0.035 H 
ATOM     33  H   LIG d   1       6.865  -1.346  -2.473  0.00  0.00     0.035 H 
ATOM     34  H   LIG d   1       7.111  -0.083  -4.629  0.00  0.00     0.028 H 
ATOM     35  H   LIG d   1       5.352  -0.231  -4.869  0.00  0.00     0.028 H 
ENDROOT
BRANCH  14  36
ATOM     36  C   LIG d   1       4.665   1.135 -10.121  0.00  0.00     0.174 C 
ATOM     37  O   LIG d   1       5.294   2.154  -9.965  0.00  0.00    -0.293 OA
BRANCH  36  38
ATOM     38  C   LIG d   1       3.838   0.942 -11.367  0.00  0.00    -0.002 C 
ATOM     39  H   LIG d   1       4.378   0.305 -12.066  0.00  0.00     0.031 H 
ATOM     40  H   LIG d   1       2.891   0.473 -11.103  0.00  0.00     0.031 H 
ATOM     41  H   LIG d   1       3.648   1.911 -11.829  0.00  0.00     0.031 H 
ENDBRANCH  36  38
ENDBRANCH  14  36
BRANCH  14  42
ATOM     42  O   LIG d   1       4.679   0.637  -7.765  0.00  0.00    -0.450 OA
BRANCH  42  43
ATOM     43  C   LIG d   1       3.471   0.927  -7.254  0.00  0.00     0.305 C 
ATOM     44  O   LIG d   1       2.840   1.859  -7.689  0.00  0.00    -0.251 OA
BRANCH  43  45
ATOM     45  C   LIG d   1       2.906   0.087  -6.138  0.00  0.00     0.033 C 
ATOM     46  H   LIG d   1       2.323  -0.733  -6.558  0.00  0.00     0.034 H 
ATOM     47  H   LIG d   1       3.721  -0.317  -5.538  0.00  0.00     0.034 H 
ATOM     48  H   LIG d   1       2.263   0.704  -5.509  0.00  0.00     0.034 H 
ENDBRANCH  43  45
ENDBRANCH  42  43
ENDBRANCH  14  42
BRANCH   9  49
ATOM     49  C   LIG d   1       6.378  -0.796 -10.715  0.00  0.00    -0.055 C 
ATOM     50  H   LIG d   1       5.507  -1.014 -11.333  0.00  0.00     0.024 H 
ATOM     51  H   LIG d   1       6.774   0.185 -10.979  0.00  0.00     0.024 H 
ATOM     52  H   LIG d   1       7.143  -1.554 -10.883  0.00  0.00     0.024 H 
ENDBRANCH   9  49
BRANCH  15  53
ATOM     53  C   LIG d   1       7.727  -2.704  -4.550  0.00  0.00    -0.055 C 
ATOM     54  H   LIG d   1       8.584  -2.301  -5.090  0.00  0.00     0.024 H 
ATOM     55  H   LIG d   1       7.823  -2.469  -3.490  0.00  0.00     0.024 H 
ATOM     56  H   LIG d   1       7.690  -3.785  -4.681  0.00  0.00     0.024 H 
ENDBRANCH  15  53
BRANCH   1  57
ATOM     57  C   LIG d   1       4.601  -5.481  -5.220  0.00  0.00    -0.040 C 
ATOM     58  H   LIG d   1       4.858  -6.205  -5.993  0.00  0.00     0.028 H 
ATOM     59  H   LIG d   1       5.161  -5.705  -4.312  0.00  0.00     0.028 H 
ATOM     60  H   LIG d   1       3.533  -5.536  -5.012  0.00  0.00     0.028 H 
ENDBRANCH   1  57
TORSDOF 8
ENDMDL
MODEL 4
REMARK VINA RESULT:      -5.5      2.984      4.552
REMARK  8 active torsions:
REMARK  status: ('A' for Active; 'I' for Inactive)
REMARK    1  A    between atoms: C_1  and  C_2 
REMARK    2  A    between atoms: C_10  and  C_23 
REMARK    3  A    between atoms: C_15  and  C_16 
REMARK    4  A    between atoms: C_15  and  O_19 
REMARK    5  A    between atoms: C_16  and  C_18 
REMARK    6  A    between atoms: O_19  and  C_20 
REMARK    7  A    between atoms: C_20  and  C_22 
REMARK    8  A    between atoms: C_24  and  C_31 
ROOT
ATOM      1  C   LIG d   1      10.462  -1.007  -6.230  0.00  0.00    -0.050 C 
ATOM      2  C   LIG d   1       9.509  -1.830  -5.752  0.00  0.00    -0.077 C 
ATOM      3  C   LIG d   1       8.097  -1.300  -5.722  0.00  0.00    -0.015 C 
ATOM      4  H   LIG d   1       8.028  -0.533  -4.950  0.00  0.00     0.035 H 
ATOM      5  C   LIG d   1       7.726  -0.679  -7.058  0.00  0.00    -0.025 C 
ATOM      6  H   LIG d   1       7.711  -1.463  -7.814  0.00  0.00     0.032 H 
ATOM      7  C   LIG d   1       6.324  -0.070  -6.953  0.00  0.00    -0.048 C 
ATOM      8  C   LIG d   1       5.332  -1.200  -6.673  0.00  0.00    -0.043 C 
ATOM      9  C   LIG d   1       5.677  -1.928  -5.393  0.00  0.00     0.018 C 
ATOM     10  C   LIG d   1       7.129  -2.433  -5.377  0.00  0.00    -0.025 C 
ATOM     11  H   LIG d   1       7.283  -3.310  -6.005  0.00  0.00     0.031 H 
ATOM     12  C   LIG d   1       7.318  -2.733  -3.860  0.00  0.00    -0.045 C 
ATOM     13  C   LIG d   1       6.571  -1.577  -3.158  0.00  0.00    -0.005 C 
ATOM     14  C   LIG d   1       5.529  -1.040  -4.151  0.00  0.00     0.176 C 
ATOM     15  C   LIG d   1       8.709   0.400  -7.494  0.00  0.00    -0.003 C 
ATOM     16  C   LIG d   1      10.005   0.319  -6.674  0.00  0.00    -0.035 C 
ATOM     17  C   LIG d   1      10.736   1.413  -6.364  0.00  0.00    -0.015 C 
ATOM     18  C   LIG d   1      10.356   2.696  -6.791  0.00  0.00     0.156 C 
ATOM     19  O   LIG d   1      11.024   3.662  -6.478  0.00  0.00    -0.293 OA
ATOM     20  C   LIG d   1       9.122   2.878  -7.638  0.00  0.00     0.011 C 
ATOM     21  C   LIG d   1       8.057   1.775  -7.314  0.00  0.00    -0.036 C 
ATOM     22  H   LIG d   1       9.745  -2.825  -5.405  0.00  0.00     0.058 H 
ATOM     23  H   LIG d   1       6.297   0.653  -6.137  0.00  0.00     0.027 H 
ATOM     24  H   LIG d   1       6.065   0.422  -7.890  0.00  0.00     0.027 H 
ATOM     25  H   LIG d   1       4.330  -0.783  -6.586  0.00  0.00     0.027 H 
ATOM     26  H   LIG d   1       5.354  -1.908  -7.502  0.00  0.00     0.027 H 
ATOM     27  H   LIG d   1       6.869  -3.691  -3.600  0.00  0.00     0.027 H 
ATOM     28  H   LIG d   1       8.375  -2.720  -3.595  0.00  0.00     0.027 H 
ATOM     29  H   LIG d   1       6.079  -1.943  -2.257  0.00  0.00     0.031 H 
ATOM     30  H   LIG d   1       7.269  -0.780  -2.906  0.00  0.00     0.031 H 
ATOM     31  H   LIG d   1      11.632   1.299  -5.773  0.00  0.00     0.066 H 
ATOM     32  H   LIG d   1       8.694   3.863  -7.450  0.00  0.00     0.035 H 
ATOM     33  H   LIG d   1       9.386   2.788  -8.691  0.00  0.00     0.035 H 
ATOM     34  H   LIG d   1       7.178   1.847  -7.955  0.00  0.00     0.028 H 
ATOM     35  H   LIG d   1       7.761   1.904  -6.273  0.00  0.00     0.028 H 
ENDROOT
BRANCH  14  36
ATOM     36  C   LIG d   1       4.147  -1.186  -3.568  0.00  0.00     0.174 C 
ATOM     37  O   LIG d   1       3.207  -0.644  -4.100  0.00  0.00    -0.293 OA
BRANCH  36  38
ATOM     38  C   LIG d   1       3.937  -2.007  -2.321  0.00  0.00    -0.002 C 
ATOM     39  H   LIG d   1       4.111  -3.059  -2.546  0.00  0.00     0.031 H 
ATOM     40  H   LIG d   1       4.634  -1.679  -1.551  0.00  0.00     0.031 H 
ATOM     41  H   LIG d   1       2.915  -1.874  -1.967  0.00  0.00     0.031 H 
ENDBRANCH  36  38
ENDBRANCH  14  36
BRANCH  14  42
ATOM     42  O   LIG d   1       5.778   0.326  -4.491  0.00  0.00    -0.450 OA
BRANCH  42  43
ATOM     43  C   LIG d   1       6.339   1.097  -3.545  0.00  0.00     0.305 C 
ATOM     44  O   LIG d   1       5.706   1.406  -2.565  0.00  0.00    -0.251 OA
BRANCH  43  45
ATOM     45  C   LIG d   1       7.759   1.575  -3.708  0.00  0.00     0.033 C 
ATOM     46  H   LIG d   1       8.203   1.103  -4.585  0.00  0.00     0.034 H 
ATOM     47  H   LIG d   1       7.765   2.657  -3.837  0.00  0.00     0.034 H 
ATOM     48  H   LIG d   1       8.335   1.311  -2.822  0.00  0.00     0.034 H 
ENDBRANCH  43  45
ENDBRANCH  42  43
ENDBRANCH  14  42
BRANCH   9  49
ATOM     49  C   LIG d   1       4.753  -3.141  -5.247  0.00  0.00    -0.055 C 
ATOM     50  H   LIG d   1       4.652  -3.638  -6.212  0.00  0.00     0.024 H 
ATOM     51  H   LIG d   1       5.179  -3.836  -4.523  0.00  0.00     0.024 H 
ATOM     52  H   LIG d   1       3.773  -2.812  -4.903  0.00  0.00     0.024 H 
ENDBRANCH   9  49
BRANCH  15  53
ATOM     53  C   LIG d   1       9.049   0.198  -8.972  0.00  0.00    -0.055 C 
ATOM     54  H   LIG d   1      10.099   0.439  -9.139  0.00  0.00     0.024 H 
ATOM     55  H   LIG d   1       8.867  -0.840  -9.247  0.00  0.00     0.024 H 
ATOM     56  H   LIG d   1       8.425   0.851  -9.582  0.00  0.00     0.024 H 
ENDBRANCH  15  53
BRANCH   1  57
ATOM     57  C   LIG d   1      11.911  -1.417  -6.300  0.00  0.00    -0.040 C 
ATOM     58  H   LIG d   1      12.540  -0.574  -6.016  0.00  0.00     0.028 H 
ATOM     59  H   LIG d   1      12.086  -2.248  -5.617  0.00  0.00     0.028 H 
ATOM     60  H   LIG d   1      12.152  -1.725  -7.317  0.00  0.00     0.028 H 
ENDBRANCH   1  57
TORSDOF 8
ENDMDL
MODEL 5
REMARK VINA RESULT:      -5.4      2.754      6.274
REMARK  8 active torsions:
REMARK  status: ('A' for Active; 'I' for Inactive)
REMARK    1  A    between atoms: C_1  and  C_2 
REMARK    2  A    between atoms: C_10  and  C_23 
REMARK    3  A    between atoms: C_15  and  C_16 
REMARK    4  A    between atoms: C_15  and  O_19 
REMARK    5  A    between atoms: C_16  and  C_18 
REMARK    6  A    between atoms: O_19  and  C_20 
REMARK    7  A    between atoms: C_20  and  C_22 
REMARK    8  A    between atoms: C_24  and  C_31 
ROOT
ATOM      1  C   LIG d   1       4.160  -0.360  -6.192  0.00  0.00    -0.050 C 
ATOM      2  C   LIG d   1       5.275  -0.620  -6.903  0.00  0.00    -0.077 C 
ATOM      3  C   LIG d   1       6.538  -0.888  -6.123  0.00  0.00    -0.015 C 
ATOM      4  H   LIG d   1       6.871   0.044  -5.666  0.00  0.00     0.035 H 
ATOM      5  C   LIG d   1       6.287  -1.906  -5.024  0.00  0.00    -0.025 C 
ATOM      6  H   LIG d   1       6.038  -2.862  -5.485  0.00  0.00     0.032 H 
ATOM      7  C   LIG d   1       7.567  -2.076  -4.200  0.00  0.00    -0.048 C 
ATOM      8  C   LIG d   1       8.654  -2.639  -5.117  0.00  0.00    -0.043 C 
ATOM      9  C   LIG d   1       8.913  -1.720  -6.289  0.00  0.00     0.018 C 
ATOM     10  C   LIG d   1       7.630  -1.388  -7.070  0.00  0.00    -0.025 C 
ATOM     11  H   LIG d   1       7.287  -2.211  -7.695  0.00  0.00     0.031 H 
ATOM     12  C   LIG d   1       8.102  -0.154  -7.897  0.00  0.00    -0.045 C 
ATOM     13  C   LIG d   1       8.998   0.630  -6.913  0.00  0.00    -0.005 C 
ATOM     14  C   LIG d   1       9.504  -0.369  -5.861  0.00  0.00     0.176 C 
ATOM     15  C   LIG d   1       5.147  -1.499  -4.099  0.00  0.00    -0.003 C 
ATOM     16  C   LIG d   1       4.311  -0.375  -4.729  0.00  0.00    -0.035 C 
ATOM     17  C   LIG d   1       3.706   0.580  -3.988  0.00  0.00    -0.015 C 
ATOM     18  C   LIG d   1       3.795   0.590  -2.586  0.00  0.00     0.156 C 
ATOM     19  O   LIG d   1       3.257   1.475  -1.950  0.00  0.00    -0.293 OA
ATOM     20  C   LIG d   1       4.558  -0.495  -1.868  0.00  0.00     0.011 C 
ATOM     21  C   LIG d   1       5.728  -1.036  -2.760  0.00  0.00    -0.036 C 
ATOM     22  H   LIG d   1       5.266  -0.635  -7.982  0.00  0.00     0.058 H 
ATOM     23  H   LIG d   1       7.882  -1.110  -3.806  0.00  0.00     0.027 H 
ATOM     24  H   LIG d   1       7.386  -2.768  -3.378  0.00  0.00     0.027 H 
ATOM     25  H   LIG d   1       9.576  -2.757  -4.547  0.00  0.00     0.027 H 
ATOM     26  H   LIG d   1       8.338  -3.613  -5.490  0.00  0.00     0.027 H 
ATOM     27  H   LIG d   1       8.677  -0.473  -8.766  0.00  0.00     0.027 H 
ATOM     28  H   LIG d   1       7.249   0.451  -8.202  0.00  0.00     0.027 H 
ATOM     29  H   LIG d   1       9.840   1.074  -7.446  0.00  0.00     0.031 H 
ATOM     30  H   LIG d   1       8.418   1.407  -6.417  0.00  0.00     0.031 H 
ATOM     31  H   LIG d   1       3.142   1.355  -4.485  0.00  0.00     0.066 H 
ATOM     32  H   LIG d   1       4.963  -0.100  -0.937  0.00  0.00     0.035 H 
ATOM     33  H   LIG d   1       3.890  -1.329  -1.653  0.00  0.00     0.035 H 
ATOM     34  H   LIG d   1       6.259  -1.864  -2.289  0.00  0.00     0.028 H 
ATOM     35  H   LIG d   1       6.418  -0.209  -2.929  0.00  0.00     0.028 H 
ENDROOT
BRANCH  14  36
ATOM     36  C   LIG d   1      11.009  -0.426  -5.894  0.00  0.00     0.174 C 
ATOM     37  O   LIG d   1      11.609  -1.024  -5.033  0.00  0.00    -0.293 OA
BRANCH  36  38
ATOM     38  C   LIG d   1      11.766   0.264  -7.001  0.00  0.00    -0.002 C 
ATOM     39  H   LIG d   1      11.734   1.342  -6.845  0.00  0.00     0.031 H 
ATOM     40  H   LIG d   1      12.802  -0.074  -6.996  0.00  0.00     0.031 H 
ATOM     41  H   LIG d   1      11.308   0.020  -7.959  0.00  0.00     0.031 H 
ENDBRANCH  36  38
ENDBRANCH  14  36
BRANCH  14  42
ATOM     42  O   LIG d   1       9.052  -0.030  -4.549  0.00  0.00    -0.450 OA
BRANCH  42  43
ATOM     43  C   LIG d   1       8.957   1.277  -4.257  0.00  0.00     0.305 C 
ATOM     44  O   LIG d   1       9.955   1.950  -4.168  0.00  0.00    -0.251 OA
BRANCH  43  45
ATOM     45  C   LIG d   1       7.603   1.904  -4.041  0.00  0.00     0.033 C 
ATOM     46  H   LIG d   1       7.726   2.889  -3.592  0.00  0.00     0.034 H 
ATOM     47  H   LIG d   1       7.092   2.002  -4.998  0.00  0.00     0.034 H 
ATOM     48  H   LIG d   1       7.013   1.273  -3.376  0.00  0.00     0.034 H 
ENDBRANCH  43  45
ENDBRANCH  42  43
ENDBRANCH  14  42
BRANCH   9  49
ATOM     49  C   LIG d   1       9.888  -2.405  -7.251  0.00  0.00    -0.055 C 
ATOM     50  H   LIG d   1       9.897  -1.870  -8.201  0.00  0.00     0.024 H 
ATOM     51  H   LIG d   1      10.889  -2.396  -6.820  0.00  0.00     0.024 H 
ATOM     52  H   LIG d   1       9.573  -3.434  -7.416  0.00  0.00     0.024 H 
ENDBRANCH   9  49
BRANCH  15  53
ATOM     53  C   LIG d   1       4.242  -2.710  -3.860  0.00  0.00    -0.055 C 
ATOM     54  H   LIG d   1       4.799  -3.624  -4.062  0.00  0.00     0.024 H 
ATOM     55  H   LIG d   1       3.904  -2.711  -2.825  0.00  0.00     0.024 H 
ATOM     56  H   LIG d   1       3.379  -2.655  -4.524  0.00  0.00     0.024 H 
ENDBRANCH  15  53
BRANCH   1  57
ATOM     57  C   LIG d   1       2.840  -0.065  -6.857  0.00  0.00    -0.040 C 
ATOM     58  H   LIG d   1       3.017   0.435  -7.809  0.00  0.00     0.028 H 
ATOM     59  H   LIG d   1       2.304  -0.998  -7.030  0.00  0.00     0.028 H 
ATOM     60  H   LIG d   1       2.246   0.582  -6.211  0.00  0.00     0.028 H 
ENDBRANCH   1  57
TORSDOF 8
ENDMDL
MODEL 6
REMARK VINA RESULT:      -5.4      2.702      5.201
REMARK  8 active torsions:
REMARK  status: ('A' for Active; 'I' for Inactive)
REMARK    1  A    between atoms: C_1  and  C_2 
REMARK    2  A    between atoms: C_10  and  C_23 
REMARK    3  A    between atoms: C_15  and  C_16 
REMARK    4  A    between atoms: C_15  and  O_19 
REMARK    5  A    between atoms: C_16  and  C_18 
REMARK    6  A    between atoms: O_19  and  C_20 
REMARK    7  A    between atoms: C_20  and  C_22 
REMARK    8  A    between atoms: C_24  and  C_31 
ROOT
ATOM      1  C   LIG d   1       4.626  -1.250  -4.257  0.00  0.00    -0.050 C 
ATOM      2  C   LIG d   1       3.805  -0.682  -5.162  0.00  0.00    -0.077 C 
ATOM      3  C   LIG d   1       4.104  -0.943  -6.617  0.00  0.00    -0.015 C 
ATOM      4  H   LIG d   1       5.014  -0.405  -6.889  0.00  0.00     0.035 H 
ATOM      5  C   LIG d   1       4.322  -2.425  -6.866  0.00  0.00    -0.025 C 
ATOM      6  H   LIG d   1       3.387  -2.951  -6.678  0.00  0.00     0.032 H 
ATOM      7  C   LIG d   1       4.717  -2.632  -8.332  0.00  0.00    -0.048 C 
ATOM      8  C   LIG d   1       3.549  -2.179  -9.209  0.00  0.00    -0.043 C 
ATOM      9  C   LIG d   1       3.210  -0.726  -8.966  0.00  0.00     0.018 C 
ATOM     10  C   LIG d   1       2.952  -0.423  -7.480  0.00  0.00    -0.025 C 
ATOM     11  H   LIG d   1       1.985  -0.784  -7.133  0.00  0.00     0.031 H 
ATOM     12  C   LIG d   1       3.057   1.131  -7.475  0.00  0.00    -0.045 C 
ATOM     13  C   LIG d   1       4.219   1.426  -8.448  0.00  0.00    -0.005 C 
ATOM     14  C   LIG d   1       4.337   0.223  -9.396  0.00  0.00     0.176 C 
ATOM     15  C   LIG d   1       5.403  -3.015  -5.969  0.00  0.00    -0.003 C 
ATOM     16  C   LIG d   1       5.720  -2.067  -4.803  0.00  0.00    -0.035 C 
ATOM     17  C   LIG d   1       6.955  -1.972  -4.262  0.00  0.00    -0.015 C 
ATOM     18  C   LIG d   1       8.025  -2.754  -4.729  0.00  0.00     0.156 C 
ATOM     19  O   LIG d   1       9.128  -2.629  -4.235  0.00  0.00    -0.293 OA
ATOM     20  C   LIG d   1       7.807  -3.747  -5.843  0.00  0.00     0.011 C 
ATOM     21  C   LIG d   1       6.664  -3.267  -6.802  0.00  0.00    -0.036 C 
ATOM     22  H   LIG d   1       2.971  -0.067  -4.860  0.00  0.00     0.058 H 
ATOM     23  H   LIG d   1       5.601  -2.038  -8.562  0.00  0.00     0.027 H 
ATOM     24  H   LIG d   1       4.924  -3.687  -8.512  0.00  0.00     0.027 H 
ATOM     25  H   LIG d   1       3.816  -2.311 -10.257  0.00  0.00     0.027 H 
ATOM     26  H   LIG d   1       2.675  -2.791  -8.984  0.00  0.00     0.027 H 
ATOM     27  H   LIG d   1       2.133   1.579  -7.837  0.00  0.00     0.027 H 
ATOM     28  H   LIG d   1       3.295   1.496  -6.475  0.00  0.00     0.027 H 
ATOM     29  H   LIG d   1       4.010   2.333  -9.017  0.00  0.00     0.031 H 
ATOM     30  H   LIG d   1       5.151   1.538  -7.896  0.00  0.00     0.031 H 
ATOM     31  H   LIG d   1       7.124  -1.279  -3.452  0.00  0.00     0.066 H 
ATOM     32  H   LIG d   1       8.730  -3.867  -6.410  0.00  0.00     0.035 H 
ATOM     33  H   LIG d   1       7.509  -4.707  -5.422  0.00  0.00     0.035 H 
ATOM     34  H   LIG d   1       6.445  -3.995  -7.583  0.00  0.00     0.028 H 
ATOM     35  H   LIG d   1       6.992  -2.332  -7.257  0.00  0.00     0.028 H 
ENDROOT
BRANCH  14  36
ATOM     36  C   LIG d   1       4.126   0.671 -10.819  0.00  0.00     0.174 C 
ATOM     37  O   LIG d   1       3.706   1.781 -11.046  0.00  0.00    -0.293 OA
BRANCH  36  38
ATOM     38  C   LIG d   1       4.436  -0.266 -11.958  0.00  0.00    -0.002 C 
ATOM     39  H   LIG d   1       4.594  -1.271 -11.569  0.00  0.00     0.031 H 
ATOM     40  H   LIG d   1       3.601  -0.275 -12.658  0.00  0.00     0.031 H 
ATOM     41  H   LIG d   1       5.336   0.072 -12.471  0.00  0.00     0.031 H 
ENDBRANCH  36  38
ENDBRANCH  14  36
BRANCH  14  42
ATOM     42  O   LIG d   1       5.603  -0.429  -9.268  0.00  0.00    -0.450 OA
BRANCH  42  43
ATOM     43  C   LIG d   1       6.664   0.349  -9.002  0.00  0.00     0.305 C 
ATOM     44  O   LIG d   1       7.105   1.082  -9.855  0.00  0.00    -0.251 OA
BRANCH  43  45
ATOM     45  C   LIG d   1       7.306   0.308  -7.639  0.00  0.00     0.033 C 
ATOM     46  H   LIG d   1       7.096  -0.652  -7.167  0.00  0.00     0.034 H 
ATOM     47  H   LIG d   1       8.384   0.434  -7.741  0.00  0.00     0.034 H 
ATOM     48  H   LIG d   1       6.902   1.110  -7.023  0.00  0.00     0.034 H 
ENDBRANCH  43  45
ENDBRANCH  42  43
ENDBRANCH  14  42
BRANCH   9  49
ATOM     49  C   LIG d   1       1.941  -0.373  -9.747  0.00  0.00    -0.055 C 
ATOM     50  H   LIG d   1       2.139  -0.450 -10.815  0.00  0.00     0.024 H 
ATOM     51  H   LIG d   1       1.144  -1.065  -9.474  0.00  0.00     0.024 H 
ATOM     52  H   LIG d   1       1.637   0.645  -9.505  0.00  0.00     0.024 H 
ENDBRANCH   9  49
BRANCH  15  53
ATOM     53  C   LIG d   1       4.906  -4.346  -5.399  0.00  0.00    -0.055 C 
ATOM     54  H   LIG d   1       3.851  -4.473  -5.641  0.00  0.00     0.024 H 
ATOM     55  H   LIG d   1       5.479  -5.164  -5.835  0.00  0.00     0.024 H 
ATOM     56  H   LIG d   1       5.034  -4.348  -4.316  0.00  0.00     0.024 H 
ENDBRANCH  15  53
BRANCH   1  57
ATOM     57  C   LIG d   1       4.437  -1.056  -2.774  0.00  0.00    -0.040 C 
ATOM     58  H   LIG d   1       3.553  -0.443  -2.599  0.00  0.00     0.028 H 
ATOM     59  H   LIG d   1       4.309  -2.025  -2.294  0.00  0.00     0.028 H 
ATOM     60  H   LIG d   1       5.313  -0.557  -2.360  0.00  0.00     0.028 H 
ENDBRANCH   1  57
TORSDOF 8
ENDMDL
MODEL 7
REMARK VINA RESULT:      -5.2      4.529      7.929
REMARK  8 active torsions:
REMARK  status: ('A' for Active; 'I' for Inactive)
REMARK    1  A    between atoms: C_1  and  C_2 
REMARK    2  A    between atoms: C_10  and  C_23 
REMARK    3  A    between atoms: C_15  and  C_16 
REMARK    4  A    between atoms: C_15  and  O_19 
REMARK    5  A    between atoms: C_16  and  C_18 
REMARK    6  A    between atoms: O_19  and  C_20 
REMARK    7  A    between atoms: C_20  and  C_22 
REMARK    8  A    between atoms: C_24  and  C_31 
ROOT
ATOM      1  C   LIG d   1       5.675   0.479  -9.723  0.00  0.00    -0.050 C 
ATOM      2  C   LIG d   1       5.284  -0.103 -10.874  0.00  0.00    -0.077 C 
ATOM      3  C   LIG d   1       3.950  -0.808 -10.866  0.00  0.00    -0.015 C 
ATOM      4  H   LIG d   1       4.038  -1.715 -10.267  0.00  0.00     0.035 H 
ATOM      5  C   LIG d   1       2.876   0.076 -10.256  0.00  0.00    -0.025 C 
ATOM      6  H   LIG d   1       2.728   0.940 -10.903  0.00  0.00     0.032 H 
ATOM      7  C   LIG d   1       1.565  -0.712 -10.181  0.00  0.00    -0.048 C 
ATOM      8  C   LIG d   1       1.131  -1.056 -11.607  0.00  0.00    -0.043 C 
ATOM      9  C   LIG d   1       2.185  -1.873 -12.319  0.00  0.00     0.018 C 
ATOM     10  C   LIG d   1       3.568  -1.200 -12.295  0.00  0.00    -0.025 C 
ATOM     11  H   LIG d   1       3.645  -0.361 -12.985  0.00  0.00     0.031 H 
ATOM     12  C   LIG d   1       4.483  -2.397 -12.689  0.00  0.00    -0.045 C 
ATOM     13  C   LIG d   1       3.858  -3.600 -11.950  0.00  0.00    -0.005 C 
ATOM     14  C   LIG d   1       2.383  -3.258 -11.688  0.00  0.00     0.176 C 
ATOM     15  C   LIG d   1       3.246   0.567  -8.862  0.00  0.00    -0.003 C 
ATOM     16  C   LIG d   1       4.743   0.360  -8.592  0.00  0.00    -0.035 C 
ATOM     17  C   LIG d   1       5.226   0.088  -7.358  0.00  0.00    -0.015 C 
ATOM     18  C   LIG d   1       4.378  -0.005  -6.242  0.00  0.00     0.156 C 
ATOM     19  O   LIG d   1       4.841  -0.271  -5.150  0.00  0.00    -0.293 OA
ATOM     20  C   LIG d   1       2.896   0.224  -6.394  0.00  0.00     0.011 C 
ATOM     21  C   LIG d   1       2.413  -0.193  -7.826  0.00  0.00    -0.036 C 
ATOM     22  H   LIG d   1       5.897  -0.068 -11.761  0.00  0.00     0.058 H 
ATOM     23  H   LIG d   1       1.719  -1.630  -9.613  0.00  0.00     0.027 H 
ATOM     24  H   LIG d   1       0.798  -0.105  -9.700  0.00  0.00     0.027 H 
ATOM     25  H   LIG d   1       0.203  -1.625 -11.571  0.00  0.00     0.027 H 
ATOM     26  H   LIG d   1       0.962  -0.132 -12.161  0.00  0.00     0.027 H 
ATOM     27  H   LIG d   1       4.462  -2.557 -13.766  0.00  0.00     0.027 H 
ATOM     28  H   LIG d   1       5.504  -2.227 -12.347  0.00  0.00     0.027 H 
ATOM     29  H   LIG d   1       3.932  -4.497 -12.566  0.00  0.00     0.031 H 
ATOM     30  H   LIG d   1       4.362  -3.758 -10.998  0.00  0.00     0.031 H 
ATOM     31  H   LIG d   1       6.287  -0.062  -7.228  0.00  0.00     0.066 H 
ATOM     32  H   LIG d   1       2.358  -0.357  -5.645  0.00  0.00     0.035 H 
ATOM     33  H   LIG d   1       2.676   1.283  -6.263  0.00  0.00     0.035 H 
ATOM     34  H   LIG d   1       1.355   0.019  -7.984  0.00  0.00     0.028 H 
ATOM     35  H   LIG d   1       2.590  -1.263  -7.930  0.00  0.00     0.028 H 
ENDROOT
BRANCH  14  36
ATOM     36  C   LIG d   1       1.496  -4.270 -12.367  0.00  0.00     0.174 C 
ATOM     37  O   LIG d   1       1.957  -5.013 -13.201  0.00  0.00    -0.293 OA
BRANCH  36  38
ATOM     38  C   LIG d   1       0.036  -4.356 -12.004  0.00  0.00    -0.002 C 
ATOM     39  H   LIG d   1      -0.252  -3.466 -11.445  0.00  0.00     0.031 H 
ATOM     40  H   LIG d   1      -0.560  -4.421 -12.915  0.00  0.00     0.031 H 
ATOM     41  H   LIG d   1      -0.135  -5.242 -11.393  0.00  0.00     0.031 H 
ENDBRANCH  36  38
ENDBRANCH  14  36
BRANCH  14  42
ATOM     42  O   LIG d   1       2.093  -3.207 -10.290  0.00  0.00    -0.450 OA
BRANCH  42  43
ATOM     43  C   LIG d   1       2.768  -4.054  -9.497  0.00  0.00     0.305 C 
ATOM     44  O   LIG d   1       2.532  -5.237  -9.538  0.00  0.00    -0.251 OA
BRANCH  43  45
ATOM     45  C   LIG d   1       3.819  -3.526  -8.555  0.00  0.00     0.033 C 
ATOM     46  H   LIG d   1       4.484  -4.338  -8.260  0.00  0.00     0.034 H 
ATOM     47  H   LIG d   1       4.396  -2.748  -9.053  0.00  0.00     0.034 H 
ATOM     48  H   LIG d   1       3.338  -3.112  -7.669  0.00  0.00     0.034 H 
ENDBRANCH  43  45
ENDBRANCH  42  43
ENDBRANCH  14  42
BRANCH   9  49
ATOM     49  C   LIG d   1       1.772  -2.050 -13.783  0.00  0.00    -0.055 C 
ATOM     50  H   LIG d   1       2.282  -1.308 -14.397  0.00  0.00     0.024 H 
ATOM     51  H   LIG d   1       2.045  -3.050 -14.118  0.00  0.00     0.024 H 
ATOM     52  H   LIG d   1       0.694  -1.918 -13.874  0.00  0.00     0.024 H 
ENDBRANCH   9  49
BRANCH  15  53
ATOM     53  C   LIG d   1       2.930   2.061  -8.760  0.00  0.00    -0.055 C 
ATOM     54  H   LIG d   1       3.536   2.506  -7.970  0.00  0.00     0.024 H 
ATOM     55  H   LIG d   1       3.158   2.546  -9.708  0.00  0.00     0.024 H 
ATOM     56  H   LIG d   1       1.873   2.194  -8.527  0.00  0.00     0.024 H 
ENDBRANCH  15  53
BRANCH   1  57
ATOM     57  C   LIG d   1       6.991   1.203  -9.602  0.00  0.00    -0.040 C 
ATOM     58  H   LIG d   1       7.174   1.450  -8.556  0.00  0.00     0.028 H 
ATOM     59  H   LIG d   1       7.793   0.563  -9.970  0.00  0.00     0.028 H 
ATOM     60  H   LIG d   1       6.957   2.119 -10.191  0.00  0.00     0.028 H 
ENDBRANCH   1  57
TORSDOF 8
ENDMDL
MODEL 8
REMARK VINA RESULT:      -5.2      2.961      4.954
REMARK  8 active torsions:
REMARK  status: ('A' for Active; 'I' for Inactive)
REMARK    1  A    between atoms: C_1  and  C_2 
REMARK    2  A    between atoms: C_10  and  C_23 
REMARK    3  A    between atoms: C_15  and  C_16 
REMARK    4  A    between atoms: C_15  and  O_19 
REMARK    5  A    between atoms: C_16  and  C_18 
REMARK    6  A    between atoms: O_19  and  C_20 
REMARK    7  A    between atoms: C_20  and  C_22 
REMARK    8  A    between atoms: C_24  and  C_31 
ROOT
ATOM      1  C   LIG d   1       3.766  -3.309  -9.669  0.00  0.00    -0.050 C 
ATOM      2  C   LIG d   1       3.932  -3.378  -8.334  0.00  0.00    -0.077 C 
ATOM      3  C   LIG d   1       4.131  -2.075  -7.600  0.00  0.00    -0.015 C 
ATOM      4  H   LIG d   1       5.116  -1.680  -7.849  0.00  0.00     0.035 H 
ATOM      5  C   LIG d   1       3.080  -1.058  -8.012  0.00  0.00    -0.025 C 
ATOM      6  H   LIG d   1       2.104  -1.414  -7.685  0.00  0.00     0.032 H 
ATOM      7  C   LIG d   1       3.376   0.274  -7.317  0.00  0.00    -0.048 C 
ATOM      8  C   LIG d   1       3.253   0.064  -5.808  0.00  0.00    -0.043 C 
ATOM      9  C   LIG d   1       4.214  -0.997  -5.321  0.00  0.00     0.018 C 
ATOM     10  C   LIG d   1       4.068  -2.321  -6.091  0.00  0.00    -0.025 C 
ATOM     11  H   LIG d   1       3.182  -2.885  -5.803  0.00  0.00     0.031 H 
ATOM     12  C   LIG d   1       5.396  -3.035  -5.700  0.00  0.00    -0.045 C 
ATOM     13  C   LIG d   1       6.441  -1.898  -5.700  0.00  0.00    -0.005 C 
ATOM     14  C   LIG d   1       5.682  -0.580  -5.480  0.00  0.00     0.176 C 
ATOM     15  C   LIG d   1       3.040  -0.839  -9.519  0.00  0.00    -0.003 C 
ATOM     16  C   LIG d   1       3.792  -1.959 -10.252  0.00  0.00    -0.035 C 
ATOM     17  C   LIG d   1       4.457  -1.748 -11.410  0.00  0.00    -0.015 C 
ATOM     18  C   LIG d   1       4.485  -0.483 -12.022  0.00  0.00     0.156 C 
ATOM     19  O   LIG d   1       5.110  -0.322 -13.052  0.00  0.00    -0.293 OA
ATOM     20  C   LIG d   1       3.742   0.674 -11.403  0.00  0.00     0.011 C 
ATOM     21  C   LIG d   1       3.669   0.519  -9.845  0.00  0.00    -0.036 C 
ATOM     22  H   LIG d   1       3.925  -4.323  -7.812  0.00  0.00     0.058 H 
ATOM     23  H   LIG d   1       4.388   0.600  -7.561  0.00  0.00     0.027 H 
ATOM     24  H   LIG d   1       2.658   1.027  -7.643  0.00  0.00     0.027 H 
ATOM     25  H   LIG d   1       3.469   1.002  -5.297  0.00  0.00     0.027 H 
ATOM     26  H   LIG d   1       2.234  -0.244  -5.572  0.00  0.00     0.027 H 
ATOM     27  H   LIG d   1       5.315  -3.479  -4.709  0.00  0.00     0.027 H 
ATOM     28  H   LIG d   1       5.656  -3.792  -6.440  0.00  0.00     0.027 H 
ATOM     29  H   LIG d   1       7.164  -2.054  -4.899  0.00  0.00     0.031 H 
ATOM     30  H   LIG d   1       6.952  -1.859  -6.662  0.00  0.00     0.031 H 
ATOM     31  H   LIG d   1       4.980  -2.569 -11.875  0.00  0.00     0.066 H 
ATOM     32  H   LIG d   1       4.248   1.606 -11.653  0.00  0.00     0.035 H 
ATOM     33  H   LIG d   1       2.722   0.697 -11.785  0.00  0.00     0.035 H 
ATOM     34  H   LIG d   1       3.084   1.312  -9.377  0.00  0.00     0.028 H 
ATOM     35  H   LIG d   1       4.690   0.548  -9.467  0.00  0.00     0.028 H 
ENDROOT
BRANCH  14  36
ATOM     36  C   LIG d   1       6.174   0.087  -4.222  0.00  0.00     0.174 C 
ATOM     37  O   LIG d   1       5.842   1.222  -3.972  0.00  0.00    -0.293 OA
BRANCH  36  38
ATOM     38  C   LIG d   1       7.078  -0.660  -3.276  0.00  0.00    -0.002 C 
ATOM     39  H   LIG d   1       6.626  -1.619  -3.023  0.00  0.00     0.031 H 
ATOM     40  H   LIG d   1       8.043  -0.827  -3.753  0.00  0.00     0.031 H 
ATOM     41  H   LIG d   1       7.218  -0.073  -2.368  0.00  0.00     0.031 H 
ENDBRANCH  36  38
ENDBRANCH  14  36
BRANCH  14  42
ATOM     42  O   LIG d   1       5.824   0.304  -6.595  0.00  0.00    -0.450 OA
BRANCH  42  43
ATOM     43  C   LIG d   1       7.001   0.287  -7.240  0.00  0.00     0.305 C 
ATOM     44  O   LIG d   1       7.975   0.789  -6.732  0.00  0.00    -0.251 OA
BRANCH  43  45
ATOM     45  C   LIG d   1       7.106  -0.359  -8.597  0.00  0.00     0.033 C 
ATOM     46  H   LIG d   1       6.111  -0.463  -9.029  0.00  0.00     0.034 H 
ATOM     47  H   LIG d   1       7.722   0.262  -9.248  0.00  0.00     0.034 H 
ATOM     48  H   LIG d   1       7.562  -1.344  -8.496  0.00  0.00     0.034 H 
ENDBRANCH  43  45
ENDBRANCH  42  43
ENDBRANCH  14  42
BRANCH   9  49
ATOM     49  C   LIG d   1       3.937  -1.278  -3.841  0.00  0.00    -0.055 C 
ATOM     50  H   LIG d   1       3.923  -0.339  -3.290  0.00  0.00     0.024 H 
ATOM     51  H   LIG d   1       2.971  -1.772  -3.741  0.00  0.00     0.024 H 
ATOM     52  H   LIG d   1       4.719  -1.923  -3.442  0.00  0.00     0.024 H 
ENDBRANCH   9  49
BRANCH  15  53
ATOM     53  C   LIG d   1       1.582  -0.839  -9.984  0.00  0.00    -0.055 C 
ATOM     54  H   LIG d   1       1.273  -1.861 -10.207  0.00  0.00     0.024 H 
ATOM     55  H   LIG d   1       0.949  -0.433  -9.196  0.00  0.00     0.024 H 
ATOM     56  H   LIG d   1       1.486  -0.226 -10.881  0.00  0.00     0.024 H 
ENDBRANCH  15  53
BRANCH   1  57
ATOM     57  C   LIG d   1       3.570  -4.541 -10.514  0.00  0.00    -0.040 C 
ATOM     58  H   LIG d   1       2.605  -4.486 -11.018  0.00  0.00     0.028 H 
ATOM     59  H   LIG d   1       4.365  -4.602 -11.257  0.00  0.00     0.028 H 
ATOM     60  H   LIG d   1       3.598  -5.425  -9.878  0.00  0.00     0.028 H 
ENDBRANCH   1  57
TORSDOF 8
ENDMDL
MODEL 9
REMARK VINA RESULT:      -5.0      2.445      3.708
REMARK  8 active torsions:
REMARK  status: ('A' for Active; 'I' for Inactive)
REMARK    1  A    between atoms: C_1  and  C_2 
REMARK    2  A    between atoms: C_10  and  C_23 
REMARK    3  A    between atoms: C_15  and  C_16 
REMARK    4  A    between atoms: C_15  and  O_19 
REMARK    5  A    between atoms: C_16  and  C_18 
REMARK    6  A    between atoms: O_19  and  C_20 
REMARK    7  A    between atoms: C_20  and  C_22 
REMARK    8  A    between atoms: C_24  and  C_31 
ROOT
ATOM      1  C   LIG d   1       6.617  -1.026  -9.630  0.00  0.00    -0.050 C 
ATOM      2  C   LIG d   1       7.111  -0.981  -8.377  0.00  0.00    -0.077 C 
ATOM      3  C   LIG d   1       6.221  -1.487  -7.270  0.00  0.00    -0.015 C 
ATOM      4  H   LIG d   1       5.403  -0.779  -7.128  0.00  0.00     0.035 H 
ATOM      5  C   LIG d   1       5.635  -2.843  -7.625  0.00  0.00    -0.025 C 
ATOM      6  H   LIG d   1       6.446  -3.568  -7.681  0.00  0.00     0.032 H 
ATOM      7  C   LIG d   1       4.666  -3.272  -6.519  0.00  0.00    -0.048 C 
ATOM      8  C   LIG d   1       5.461  -3.433  -5.223  0.00  0.00    -0.043 C 
ATOM      9  C   LIG d   1       6.147  -2.143  -4.835  0.00  0.00     0.018 C 
ATOM     10  C   LIG d   1       7.020  -1.578  -5.969  0.00  0.00    -0.025 C 
ATOM     11  H   LIG d   1       7.955  -2.123  -6.098  0.00  0.00     0.031 H 
ATOM     12  C   LIG d   1       7.234  -0.117  -5.473  0.00  0.00    -0.045 C 
ATOM     13  C   LIG d   1       5.866   0.273  -4.871  0.00  0.00    -0.005 C 
ATOM     14  C   LIG d   1       5.152  -1.030  -4.480  0.00  0.00     0.176 C 
ATOM     15  C   LIG d   1       4.899  -2.830  -8.958  0.00  0.00    -0.003 C 
ATOM     16  C   LIG d   1       5.258  -1.574  -9.766  0.00  0.00    -0.035 C 
ATOM     17  C   LIG d   1       4.379  -0.971 -10.598  0.00  0.00    -0.015 C 
ATOM     18  C   LIG d   1       3.081  -1.474 -10.785  0.00  0.00     0.156 C 
ATOM     19  O   LIG d   1       2.307  -0.897 -11.524  0.00  0.00    -0.293 OA
ATOM     20  C   LIG d   1       2.644  -2.728 -10.070  0.00  0.00     0.011 C 
ATOM     21  C   LIG d   1       3.390  -2.876  -8.700  0.00  0.00    -0.036 C 
ATOM     22  H   LIG d   1       8.101  -0.599  -8.175  0.00  0.00     0.058 H 
ATOM     23  H   LIG d   1       3.898  -2.510  -6.387  0.00  0.00     0.027 H 
ATOM     24  H   LIG d   1       4.202  -4.222  -6.786  0.00  0.00     0.027 H 
ATOM     25  H   LIG d   1       4.784  -3.731  -4.423  0.00  0.00     0.027 H 
ATOM     26  H   LIG d   1       6.214  -4.210  -5.360  0.00  0.00     0.027 H 
ATOM     27  H   LIG d   1       8.011  -0.080  -4.711  0.00  0.00     0.027 H 
ATOM     28  H   LIG d   1       7.484   0.538  -6.308  0.00  0.00     0.027 H 
ATOM     29  H   LIG d   1       6.010   0.902  -3.991  0.00  0.00     0.031 H 
ATOM     30  H   LIG d   1       5.267   0.800  -5.612  0.00  0.00     0.031 H 
ATOM     31  H   LIG d   1       4.681  -0.082 -11.130  0.00  0.00     0.066 H 
ATOM     32  H   LIG d   1       1.569  -2.693  -9.896  0.00  0.00     0.035 H 
ATOM     33  H   LIG d   1       2.888  -3.598 -10.678  0.00  0.00     0.035 H 
ATOM     34  H   LIG d   1       3.138  -3.806  -8.189  0.00  0.00     0.028 H 
ATOM     35  H   LIG d   1       3.101  -2.029  -8.078  0.00  0.00     0.028 H 
ENDROOT
BRANCH  14  36
ATOM     36  C   LIG d   1       4.873  -1.034  -2.999  0.00  0.00     0.174 C 
ATOM     37  O   LIG d   1       5.395  -0.213  -2.284  0.00  0.00    -0.293 OA
BRANCH  36  38
ATOM     38  C   LIG d   1       3.943  -2.064  -2.411  0.00  0.00    -0.002 C 
ATOM     39  H   LIG d   1       2.918  -1.835  -2.699  0.00  0.00     0.031 H 
ATOM     40  H   LIG d   1       4.214  -3.052  -2.784  0.00  0.00     0.031 H 
ATOM     41  H   LIG d   1       4.028  -2.051  -1.324  0.00  0.00     0.031 H 
ENDBRANCH  36  38
ENDBRANCH  14  36
BRANCH  14  42
ATOM     42  O   LIG d   1       3.936  -1.205  -5.211  0.00  0.00    -0.450 OA
BRANCH  42  43
ATOM     43  C   LIG d   1       3.244  -0.097  -5.516  0.00  0.00     0.305 C 
ATOM     44  O   LIG d   1       2.734   0.558  -4.639  0.00  0.00    -0.251 OA
BRANCH  43  45
ATOM     45  C   LIG d   1       3.103   0.330  -6.955  0.00  0.00     0.033 C 
ATOM     46  H   LIG d   1       2.676  -0.486  -7.537  0.00  0.00     0.034 H 
ATOM     47  H   LIG d   1       2.447   1.199  -7.013  0.00  0.00     0.034 H 
ATOM     48  H   LIG d   1       4.083   0.588  -7.355  0.00  0.00     0.034 H 
ENDBRANCH  43  45
ENDBRANCH  42  43
ENDBRANCH  14  42
BRANCH   9  49
ATOM     49  C   LIG d   1       7.051  -2.404  -3.627  0.00  0.00    -0.055 C 
ATOM     50  H   LIG d   1       7.357  -3.449  -3.622  0.00  0.00     0.024 H 
ATOM     51  H   LIG d   1       7.933  -1.767  -3.691  0.00  0.00     0.024 H 
ATOM     52  H   LIG d   1       6.505  -2.179  -2.711  0.00  0.00     0.024 H 
ENDBRANCH   9  49
BRANCH  15  53
ATOM     53  C   LIG d   1       5.307  -4.065  -9.765  0.00  0.00    -0.055 C 
ATOM     54  H   LIG d   1       5.142  -4.960  -9.166  0.00  0.00     0.024 H 
ATOM     55  H   LIG d   1       4.706  -4.120 -10.672  0.00  0.00     0.024 H 
ATOM     56  H   LIG d   1       6.362  -3.994 -10.031  0.00  0.00     0.024 H 
ENDBRANCH  15  53
BRANCH   1  57
ATOM     57  C   LIG d   1       7.405  -0.540 -10.818  0.00  0.00    -0.040 C 
ATOM     58  H   LIG d   1       7.402  -1.306 -11.593  0.00  0.00     0.028 H 
ATOM     59  H   LIG d   1       6.952   0.372 -11.206  0.00  0.00     0.028 H 
ATOM     60  H   LIG d   1       8.431  -0.335 -10.513  0.00  0.00     0.028 H 
ENDBRANCH   1  57
TORSDOF 8
ENDMDL
