MODEL 1
REMARK VINA RESULT:      -4.6      0.000      0.000
REMARK  4 active torsions:
REMARK  status: ('A' for Active; 'I' for Inactive)
REMARK    1  A    between atoms: C_2  and  N_23 
REMARK    2  A    between atoms: C_4  and  C_9 
REMARK    3  A    between atoms: C_9  and  C_10 
REMARK    4  A    between atoms: C_10  and  N_21 
ROOT
ATOM      1  C   LIG d   1       3.842   1.257  -3.138  0.00  0.00     0.091 C 
ATOM      2  C   LIG d   1       3.125  -0.008  -2.614  0.00  0.00     0.024 C 
ATOM      3  H   LIG d   1       2.532   0.221  -1.728  0.00  0.00     0.089 H 
ATOM      4  C   LIG d   1       4.295  -0.950  -2.260  0.00  0.00     0.150 C 
ATOM      5  H   LIG d   1       4.473  -0.944  -1.184  0.00  0.00     0.079 H 
ATOM      6  O   LIG d   1       5.450  -0.408  -2.968  0.00  0.00    -0.455 OA
ATOM      7  C   LIG d   1       5.318   0.932  -3.028  0.00  0.00     0.313 C 
ATOM      8  O   LIG d   1       6.220   1.736  -2.999  0.00  0.00    -0.251 OA
ATOM      9  H   LIG d   1       3.570   1.445  -4.177  0.00  0.00     0.043 H 
ATOM     10  H   LIG d   1       3.593   2.118  -2.519  0.00  0.00     0.043 H 
ENDROOT
BRANCH   4  11
ATOM     11  C   LIG d   1       3.996  -2.372  -2.740  0.00  0.00     0.030 C 
ATOM     12  H   LIG d   1       4.129  -3.069  -1.914  0.00  0.00     0.035 H 
ATOM     13  H   LIG d   1       2.969  -2.425  -3.099  0.00  0.00     0.035 H 
BRANCH  11  14
ATOM     14  C   LIG d   1       4.955  -2.739  -3.875  0.00  0.00    -0.032 C 
ATOM     15  H   LIG d   1       5.512  -1.852  -4.180  0.00  0.00     0.081 H 
ATOM     16  H   LIG d   1       5.650  -3.503  -3.531  0.00  0.00     0.081 H 
BRANCH  14  17
ATOM     17  N   LIG d   1       4.176  -3.272  -5.006  0.00  0.00     0.219 N 
ATOM     18  H   LIG d   1       3.260  -2.828  -5.041  0.00  0.00     0.199 HD
ATOM     19  H   LIG d   1       4.670  -3.102  -5.881  0.00  0.00     0.199 HD
ATOM     20  H   LIG d   1       4.053  -4.284  -4.884  0.00  0.00     0.199 HD
ENDBRANCH  14  17
ENDBRANCH  11  14
ENDBRANCH   4  11
BRANCH   2  21
ATOM     21  N   LIG d   1       2.275  -0.619  -3.650  0.00  0.00     0.224 N 
ATOM     22  H   LIG d   1       2.113   0.045  -4.406  0.00  0.00     0.200 HD
ATOM     23  H   LIG d   1       2.723  -1.454  -4.023  0.00  0.00     0.200 HD
ATOM     24  H   LIG d   1       1.372  -0.881  -3.236  0.00  0.00     0.200 HD
ENDBRANCH   2  21
TORSDOF 4
ENDMDL
MODEL 2
REMARK VINA RESULT:      -4.5      1.881      2.815
REMARK  4 active torsions:
REMARK  status: ('A' for Active; 'I' for Inactive)
REMARK    1  A    between atoms: C_2  and  N_23 
REMARK    2  A    between atoms: C_4  and  C_9 
REMARK    3  A    between atoms: C_9  and  C_10 
REMARK    4  A    between atoms: C_10  and  N_21 
ROOT
ATOM      1  C   LIG d   1       4.649  -1.075  -2.053  0.00  0.00     0.091 C 
ATOM      2  C   LIG d   1       4.881  -1.633  -3.475  0.00  0.00     0.024 C 
ATOM      3  H   LIG d   1       5.846  -2.136  -3.541  0.00  0.00     0.089 H 
ATOM      4  C   LIG d   1       4.866  -0.364  -4.353  0.00  0.00     0.150 C 
ATOM      5  H   LIG d   1       5.884  -0.066  -4.605  0.00  0.00     0.079 H 
ATOM      6  O   LIG d   1       4.224   0.660  -3.535  0.00  0.00    -0.455 OA
ATOM      7  C   LIG d   1       4.534   0.424  -2.245  0.00  0.00     0.313 C 
ATOM      8  O   LIG d   1       4.692   1.262  -1.388  0.00  0.00    -0.251 OA
ATOM      9  H   LIG d   1       3.725  -1.477  -1.633  0.00  0.00     0.043 H 
ATOM     10  H   LIG d   1       5.494  -1.314  -1.408  0.00  0.00     0.043 H 
ENDROOT
BRANCH   4  11
ATOM     11  C   LIG d   1       4.056  -0.611  -5.628  0.00  0.00     0.030 C 
ATOM     12  H   LIG d   1       4.702  -0.496  -6.497  0.00  0.00     0.035 H 
ATOM     13  H   LIG d   1       3.648  -1.621  -5.609  0.00  0.00     0.035 H 
BRANCH  11  14
ATOM     14  C   LIG d   1       2.909   0.401  -5.707  0.00  0.00    -0.032 C 
ATOM     15  H   LIG d   1       3.258   1.372  -5.356  0.00  0.00     0.081 H 
ATOM     16  H   LIG d   1       2.572   0.488  -6.740  0.00  0.00     0.081 H 
BRANCH  14  17
ATOM     17  N   LIG d   1       1.791  -0.077  -4.876  0.00  0.00     0.219 N 
ATOM     18  H   LIG d   1       1.764  -1.095  -4.876  0.00  0.00     0.199 HD
ATOM     19  H   LIG d   1       1.898   0.259  -3.920  0.00  0.00     0.199 HD
ATOM     20  H   LIG d   1       0.908   0.282  -5.258  0.00  0.00     0.199 HD
ENDBRANCH  14  17
ENDBRANCH  11  14
ENDBRANCH   4  11
BRANCH   2  21
ATOM     21  N   LIG d   1       3.802  -2.549  -3.883  0.00  0.00     0.224 N 
ATOM     22  H   LIG d   1       3.288  -2.870  -3.064  0.00  0.00     0.200 HD
ATOM     23  H   LIG d   1       3.163  -2.076  -4.519  0.00  0.00     0.200 HD
ATOM     24  H   LIG d   1       4.211  -3.361  -4.361  0.00  0.00     0.200 HD
ENDBRANCH   2  21
TORSDOF 4
ENDMDL
MODEL 3
REMARK VINA RESULT:      -4.4      2.200      2.675
REMARK  4 active torsions:
REMARK  status: ('A' for Active; 'I' for Inactive)
REMARK    1  A    between atoms: C_2  and  N_23 
REMARK    2  A    between atoms: C_4  and  C_9 
REMARK    3  A    between atoms: C_9  and  C_10 
REMARK    4  A    between atoms: C_10  and  N_21 
ROOT
ATOM      1  C   LIG d   1       2.897  -0.869  -2.787  0.00  0.00     0.091 C 
ATOM      2  C   LIG d   1       3.898  -2.043  -2.878  0.00  0.00     0.024 C 
ATOM      3  H   LIG d   1       3.698  -2.785  -2.105  0.00  0.00     0.089 H 
ATOM      4  C   LIG d   1       5.260  -1.358  -2.637  0.00  0.00     0.150 C 
ATOM      5  H   LIG d   1       5.590  -1.521  -1.611  0.00  0.00     0.079 H 
ATOM      6  O   LIG d   1       5.021   0.063  -2.874  0.00  0.00    -0.455 OA
ATOM      7  C   LIG d   1       3.757   0.345  -2.500  0.00  0.00     0.313 C 
ATOM      8  O   LIG d   1       3.375   1.387  -2.021  0.00  0.00    -0.251 OA
ATOM      9  H   LIG d   1       2.368  -0.746  -3.733  0.00  0.00     0.043 H 
ATOM     10  H   LIG d   1       2.189  -1.037  -1.975  0.00  0.00     0.043 H 
ENDROOT
BRANCH   4  11
ATOM     11  C   LIG d   1       6.304  -1.891  -3.621  0.00  0.00     0.030 C 
ATOM     12  H   LIG d   1       7.124  -2.348  -3.068  0.00  0.00     0.035 H 
ATOM     13  H   LIG d   1       5.844  -2.636  -4.270  0.00  0.00     0.035 H 
BRANCH  11  14
ATOM     14  C   LIG d   1       6.842  -0.736  -4.470  0.00  0.00    -0.032 C 
ATOM     15  H   LIG d   1       7.260  -1.131  -5.397  0.00  0.00     0.081 H 
ATOM     16  H   LIG d   1       6.030  -0.048  -4.702  0.00  0.00     0.081 H 
BRANCH  14  17
ATOM     17  N   LIG d   1       7.875  -0.019  -3.703  0.00  0.00     0.219 N 
ATOM     18  H   LIG d   1       8.584  -0.672  -3.375  0.00  0.00     0.199 HD
ATOM     19  H   LIG d   1       8.313   0.692  -4.288  0.00  0.00     0.199 HD
ATOM     20  H   LIG d   1       7.439   0.438  -2.893  0.00  0.00     0.199 HD
ENDBRANCH  14  17
ENDBRANCH  11  14
ENDBRANCH   4  11
BRANCH   2  21
ATOM     21  N   LIG d   1       3.874  -2.676  -4.208  0.00  0.00     0.224 N 
ATOM     22  H   LIG d   1       4.556  -2.229  -4.820  0.00  0.00     0.200 HD
ATOM     23  H   LIG d   1       4.090  -3.668  -4.128  0.00  0.00     0.200 HD
ATOM     24  H   LIG d   1       2.937  -2.569  -4.616  0.00  0.00     0.200 HD
ENDBRANCH   2  21
TORSDOF 4
ENDMDL
MODEL 4
REMARK VINA RESULT:      -4.0      2.137      3.332
REMARK  4 active torsions:
REMARK  status: ('A' for Active; 'I' for Inactive)
REMARK    1  A    between atoms: C_2  and  N_23 
REMARK    2  A    between atoms: C_4  and  C_9 
REMARK    3  A    between atoms: C_9  and  C_10 
REMARK    4  A    between atoms: C_10  and  N_21 
ROOT
ATOM      1  C   LIG d   1       5.516  -1.773  -5.033  0.00  0.00     0.091 C 
ATOM      2  C   LIG d   1       4.104  -1.888  -4.418  0.00  0.00     0.024 C 
ATOM      3  H   LIG d   1       3.443  -2.463  -5.067  0.00  0.00     0.089 H 
ATOM      4  C   LIG d   1       3.640  -0.418  -4.333  0.00  0.00     0.150 C 
ATOM      5  H   LIG d   1       2.961  -0.187  -5.153  0.00  0.00     0.079 H 
ATOM      6  O   LIG d   1       4.861   0.375  -4.446  0.00  0.00    -0.455 OA
ATOM      7  C   LIG d   1       5.721  -0.286  -5.246  0.00  0.00     0.313 C 
ATOM      8  O   LIG d   1       6.517   0.218  -6.003  0.00  0.00    -0.251 OA
ATOM      9  H   LIG d   1       6.264  -2.165  -4.343  0.00  0.00     0.043 H 
ATOM     10  H   LIG d   1       5.561  -2.305  -5.983  0.00  0.00     0.043 H 
ENDROOT
BRANCH   4  11
ATOM     11  C   LIG d   1       2.958  -0.153  -2.989  0.00  0.00     0.030 C 
ATOM     12  H   LIG d   1       1.885  -0.044  -3.142  0.00  0.00     0.035 H 
ATOM     13  H   LIG d   1       3.146  -0.989  -2.316  0.00  0.00     0.035 H 
BRANCH  11  14
ATOM     14  C   LIG d   1       3.519   1.133  -2.377  0.00  0.00    -0.032 C 
ATOM     15  H   LIG d   1       3.816   1.814  -3.174  0.00  0.00     0.081 H 
ATOM     16  H   LIG d   1       2.754   1.606  -1.762  0.00  0.00     0.081 H 
BRANCH  14  17
ATOM     17  N   LIG d   1       4.675   0.795  -1.529  0.00  0.00     0.219 N 
ATOM     18  H   LIG d   1       4.358   0.429  -0.633  0.00  0.00     0.199 HD
ATOM     19  H   LIG d   1       5.257   0.098  -1.993  0.00  0.00     0.199 HD
ATOM     20  H   LIG d   1       5.234   1.641  -1.367  0.00  0.00     0.199 HD
ENDBRANCH  14  17
ENDBRANCH  11  14
ENDBRANCH   4  11
BRANCH   2  21
ATOM     21  N   LIG d   1       4.144  -2.488  -3.073  0.00  0.00     0.224 N 
ATOM     22  H   LIG d   1       4.550  -1.831  -2.409  0.00  0.00     0.200 HD
ATOM     23  H   LIG d   1       3.203  -2.736  -2.772  0.00  0.00     0.200 HD
ATOM     24  H   LIG d   1       4.721  -3.338  -3.099  0.00  0.00     0.200 HD
ENDBRANCH   2  21
TORSDOF 4
ENDMDL
MODEL 5
REMARK VINA RESULT:      -4.0      1.849      2.401
REMARK  4 active torsions:
REMARK  status: ('A' for Active; 'I' for Inactive)
REMARK    1  A    between atoms: C_2  and  N_23 
REMARK    2  A    between atoms: C_4  and  C_9 
REMARK    3  A    between atoms: C_9  and  C_10 
REMARK    4  A    between atoms: C_10  and  N_21 
ROOT
ATOM      1  C   LIG d   1       6.712   1.099  -3.906  0.00  0.00     0.091 C 
ATOM      2  C   LIG d   1       5.636   1.203  -2.802  0.00  0.00     0.024 C 
ATOM      3  H   LIG d   1       5.992   1.809  -1.969  0.00  0.00     0.089 H 
ATOM      4  C   LIG d   1       5.445  -0.265  -2.365  0.00  0.00     0.150 C 
ATOM      5  H   LIG d   1       5.982  -0.457  -1.436  0.00  0.00     0.079 H 
ATOM      6  O   LIG d   1       6.006  -1.064  -3.450  0.00  0.00    -0.455 OA
ATOM      7  C   LIG d   1       7.034  -0.380  -3.989  0.00  0.00     0.313 C 
ATOM      8  O   LIG d   1       8.038  -0.861  -4.458  0.00  0.00    -0.251 OA
ATOM      9  H   LIG d   1       6.315   1.456  -4.858  0.00  0.00     0.043 H 
ATOM     10  H   LIG d   1       7.598   1.668  -3.628  0.00  0.00     0.043 H 
ENDROOT
BRANCH   4  11
ATOM     11  C   LIG d   1       3.957  -0.577  -2.190  0.00  0.00     0.030 C 
ATOM     12  H   LIG d   1       3.694  -0.516  -1.135  0.00  0.00     0.035 H 
ATOM     13  H   LIG d   1       3.366   0.144  -2.754  0.00  0.00     0.035 H 
BRANCH  11  14
ATOM     14  C   LIG d   1       3.668  -1.989  -2.706  0.00  0.00    -0.032 C 
ATOM     15  H   LIG d   1       4.537  -2.624  -2.531  0.00  0.00     0.081 H 
ATOM     16  H   LIG d   1       2.807  -2.399  -2.179  0.00  0.00     0.081 H 
BRANCH  14  17
ATOM     17  N   LIG d   1       3.361  -1.920  -4.145  0.00  0.00     0.219 N 
ATOM     18  H   LIG d   1       2.743  -1.132  -4.334  0.00  0.00     0.199 HD
ATOM     19  H   LIG d   1       4.221  -1.812  -4.681  0.00  0.00     0.199 HD
ATOM     20  H   LIG d   1       2.895  -2.788  -4.433  0.00  0.00     0.199 HD
ENDBRANCH  14  17
ENDBRANCH  11  14
ENDBRANCH   4  11
BRANCH   2  21
ATOM     21  N   LIG d   1       4.372   1.748  -3.324  0.00  0.00     0.224 N 
ATOM     22  H   LIG d   1       3.997   1.133  -4.046  0.00  0.00     0.200 HD
ATOM     23  H   LIG d   1       3.692   1.839  -2.571  0.00  0.00     0.200 HD
ATOM     24  H   LIG d   1       4.546   2.675  -3.732  0.00  0.00     0.200 HD
ENDBRANCH   2  21
TORSDOF 4
ENDMDL
MODEL 6
REMARK VINA RESULT:      -3.9      2.435      2.617
REMARK  4 active torsions:
REMARK  status: ('A' for Active; 'I' for Inactive)
REMARK    1  A    between atoms: C_2  and  N_23 
REMARK    2  A    between atoms: C_4  and  C_9 
REMARK    3  A    between atoms: C_9  and  C_10 
REMARK    4  A    between atoms: C_10  and  N_21 
ROOT
ATOM      1  C   LIG d   1       2.468   0.543  -4.894  0.00  0.00     0.091 C 
ATOM      2  C   LIG d   1       3.329   0.027  -3.719  0.00  0.00     0.024 C 
ATOM      3  H   LIG d   1       3.611   0.845  -3.056  0.00  0.00     0.089 H 
ATOM      4  C   LIG d   1       4.571  -0.554  -4.429  0.00  0.00     0.150 C 
ATOM      5  H   LIG d   1       5.404   0.147  -4.368  0.00  0.00     0.079 H 
ATOM      6  O   LIG d   1       4.166  -0.740  -5.819  0.00  0.00    -0.455 OA
ATOM      7  C   LIG d   1       3.280   0.226  -6.133  0.00  0.00     0.313 C 
ATOM      8  O   LIG d   1       3.155   0.749  -7.215  0.00  0.00    -0.251 OA
ATOM      9  H   LIG d   1       1.511   0.019  -4.922  0.00  0.00     0.043 H 
ATOM     10  H   LIG d   1       2.309   1.617  -4.805  0.00  0.00     0.043 H 
ENDROOT
BRANCH   4  11
ATOM     11  C   LIG d   1       4.961  -1.895  -3.804  0.00  0.00     0.030 C 
ATOM     12  H   LIG d   1       5.829  -1.759  -3.161  0.00  0.00     0.035 H 
ATOM     13  H   LIG d   1       4.127  -2.277  -3.215  0.00  0.00     0.035 H 
BRANCH  11  14
ATOM     14  C   LIG d   1       5.301  -2.894  -4.913  0.00  0.00    -0.032 C 
ATOM     15  H   LIG d   1       5.731  -2.361  -5.762  0.00  0.00     0.081 H 
ATOM     16  H   LIG d   1       6.021  -3.622  -4.539  0.00  0.00     0.081 H 
BRANCH  14  17
ATOM     17  N   LIG d   1       4.072  -3.599  -5.317  0.00  0.00     0.219 N 
ATOM     18  H   LIG d   1       4.031  -3.679  -6.332  0.00  0.00     0.199 HD
ATOM     19  H   LIG d   1       4.051  -4.530  -4.903  0.00  0.00     0.199 HD
ATOM     20  H   LIG d   1       3.255  -3.070  -4.989  0.00  0.00     0.199 HD
ENDBRANCH  14  17
ENDBRANCH  11  14
ENDBRANCH   4  11
BRANCH   2  21
ATOM     21  N   LIG d   1       2.637  -1.028  -2.959  0.00  0.00     0.224 N 
ATOM     22  H   LIG d   1       2.190  -1.684  -3.599  0.00  0.00     0.200 HD
ATOM     23  H   LIG d   1       3.300  -1.529  -2.371  0.00  0.00     0.200 HD
ATOM     24  H   LIG d   1       1.918  -0.599  -2.364  0.00  0.00     0.200 HD
ENDBRANCH   2  21
TORSDOF 4
ENDMDL
MODEL 7
REMARK VINA RESULT:      -3.8      2.482      3.835
REMARK  4 active torsions:
REMARK  status: ('A' for Active; 'I' for Inactive)
REMARK    1  A    between atoms: C_2  and  N_23 
REMARK    2  A    between atoms: C_4  and  C_9 
REMARK    3  A    between atoms: C_9  and  C_10 
REMARK    4  A    between atoms: C_10  and  N_21 
ROOT
ATOM      1  C   LIG d   1       8.140   0.335  -4.563  0.00  0.00     0.091 C 
ATOM      2  C   LIG d   1       6.951  -0.577  -4.186  0.00  0.00     0.024 C 
ATOM      3  H   LIG d   1       6.597  -1.132  -5.056  0.00  0.00     0.089 H 
ATOM      4  C   LIG d   1       5.881   0.427  -3.707  0.00  0.00     0.150 C 
ATOM      5  H   LIG d   1       5.143   0.596  -4.491  0.00  0.00     0.079 H 
ATOM      6  O   LIG d   1       6.612   1.658  -3.423  0.00  0.00    -0.455 OA
ATOM      7  C   LIG d   1       7.649   1.740  -4.280  0.00  0.00     0.313 C 
ATOM      8  O   LIG d   1       8.108   2.758  -4.742  0.00  0.00    -0.251 OA
ATOM      9  H   LIG d   1       9.008   0.103  -3.944  0.00  0.00     0.043 H 
ATOM     10  H   LIG d   1       8.386   0.221  -5.619  0.00  0.00     0.043 H 
ENDROOT
BRANCH   4  11
ATOM     11  C   LIG d   1       5.199  -0.091  -2.438  0.00  0.00     0.030 C 
ATOM     12  H   LIG d   1       4.664  -1.013  -2.663  0.00  0.00     0.035 H 
ATOM     13  H   LIG d   1       5.951  -0.283  -1.674  0.00  0.00     0.035 H 
BRANCH  11  14
ATOM     14  C   LIG d   1       4.209   0.960  -1.927  0.00  0.00    -0.032 C 
ATOM     15  H   LIG d   1       3.360   0.461  -1.458  0.00  0.00     0.081 H 
ATOM     16  H   LIG d   1       4.703   1.599  -1.196  0.00  0.00     0.081 H 
BRANCH  14  17
ATOM     17  N   LIG d   1       3.759   1.786  -3.061  0.00  0.00     0.219 N 
ATOM     18  H   LIG d   1       4.090   2.743  -2.950  0.00  0.00     0.199 HD
ATOM     19  H   LIG d   1       4.116   1.403  -3.935  0.00  0.00     0.199 HD
ATOM     20  H   LIG d   1       2.733   1.787  -3.092  0.00  0.00     0.199 HD
ENDBRANCH  14  17
ENDBRANCH  11  14
ENDBRANCH   4  11
BRANCH   2  21
ATOM     21  N   LIG d   1       7.302  -1.507  -3.099  0.00  0.00     0.224 N 
ATOM     22  H   LIG d   1       6.544  -2.171  -2.948  0.00  0.00     0.200 HD
ATOM     23  H   LIG d   1       8.154  -2.013  -3.332  0.00  0.00     0.200 HD
ATOM     24  H   LIG d   1       7.456  -0.973  -2.234  0.00  0.00     0.200 HD
ENDBRANCH   2  21
TORSDOF 4
ENDMDL
MODEL 8
REMARK VINA RESULT:      -3.7      5.512      5.879
REMARK  4 active torsions:
REMARK  status: ('A' for Active; 'I' for Inactive)
REMARK    1  A    between atoms: C_2  and  N_23 
REMARK    2  A    between atoms: C_4  and  C_9 
REMARK    3  A    between atoms: C_9  and  C_10 
REMARK    4  A    between atoms: C_10  and  N_21 
ROOT
ATOM      1  C   LIG d   1       4.061   1.515 -10.344  0.00  0.00     0.091 C 
ATOM      2  C   LIG d   1       2.804   0.982  -9.621  0.00  0.00     0.024 C 
ATOM      3  H   LIG d   1       1.923   1.563  -9.896  0.00  0.00     0.089 H 
ATOM      4  C   LIG d   1       3.148   1.185  -8.130  0.00  0.00     0.150 C 
ATOM      5  H   LIG d   1       2.652   2.076  -7.745  0.00  0.00     0.079 H 
ATOM      6  O   LIG d   1       4.597   1.355  -8.092  0.00  0.00    -0.455 OA
ATOM      7  C   LIG d   1       4.980   1.970  -9.228  0.00  0.00     0.313 C 
ATOM      8  O   LIG d   1       5.897   2.749  -9.339  0.00  0.00    -0.251 OA
ATOM      9  H   LIG d   1       4.531   0.720 -10.924  0.00  0.00     0.043 H 
ATOM     10  H   LIG d   1       3.800   2.353 -10.991  0.00  0.00     0.043 H 
ENDROOT
BRANCH   4  11
ATOM     11  C   LIG d   1       2.736  -0.045  -7.318  0.00  0.00     0.030 C 
ATOM     12  H   LIG d   1       1.942   0.228  -6.623  0.00  0.00     0.035 H 
ATOM     13  H   LIG d   1       2.377  -0.821  -7.993  0.00  0.00     0.035 H 
BRANCH  11  14
ATOM     14  C   LIG d   1       3.943  -0.567  -6.535  0.00  0.00    -0.032 C 
ATOM     15  H   LIG d   1       3.810  -1.630  -6.330  0.00  0.00     0.081 H 
ATOM     16  H   LIG d   1       4.848  -0.420  -7.123  0.00  0.00     0.081 H 
BRANCH  14  17
ATOM     17  N   LIG d   1       4.060   0.190  -5.276  0.00  0.00     0.219 N 
ATOM     18  H   LIG d   1       4.880  -0.121  -4.756  0.00  0.00     0.199 HD
ATOM     19  H   LIG d   1       4.142   1.186  -5.473  0.00  0.00     0.199 HD
ATOM     20  H   LIG d   1       3.221   0.030  -4.706  0.00  0.00     0.199 HD
ENDBRANCH  14  17
ENDBRANCH  11  14
ENDBRANCH   4  11
BRANCH   2  21
ATOM     21  N   LIG d   1       2.579  -0.446  -9.903  0.00  0.00     0.224 N 
ATOM     22  H   LIG d   1       1.840  -0.553 -10.597  0.00  0.00     0.200 HD
ATOM     23  H   LIG d   1       3.435  -0.873 -10.251  0.00  0.00     0.200 HD
ATOM     24  H   LIG d   1       2.296  -0.921  -9.037  0.00  0.00     0.200 HD
ENDBRANCH   2  21
TORSDOF 4
ENDMDL
MODEL 9
REMARK VINA RESULT:      -3.7      9.662     11.432
REMARK  4 active torsions:
REMARK  status: ('A' for Active; 'I' for Inactive)
REMARK    1  A    between atoms: C_2  and  N_23 
REMARK    2  A    between atoms: C_4  and  C_9 
REMARK    3  A    between atoms: C_9  and  C_10 
REMARK    4  A    between atoms: C_10  and  N_21 
ROOT
ATOM      1  C   LIG d   1       9.631   6.830  -2.728  0.00  0.00     0.091 C 
ATOM      2  C   LIG d   1      10.101   7.807  -3.830  0.00  0.00     0.024 C 
ATOM      3  H   LIG d   1      11.017   7.449  -4.301  0.00  0.00     0.089 H 
ATOM      4  C   LIG d   1      10.362   9.112  -3.049  0.00  0.00     0.150 C 
ATOM      5  H   LIG d   1      11.430   9.239  -2.870  0.00  0.00     0.079 H 
ATOM      6  O   LIG d   1       9.651   8.950  -1.785  0.00  0.00    -0.455 OA
ATOM      7  C   LIG d   1       9.675   7.644  -1.451  0.00  0.00     0.313 C 
ATOM      8  O   LIG d   1       9.724   7.200  -0.329  0.00  0.00    -0.251 OA
ATOM      9  H   LIG d   1       8.614   6.492  -2.929  0.00  0.00     0.043 H 
ATOM     10  H   LIG d   1      10.308   5.979  -2.663  0.00  0.00     0.043 H 
ENDROOT
BRANCH   4  11
ATOM     11  C   LIG d   1       9.808  10.312  -3.820  0.00  0.00     0.030 C 
ATOM     12  H   LIG d   1      10.597  10.745  -4.434  0.00  0.00     0.035 H 
ATOM     13  H   LIG d   1       8.988   9.986  -4.459  0.00  0.00     0.035 H 
BRANCH  11  14
ATOM     14  C   LIG d   1       9.298  11.363  -2.831  0.00  0.00    -0.032 C 
ATOM     15  H   LIG d   1       9.631  11.105  -1.824  0.00  0.00     0.081 H 
ATOM     16  H   LIG d   1       9.693  12.341  -3.104  0.00  0.00     0.081 H 
BRANCH  14  17
ATOM     17  N   LIG d   1       7.827  11.405  -2.892  0.00  0.00     0.219 N 
ATOM     18  H   LIG d   1       7.520  11.546  -3.853  0.00  0.00     0.199 HD
ATOM     19  H   LIG d   1       7.437  10.533  -2.536  0.00  0.00     0.199 HD
ATOM     20  H   LIG d   1       7.487  12.183  -2.314  0.00  0.00     0.199 HD
ENDBRANCH  14  17
ENDBRANCH  11  14
ENDBRANCH   4  11
BRANCH   2  21
ATOM     21  N   LIG d   1       9.057   8.022  -4.847  0.00  0.00     0.224 N 
ATOM     22  H   LIG d   1       9.484   8.261  -5.741  0.00  0.00     0.200 HD
ATOM     23  H   LIG d   1       8.495   7.179  -4.956  0.00  0.00     0.200 HD
ATOM     24  H   LIG d   1       8.449   8.794  -4.549  0.00  0.00     0.200 HD
ENDBRANCH   2  21
TORSDOF 4
ENDMDL
