MODEL 1
REMARK VINA RESULT:      -7.0      0.000      0.000
REMARK  5 active torsions:
REMARK  status: ('A' for Active; 'I' for Inactive)
REMARK    1  A    between atoms: C_1  and  C_2 
REMARK    2  A    between atoms: C_19  and  C_21 
REMARK    3  A    between atoms: C_21  and  N_22 
REMARK    4  A    between atoms: C_27  and  C_29 
REMARK    5  A    between atoms: C_29  and  O_30 
ROOT
ATOM      1  C   LIG d   1       4.917  -1.427  -3.355  0.00  0.00    -0.022 C 
ATOM      2  C   LIG d   1       5.504  -0.355  -2.439  0.00  0.00    -0.047 C 
ATOM      3  C   LIG d   1       4.375   0.506  -1.870  0.00  0.00    -0.049 C 
ATOM      4  C   LIG d   1       3.655   1.232  -3.011  0.00  0.00    -0.032 C 
ATOM      5  C   LIG d   1       3.216   0.214  -4.040  0.00  0.00    -0.073 C 
ATOM      6  C   LIG d   1       1.977   0.167  -4.461  0.00  0.00    -0.099 C 
ATOM      7  C   LIG d   1       4.260  -0.753  -4.568  0.00  0.00    -0.014 C 
ATOM      8  H   LIG d   1       3.804  -1.495  -5.224  0.00  0.00     0.035 H 
ATOM      9  C   LIG d   1       5.333   0.055  -5.300  0.00  0.00    -0.039 C 
ATOM     10  C   LIG d   1       6.489  -0.803  -5.742  0.00  0.00     0.015 C 
ATOM     11  H   LIG d   1       7.267  -0.174  -6.173  0.00  0.00     0.035 H 
ATOM     12  C   LIG d   1       7.086  -1.666  -4.612  0.00  0.00     0.107 C 
ATOM     13  H   LIG d   1       7.752  -1.102  -3.960  0.00  0.00     0.074 H 
ATOM     14  C   LIG d   1       6.010  -2.371  -3.832  0.00  0.00    -0.009 C 
ATOM     15  O   LIG d   1       7.782  -2.688  -5.382  0.00  0.00    -0.461 OA
ATOM     16  C   LIG d   1       6.967  -3.060  -6.392  0.00  0.00     0.316 C 
ATOM     17  O   LIG d   1       6.943  -4.150  -6.912  0.00  0.00    -0.250 OA
ATOM     18  C   LIG d   1       6.081  -1.889  -6.755  0.00  0.00     0.102 C 
ATOM     19  H   LIG d   1       5.030  -2.149  -6.639  0.00  0.00     0.047 H 
ATOM     20  H   LIG d   1       6.044  -0.833  -1.621  0.00  0.00     0.027 H 
ATOM     21  H   LIG d   1       6.189   0.273  -3.007  0.00  0.00     0.027 H 
ATOM     22  H   LIG d   1       3.665  -0.129  -1.340  0.00  0.00     0.027 H 
ATOM     23  H   LIG d   1       4.791   1.239  -1.178  0.00  0.00     0.027 H 
ATOM     24  H   LIG d   1       2.783   1.754  -2.619  0.00  0.00     0.031 H 
ATOM     25  H   LIG d   1       4.334   1.949  -3.473  0.00  0.00     0.031 H 
ATOM     26  H   LIG d   1       1.248   0.865  -4.074  0.00  0.00     0.053 H 
ATOM     27  H   LIG d   1       1.684  -0.567  -5.196  0.00  0.00     0.053 H 
ATOM     28  H   LIG d   1       4.886   0.525  -6.176  0.00  0.00     0.028 H 
ATOM     29  H   LIG d   1       5.705   0.835  -4.634  0.00  0.00     0.028 H 
ATOM     30  H   LIG d   1       6.453  -2.866  -2.969  0.00  0.00     0.031 H 
ATOM     31  H   LIG d   1       5.569  -3.123  -4.486  0.00  0.00     0.031 H 
ENDROOT
BRANCH  18  32
ATOM     32  C   LIG d   1       6.372  -1.431  -8.185  0.00  0.00    -0.018 C 
ATOM     33  H   LIG d   1       7.017  -0.552  -8.161  0.00  0.00     0.082 H 
ATOM     34  H   LIG d   1       6.872  -2.233  -8.729  0.00  0.00     0.082 H 
BRANCH  32  35
ATOM     35  N   LIG d   1       5.111  -1.096  -8.859  0.00  0.00     0.240 N 
ATOM     36  C   LIG d   1       4.866   0.346  -8.745  0.00  0.00     0.003 C 
ATOM     37  C   LIG d   1       3.594   0.714  -9.513  0.00  0.00    -0.007 C 
ATOM     38  H   LIG d   1       4.744   0.613  -7.694  0.00  0.00     0.087 H 
ATOM     39  C   LIG d   1       2.408  -0.055  -8.924  0.00  0.00    -0.043 C 
ATOM     40  H   LIG d   1       3.714   0.448 -10.564  0.00  0.00     0.032 H 
ATOM     41  H   LIG d   1       3.413   1.785  -9.426  0.00  0.00     0.032 H 
ATOM     42  C   LIG d   1       2.707  -1.555  -8.979  0.00  0.00    -0.012 C 
ATOM     43  H   LIG d   1       1.510   0.160  -9.503  0.00  0.00     0.027 H 
ATOM     44  H   LIG d   1       2.256   0.248  -7.888  0.00  0.00     0.027 H 
ATOM     45  C   LIG d   1       4.011  -1.839  -8.231  0.00  0.00    -0.032 C 
ATOM     46  H   LIG d   1       2.808  -1.868 -10.019  0.00  0.00     0.032 H 
ATOM     47  H   LIG d   1       1.892  -2.107  -8.511  0.00  0.00     0.032 H 
ATOM     48  H   LIG d   1       4.227  -2.907  -8.269  0.00  0.00     0.081 H 
ATOM     49  H   LIG d   1       3.908  -1.527  -7.192  0.00  0.00     0.081 H 
ATOM     50  H   LIG d   1       5.172  -1.350  -9.833  0.00  0.00     0.204 HD
BRANCH  36  51
ATOM     51  C   LIG d   1       6.053   1.113  -9.330  0.00  0.00     0.087 C 
ATOM     52  H   LIG d   1       6.944   0.914  -8.734  0.00  0.00     0.061 H 
ATOM     53  H   LIG d   1       6.224   0.789 -10.358  0.00  0.00     0.061 H 
BRANCH  51  54
ATOM     54  O   LIG d   1       5.772   2.514  -9.314  0.00  0.00    -0.390 OA
ATOM     55  H   LIG d   1       4.830   2.726  -9.277  0.00  0.00     0.210 HD
ENDBRANCH  51  54
ENDBRANCH  36  51
ENDBRANCH  32  35
ENDBRANCH  18  32
BRANCH   1  56
ATOM     56  C   LIG d   1       3.862  -2.225  -2.588  0.00  0.00    -0.059 C 
ATOM     57  H   LIG d   1       3.819  -3.241  -2.979  0.00  0.00     0.024 H 
ATOM     58  H   LIG d   1       4.125  -2.253  -1.531  0.00  0.00     0.024 H 
ATOM     59  H   LIG d   1       2.889  -1.749  -2.707  0.00  0.00     0.024 H 
ENDBRANCH   1  56
TORSDOF 5
ENDMDL
MODEL 2
REMARK VINA RESULT:      -6.7      3.577      5.097
REMARK  5 active torsions:
REMARK  status: ('A' for Active; 'I' for Inactive)
REMARK    1  A    between atoms: C_1  and  C_2 
REMARK    2  A    between atoms: C_19  and  C_21 
REMARK    3  A    between atoms: C_21  and  N_22 
REMARK    4  A    between atoms: C_27  and  C_29 
REMARK    5  A    between atoms: C_29  and  O_30 
ROOT
ATOM      1  C   LIG d   1       4.479  -0.618  -4.559  0.00  0.00    -0.022 C 
ATOM      2  C   LIG d   1       4.356  -2.061  -4.074  0.00  0.00    -0.047 C 
ATOM      3  C   LIG d   1       3.660  -2.085  -2.712  0.00  0.00    -0.049 C 
ATOM      4  C   LIG d   1       4.512  -1.335  -1.684  0.00  0.00    -0.032 C 
ATOM      5  C   LIG d   1       4.814   0.049  -2.214  0.00  0.00    -0.073 C 
ATOM      6  C   LIG d   1       4.576   1.117  -1.494  0.00  0.00    -0.099 C 
ATOM      7  C   LIG d   1       5.401   0.159  -3.610  0.00  0.00    -0.014 C 
ATOM      8  H   LIG d   1       5.482   1.202  -3.915  0.00  0.00     0.035 H 
ATOM      9  C   LIG d   1       6.768  -0.529  -3.608  0.00  0.00    -0.039 C 
ATOM     10  C   LIG d   1       7.372  -0.596  -4.986  0.00  0.00     0.015 C 
ATOM     11  H   LIG d   1       8.295  -1.173  -4.953  0.00  0.00     0.035 H 
ATOM     12  C   LIG d   1       6.426  -1.191  -6.048  0.00  0.00     0.107 C 
ATOM     13  H   LIG d   1       6.386  -2.279  -6.012  0.00  0.00     0.074 H 
ATOM     14  C   LIG d   1       5.054  -0.581  -5.966  0.00  0.00    -0.009 C 
ATOM     15  O   LIG d   1       7.034  -0.690  -7.274  0.00  0.00    -0.461 OA
ATOM     16  C   LIG d   1       7.366   0.602  -7.062  0.00  0.00     0.316 C 
ATOM     17  O   LIG d   1       7.415   1.463  -7.908  0.00  0.00    -0.250 OA
ATOM     18  C   LIG d   1       7.653   0.793  -5.590  0.00  0.00     0.102 C 
ATOM     19  H   LIG d   1       6.988   1.541  -5.160  0.00  0.00     0.047 H 
ATOM     20  H   LIG d   1       3.770  -2.636  -4.791  0.00  0.00     0.027 H 
ATOM     21  H   LIG d   1       5.349  -2.500  -3.983  0.00  0.00     0.027 H 
ATOM     22  H   LIG d   1       2.685  -1.606  -2.793  0.00  0.00     0.027 H 
ATOM     23  H   LIG d   1       3.529  -3.119  -2.389  0.00  0.00     0.027 H 
ATOM     24  H   LIG d   1       3.966  -1.255  -0.745  0.00  0.00     0.031 H 
ATOM     25  H   LIG d   1       5.446  -1.875  -1.520  0.00  0.00     0.031 H 
ATOM     26  H   LIG d   1       4.159   1.018  -0.503  0.00  0.00     0.053 H 
ATOM     27  H   LIG d   1       4.799   2.096  -1.891  0.00  0.00     0.053 H 
ATOM     28  H   LIG d   1       7.442   0.023  -2.952  0.00  0.00     0.028 H 
ATOM     29  H   LIG d   1       6.654  -1.543  -3.223  0.00  0.00     0.028 H 
ATOM     30  H   LIG d   1       4.381  -1.110  -6.640  0.00  0.00     0.031 H 
ATOM     31  H   LIG d   1       5.136   0.457  -6.289  0.00  0.00     0.031 H 
ENDROOT
BRANCH  18  32
ATOM     32  C   LIG d   1       9.117   1.187  -5.384  0.00  0.00    -0.018 C 
ATOM     33  H   LIG d   1       9.403   0.992  -4.351  0.00  0.00     0.082 H 
ATOM     34  H   LIG d   1       9.748   0.601  -6.053  0.00  0.00     0.082 H 
BRANCH  32  35
ATOM     35  N   LIG d   1       9.286   2.616  -5.679  0.00  0.00     0.240 N 
ATOM     36  C   LIG d   1      10.623   2.844  -6.238  0.00  0.00     0.003 C 
ATOM     37  C   LIG d   1      10.776   4.317  -6.621  0.00  0.00    -0.007 C 
ATOM     38  H   LIG d   1      11.377   2.582  -5.494  0.00  0.00     0.087 H 
ATOM     39  C   LIG d   1      10.587   5.186  -5.374  0.00  0.00    -0.043 C 
ATOM     40  H   LIG d   1      10.023   4.580  -7.365  0.00  0.00     0.032 H 
ATOM     41  H   LIG d   1      11.770   4.485  -7.035  0.00  0.00     0.032 H 
ATOM     42  C   LIG d   1       9.219   4.885  -4.757  0.00  0.00    -0.012 C 
ATOM     43  H   LIG d   1      10.639   6.238  -5.652  0.00  0.00     0.027 H 
ATOM     44  H   LIG d   1      11.371   4.960  -4.651  0.00  0.00     0.027 H 
ATOM     45  C   LIG d   1       9.124   3.391  -4.442  0.00  0.00    -0.032 C 
ATOM     46  H   LIG d   1       8.434   5.160  -5.461  0.00  0.00     0.032 H 
ATOM     47  H   LIG d   1       9.100   5.459  -3.837  0.00  0.00     0.032 H 
ATOM     48  H   LIG d   1       8.150   3.173  -4.003  0.00  0.00     0.081 H 
ATOM     49  H   LIG d   1       9.909   3.118  -3.737  0.00  0.00     0.081 H 
ATOM     50  H   LIG d   1       8.589   2.905  -6.348  0.00  0.00     0.204 HD
BRANCH  36  51
ATOM     51  C   LIG d   1      10.811   1.972  -7.481  0.00  0.00     0.087 C 
ATOM     52  H   LIG d   1      11.865   1.957  -7.758  0.00  0.00     0.061 H 
ATOM     53  H   LIG d   1      10.476   0.957  -7.267  0.00  0.00     0.061 H 
BRANCH  51  54
ATOM     54  O   LIG d   1      10.043   2.509  -8.560  0.00  0.00    -0.390 OA
ATOM     55  H   LIG d   1       9.975   1.922  -9.325  0.00  0.00     0.210 HD
ENDBRANCH  51  54
ENDBRANCH  36  51
ENDBRANCH  32  35
ENDBRANCH  18  32
BRANCH   1  56
ATOM     56  C   LIG d   1       3.095   0.033  -4.563  0.00  0.00    -0.059 C 
ATOM     57  H   LIG d   1       2.736   0.118  -5.588  0.00  0.00     0.024 H 
ATOM     58  H   LIG d   1       2.403  -0.579  -3.985  0.00  0.00     0.024 H 
ATOM     59  H   LIG d   1       3.160   1.026  -4.118  0.00  0.00     0.024 H 
ENDBRANCH   1  56
TORSDOF 5
ENDMDL
MODEL 3
REMARK VINA RESULT:      -6.4      1.607      2.213
REMARK  5 active torsions:
REMARK  status: ('A' for Active; 'I' for Inactive)
REMARK    1  A    between atoms: C_1  and  C_2 
REMARK    2  A    between atoms: C_19  and  C_21 
REMARK    3  A    between atoms: C_21  and  N_22 
REMARK    4  A    between atoms: C_27  and  C_29 
REMARK    5  A    between atoms: C_29  and  O_30 
ROOT
ATOM      1  C   LIG d   1       4.818  -1.504  -3.317  0.00  0.00    -0.022 C 
ATOM      2  C   LIG d   1       5.505  -0.333  -2.619  0.00  0.00    -0.047 C 
ATOM      3  C   LIG d   1       4.449   0.579  -1.990  0.00  0.00    -0.049 C 
ATOM      4  C   LIG d   1       3.557   1.167  -3.087  0.00  0.00    -0.032 C 
ATOM      5  C   LIG d   1       2.999   0.037  -3.924  0.00  0.00    -0.073 C 
ATOM      6  C   LIG d   1       1.714  -0.065  -4.154  0.00  0.00    -0.099 C 
ATOM      7  C   LIG d   1       3.979  -0.975  -4.488  0.00  0.00    -0.014 C 
ATOM      8  H   LIG d   1       3.451  -1.789  -4.986  0.00  0.00     0.035 H 
ATOM      9  C   LIG d   1       4.917  -0.246  -5.452  0.00  0.00    -0.039 C 
ATOM     10  C   LIG d   1       6.017  -1.140  -5.960  0.00  0.00     0.015 C 
ATOM     11  H   LIG d   1       6.711  -0.558  -6.565  0.00  0.00     0.035 H 
ATOM     12  C   LIG d   1       6.790  -1.867  -4.841  0.00  0.00     0.107 C 
ATOM     13  H   LIG d   1       7.529  -1.228  -4.358  0.00  0.00     0.074 H 
ATOM     14  C   LIG d   1       5.853  -2.488  -3.841  0.00  0.00    -0.009 C 
ATOM     15  O   LIG d   1       7.392  -2.963  -5.586  0.00  0.00    -0.461 OA
ATOM     16  C   LIG d   1       6.450  -3.452  -6.422  0.00  0.00     0.316 C 
ATOM     17  O   LIG d   1       6.377  -4.594  -6.810  0.00  0.00    -0.250 OA
ATOM     18  C   LIG d   1       5.495  -2.336  -6.779  0.00  0.00     0.102 C 
ATOM     19  H   LIG d   1       4.477  -2.588  -6.484  0.00  0.00     0.047 H 
ATOM     20  H   LIG d   1       6.167  -0.712  -1.840  0.00  0.00     0.027 H 
ATOM     21  H   LIG d   1       6.087   0.233  -3.345  0.00  0.00     0.027 H 
ATOM     22  H   LIG d   1       3.838   0.002  -1.297  0.00  0.00     0.027 H 
ATOM     23  H   LIG d   1       4.942   1.388  -1.451  0.00  0.00     0.027 H 
ATOM     24  H   LIG d   1       2.738   1.724  -2.633  0.00  0.00     0.031 H 
ATOM     25  H   LIG d   1       4.146   1.833  -3.719  0.00  0.00     0.031 H 
ATOM     26  H   LIG d   1       1.032   0.666  -3.744  0.00  0.00     0.053 H 
ATOM     27  H   LIG d   1       1.335  -0.879  -4.754  0.00  0.00     0.053 H 
ATOM     28  H   LIG d   1       4.338   0.120  -6.301  0.00  0.00     0.028 H 
ATOM     29  H   LIG d   1       5.363   0.606  -4.937  0.00  0.00     0.028 H 
ATOM     30  H   LIG d   1       6.427  -2.880  -3.002  0.00  0.00     0.031 H 
ATOM     31  H   LIG d   1       5.341  -3.311  -4.338  0.00  0.00     0.031 H 
ENDROOT
BRANCH  18  32
ATOM     32  C   LIG d   1       5.567  -2.038  -8.277  0.00  0.00    -0.018 C 
ATOM     33  H   LIG d   1       6.259  -1.214  -8.451  0.00  0.00     0.082 H 
ATOM     34  H   LIG d   1       5.918  -2.925  -8.807  0.00  0.00     0.082 H 
BRANCH  32  35
ATOM     35  N   LIG d   1       4.233  -1.671  -8.769  0.00  0.00     0.240 N 
ATOM     36  C   LIG d   1       3.907  -2.483  -9.947  0.00  0.00     0.003 C 
ATOM     37  C   LIG d   1       2.486  -2.162 -10.415  0.00  0.00    -0.007 C 
ATOM     38  H   LIG d   1       4.612  -2.261 -10.749  0.00  0.00     0.087 H 
ATOM     39  C   LIG d   1       2.397  -0.676 -10.777  0.00  0.00    -0.043 C 
ATOM     40  H   LIG d   1       1.779  -2.384  -9.615  0.00  0.00     0.032 H 
ATOM     41  H   LIG d   1       2.246  -2.765 -11.291  0.00  0.00     0.032 H 
ATOM     42  C   LIG d   1       2.812   0.160  -9.564  0.00  0.00    -0.012 C 
ATOM     43  H   LIG d   1       1.373  -0.430 -11.057  0.00  0.00     0.027 H 
ATOM     44  H   LIG d   1       3.065  -0.464 -11.612  0.00  0.00     0.027 H 
ATOM     45  C   LIG d   1       4.221  -0.247  -9.127  0.00  0.00    -0.032 C 
ATOM     46  H   LIG d   1       2.112  -0.014  -8.746  0.00  0.00     0.032 H 
ATOM     47  H   LIG d   1       2.805   1.217  -9.830  0.00  0.00     0.032 H 
ATOM     48  H   LIG d   1       4.519   0.347  -8.263  0.00  0.00     0.081 H 
ATOM     49  H   LIG d   1       4.918  -0.072  -9.945  0.00  0.00     0.081 H 
ATOM     50  H   LIG d   1       3.550  -1.840  -8.046  0.00  0.00     0.204 HD
BRANCH  36  51
ATOM     51  C   LIG d   1       3.999  -3.966  -9.585  0.00  0.00     0.087 C 
ATOM     52  H   LIG d   1       4.038  -4.562 -10.497  0.00  0.00     0.061 H 
ATOM     53  H   LIG d   1       4.902  -4.142  -8.998  0.00  0.00     0.061 H 
BRANCH  51  54
ATOM     54  O   LIG d   1       2.853  -4.344  -8.819  0.00  0.00    -0.390 OA
ATOM     55  H   LIG d   1       3.059  -4.869  -8.034  0.00  0.00     0.210 HD
ENDBRANCH  51  54
ENDBRANCH  36  51
ENDBRANCH  32  35
ENDBRANCH  18  32
BRANCH   1  56
ATOM     56  C   LIG d   1       3.903  -2.219  -2.322  0.00  0.00    -0.059 C 
ATOM     57  H   LIG d   1       4.302  -3.210  -2.107  0.00  0.00     0.024 H 
ATOM     58  H   LIG d   1       3.846  -1.641  -1.400  0.00  0.00     0.024 H 
ATOM     59  H   LIG d   1       2.905  -2.316  -2.752  0.00  0.00     0.024 H 
ENDBRANCH   1  56
TORSDOF 5
ENDMDL
MODEL 4
REMARK VINA RESULT:      -6.4      3.094      5.879
REMARK  5 active torsions:
REMARK  status: ('A' for Active; 'I' for Inactive)
REMARK    1  A    between atoms: C_1  and  C_2 
REMARK    2  A    between atoms: C_19  and  C_21 
REMARK    3  A    between atoms: C_21  and  N_22 
REMARK    4  A    between atoms: C_27  and  C_29 
REMARK    5  A    between atoms: C_29  and  O_30 
ROOT
ATOM      1  C   LIG d   1       8.151  -6.197  -5.245  0.00  0.00    -0.022 C 
ATOM      2  C   LIG d   1       9.333  -6.293  -6.208  0.00  0.00    -0.047 C 
ATOM      3  C   LIG d   1      10.640  -6.117  -5.432  0.00  0.00    -0.049 C 
ATOM      4  C   LIG d   1      10.682  -4.720  -4.805  0.00  0.00    -0.032 C 
ATOM      5  C   LIG d   1       9.428  -4.514  -3.984  0.00  0.00    -0.073 C 
ATOM      6  C   LIG d   1       9.492  -4.117  -2.738  0.00  0.00    -0.099 C 
ATOM      7  C   LIG d   1       8.093  -4.781  -4.654  0.00  0.00    -0.014 C 
ATOM      8  H   LIG d   1       7.276  -4.694  -3.938  0.00  0.00     0.035 H 
ATOM      9  C   LIG d   1       7.931  -3.792  -5.809  0.00  0.00    -0.039 C 
ATOM     10  C   LIG d   1       6.696  -4.068  -6.626  0.00  0.00     0.015 C 
ATOM     11  H   LIG d   1       6.672  -3.402  -7.488  0.00  0.00     0.035 H 
ATOM     12  C   LIG d   1       6.582  -5.531  -7.098  0.00  0.00     0.107 C 
ATOM     13  H   LIG d   1       7.205  -5.742  -7.967  0.00  0.00     0.074 H 
ATOM     14  C   LIG d   1       6.850  -6.494  -5.974  0.00  0.00    -0.009 C 
ATOM     15  O   LIG d   1       5.158  -5.618  -7.392  0.00  0.00    -0.461 OA
ATOM     16  C   LIG d   1       4.499  -4.996  -6.390  0.00  0.00     0.316 C 
ATOM     17  O   LIG d   1       3.384  -5.264  -6.008  0.00  0.00    -0.250 OA
ATOM     18  C   LIG d   1       5.393  -3.918  -5.819  0.00  0.00     0.102 C 
ATOM     19  H   LIG d   1       5.575  -4.088  -4.759  0.00  0.00     0.047 H 
ATOM     20  H   LIG d   1       9.327  -7.270  -6.692  0.00  0.00     0.027 H 
ATOM     21  H   LIG d   1       9.250  -5.513  -6.964  0.00  0.00     0.027 H 
ATOM     22  H   LIG d   1      10.701  -6.869  -4.647  0.00  0.00     0.027 H 
ATOM     23  H   LIG d   1      11.484  -6.234  -6.113  0.00  0.00     0.027 H 
ATOM     24  H   LIG d   1      11.557  -4.635  -4.162  0.00  0.00     0.031 H 
ATOM     25  H   LIG d   1      10.732  -3.967  -5.592  0.00  0.00     0.031 H 
ATOM     26  H   LIG d   1      10.452  -3.931  -2.278  0.00  0.00     0.053 H 
ATOM     27  H   LIG d   1       8.586  -3.976  -2.169  0.00  0.00     0.053 H 
ATOM     28  H   LIG d   1       7.869  -2.781  -5.404  0.00  0.00     0.028 H 
ATOM     29  H   LIG d   1       8.806  -3.857  -6.458  0.00  0.00     0.028 H 
ATOM     30  H   LIG d   1       6.887  -7.509  -6.367  0.00  0.00     0.031 H 
ATOM     31  H   LIG d   1       6.022  -6.415  -5.269  0.00  0.00     0.031 H 
ENDROOT
BRANCH  18  32
ATOM     32  C   LIG d   1       4.770  -2.540  -6.048  0.00  0.00    -0.018 C 
ATOM     33  H   LIG d   1       5.559  -1.813  -6.245  0.00  0.00     0.082 H 
ATOM     34  H   LIG d   1       4.095  -2.584  -6.903  0.00  0.00     0.082 H 
BRANCH  32  35
ATOM     35  N   LIG d   1       4.018  -2.137  -4.852  0.00  0.00     0.240 N 
ATOM     36  C   LIG d   1       3.947  -0.673  -4.791  0.00  0.00     0.003 C 
ATOM     37  C   LIG d   1       3.097  -0.249  -3.592  0.00  0.00    -0.007 C 
ATOM     38  H   LIG d   1       4.953  -0.264  -4.686  0.00  0.00     0.087 H 
ATOM     39  C   LIG d   1       3.735  -0.785  -2.306  0.00  0.00    -0.043 C 
ATOM     40  H   LIG d   1       2.091  -0.656  -3.696  0.00  0.00     0.032 H 
ATOM     41  H   LIG d   1       3.047   0.839  -3.547  0.00  0.00     0.032 H 
ATOM     42  C   LIG d   1       3.872  -2.305  -2.412  0.00  0.00    -0.012 C 
ATOM     43  H   LIG d   1       3.103  -0.534  -1.454  0.00  0.00     0.027 H 
ATOM     44  H   LIG d   1       4.720  -0.338  -2.175  0.00  0.00     0.027 H 
ATOM     45  C   LIG d   1       4.694  -2.654  -3.655  0.00  0.00    -0.032 C 
ATOM     46  H   LIG d   1       2.883  -2.756  -2.492  0.00  0.00     0.032 H 
ATOM     47  H   LIG d   1       4.376  -2.689  -1.524  0.00  0.00     0.032 H 
ATOM     48  H   LIG d   1       4.794  -3.736  -3.734  0.00  0.00     0.081 H 
ATOM     49  H   LIG d   1       5.683  -2.203  -3.574  0.00  0.00     0.081 H 
ATOM     50  H   LIG d   1       3.085  -2.516  -4.899  0.00  0.00     0.204 HD
BRANCH  36  51
ATOM     51  C   LIG d   1       3.314  -0.139  -6.078  0.00  0.00     0.087 C 
ATOM     52  H   LIG d   1       4.067  -0.099  -6.864  0.00  0.00     0.061 H 
ATOM     53  H   LIG d   1       2.502  -0.800  -6.384  0.00  0.00     0.061 H 
BRANCH  51  54
ATOM     54  O   LIG d   1       2.798   1.173  -5.847  0.00  0.00    -0.390 OA
ATOM     55  H   LIG d   1       2.319   1.267  -5.013  0.00  0.00     0.210 HD
ENDBRANCH  51  54
ENDBRANCH  36  51
ENDBRANCH  32  35
ENDBRANCH  18  32
BRANCH   1  56
ATOM     56  C   LIG d   1       8.337  -7.209  -4.114  0.00  0.00    -0.059 C 
ATOM     57  H   LIG d   1       9.400  -7.365  -3.937  0.00  0.00     0.024 H 
ATOM     58  H   LIG d   1       7.869  -6.830  -3.206  0.00  0.00     0.024 H 
ATOM     59  H   LIG d   1       7.873  -8.155  -4.393  0.00  0.00     0.024 H 
ENDBRANCH   1  56
TORSDOF 5
ENDMDL
MODEL 5
REMARK VINA RESULT:      -6.4      1.856      5.444
REMARK  5 active torsions:
REMARK  status: ('A' for Active; 'I' for Inactive)
REMARK    1  A    between atoms: C_1  and  C_2 
REMARK    2  A    between atoms: C_19  and  C_21 
REMARK    3  A    between atoms: C_21  and  N_22 
REMARK    4  A    between atoms: C_27  and  C_29 
REMARK    5  A    between atoms: C_29  and  O_30 
ROOT
ATOM      1  C   LIG d   1       4.733  -0.650  -9.771  0.00  0.00    -0.022 C 
ATOM      2  C   LIG d   1       3.685  -1.547 -10.426  0.00  0.00    -0.047 C 
ATOM      3  C   LIG d   1       2.498  -0.697 -10.884  0.00  0.00    -0.049 C 
ATOM      4  C   LIG d   1       1.835  -0.040  -9.670  0.00  0.00    -0.032 C 
ATOM      5  C   LIG d   1       2.886   0.714  -8.886  0.00  0.00    -0.073 C 
ATOM      6  C   LIG d   1       2.714   1.970  -8.557  0.00  0.00    -0.099 C 
ATOM      7  C   LIG d   1       4.147  -0.034  -8.493  0.00  0.00    -0.014 C 
ATOM      8  H   LIG d   1       4.864   0.637  -8.021  0.00  0.00     0.035 H 
ATOM      9  C   LIG d   1       3.751  -1.177  -7.555  0.00  0.00    -0.039 C 
ATOM     10  C   LIG d   1       4.919  -2.066  -7.218  0.00  0.00     0.015 C 
ATOM     11  H   LIG d   1       4.574  -2.914  -6.628  0.00  0.00     0.035 H 
ATOM     12  C   LIG d   1       5.687  -2.573  -8.456  0.00  0.00     0.107 C 
ATOM     13  H   LIG d   1       5.189  -3.410  -8.945  0.00  0.00     0.074 H 
ATOM     14  C   LIG d   1       5.974  -1.456  -9.420  0.00  0.00    -0.009 C 
ATOM     15  O   LIG d   1       6.961  -2.947  -7.858  0.00  0.00    -0.461 OA
ATOM     16  C   LIG d   1       7.303  -1.971  -6.989  0.00  0.00     0.316 C 
ATOM     17  O   LIG d   1       8.431  -1.657  -6.692  0.00  0.00    -0.250 OA
ATOM     18  C   LIG d   1       6.040  -1.330  -6.460  0.00  0.00     0.102 C 
ATOM     19  H   LIG d   1       6.022  -0.265  -6.687  0.00  0.00     0.047 H 
ATOM     20  H   LIG d   1       4.125  -2.050 -11.286  0.00  0.00     0.027 H 
ATOM     21  H   LIG d   1       3.342  -2.290  -9.707  0.00  0.00     0.027 H 
ATOM     22  H   LIG d   1       2.848   0.076 -11.569  0.00  0.00     0.027 H 
ATOM     23  H   LIG d   1       1.773  -1.331 -11.395  0.00  0.00     0.027 H 
ATOM     24  H   LIG d   1       1.063   0.653 -10.005  0.00  0.00     0.031 H 
ATOM     25  H   LIG d   1       1.388  -0.808  -9.038  0.00  0.00     0.031 H 
ATOM     26  H   LIG d   1       1.810   2.485  -8.845  0.00  0.00     0.053 H 
ATOM     27  H   LIG d   1       3.476   2.490  -7.996  0.00  0.00     0.053 H 
ATOM     28  H   LIG d   1       3.350  -0.755  -6.633  0.00  0.00     0.028 H 
ATOM     29  H   LIG d   1       2.976  -1.776  -8.034  0.00  0.00     0.028 H 
ATOM     30  H   LIG d   1       6.401  -1.866 -10.335  0.00  0.00     0.031 H 
ATOM     31  H   LIG d   1       6.705  -0.796  -8.952  0.00  0.00     0.031 H 
ENDROOT
BRANCH  18  32
ATOM     32  C   LIG d   1       5.919  -1.565  -4.954  0.00  0.00    -0.018 C 
ATOM     33  H   LIG d   1       5.389  -2.501  -4.774  0.00  0.00     0.082 H 
ATOM     34  H   LIG d   1       6.915  -1.621  -4.514  0.00  0.00     0.082 H 
BRANCH  32  35
ATOM     35  N   LIG d   1       5.176  -0.456  -4.342  0.00  0.00     0.240 N 
ATOM     36  C   LIG d   1       5.967   0.117  -3.248  0.00  0.00     0.003 C 
ATOM     37  C   LIG d   1       5.234   1.324  -2.659  0.00  0.00    -0.007 C 
ATOM     38  H   LIG d   1       6.110  -0.635  -2.470  0.00  0.00     0.087 H 
ATOM     39  C   LIG d   1       3.870   0.875  -2.125  0.00  0.00    -0.043 C 
ATOM     40  H   LIG d   1       5.091   2.077  -3.435  0.00  0.00     0.032 H 
ATOM     41  H   LIG d   1       5.823   1.747  -1.846  0.00  0.00     0.032 H 
ATOM     42  C   LIG d   1       3.083   0.212  -3.258  0.00  0.00    -0.012 C 
ATOM     43  H   LIG d   1       3.321   1.741  -1.757  0.00  0.00     0.027 H 
ATOM     44  H   LIG d   1       4.014   0.161  -1.315  0.00  0.00     0.027 H 
ATOM     45  C   LIG d   1       3.895  -0.954  -3.824  0.00  0.00    -0.032 C 
ATOM     46  H   LIG d   1       2.895   0.942  -4.046  0.00  0.00     0.032 H 
ATOM     47  H   LIG d   1       2.133  -0.160  -2.873  0.00  0.00     0.032 H 
ATOM     48  H   LIG d   1       3.337  -1.428  -4.631  0.00  0.00     0.081 H 
ATOM     49  H   LIG d   1       4.082  -1.682  -3.035  0.00  0.00     0.081 H 
ATOM     50  H   LIG d   1       5.001   0.254  -5.037  0.00  0.00     0.204 HD
BRANCH  36  51
ATOM     51  C   LIG d   1       7.330   0.561  -3.782  0.00  0.00     0.087 C 
ATOM     52  H   LIG d   1       8.021   0.694  -2.950  0.00  0.00     0.061 H 
ATOM     53  H   LIG d   1       7.720  -0.200  -4.460  0.00  0.00     0.061 H 
BRANCH  51  54
ATOM     54  O   LIG d   1       7.188   1.796  -4.486  0.00  0.00    -0.390 OA
ATOM     55  H   LIG d   1       6.580   2.420  -4.067  0.00  0.00     0.210 HD
ENDBRANCH  51  54
ENDBRANCH  36  51
ENDBRANCH  32  35
ENDBRANCH  18  32
BRANCH   1  56
ATOM     56  C   LIG d   1       5.116   0.470 -10.740  0.00  0.00    -0.059 C 
ATOM     57  H   LIG d   1       6.199   0.491 -10.861  0.00  0.00     0.024 H 
ATOM     58  H   LIG d   1       4.646   0.291 -11.706  0.00  0.00     0.024 H 
ATOM     59  H   LIG d   1       4.777   1.427 -10.342  0.00  0.00     0.024 H 
ENDBRANCH   1  56
TORSDOF 5
ENDMDL
MODEL 6
REMARK VINA RESULT:      -6.3      3.680      5.495
REMARK  5 active torsions:
REMARK  status: ('A' for Active; 'I' for Inactive)
REMARK    1  A    between atoms: C_1  and  C_2 
REMARK    2  A    between atoms: C_19  and  C_21 
REMARK    3  A    between atoms: C_21  and  N_22 
REMARK    4  A    between atoms: C_27  and  C_29 
REMARK    5  A    between atoms: C_29  and  O_30 
ROOT
ATOM      1  C   LIG d   1       4.808  -0.921  -4.627  0.00  0.00    -0.022 C 
ATOM      2  C   LIG d   1       4.456  -2.284  -4.036  0.00  0.00    -0.047 C 
ATOM      3  C   LIG d   1       3.605  -2.091  -2.779  0.00  0.00    -0.049 C 
ATOM      4  C   LIG d   1       4.413  -1.335  -1.720  0.00  0.00    -0.032 C 
ATOM      5  C   LIG d   1       4.940  -0.054  -2.328  0.00  0.00    -0.073 C 
ATOM      6  C   LIG d   1       4.748   1.102  -1.743  0.00  0.00    -0.099 C 
ATOM      7  C   LIG d   1       5.698  -0.153  -3.639  0.00  0.00    -0.014 C 
ATOM      8  H   LIG d   1       5.939   0.837  -4.023  0.00  0.00     0.035 H 
ATOM      9  C   LIG d   1       6.961  -0.982  -3.398  0.00  0.00    -0.039 C 
ATOM     10  C   LIG d   1       7.713  -1.256  -4.675  0.00  0.00     0.015 C 
ATOM     11  H   LIG d   1       8.550  -1.923  -4.470  0.00  0.00     0.035 H 
ATOM     12  C   LIG d   1       6.836  -1.852  -5.794  0.00  0.00     0.107 C 
ATOM     13  H   LIG d   1       6.661  -2.920  -5.665  0.00  0.00     0.074 H 
ATOM     14  C   LIG d   1       5.547  -1.092  -5.945  0.00  0.00    -0.009 C 
ATOM     15  O   LIG d   1       7.641  -1.550  -6.969  0.00  0.00    -0.461 OA
ATOM     16  C   LIG d   1       8.098  -0.286  -6.833  0.00  0.00     0.316 C 
ATOM     17  O   LIG d   1       8.351   0.473  -7.738  0.00  0.00    -0.250 OA
ATOM     18  C   LIG d   1       8.228   0.025  -5.359  0.00  0.00     0.102 C 
ATOM     19  H   LIG d   1       7.612   0.881  -5.088  0.00  0.00     0.047 H 
ATOM     20  H   LIG d   1       3.894  -2.863  -4.768  0.00  0.00     0.027 H 
ATOM     21  H   LIG d   1       5.370  -2.815  -3.777  0.00  0.00     0.027 H 
ATOM     22  H   LIG d   1       2.711  -1.520  -3.029  0.00  0.00     0.027 H 
ATOM     23  H   LIG d   1       3.313  -3.066  -2.385  0.00  0.00     0.027 H 
ATOM     24  H   LIG d   1       3.772  -1.100  -0.871  0.00  0.00     0.031 H 
ATOM     25  H   LIG d   1       5.248  -1.953  -1.388  0.00  0.00     0.031 H 
ATOM     26  H   LIG d   1       4.207   1.152  -0.810  0.00  0.00     0.053 H 
ATOM     27  H   LIG d   1       5.133   2.005  -2.194  0.00  0.00     0.053 H 
ATOM     28  H   LIG d   1       7.614  -0.441  -2.713  0.00  0.00     0.028 H 
ATOM     29  H   LIG d   1       6.682  -1.932  -2.942  0.00  0.00     0.028 H 
ATOM     30  H   LIG d   1       4.900  -1.612  -6.651  0.00  0.00     0.031 H 
ATOM     31  H   LIG d   1       5.791  -0.108  -6.346  0.00  0.00     0.031 H 
ENDROOT
BRANCH  18  32
ATOM     32  C   LIG d   1       9.694   0.277  -5.000  0.00  0.00    -0.018 C 
ATOM     33  H   LIG d   1       9.935  -0.238  -4.070  0.00  0.00     0.082 H 
ATOM     34  H   LIG d   1      10.334  -0.099  -5.799  0.00  0.00     0.082 H 
BRANCH  32  35
ATOM     35  N   LIG d   1       9.917   1.719  -4.834  0.00  0.00     0.240 N 
ATOM     36  C   LIG d   1      10.822   1.946  -3.702  0.00  0.00     0.003 C 
ATOM     37  C   LIG d   1      11.122   3.441  -3.574  0.00  0.00    -0.007 C 
ATOM     38  H   LIG d   1      10.354   1.590  -2.784  0.00  0.00     0.087 H 
ATOM     39  C   LIG d   1       9.812   4.200  -3.341  0.00  0.00    -0.043 C 
ATOM     40  H   LIG d   1      11.591   3.798  -4.491  0.00  0.00     0.032 H 
ATOM     41  H   LIG d   1      11.793   3.607  -2.732  0.00  0.00     0.032 H 
ATOM     42  C   LIG d   1       8.847   3.897  -4.490  0.00  0.00    -0.012 C 
ATOM     43  H   LIG d   1      10.012   5.270  -3.306  0.00  0.00     0.027 H 
ATOM     44  H   LIG d   1       9.368   3.880  -2.399  0.00  0.00     0.027 H 
ATOM     45  C   LIG d   1       8.631   2.385  -4.584  0.00  0.00    -0.032 C 
ATOM     46  H   LIG d   1       9.269   4.263  -5.426  0.00  0.00     0.032 H 
ATOM     47  H   LIG d   1       7.892   4.389  -4.304  0.00  0.00     0.032 H 
ATOM     48  H   LIG d   1       7.945   2.165  -5.402  0.00  0.00     0.081 H 
ATOM     49  H   LIG d   1       8.209   2.020  -3.648  0.00  0.00     0.081 H 
ATOM     50  H   LIG d   1      10.329   2.094  -5.674  0.00  0.00     0.204 HD
BRANCH  36  51
ATOM     51  C   LIG d   1      12.129   1.184  -3.934  0.00  0.00     0.087 C 
ATOM     52  H   LIG d   1      12.287   0.477  -3.120  0.00  0.00     0.061 H 
ATOM     53  H   LIG d   1      12.070   0.642  -4.879  0.00  0.00     0.061 H 
BRANCH  51  54
ATOM     54  O   LIG d   1      13.218   2.108  -3.982  0.00  0.00    -0.390 OA
ATOM     55  H   LIG d   1      13.808   1.982  -4.737  0.00  0.00     0.210 HD
ENDBRANCH  51  54
ENDBRANCH  36  51
ENDBRANCH  32  35
ENDBRANCH  18  32
BRANCH   1  56
ATOM     56  C   LIG d   1       3.523  -0.127  -4.870  0.00  0.00    -0.059 C 
ATOM     57  H   LIG d   1       2.848  -0.711  -5.496  0.00  0.00     0.024 H 
ATOM     58  H   LIG d   1       3.041   0.085  -3.916  0.00  0.00     0.024 H 
ATOM     59  H   LIG d   1       3.764   0.810  -5.371  0.00  0.00     0.024 H 
ENDBRANCH   1  56
TORSDOF 5
ENDMDL
MODEL 7
REMARK VINA RESULT:      -6.1      1.322      2.479
REMARK  5 active torsions:
REMARK  status: ('A' for Active; 'I' for Inactive)
REMARK    1  A    between atoms: C_1  and  C_2 
REMARK    2  A    between atoms: C_19  and  C_21 
REMARK    3  A    between atoms: C_21  and  N_22 
REMARK    4  A    between atoms: C_27  and  C_29 
REMARK    5  A    between atoms: C_29  and  O_30 
ROOT
ATOM      1  C   LIG d   1       4.919  -1.231  -3.113  0.00  0.00    -0.022 C 
ATOM      2  C   LIG d   1       5.365  -0.039  -2.269  0.00  0.00    -0.047 C 
ATOM      3  C   LIG d   1       4.146   0.808  -1.897  0.00  0.00    -0.049 C 
ATOM      4  C   LIG d   1       3.501   1.370  -3.167  0.00  0.00    -0.032 C 
ATOM      5  C   LIG d   1       3.210   0.228  -4.115  0.00  0.00    -0.073 C 
ATOM      6  C   LIG d   1       2.020   0.066  -4.636  0.00  0.00    -0.099 C 
ATOM      7  C   LIG d   1       4.345  -0.725  -4.443  0.00  0.00    -0.014 C 
ATOM      8  H   LIG d   1       3.990  -1.556  -5.053  0.00  0.00     0.035 H 
ATOM      9  C   LIG d   1       5.440   0.066  -5.161  0.00  0.00    -0.039 C 
ATOM     10  C   LIG d   1       6.674  -0.764  -5.406  0.00  0.00     0.015 C 
ATOM     11  H   LIG d   1       7.457  -0.137  -5.832  0.00  0.00     0.035 H 
ATOM     12  C   LIG d   1       7.205  -1.470  -4.142  0.00  0.00     0.107 C 
ATOM     13  H   LIG d   1       7.779  -0.803  -3.499  0.00  0.00     0.074 H 
ATOM     14  C   LIG d   1       6.097  -2.153  -3.389  0.00  0.00    -0.009 C 
ATOM     15  O   LIG d   1       8.019  -2.522  -4.734  0.00  0.00    -0.461 OA
ATOM     16  C   LIG d   1       7.321  -3.043  -5.766  0.00  0.00     0.316 C 
ATOM     17  O   LIG d   1       7.399  -4.181  -6.166  0.00  0.00    -0.250 OA
ATOM     18  C   LIG d   1       6.416  -1.970  -6.329  0.00  0.00     0.102 C 
ATOM     19  H   LIG d   1       5.373  -2.278  -6.278  0.00  0.00     0.047 H 
ATOM     20  H   LIG d   1       5.849  -0.397  -1.361  0.00  0.00     0.027 H 
ATOM     21  H   LIG d   1       6.068   0.568  -2.839  0.00  0.00     0.027 H 
ATOM     22  H   LIG d   1       3.423   0.190  -1.366  0.00  0.00     0.027 H 
ATOM     23  H   LIG d   1       4.459   1.632  -1.254  0.00  0.00     0.027 H 
ATOM     24  H   LIG d   1       2.572   1.877  -2.911  0.00  0.00     0.031 H 
ATOM     25  H   LIG d   1       4.184   2.075  -3.643  0.00  0.00     0.031 H 
ATOM     26  H   LIG d   1       1.225   0.755  -4.391  0.00  0.00     0.053 H 
ATOM     27  H   LIG d   1       1.833  -0.756  -5.311  0.00  0.00     0.053 H 
ATOM     28  H   LIG d   1       5.054   0.417  -6.119  0.00  0.00     0.028 H 
ATOM     29  H   LIG d   1       5.711   0.930  -4.553  0.00  0.00     0.028 H 
ATOM     30  H   LIG d   1       6.482  -2.531  -2.442  0.00  0.00     0.031 H 
ATOM     31  H   LIG d   1       5.757  -2.993  -3.994  0.00  0.00     0.031 H 
ENDROOT
BRANCH  18  32
ATOM     32  C   LIG d   1       6.816  -1.644  -7.769  0.00  0.00    -0.018 C 
ATOM     33  H   LIG d   1       7.586  -2.343  -8.099  0.00  0.00     0.082 H 
ATOM     34  H   LIG d   1       5.944  -1.733  -8.417  0.00  0.00     0.082 H 
BRANCH  32  35
ATOM     35  N   LIG d   1       7.337  -0.273  -7.835  0.00  0.00     0.240 N 
ATOM     36  C   LIG d   1       6.702   0.436  -8.952  0.00  0.00     0.003 C 
ATOM     37  C   LIG d   1       7.181   1.890  -8.977  0.00  0.00    -0.007 C 
ATOM     38  H   LIG d   1       6.971  -0.049  -9.891  0.00  0.00     0.087 H 
ATOM     39  C   LIG d   1       8.702   1.918  -9.150  0.00  0.00    -0.043 C 
ATOM     40  H   LIG d   1       6.913   2.377  -8.039  0.00  0.00     0.032 H 
ATOM     41  H   LIG d   1       6.710   2.414  -9.807  0.00  0.00     0.032 H 
ATOM     42  C   LIG d   1       9.350   1.112  -8.021  0.00  0.00    -0.012 C 
ATOM     43  H   LIG d   1       9.055   2.948  -9.111  0.00  0.00     0.027 H 
ATOM     44  H   LIG d   1       8.967   1.477 -10.111  0.00  0.00     0.027 H 
ATOM     45  C   LIG d   1       8.791  -0.313  -8.032  0.00  0.00    -0.032 C 
ATOM     46  H   LIG d   1       9.127   1.583  -7.063  0.00  0.00     0.032 H 
ATOM     47  H   LIG d   1      10.430   1.080  -8.168  0.00  0.00     0.032 H 
ATOM     48  H   LIG d   1       9.250  -0.889  -7.228  0.00  0.00     0.081 H 
ATOM     49  H   LIG d   1       9.015  -0.782  -8.989  0.00  0.00     0.081 H 
ATOM     50  H   LIG d   1       7.129   0.207  -6.973  0.00  0.00     0.204 HD
BRANCH  36  51
ATOM     51  C   LIG d   1       5.183   0.404  -8.779  0.00  0.00     0.087 C 
ATOM     52  H   LIG d   1       4.715   0.131  -9.725  0.00  0.00     0.061 H 
ATOM     53  H   LIG d   1       4.919  -0.331  -8.018  0.00  0.00     0.061 H 
BRANCH  51  54
ATOM     54  O   LIG d   1       4.721   1.695  -8.375  0.00  0.00    -0.390 OA
ATOM     55  H   LIG d   1       4.093   1.676  -7.641  0.00  0.00     0.210 HD
ENDBRANCH  51  54
ENDBRANCH  36  51
ENDBRANCH  32  35
ENDBRANCH  18  32
BRANCH   1  56
ATOM     56  C   LIG d   1       3.838  -2.007  -2.359  0.00  0.00    -0.059 C 
ATOM     57  H   LIG d   1       3.654  -1.532  -1.396  0.00  0.00     0.024 H 
ATOM     58  H   LIG d   1       2.919  -2.012  -2.945  0.00  0.00     0.024 H 
ATOM     59  H   LIG d   1       4.172  -3.033  -2.200  0.00  0.00     0.024 H 
ENDBRANCH   1  56
TORSDOF 5
ENDMDL
MODEL 8
REMARK VINA RESULT:      -5.8      2.584      4.995
REMARK  5 active torsions:
REMARK  status: ('A' for Active; 'I' for Inactive)
REMARK    1  A    between atoms: C_1  and  C_2 
REMARK    2  A    between atoms: C_19  and  C_21 
REMARK    3  A    between atoms: C_21  and  N_22 
REMARK    4  A    between atoms: C_27  and  C_29 
REMARK    5  A    between atoms: C_29  and  O_30 
ROOT
ATOM      1  C   LIG d   1       9.070  -0.509  -6.178  0.00  0.00    -0.022 C 
ATOM      2  C   LIG d   1       9.417   0.329  -7.406  0.00  0.00    -0.047 C 
ATOM      3  C   LIG d   1       9.948   1.693  -6.960  0.00  0.00    -0.049 C 
ATOM      4  C   LIG d   1       8.858   2.446  -6.192  0.00  0.00    -0.032 C 
ATOM      5  C   LIG d   1       8.354   1.567  -5.069  0.00  0.00    -0.073 C 
ATOM      6  C   LIG d   1       8.298   2.008  -3.837  0.00  0.00    -0.099 C 
ATOM      7  C   LIG d   1       7.915   0.157  -5.418  0.00  0.00    -0.014 C 
ATOM      8  H   LIG d   1       7.667  -0.406  -4.518  0.00  0.00     0.035 H 
ATOM      9  C   LIG d   1       6.717   0.250  -6.365  0.00  0.00    -0.039 C 
ATOM     10  C   LIG d   1       6.293  -1.101  -6.880  0.00  0.00     0.015 C 
ATOM     11  H   LIG d   1       5.502  -0.978  -7.619  0.00  0.00     0.035 H 
ATOM     12  C   LIG d   1       7.448  -1.920  -7.489  0.00  0.00     0.107 C 
ATOM     13  H   LIG d   1       7.695  -1.608  -8.504  0.00  0.00     0.074 H 
ATOM     14  C   LIG d   1       8.658  -1.913  -6.595  0.00  0.00    -0.009 C 
ATOM     15  O   LIG d   1       6.894  -3.266  -7.432  0.00  0.00    -0.461 OA
ATOM     16  C   LIG d   1       6.297  -3.407  -6.229  0.00  0.00     0.316 C 
ATOM     17  O   LIG d   1       6.175  -4.444  -5.621  0.00  0.00    -0.250 OA
ATOM     18  C   LIG d   1       5.817  -2.050  -5.765  0.00  0.00     0.102 C 
ATOM     19  H   LIG d   1       6.272  -1.784  -4.812  0.00  0.00     0.047 H 
ATOM     20  H   LIG d   1      10.179  -0.183  -7.992  0.00  0.00     0.027 H 
ATOM     21  H   LIG d   1       8.524   0.469  -8.014  0.00  0.00     0.027 H 
ATOM     22  H   LIG d   1      10.815   1.552  -6.315  0.00  0.00     0.027 H 
ATOM     23  H   LIG d   1      10.241   2.273  -7.837  0.00  0.00     0.027 H 
ATOM     24  H   LIG d   1       9.271   3.366  -5.779  0.00  0.00     0.031 H 
ATOM     25  H   LIG d   1       8.035   2.685  -6.867  0.00  0.00     0.031 H 
ATOM     26  H   LIG d   1       8.614   3.015  -3.609  0.00  0.00     0.053 H 
ATOM     27  H   LIG d   1       7.935   1.365  -3.050  0.00  0.00     0.053 H 
ATOM     28  H   LIG d   1       5.880   0.704  -5.833  0.00  0.00     0.028 H 
ATOM     29  H   LIG d   1       6.982   0.884  -7.211  0.00  0.00     0.028 H 
ATOM     30  H   LIG d   1       9.492  -2.389  -7.109  0.00  0.00     0.031 H 
ATOM     31  H   LIG d   1       8.412  -2.490  -5.704  0.00  0.00     0.031 H 
ENDROOT
BRANCH  18  32
ATOM     32  C   LIG d   1       4.291  -2.038  -5.659  0.00  0.00    -0.018 C 
ATOM     33  H   LIG d   1       3.880  -1.361  -6.409  0.00  0.00     0.082 H 
ATOM     34  H   LIG d   1       3.907  -3.044  -5.829  0.00  0.00     0.082 H 
BRANCH  32  35
ATOM     35  N   LIG d   1       3.896  -1.584  -4.319  0.00  0.00     0.240 N 
ATOM     36  C   LIG d   1       3.807  -0.120  -4.307  0.00  0.00     0.003 C 
ATOM     37  C   LIG d   1       3.318   0.354  -2.937  0.00  0.00    -0.007 C 
ATOM     38  H   LIG d   1       4.791   0.306  -4.509  0.00  0.00     0.087 H 
ATOM     39  C   LIG d   1       4.306  -0.108  -1.861  0.00  0.00    -0.043 C 
ATOM     40  H   LIG d   1       2.335  -0.070  -2.733  0.00  0.00     0.032 H 
ATOM     41  H   LIG d   1       3.254   1.442  -2.929  0.00  0.00     0.032 H 
ATOM     42  C   LIG d   1       4.448  -1.630  -1.932  0.00  0.00    -0.012 C 
ATOM     43  H   LIG d   1       3.934   0.178  -0.877  0.00  0.00     0.027 H 
ATOM     44  H   LIG d   1       5.277   0.357  -2.034  0.00  0.00     0.027 H 
ATOM     45  C   LIG d   1       4.895  -2.031  -3.340  0.00  0.00    -0.032 C 
ATOM     46  H   LIG d   1       3.488  -2.096  -1.709  0.00  0.00     0.032 H 
ATOM     47  H   LIG d   1       5.191  -1.962  -1.207  0.00  0.00     0.032 H 
ATOM     48  H   LIG d   1       4.996  -3.115  -3.394  0.00  0.00     0.081 H 
ATOM     49  H   LIG d   1       5.855  -1.565  -3.562  0.00  0.00     0.081 H 
ATOM     50  H   LIG d   1       2.998  -1.977  -4.083  0.00  0.00     0.204 HD
BRANCH  36  51
ATOM     51  C   LIG d   1       2.823   0.340  -5.384  0.00  0.00     0.087 C 
ATOM     52  H   LIG d   1       3.282   0.229  -6.367  0.00  0.00     0.061 H 
ATOM     53  H   LIG d   1       1.919  -0.268  -5.334  0.00  0.00     0.061 H 
BRANCH  51  54
ATOM     54  O   LIG d   1       2.487   1.712  -5.169  0.00  0.00    -0.390 OA
ATOM     55  H   LIG d   1       1.634   1.845  -4.736  0.00  0.00     0.210 HD
ENDBRANCH  51  54
ENDBRANCH  36  51
ENDBRANCH  32  35
ENDBRANCH  18  32
BRANCH   1  56
ATOM     56  C   LIG d   1      10.293  -0.595  -5.263  0.00  0.00    -0.059 C 
ATOM     57  H   LIG d   1      10.631  -1.629  -5.204  0.00  0.00     0.024 H 
ATOM     58  H   LIG d   1      11.092   0.027  -5.665  0.00  0.00     0.024 H 
ATOM     59  H   LIG d   1      10.026  -0.244  -4.266  0.00  0.00     0.024 H 
ENDBRANCH   1  56
TORSDOF 5
ENDMDL
MODEL 9
REMARK VINA RESULT:      -5.7      2.112      3.071
REMARK  5 active torsions:
REMARK  status: ('A' for Active; 'I' for Inactive)
REMARK    1  A    between atoms: C_1  and  C_2 
REMARK    2  A    between atoms: C_19  and  C_21 
REMARK    3  A    between atoms: C_21  and  N_22 
REMARK    4  A    between atoms: C_27  and  C_29 
REMARK    5  A    between atoms: C_29  and  O_30 
ROOT
ATOM      1  C   LIG d   1       6.785  -1.437  -3.963  0.00  0.00    -0.022 C 
ATOM      2  C   LIG d   1       5.911  -0.603  -3.029  0.00  0.00    -0.047 C 
ATOM      3  C   LIG d   1       4.972  -1.526  -2.248  0.00  0.00    -0.049 C 
ATOM      4  C   LIG d   1       4.034  -2.248  -3.219  0.00  0.00    -0.032 C 
ATOM      5  C   LIG d   1       4.864  -2.941  -4.278  0.00  0.00    -0.073 C 
ATOM      6  C   LIG d   1       4.694  -4.211  -4.547  0.00  0.00    -0.099 C 
ATOM      7  C   LIG d   1       5.899  -2.114  -5.018  0.00  0.00    -0.014 C 
ATOM      8  H   LIG d   1       6.495  -2.742  -5.680  0.00  0.00     0.035 H 
ATOM      9  C   LIG d   1       5.168  -1.018  -5.796  0.00  0.00    -0.039 C 
ATOM     10  C   LIG d   1       6.122  -0.056  -6.455  0.00  0.00     0.015 C 
ATOM     11  H   LIG d   1       5.560   0.756  -6.916  0.00  0.00     0.035 H 
ATOM     12  C   LIG d   1       7.177   0.525  -5.492  0.00  0.00     0.107 C 
ATOM     13  H   LIG d   1       6.783   1.333  -4.876  0.00  0.00     0.074 H 
ATOM     14  C   LIG d   1       7.811  -0.553  -4.656  0.00  0.00    -0.009 C 
ATOM     15  O   LIG d   1       8.193   0.976  -6.433  0.00  0.00    -0.461 OA
ATOM     16  C   LIG d   1       8.337   0.011  -7.367  0.00  0.00     0.316 C 
ATOM     17  O   LIG d   1       9.350  -0.229  -7.980  0.00  0.00    -0.250 OA
ATOM     18  C   LIG d   1       7.024  -0.726  -7.508  0.00  0.00     0.102 C 
ATOM     19  H   LIG d   1       7.150  -1.785  -7.289  0.00  0.00     0.047 H 
ATOM     20  H   LIG d   1       6.544  -0.056  -2.331  0.00  0.00     0.027 H 
ATOM     21  H   LIG d   1       5.322   0.102  -3.615  0.00  0.00     0.027 H 
ATOM     22  H   LIG d   1       5.560  -2.260  -1.697  0.00  0.00     0.027 H 
ATOM     23  H   LIG d   1       4.383  -0.934  -1.547  0.00  0.00     0.027 H 
ATOM     24  H   LIG d   1       3.445  -2.987  -2.677  0.00  0.00     0.031 H 
ATOM     25  H   LIG d   1       3.369  -1.524  -3.692  0.00  0.00     0.031 H 
ATOM     26  H   LIG d   1       3.952  -4.783  -4.010  0.00  0.00     0.053 H 
ATOM     27  H   LIG d   1       5.297  -4.687  -5.307  0.00  0.00     0.053 H 
ATOM     28  H   LIG d   1       4.548  -1.483  -6.563  0.00  0.00     0.028 H 
ATOM     29  H   LIG d   1       4.525  -0.465  -5.111  0.00  0.00     0.028 H 
ATOM     30  H   LIG d   1       8.454  -0.098  -3.904  0.00  0.00     0.031 H 
ATOM     31  H   LIG d   1       8.419  -1.168  -5.319  0.00  0.00     0.031 H 
ENDROOT
BRANCH  18  32
ATOM     32  C   LIG d   1       6.455  -0.526  -8.914  0.00  0.00    -0.018 C 
ATOM     33  H   LIG d   1       7.227  -0.112  -9.563  0.00  0.00     0.082 H 
ATOM     34  H   LIG d   1       6.122  -1.485  -9.311  0.00  0.00     0.082 H 
BRANCH  32  35
ATOM     35  N   LIG d   1       5.316   0.400  -8.854  0.00  0.00     0.240 N 
ATOM     36  C   LIG d   1       4.232  -0.105  -9.704  0.00  0.00     0.003 C 
ATOM     37  C   LIG d   1       3.014   0.812  -9.584  0.00  0.00    -0.007 C 
ATOM     38  H   LIG d   1       4.566  -0.131 -10.743  0.00  0.00     0.087 H 
ATOM     39  C   LIG d   1       3.400   2.225 -10.031  0.00  0.00    -0.043 C 
ATOM     40  H   LIG d   1       2.678   0.839  -8.547  0.00  0.00     0.032 H 
ATOM     41  H   LIG d   1       2.210   0.436 -10.217  0.00  0.00     0.032 H 
ATOM     42  C   LIG d   1       4.580   2.713  -9.188  0.00  0.00    -0.012 C 
ATOM     43  H   LIG d   1       2.551   2.896  -9.894  0.00  0.00     0.027 H 
ATOM     44  H   LIG d   1       3.685   2.209 -11.083  0.00  0.00     0.027 H 
ATOM     45  C   LIG d   1       5.741   1.725  -9.323  0.00  0.00    -0.032 C 
ATOM     46  H   LIG d   1       4.278   2.779  -8.142  0.00  0.00     0.032 H 
ATOM     47  H   LIG d   1       4.897   3.696  -9.537  0.00  0.00     0.032 H 
ATOM     48  H   LIG d   1       6.583   2.069  -8.723  0.00  0.00     0.081 H 
ATOM     49  H   LIG d   1       6.042   1.661 -10.368  0.00  0.00     0.081 H 
ATOM     50  H   LIG d   1       4.990   0.471  -7.903  0.00  0.00     0.204 HD
BRANCH  36  51
ATOM     51  C   LIG d   1       3.851  -1.518  -9.258  0.00  0.00     0.087 C 
ATOM     52  H   LIG d   1       3.550  -2.105 -10.126  0.00  0.00     0.061 H 
ATOM     53  H   LIG d   1       4.708  -1.992  -8.779  0.00  0.00     0.061 H 
BRANCH  51  54
ATOM     54  O   LIG d   1       2.765  -1.449  -8.331  0.00  0.00    -0.390 OA
ATOM     55  H   LIG d   1       1.899  -1.615  -8.726  0.00  0.00     0.210 HD
ENDBRANCH  51  54
ENDBRANCH  36  51
ENDBRANCH  32  35
ENDBRANCH  18  32
BRANCH   1  56
ATOM     56  C   LIG d   1       7.513  -2.510  -3.151  0.00  0.00    -0.059 C 
ATOM     57  H   LIG d   1       6.886  -3.398  -3.080  0.00  0.00     0.024 H 
ATOM     58  H   LIG d   1       8.451  -2.764  -3.642  0.00  0.00     0.024 H 
ATOM     59  H   LIG d   1       7.719  -2.130  -2.150  0.00  0.00     0.024 H 
ENDBRANCH   1  56
TORSDOF 5
ENDMDL
