MODEL 1
REMARK VINA RESULT:      -6.8      0.000      0.000
REMARK  8 active torsions:
REMARK  status: ('A' for Active; 'I' for Inactive)
REMARK    1  A    between atoms: C_1  and  C_2 
REMARK    2  A    between atoms: C_3  and  C_32 
REMARK    3  A    between atoms: C_9  and  C_31 
REMARK    4  A    between atoms: C_10  and  C_16 
REMARK    5  A    between atoms: C_16  and  C_17 
REMARK    6  A    between atoms: C_17  and  C_18 
REMARK       I    between atoms: C_18  and  N_20 
REMARK    7  A    between atoms: N_20  and  C_21 
REMARK    8  A    between atoms: C_28  and  O_30 
ROOT
ATOM      1  C   LIG d   1       9.549  10.720  -5.714  0.00  0.00    -0.002 A 
ATOM      2  C   LIG d   1       9.658  11.423  -6.847  0.00  0.00     0.106 A 
ATOM      3  O   LIG d   1       9.829  10.597  -7.895  0.00  0.00    -0.460 OA
ATOM      4  C   LIG d   1       9.841   9.308  -7.496  0.00  0.00     0.139 A 
ATOM      5  C   LIG d   1       9.666   9.305  -6.097  0.00  0.00     0.024 A 
ATOM      6  C   LIG d   1       9.635   8.109  -5.395  0.00  0.00    -0.040 A 
ATOM      7  C   LIG d   1       9.779   6.907  -6.087  0.00  0.00     0.022 A 
ATOM      8  C   LIG d   1       9.746   5.624  -5.377  0.00  0.00    -0.030 A 
ATOM      9  C   LIG d   1       9.896   4.486  -6.101  0.00  0.00     0.041 A 
ATOM     10  C   LIG d   1      10.069   4.561  -7.500  0.00  0.00     0.341 A 
ATOM     11  O   LIG d   1      10.198   3.533  -8.138  0.00  0.00    -0.245 OA
ATOM     12  O   LIG d   1      10.093   5.738  -8.146  0.00  0.00    -0.422 OA
ATOM     13  C   LIG d   1       9.955   6.909  -7.486  0.00  0.00     0.143 A 
ATOM     14  C   LIG d   1       9.984   8.108  -8.177  0.00  0.00     0.024 A 
ATOM     15  H   LIG d   1       9.501   8.109  -4.323  0.00  0.00     0.063 H 
ATOM     16  H   LIG d   1      10.118   8.110  -9.249  0.00  0.00     0.069 H 
ENDROOT
BRANCH   9  17
ATOM     17  C   LIG d   1       9.874   3.145  -5.415  0.00  0.00    -0.012 C 
ATOM     18  H   LIG d   1      10.007   3.281  -4.342  0.00  0.00     0.032 H 
ATOM     19  H   LIG d   1      10.680   2.524  -5.805  0.00  0.00     0.032 H 
BRANCH  17  20
ATOM     20  C   LIG d   1       8.530   2.460  -5.679  0.00  0.00     0.028 C 
ATOM     21  H   LIG d   1       8.683   1.600  -6.331  0.00  0.00     0.036 H 
ATOM     22  H   LIG d   1       7.852   3.165  -6.160  0.00  0.00     0.036 H 
BRANCH  20  23
ATOM     23  C   LIG d   1       7.936   2.000  -4.374  0.00  0.00     0.214 C 
ATOM     24  O   LIG d   1       8.465   2.305  -3.326  0.00  0.00    -0.276 OA
ATOM     25  N   LIG d   1       6.816   1.251  -4.369  0.00  0.00    -0.308 N 
ATOM     26  H   LIG d   1       6.393   1.007  -5.208  0.00  0.00     0.149 HD
BRANCH  25  27
ATOM     27  C   LIG d   1       6.237   0.804  -3.100  0.00  0.00     0.070 C 
ATOM     28  H   LIG d   1       6.878   1.125  -2.278  0.00  0.00     0.054 H 
ATOM     29  C   LIG d   1       6.129  -0.732  -3.101  0.00  0.00     0.094 C 
ATOM     30  C   LIG d   1       4.976  -1.141  -4.062  0.00  0.00     0.093 C 
ATOM     31  H   LIG d   1       5.911  -1.084  -2.093  0.00  0.00     0.063 H 
ATOM     32  S   LIG d   1       3.725   0.150  -3.652  0.00  0.00    -0.027 S 
ATOM     33  H   LIG d   1       4.603  -2.138  -3.829  0.00  0.00     0.053 H 
ATOM     34  H   LIG d   1       5.287  -1.071  -5.104  0.00  0.00     0.053 H 
ATOM     35  C   LIG d   1       4.832   1.428  -2.928  0.00  0.00     0.087 C 
ATOM     36  O   LIG d   1       2.865  -0.347  -2.637  0.00  0.00    -0.174 OA
ATOM     37  O   LIG d   1       3.166   0.652  -4.858  0.00  0.00    -0.174 OA
ATOM     38  H   LIG d   1       4.754   2.364  -3.481  0.00  0.00     0.052 H 
ATOM     39  H   LIG d   1       4.604   1.583  -1.873  0.00  0.00     0.052 H 
BRANCH  29  40
ATOM     40  O   LIG d   1       7.359  -1.303  -3.555  0.00  0.00    -0.388 OA
ATOM     41  H   LIG d   1       7.269  -1.862  -4.338  0.00  0.00     0.210 HD
ENDBRANCH  29  40
ENDBRANCH  25  27
ENDBRANCH  20  23
ENDBRANCH  17  20
ENDBRANCH   9  17
BRANCH   8  42
ATOM     42  C   LIG d   1       9.554   5.570  -3.884  0.00  0.00    -0.039 C 
ATOM     43  H   LIG d   1       8.524   5.292  -3.660  0.00  0.00     0.028 H 
ATOM     44  H   LIG d   1      10.231   4.830  -3.457  0.00  0.00     0.028 H 
ATOM     45  H   LIG d   1       9.769   6.548  -3.454  0.00  0.00     0.028 H 
ENDBRANCH   8  42
BRANCH   1  46
ATOM     46  C   LIG d   1       9.350  11.266  -4.324  0.00  0.00    -0.036 C 
ATOM     47  H   LIG d   1       9.606  12.326  -4.309  0.00  0.00     0.028 H 
ATOM     48  H   LIG d   1       8.307  11.141  -4.031  0.00  0.00     0.028 H 
ATOM     49  H   LIG d   1       9.991  10.728  -3.626  0.00  0.00     0.028 H 
ENDBRANCH   1  46
BRANCH   2  50
ATOM     50  C   LIG d   1       9.597  12.927  -6.937  0.00  0.00    -0.006 C 
ATOM     51  H   LIG d   1       8.958  13.214  -7.773  0.00  0.00     0.031 H 
ATOM     52  H   LIG d   1       9.188  13.330  -6.012  0.00  0.00     0.031 H 
ATOM     53  H   LIG d   1      10.600  13.322  -7.095  0.00  0.00     0.031 H 
ENDBRANCH   2  50
TORSDOF 8
ENDMDL
MODEL 2
REMARK VINA RESULT:      -6.8      2.811      4.127
REMARK  8 active torsions:
REMARK  status: ('A' for Active; 'I' for Inactive)
REMARK    1  A    between atoms: C_1  and  C_2 
REMARK    2  A    between atoms: C_3  and  C_32 
REMARK    3  A    between atoms: C_9  and  C_31 
REMARK    4  A    between atoms: C_10  and  C_16 
REMARK    5  A    between atoms: C_16  and  C_17 
REMARK    6  A    between atoms: C_17  and  C_18 
REMARK       I    between atoms: C_18  and  N_20 
REMARK    7  A    between atoms: N_20  and  C_21 
REMARK    8  A    between atoms: C_28  and  O_30 
ROOT
ATOM      1  C   LIG d   1      10.751   6.782  -0.245  0.00  0.00    -0.002 A 
ATOM      2  C   LIG d   1      10.775   8.118  -0.321  0.00  0.00     0.106 A 
ATOM      3  O   LIG d   1      10.582   8.516  -1.591  0.00  0.00    -0.460 OA
ATOM      4  C   LIG d   1      10.423   7.457  -2.410  0.00  0.00     0.139 A 
ATOM      5  C   LIG d   1      10.521   6.297  -1.614  0.00  0.00     0.024 A 
ATOM      6  C   LIG d   1      10.396   5.039  -2.185  0.00  0.00    -0.040 A 
ATOM      7  C   LIG d   1      10.174   4.930  -3.557  0.00  0.00     0.022 A 
ATOM      8  C   LIG d   1      10.033   3.617  -4.193  0.00  0.00    -0.030 A 
ATOM      9  C   LIG d   1       9.822   3.571  -5.532  0.00  0.00     0.041 A 
ATOM     10  C   LIG d   1       9.736   4.771  -6.271  0.00  0.00     0.341 A 
ATOM     11  O   LIG d   1       9.542   4.716  -7.471  0.00  0.00    -0.245 OA
ATOM     12  O   LIG d   1       9.860   5.972  -5.684  0.00  0.00    -0.422 OA
ATOM     13  C   LIG d   1      10.077   6.090  -4.355  0.00  0.00     0.143 A 
ATOM     14  C   LIG d   1      10.202   7.341  -3.775  0.00  0.00     0.024 A 
ATOM     15  H   LIG d   1      10.471   4.153  -1.572  0.00  0.00     0.063 H 
ATOM     16  H   LIG d   1      10.127   8.228  -4.386  0.00  0.00     0.069 H 
ENDROOT
BRANCH   9  17
ATOM     17  C   LIG d   1       9.674   2.244  -6.231  0.00  0.00    -0.012 C 
ATOM     18  H   LIG d   1      10.040   1.448  -5.582  0.00  0.00     0.032 H 
ATOM     19  H   LIG d   1      10.253   2.254  -7.155  0.00  0.00     0.032 H 
BRANCH  17  20
ATOM     20  C   LIG d   1       8.199   2.000  -6.555  0.00  0.00     0.028 C 
ATOM     21  H   LIG d   1       8.067   1.957  -7.636  0.00  0.00     0.036 H 
ATOM     22  H   LIG d   1       7.598   2.813  -6.148  0.00  0.00     0.036 H 
BRANCH  20  23
ATOM     23  C   LIG d   1       7.759   0.696  -5.944  0.00  0.00     0.214 C 
ATOM     24  O   LIG d   1       8.469  -0.284  -6.028  0.00  0.00    -0.276 OA
ATOM     25  N   LIG d   1       6.576   0.616  -5.303  0.00  0.00    -0.308 N 
ATOM     26  H   LIG d   1       6.008   1.399  -5.236  0.00  0.00     0.149 HD
BRANCH  25  27
ATOM     27  C   LIG d   1       6.148  -0.652  -4.708  0.00  0.00     0.070 C 
ATOM     28  H   LIG d   1       6.679  -1.474  -5.188  0.00  0.00     0.054 H 
ATOM     29  C   LIG d   1       4.632  -0.827  -4.915  0.00  0.00     0.094 C 
ATOM     30  C   LIG d   1       3.892   0.159  -3.966  0.00  0.00     0.093 C 
ATOM     31  H   LIG d   1       4.347  -1.851  -4.676  0.00  0.00     0.063 H 
ATOM     32  S   LIG d   1       4.922  -0.001  -2.446  0.00  0.00    -0.027 S 
ATOM     33  H   LIG d   1       2.868  -0.163  -3.783  0.00  0.00     0.053 H 
ATOM     34  H   LIG d   1       3.919   1.177  -4.355  0.00  0.00     0.053 H 
ATOM     35  C   LIG d   1       6.473  -0.645  -3.195  0.00  0.00     0.087 C 
ATOM     36  O   LIG d   1       4.360  -1.003  -1.611  0.00  0.00    -0.174 OA
ATOM     37  O   LIG d   1       5.168   1.294  -1.915  0.00  0.00    -0.174 OA
ATOM     38  H   LIG d   1       7.310   0.020  -2.983  0.00  0.00     0.052 H 
ATOM     39  H   LIG d   1       6.683  -1.655  -2.841  0.00  0.00     0.052 H 
BRANCH  29  40
ATOM     40  O   LIG d   1       4.293  -0.535  -6.273  0.00  0.00    -0.388 OA
ATOM     41  H   LIG d   1       5.027  -0.189  -6.797  0.00  0.00     0.210 HD
ENDBRANCH  29  40
ENDBRANCH  25  27
ENDBRANCH  20  23
ENDBRANCH  17  20
ENDBRANCH   9  17
BRANCH   8  42
ATOM     42  C   LIG d   1      10.122   2.351  -3.381  0.00  0.00    -0.039 C 
ATOM     43  H   LIG d   1       9.594   2.487  -2.437  0.00  0.00     0.028 H 
ATOM     44  H   LIG d   1       9.666   1.530  -3.936  0.00  0.00     0.028 H 
ATOM     45  H   LIG d   1      11.167   2.118  -3.184  0.00  0.00     0.028 H 
ENDBRANCH   8  42
BRANCH   1  46
ATOM     46  C   LIG d   1      10.929   5.942   0.993  0.00  0.00    -0.036 C 
ATOM     47  H   LIG d   1      11.054   6.592   1.859  0.00  0.00     0.028 H 
ATOM     48  H   LIG d   1      10.048   5.314   1.134  0.00  0.00     0.028 H 
ATOM     49  H   LIG d   1      11.810   5.311   0.882  0.00  0.00     0.028 H 
ENDBRANCH   1  46
BRANCH   2  50
ATOM     50  C   LIG d   1      10.986   9.044   0.850  0.00  0.00    -0.006 C 
ATOM     51  H   LIG d   1      10.030   9.475   1.147  0.00  0.00     0.031 H 
ATOM     52  H   LIG d   1      11.407   8.485   1.684  0.00  0.00     0.031 H 
ATOM     53  H   LIG d   1      11.671   9.841   0.562  0.00  0.00     0.031 H 
ENDBRANCH   2  50
TORSDOF 8
ENDMDL
MODEL 3
REMARK VINA RESULT:      -6.6      3.006      4.193
REMARK  8 active torsions:
REMARK  status: ('A' for Active; 'I' for Inactive)
REMARK    1  A    between atoms: C_1  and  C_2 
REMARK    2  A    between atoms: C_3  and  C_32 
REMARK    3  A    between atoms: C_9  and  C_31 
REMARK    4  A    between atoms: C_10  and  C_16 
REMARK    5  A    between atoms: C_16  and  C_17 
REMARK    6  A    between atoms: C_17  and  C_18 
REMARK       I    between atoms: C_18  and  N_20 
REMARK    7  A    between atoms: N_20  and  C_21 
REMARK    8  A    between atoms: C_28  and  O_30 
ROOT
ATOM      1  C   LIG d   1       9.931  10.005  -1.448  0.00  0.00    -0.002 A 
ATOM      2  C   LIG d   1      10.231  10.162  -0.153  0.00  0.00     0.106 A 
ATOM      3  O   LIG d   1      10.543   8.976   0.400  0.00  0.00    -0.460 OA
ATOM      4  C   LIG d   1      10.461   7.983  -0.508  0.00  0.00     0.139 A 
ATOM      5  C   LIG d   1      10.069   8.569  -1.730  0.00  0.00     0.024 A 
ATOM      6  C   LIG d   1       9.900   7.787  -2.863  0.00  0.00    -0.040 A 
ATOM      7  C   LIG d   1      10.121   6.412  -2.784  0.00  0.00     0.022 A 
ATOM      8  C   LIG d   1       9.957   5.556  -3.963  0.00  0.00    -0.030 A 
ATOM      9  C   LIG d   1      10.181   4.225  -3.826  0.00  0.00     0.041 A 
ATOM     10  C   LIG d   1      10.570   3.704  -2.573  0.00  0.00     0.341 A 
ATOM     11  O   LIG d   1      10.772   2.509  -2.465  0.00  0.00    -0.245 OA
ATOM     12  O   LIG d   1      10.725   4.492  -1.498  0.00  0.00    -0.422 OA
ATOM     13  C   LIG d   1      10.513   5.825  -1.562  0.00  0.00     0.143 A 
ATOM     14  C   LIG d   1      10.679   6.615  -0.437  0.00  0.00     0.024 A 
ATOM     15  H   LIG d   1       9.600   8.238  -3.797  0.00  0.00     0.063 H 
ATOM     16  H   LIG d   1      10.979   6.165   0.498  0.00  0.00     0.069 H 
ENDROOT
BRANCH   9  17
ATOM     17  C   LIG d   1      10.021   3.305  -5.008  0.00  0.00    -0.012 C 
ATOM     18  H   LIG d   1      10.544   2.369  -4.816  0.00  0.00     0.032 H 
ATOM     19  H   LIG d   1      10.440   3.779  -5.896  0.00  0.00     0.032 H 
BRANCH  17  20
ATOM     20  C   LIG d   1       8.534   3.021  -5.236  0.00  0.00     0.028 C 
ATOM     21  H   LIG d   1       8.317   3.056  -6.303  0.00  0.00     0.036 H 
ATOM     22  H   LIG d   1       7.938   3.773  -4.719  0.00  0.00     0.036 H 
BRANCH  20  23
ATOM     23  C   LIG d   1       8.196   1.655  -4.698  0.00  0.00     0.214 C 
ATOM     24  O   LIG d   1       9.073   0.834  -4.535  0.00  0.00    -0.276 OA
ATOM     25  N   LIG d   1       6.919   1.346  -4.398  0.00  0.00    -0.308 N 
ATOM     26  H   LIG d   1       6.218   2.003  -4.528  0.00  0.00     0.149 HD
BRANCH  25  27
ATOM     27  C   LIG d   1       6.590   0.018  -3.874  0.00  0.00     0.070 C 
ATOM     28  H   LIG d   1       7.480  -0.424  -3.426  0.00  0.00     0.054 H 
ATOM     29  C   LIG d   1       6.094  -0.876  -5.027  0.00  0.00     0.094 C 
ATOM     30  C   LIG d   1       4.669  -0.404  -5.433  0.00  0.00     0.093 C 
ATOM     31  H   LIG d   1       6.058  -1.913  -4.694  0.00  0.00     0.063 H 
ATOM     32  S   LIG d   1       3.940  -0.072  -3.773  0.00  0.00    -0.027 S 
ATOM     33  H   LIG d   1       4.125  -1.194  -5.951  0.00  0.00     0.053 H 
ATOM     34  H   LIG d   1       4.709   0.504  -6.034  0.00  0.00     0.053 H 
ATOM     35  C   LIG d   1       5.484   0.149  -2.800  0.00  0.00     0.087 C 
ATOM     36  O   LIG d   1       3.270  -1.240  -3.320  0.00  0.00    -0.174 OA
ATOM     37  O   LIG d   1       3.238   1.164  -3.814  0.00  0.00    -0.174 OA
ATOM     38  H   LIG d   1       5.511   1.135  -2.336  0.00  0.00     0.052 H 
ATOM     39  H   LIG d   1       5.583  -0.634  -2.047  0.00  0.00     0.052 H 
BRANCH  29  40
ATOM     40  O   LIG d   1       6.978  -0.758  -6.144  0.00  0.00    -0.388 OA
ATOM     41  H   LIG d   1       7.192   0.154  -6.382  0.00  0.00     0.210 HD
ENDBRANCH  29  40
ENDBRANCH  25  27
ENDBRANCH  20  23
ENDBRANCH  17  20
ENDBRANCH   9  17
BRANCH   8  42
ATOM     42  C   LIG d   1       9.547   6.138  -5.290  0.00  0.00    -0.039 C 
ATOM     43  H   LIG d   1       8.541   5.800  -5.540  0.00  0.00     0.028 H 
ATOM     44  H   LIG d   1       9.558   7.227  -5.229  0.00  0.00     0.028 H 
ATOM     45  H   LIG d   1      10.244   5.812  -6.062  0.00  0.00     0.028 H 
ENDBRANCH   8  42
BRANCH   1  46
ATOM     46  C   LIG d   1       9.528  11.083  -2.421  0.00  0.00    -0.036 C 
ATOM     47  H   LIG d   1       9.401  12.025  -1.888  0.00  0.00     0.028 H 
ATOM     48  H   LIG d   1      10.304  11.195  -3.178  0.00  0.00     0.028 H 
ATOM     49  H   LIG d   1       8.589  10.807  -2.901  0.00  0.00     0.028 H 
ENDBRANCH   1  46
BRANCH   2  50
ATOM     50  C   LIG d   1      10.222  11.479   0.580  0.00  0.00    -0.006 C 
ATOM     51  H   LIG d   1       9.846  11.327   1.593  0.00  0.00     0.031 H 
ATOM     52  H   LIG d   1      11.235  11.877   0.626  0.00  0.00     0.031 H 
ATOM     53  H   LIG d   1       9.577  12.182   0.055  0.00  0.00     0.031 H 
ENDBRANCH   2  50
TORSDOF 8
ENDMDL
MODEL 4
REMARK VINA RESULT:      -6.5      8.558     11.293
REMARK  8 active torsions:
REMARK  status: ('A' for Active; 'I' for Inactive)
REMARK    1  A    between atoms: C_1  and  C_2 
REMARK    2  A    between atoms: C_3  and  C_32 
REMARK    3  A    between atoms: C_9  and  C_31 
REMARK    4  A    between atoms: C_10  and  C_16 
REMARK    5  A    between atoms: C_16  and  C_17 
REMARK    6  A    between atoms: C_17  and  C_18 
REMARK       I    between atoms: C_18  and  N_20 
REMARK    7  A    between atoms: N_20  and  C_21 
REMARK    8  A    between atoms: C_28  and  O_30 
ROOT
ATOM      1  C   LIG d   1       3.878   0.030  -3.858  0.00  0.00    -0.002 A 
ATOM      2  C   LIG d   1       4.416  -0.935  -3.103  0.00  0.00     0.106 A 
ATOM      3  O   LIG d   1       4.709  -2.009  -3.859  0.00  0.00    -0.460 OA
ATOM      4  C   LIG d   1       4.375  -1.798  -5.148  0.00  0.00     0.139 A 
ATOM      5  C   LIG d   1       3.830  -0.500  -5.229  0.00  0.00     0.024 A 
ATOM      6  C   LIG d   1       3.390   0.004  -6.444  0.00  0.00    -0.040 A 
ATOM      7  C   LIG d   1       3.493  -0.786  -7.589  0.00  0.00     0.022 A 
ATOM      8  C   LIG d   1       3.043  -0.283  -8.890  0.00  0.00    -0.030 A 
ATOM      9  C   LIG d   1       3.162  -1.097  -9.969  0.00  0.00     0.041 A 
ATOM     10  C   LIG d   1       3.717  -2.386  -9.818  0.00  0.00     0.341 A 
ATOM     11  O   LIG d   1       3.822  -3.104 -10.794  0.00  0.00    -0.245 OA
ATOM     12  O   LIG d   1       4.132  -2.840  -8.625  0.00  0.00    -0.422 OA
ATOM     13  C   LIG d   1       4.038  -2.084  -7.509  0.00  0.00     0.143 A 
ATOM     14  C   LIG d   1       4.473  -2.578  -6.291  0.00  0.00     0.024 A 
ATOM     15  H   LIG d   1       2.973   0.999  -6.503  0.00  0.00     0.063 H 
ATOM     16  H   LIG d   1       4.891  -3.572  -6.231  0.00  0.00     0.069 H 
ENDROOT
BRANCH   9  17
ATOM     17  C   LIG d   1       2.710  -0.625 -11.327  0.00  0.00    -0.012 C 
ATOM     18  H   LIG d   1       3.196  -1.219 -12.100  0.00  0.00     0.032 H 
ATOM     19  H   LIG d   1       2.977   0.424 -11.454  0.00  0.00     0.032 H 
BRANCH  17  20
ATOM     20  C   LIG d   1       1.192  -0.782 -11.442  0.00  0.00     0.028 C 
ATOM     21  H   LIG d   1       0.782   0.052 -12.010  0.00  0.00     0.036 H 
ATOM     22  H   LIG d   1       0.751  -0.793 -10.445  0.00  0.00     0.036 H 
BRANCH  20  23
ATOM     23  C   LIG d   1       0.873  -2.075 -12.146  0.00  0.00     0.214 C 
ATOM     24  O   LIG d   1       0.921  -2.134 -13.356  0.00  0.00    -0.276 OA
ATOM     25  N   LIG d   1       0.534  -3.166 -11.432  0.00  0.00    -0.308 N 
ATOM     26  H   LIG d   1       0.495  -3.119 -10.464  0.00  0.00     0.149 HD
BRANCH  25  27
ATOM     27  C   LIG d   1       0.224  -4.424 -12.116  0.00  0.00     0.070 C 
ATOM     28  H   LIG d   1       0.043  -4.225 -13.173  0.00  0.00     0.054 H 
ATOM     29  C   LIG d   1      -1.035  -5.050 -11.487  0.00  0.00     0.094 C 
ATOM     30  C   LIG d   1      -0.653  -5.612 -10.087  0.00  0.00     0.093 C 
ATOM     31  H   LIG d   1      -1.397  -5.859 -12.122  0.00  0.00     0.063 H 
ATOM     32  S   LIG d   1       0.996  -6.347 -10.459  0.00  0.00    -0.027 S 
ATOM     33  H   LIG d   1      -1.360  -6.375  -9.762  0.00  0.00     0.053 H 
ATOM     34  H   LIG d   1      -0.572  -4.814  -9.350  0.00  0.00     0.053 H 
ATOM     35  C   LIG d   1       1.420  -5.395 -11.974  0.00  0.00     0.087 C 
ATOM     36  O   LIG d   1       0.825  -7.714 -10.805  0.00  0.00    -0.174 OA
ATOM     37  O   LIG d   1       1.903  -5.996  -9.423  0.00  0.00    -0.174 OA
ATOM     38  H   LIG d   1       2.350  -4.844 -11.836  0.00  0.00     0.052 H 
ATOM     39  H   LIG d   1       1.487  -6.054 -12.839  0.00  0.00     0.052 H 
BRANCH  29  40
ATOM     40  O   LIG d   1      -2.052  -4.055 -11.346  0.00  0.00    -0.388 OA
ATOM     41  H   LIG d   1      -2.186  -3.515 -12.135  0.00  0.00     0.210 HD
ENDBRANCH  29  40
ENDBRANCH  25  27
ENDBRANCH  20  23
ENDBRANCH  17  20
ENDBRANCH   9  17
BRANCH   8  42
ATOM     42  C   LIG d   1       2.460   1.100  -9.026  0.00  0.00    -0.039 C 
ATOM     43  H   LIG d   1       2.232   1.296 -10.074  0.00  0.00     0.028 H 
ATOM     44  H   LIG d   1       1.546   1.169  -8.437  0.00  0.00     0.028 H 
ATOM     45  H   LIG d   1       3.180   1.835  -8.667  0.00  0.00     0.028 H 
ENDBRANCH   8  42
BRANCH   1  46
ATOM     46  C   LIG d   1       3.412   1.387  -3.397  0.00  0.00    -0.036 C 
ATOM     47  H   LIG d   1       4.114   1.783  -2.663  0.00  0.00     0.028 H 
ATOM     48  H   LIG d   1       3.359   2.062  -4.251  0.00  0.00     0.028 H 
ATOM     49  H   LIG d   1       2.425   1.297  -2.943  0.00  0.00     0.028 H 
ENDBRANCH   1  46
BRANCH   2  50
ATOM     50  C   LIG d   1       4.660  -0.833  -1.619  0.00  0.00    -0.006 C 
ATOM     51  H   LIG d   1       3.891  -0.206  -1.168  0.00  0.00     0.031 H 
ATOM     52  H   LIG d   1       4.625  -1.827  -1.176  0.00  0.00     0.031 H 
ATOM     53  H   LIG d   1       5.639  -0.390  -1.443  0.00  0.00     0.031 H 
ENDBRANCH   2  50
TORSDOF 8
ENDMDL
MODEL 5
REMARK VINA RESULT:      -6.5      4.294      9.020
REMARK  8 active torsions:
REMARK  status: ('A' for Active; 'I' for Inactive)
REMARK    1  A    between atoms: C_1  and  C_2 
REMARK    2  A    between atoms: C_3  and  C_32 
REMARK    3  A    between atoms: C_9  and  C_31 
REMARK    4  A    between atoms: C_10  and  C_16 
REMARK    5  A    between atoms: C_16  and  C_17 
REMARK    6  A    between atoms: C_17  and  C_18 
REMARK       I    between atoms: C_18  and  N_20 
REMARK    7  A    between atoms: N_20  and  C_21 
REMARK    8  A    between atoms: C_28  and  O_30 
ROOT
ATOM      1  C   LIG d   1       5.385  -0.005  -2.709  0.00  0.00    -0.002 A 
ATOM      2  C   LIG d   1       5.120  -1.278  -3.027  0.00  0.00     0.106 A 
ATOM      3  O   LIG d   1       6.079  -1.766  -3.835  0.00  0.00    -0.460 OA
ATOM      4  C   LIG d   1       7.020  -0.833  -4.085  0.00  0.00     0.139 A 
ATOM      5  C   LIG d   1       6.641   0.335  -3.392  0.00  0.00     0.024 A 
ATOM      6  C   LIG d   1       7.425   1.478  -3.460  0.00  0.00    -0.040 A 
ATOM      7  C   LIG d   1       8.593   1.462  -4.221  0.00  0.00     0.022 A 
ATOM      8  C   LIG d   1       9.447   2.650  -4.311  0.00  0.00    -0.030 A 
ATOM      9  C   LIG d   1      10.569   2.578  -5.070  0.00  0.00     0.041 A 
ATOM     10  C   LIG d   1      10.888   1.377  -5.739  0.00  0.00     0.341 A 
ATOM     11  O   LIG d   1      11.900   1.324  -6.414  0.00  0.00    -0.245 OA
ATOM     12  O   LIG d   1      10.106   0.290  -5.650  0.00  0.00    -0.422 OA
ATOM     13  C   LIG d   1       8.971   0.294  -4.915  0.00  0.00     0.143 A 
ATOM     14  C   LIG d   1       8.183  -0.842  -4.841  0.00  0.00     0.024 A 
ATOM     15  H   LIG d   1       7.133   2.371  -2.928  0.00  0.00     0.063 H 
ATOM     16  H   LIG d   1       8.474  -1.736  -5.372  0.00  0.00     0.069 H 
ENDROOT
BRANCH   9  17
ATOM     17  C   LIG d   1      11.476   3.775  -5.196  0.00  0.00    -0.012 C 
ATOM     18  H   LIG d   1      10.882   4.688  -5.154  0.00  0.00     0.032 H 
ATOM     19  H   LIG d   1      12.006   3.730  -6.147  0.00  0.00     0.032 H 
BRANCH  17  20
ATOM     20  C   LIG d   1      12.487   3.771  -4.047  0.00  0.00     0.028 C 
ATOM     21  H   LIG d   1      13.421   3.326  -4.388  0.00  0.00     0.036 H 
ATOM     22  H   LIG d   1      12.090   3.190  -3.215  0.00  0.00     0.036 H 
BRANCH  20  23
ATOM     23  C   LIG d   1      12.740   5.186  -3.596  0.00  0.00     0.214 C 
ATOM     24  O   LIG d   1      13.520   5.886  -4.205  0.00  0.00    -0.276 OA
ATOM     25  N   LIG d   1      12.100   5.673  -2.515  0.00  0.00    -0.308 N 
ATOM     26  H   LIG d   1      11.476   5.113  -2.028  0.00  0.00     0.149 HD
BRANCH  25  27
ATOM     27  C   LIG d   1      12.346   7.049  -2.076  0.00  0.00     0.070 C 
ATOM     28  H   LIG d   1      13.254   7.423  -2.550  0.00  0.00     0.054 H 
ATOM     29  C   LIG d   1      12.516   7.074  -0.545  0.00  0.00     0.094 C 
ATOM     30  C   LIG d   1      11.121   6.846   0.105  0.00  0.00     0.093 C 
ATOM     31  H   LIG d   1      12.912   8.041  -0.237  0.00  0.00     0.063 H 
ATOM     32  S   LIG d   1      10.064   7.873  -1.002  0.00  0.00    -0.027 S 
ATOM     33  H   LIG d   1      11.097   7.219   1.128  0.00  0.00     0.053 H 
ATOM     34  H   LIG d   1      10.832   5.796   0.063  0.00  0.00     0.053 H 
ATOM     35  C   LIG d   1      11.149   7.940  -2.484  0.00  0.00     0.087 C 
ATOM     36  O   LIG d   1       9.950   9.178  -0.452  0.00  0.00    -0.174 OA
ATOM     37  O   LIG d   1       8.885   7.145  -1.323  0.00  0.00    -0.174 OA
ATOM     38  H   LIG d   1      10.639   7.528  -3.356  0.00  0.00     0.052 H 
ATOM     39  H   LIG d   1      11.476   8.962  -2.678  0.00  0.00     0.052 H 
BRANCH  29  40
ATOM     40  O   LIG d   1      13.411   6.034  -0.142  0.00  0.00    -0.388 OA
ATOM     41  H   LIG d   1      14.111   6.328   0.456  0.00  0.00     0.210 HD
ENDBRANCH  29  40
ENDBRANCH  25  27
ENDBRANCH  20  23
ENDBRANCH  17  20
ENDBRANCH   9  17
BRANCH   8  42
ATOM     42  C   LIG d   1       9.087   3.919  -3.582  0.00  0.00    -0.039 C 
ATOM     43  H   LIG d   1       9.708   4.013  -2.690  0.00  0.00     0.028 H 
ATOM     44  H   LIG d   1       9.258   4.774  -4.235  0.00  0.00     0.028 H 
ATOM     45  H   LIG d   1       8.037   3.887  -3.293  0.00  0.00     0.028 H 
ENDBRANCH   8  42
BRANCH   1  46
ATOM     46  C   LIG d   1       4.560   0.899  -1.830  0.00  0.00    -0.036 C 
ATOM     47  H   LIG d   1       4.444   1.869  -2.312  0.00  0.00     0.028 H 
ATOM     48  H   LIG d   1       3.578   0.452  -1.670  0.00  0.00     0.028 H 
ATOM     49  H   LIG d   1       5.060   1.028  -0.870  0.00  0.00     0.028 H 
ENDBRANCH   1  46
BRANCH   2  50
ATOM     50  C   LIG d   1       3.919  -2.054  -2.548  0.00  0.00    -0.006 C 
ATOM     51  H   LIG d   1       4.143  -3.121  -2.576  0.00  0.00     0.031 H 
ATOM     52  H   LIG d   1       3.679  -1.759  -1.527  0.00  0.00     0.031 H 
ATOM     53  H   LIG d   1       3.070  -1.845  -3.197  0.00  0.00     0.031 H 
ENDBRANCH   2  50
TORSDOF 8
ENDMDL
MODEL 6
REMARK VINA RESULT:      -6.4      8.555     11.801
REMARK  8 active torsions:
REMARK  status: ('A' for Active; 'I' for Inactive)
REMARK    1  A    between atoms: C_1  and  C_2 
REMARK    2  A    between atoms: C_3  and  C_32 
REMARK    3  A    between atoms: C_9  and  C_31 
REMARK    4  A    between atoms: C_10  and  C_16 
REMARK    5  A    between atoms: C_16  and  C_17 
REMARK    6  A    between atoms: C_17  and  C_18 
REMARK       I    between atoms: C_18  and  N_20 
REMARK    7  A    between atoms: N_20  and  C_21 
REMARK    8  A    between atoms: C_28  and  O_30 
ROOT
ATOM      1  C   LIG d   1       4.059  -0.909  -3.146  0.00  0.00    -0.002 A 
ATOM      2  C   LIG d   1       4.870  -0.072  -2.488  0.00  0.00     0.106 A 
ATOM      3  O   LIG d   1       6.149  -0.471  -2.610  0.00  0.00    -0.460 OA
ATOM      4  C   LIG d   1       6.237  -1.592  -3.355  0.00  0.00     0.139 A 
ATOM      5  C   LIG d   1       4.925  -1.939  -3.739  0.00  0.00     0.024 A 
ATOM      6  C   LIG d   1       4.695  -3.061  -4.521  0.00  0.00    -0.040 A 
ATOM      7  C   LIG d   1       5.774  -3.845  -4.925  0.00  0.00     0.022 A 
ATOM      8  C   LIG d   1       5.568  -5.035  -5.757  0.00  0.00    -0.030 A 
ATOM      9  C   LIG d   1       6.654  -5.764  -6.116  0.00  0.00     0.041 A 
ATOM     10  C   LIG d   1       7.940  -5.360  -5.696  0.00  0.00     0.341 A 
ATOM     11  O   LIG d   1       8.907  -6.020  -6.030  0.00  0.00    -0.245 OA
ATOM     12  O   LIG d   1       8.125  -4.267  -4.940  0.00  0.00    -0.422 OA
ATOM     13  C   LIG d   1       7.087  -3.499  -4.541  0.00  0.00     0.143 A 
ATOM     14  C   LIG d   1       7.306  -2.377  -3.761  0.00  0.00     0.024 A 
ATOM     15  H   LIG d   1       3.689  -3.324  -4.814  0.00  0.00     0.063 H 
ATOM     16  H   LIG d   1       8.311  -2.112  -3.467  0.00  0.00     0.069 H 
ENDROOT
BRANCH   9  17
ATOM     17  C   LIG d   1       6.491  -6.997  -6.967  0.00  0.00    -0.012 C 
ATOM     18  H   LIG d   1       7.462  -7.303  -7.355  0.00  0.00     0.032 H 
ATOM     19  H   LIG d   1       5.820  -6.779  -7.798  0.00  0.00     0.032 H 
BRANCH  17  20
ATOM     20  C   LIG d   1       5.901  -8.127  -6.119  0.00  0.00     0.028 C 
ATOM     21  H   LIG d   1       5.192  -8.697  -6.718  0.00  0.00     0.036 H 
ATOM     22  H   LIG d   1       5.389  -7.703  -5.255  0.00  0.00     0.036 H 
BRANCH  20  23
ATOM     23  C   LIG d   1       7.009  -9.034  -5.651  0.00  0.00     0.214 C 
ATOM     24  O   LIG d   1       8.045  -9.100  -6.279  0.00  0.00    -0.276 OA
ATOM     25  N   LIG d   1       6.850  -9.772  -4.535  0.00  0.00    -0.308 N 
ATOM     26  H   LIG d   1       6.022  -9.719  -4.033  0.00  0.00     0.149 HD
BRANCH  25  27
ATOM     27  C   LIG d   1       7.927 -10.654  -4.080  0.00  0.00     0.070 C 
ATOM     28  H   LIG d   1       8.638 -10.806  -4.892  0.00  0.00     0.054 H 
ATOM     29  C   LIG d   1       7.331 -12.010  -3.657  0.00  0.00     0.094 C 
ATOM     30  C   LIG d   1       6.579 -11.814  -2.309  0.00  0.00     0.093 C 
ATOM     31  H   LIG d   1       8.133 -12.737  -3.528  0.00  0.00     0.063 H 
ATOM     32  S   LIG d   1       7.748 -10.691  -1.433  0.00  0.00    -0.027 S 
ATOM     33  H   LIG d   1       6.468 -12.759  -1.778  0.00  0.00     0.053 H 
ATOM     34  H   LIG d   1       5.612 -11.335  -2.463  0.00  0.00     0.053 H 
ATOM     35  C   LIG d   1       8.652 -10.003  -2.878  0.00  0.00     0.087 C 
ATOM     36  O   LIG d   1       8.644 -11.472  -0.655  0.00  0.00    -0.174 OA
ATOM     37  O   LIG d   1       7.009  -9.649  -0.809  0.00  0.00    -0.174 OA
ATOM     38  H   LIG d   1       8.557  -8.917  -2.912  0.00  0.00     0.052 H 
ATOM     39  H   LIG d   1       9.701 -10.297  -2.854  0.00  0.00     0.052 H 
BRANCH  29  40
ATOM     40  O   LIG d   1       6.418 -12.470  -4.656  0.00  0.00    -0.388 OA
ATOM     41  H   LIG d   1       5.924 -11.764  -5.093  0.00  0.00     0.210 HD
ENDBRANCH  29  40
ENDBRANCH  25  27
ENDBRANCH  20  23
ENDBRANCH  17  20
ENDBRANCH   9  17
BRANCH   8  42
ATOM     42  C   LIG d   1       4.185  -5.441  -6.197  0.00  0.00    -0.039 C 
ATOM     43  H   LIG d   1       3.529  -4.570  -6.179  0.00  0.00     0.028 H 
ATOM     44  H   LIG d   1       4.229  -5.840  -7.211  0.00  0.00     0.028 H 
ATOM     45  H   LIG d   1       3.797  -6.204  -5.524  0.00  0.00     0.028 H 
ENDBRANCH   8  42
BRANCH   1  46
ATOM     46  C   LIG d   1       2.559  -0.817  -3.255  0.00  0.00    -0.036 C 
ATOM     47  H   LIG d   1       2.100  -1.339  -2.415  0.00  0.00     0.028 H 
ATOM     48  H   LIG d   1       2.258   0.231  -3.240  0.00  0.00     0.028 H 
ATOM     49  H   LIG d   1       2.233  -1.275  -4.189  0.00  0.00     0.028 H 
ENDBRANCH   1  46
BRANCH   2  50
ATOM     50  C   LIG d   1       4.417   1.144  -1.722  0.00  0.00    -0.006 C 
ATOM     51  H   LIG d   1       4.729   2.044  -2.253  0.00  0.00     0.031 H 
ATOM     52  H   LIG d   1       3.331   1.133  -1.633  0.00  0.00     0.031 H 
ATOM     53  H   LIG d   1       4.864   1.135  -0.729  0.00  0.00     0.031 H 
ENDBRANCH   2  50
TORSDOF 8
ENDMDL
MODEL 7
REMARK VINA RESULT:      -6.4      8.548     11.501
REMARK  8 active torsions:
REMARK  status: ('A' for Active; 'I' for Inactive)
REMARK    1  A    between atoms: C_1  and  C_2 
REMARK    2  A    between atoms: C_3  and  C_32 
REMARK    3  A    between atoms: C_9  and  C_31 
REMARK    4  A    between atoms: C_10  and  C_16 
REMARK    5  A    between atoms: C_16  and  C_17 
REMARK    6  A    between atoms: C_17  and  C_18 
REMARK       I    between atoms: C_18  and  N_20 
REMARK    7  A    between atoms: N_20  and  C_21 
REMARK    8  A    between atoms: C_28  and  O_30 
ROOT
ATOM      1  C   LIG d   1       4.966  -0.648  -3.666  0.00  0.00    -0.002 A 
ATOM      2  C   LIG d   1       4.413   0.419  -3.077  0.00  0.00     0.106 A 
ATOM      3  O   LIG d   1       3.514   0.992  -3.898  0.00  0.00    -0.460 OA
ATOM      4  C   LIG d   1       3.436   0.327  -5.068  0.00  0.00     0.139 A 
ATOM      5  C   LIG d   1       4.346  -0.748  -4.996  0.00  0.00     0.024 A 
ATOM      6  C   LIG d   1       4.489  -1.621  -6.064  0.00  0.00    -0.040 A 
ATOM      7  C   LIG d   1       3.724  -1.426  -7.214  0.00  0.00     0.022 A 
ATOM      8  C   LIG d   1       3.846  -2.332  -8.359  0.00  0.00    -0.030 A 
ATOM      9  C   LIG d   1       3.080  -2.091  -9.453  0.00  0.00     0.041 A 
ATOM     10  C   LIG d   1       2.190  -0.996  -9.459  0.00  0.00     0.341 A 
ATOM     11  O   LIG d   1       1.505  -0.794 -10.444  0.00  0.00    -0.245 OA
ATOM     12  O   LIG d   1       2.077  -0.172  -8.405  0.00  0.00    -0.422 OA
ATOM     13  C   LIG d   1       2.814  -0.351  -7.286  0.00  0.00     0.143 A 
ATOM     14  C   LIG d   1       2.678   0.514  -6.214  0.00  0.00     0.024 A 
ATOM     15  H   LIG d   1       5.187  -2.444  -6.006  0.00  0.00     0.063 H 
ATOM     16  H   LIG d   1       1.981   1.338  -6.271  0.00  0.00     0.069 H 
ENDROOT
BRANCH   9  17
ATOM     17  C   LIG d   1       3.174  -2.993 -10.656  0.00  0.00    -0.012 C 
ATOM     18  H   LIG d   1       4.218  -3.109 -10.944  0.00  0.00     0.032 H 
ATOM     19  H   LIG d   1       2.616  -2.554 -11.484  0.00  0.00     0.032 H 
BRANCH  17  20
ATOM     20  C   LIG d   1       2.584  -4.364 -10.314  0.00  0.00     0.028 C 
ATOM     21  H   LIG d   1       2.718  -4.562  -9.252  0.00  0.00     0.036 H 
ATOM     22  H   LIG d   1       3.094  -5.133 -10.894  0.00  0.00     0.036 H 
BRANCH  20  23
ATOM     23  C   LIG d   1       1.115  -4.375 -10.647  0.00  0.00     0.214 C 
ATOM     24  O   LIG d   1       0.653  -3.527 -11.381  0.00  0.00    -0.276 OA
ATOM     25  N   LIG d   1       0.313  -5.326 -10.128  0.00  0.00    -0.308 N 
ATOM     26  H   LIG d   1       0.683  -6.004  -9.541  0.00  0.00     0.149 HD
BRANCH  25  27
ATOM     27  C   LIG d   1      -1.115  -5.337 -10.452  0.00  0.00     0.070 C 
ATOM     28  H   LIG d   1      -1.524  -4.336 -10.315  0.00  0.00     0.054 H 
ATOM     29  C   LIG d   1      -1.842  -6.323  -9.517  0.00  0.00     0.094 C 
ATOM     30  C   LIG d   1      -1.473  -7.770  -9.952  0.00  0.00     0.093 C 
ATOM     31  H   LIG d   1      -2.919  -6.177  -9.598  0.00  0.00     0.063 H 
ATOM     32  S   LIG d   1      -1.528  -7.594 -11.786  0.00  0.00    -0.027 S 
ATOM     33  H   LIG d   1      -2.216  -8.488  -9.604  0.00  0.00     0.053 H 
ATOM     34  H   LIG d   1      -0.475  -8.043  -9.612  0.00  0.00     0.053 H 
ATOM     35  C   LIG d   1      -1.306  -5.774 -11.923  0.00  0.00     0.087 C 
ATOM     36  O   LIG d   1      -2.827  -7.938 -12.245  0.00  0.00    -0.174 OA
ATOM     37  O   LIG d   1      -0.393  -8.242 -12.347  0.00  0.00    -0.174 OA
ATOM     38  H   LIG d   1      -0.422  -5.535 -12.515  0.00  0.00     0.052 H 
ATOM     39  H   LIG d   1      -2.194  -5.307 -12.353  0.00  0.00     0.052 H 
BRANCH  29  40
ATOM     40  O   LIG d   1      -1.426  -6.105  -8.167  0.00  0.00    -0.388 OA
ATOM     41  H   LIG d   1      -1.275  -5.177  -7.946  0.00  0.00     0.210 HD
ENDBRANCH  29  40
ENDBRANCH  25  27
ENDBRANCH  20  23
ENDBRANCH  17  20
ENDBRANCH   9  17
BRANCH   8  42
ATOM     42  C   LIG d   1       4.799  -3.499  -8.325  0.00  0.00    -0.039 C 
ATOM     43  H   LIG d   1       5.031  -3.748  -7.290  0.00  0.00     0.028 H 
ATOM     44  H   LIG d   1       4.338  -4.359  -8.811  0.00  0.00     0.028 H 
ATOM     45  H   LIG d   1       5.717  -3.235  -8.850  0.00  0.00     0.028 H 
ENDBRANCH   8  42
BRANCH   1  46
ATOM     46  C   LIG d   1       6.014  -1.561  -3.086  0.00  0.00    -0.036 C 
ATOM     47  H   LIG d   1       6.431  -2.185  -3.876  0.00  0.00     0.028 H 
ATOM     48  H   LIG d   1       6.808  -0.963  -2.638  0.00  0.00     0.028 H 
ATOM     49  H   LIG d   1       5.562  -2.195  -2.323  0.00  0.00     0.028 H 
ENDBRANCH   1  46
BRANCH   2  50
ATOM     50  C   LIG d   1       4.748   0.908  -1.691  0.00  0.00    -0.006 C 
ATOM     51  H   LIG d   1       4.248   0.279  -0.954  0.00  0.00     0.031 H 
ATOM     52  H   LIG d   1       5.826   0.859  -1.538  0.00  0.00     0.031 H 
ATOM     53  H   LIG d   1       4.411   1.938  -1.578  0.00  0.00     0.031 H 
ENDBRANCH   2  50
TORSDOF 8
ENDMDL
MODEL 8
REMARK VINA RESULT:      -6.4      2.413      3.783
REMARK  8 active torsions:
REMARK  status: ('A' for Active; 'I' for Inactive)
REMARK    1  A    between atoms: C_1  and  C_2 
REMARK    2  A    between atoms: C_3  and  C_32 
REMARK    3  A    between atoms: C_9  and  C_31 
REMARK    4  A    between atoms: C_10  and  C_16 
REMARK    5  A    between atoms: C_16  and  C_17 
REMARK    6  A    between atoms: C_17  and  C_18 
REMARK       I    between atoms: C_18  and  N_20 
REMARK    7  A    between atoms: N_20  and  C_21 
REMARK    8  A    between atoms: C_28  and  O_30 
ROOT
ATOM      1  C   LIG d   1       9.855   6.653 -11.172  0.00  0.00    -0.002 A 
ATOM      2  C   LIG d   1       9.926   7.988 -11.239  0.00  0.00     0.106 A 
ATOM      3  O   LIG d   1       9.941   8.516 -10.002  0.00  0.00    -0.460 OA
ATOM      4  C   LIG d   1       9.880   7.550  -9.063  0.00  0.00     0.139 A 
ATOM      5  C   LIG d   1       9.821   6.315  -9.742  0.00  0.00     0.024 A 
ATOM      6  C   LIG d   1       9.750   5.125  -9.032  0.00  0.00    -0.040 A 
ATOM      7  C   LIG d   1       9.737   5.161  -7.638  0.00  0.00     0.022 A 
ATOM      8  C   LIG d   1       9.668   3.922  -6.857  0.00  0.00    -0.030 A 
ATOM      9  C   LIG d   1       9.654   4.017  -5.504  0.00  0.00     0.041 A 
ATOM     10  C   LIG d   1       9.715   5.286  -4.888  0.00  0.00     0.341 A 
ATOM     11  O   LIG d   1       9.706   5.357  -3.673  0.00  0.00    -0.245 OA
ATOM     12  O   LIG d   1       9.783   6.417  -5.607  0.00  0.00    -0.422 OA
ATOM     13  C   LIG d   1       9.796   6.395  -6.959  0.00  0.00     0.143 A 
ATOM     14  C   LIG d   1       9.866   7.577  -7.676  0.00  0.00     0.024 A 
ATOM     15  H   LIG d   1       9.706   4.181  -9.555  0.00  0.00     0.063 H 
ATOM     16  H   LIG d   1       9.911   8.522  -7.155  0.00  0.00     0.069 H 
ENDROOT
BRANCH   9  17
ATOM     17  C   LIG d   1       9.580   2.772  -4.658  0.00  0.00    -0.012 C 
ATOM     18  H   LIG d   1      10.193   2.900  -3.767  0.00  0.00     0.032 H 
ATOM     19  H   LIG d   1       9.947   1.921  -5.232  0.00  0.00     0.032 H 
BRANCH  17  20
ATOM     20  C   LIG d   1       8.127   2.520  -4.247  0.00  0.00     0.028 C 
ATOM     21  H   LIG d   1       7.472   3.190  -4.802  0.00  0.00     0.036 H 
ATOM     22  H   LIG d   1       8.016   2.705  -3.178  0.00  0.00     0.036 H 
BRANCH  20  23
ATOM     23  C   LIG d   1       7.760   1.091  -4.551  0.00  0.00     0.214 C 
ATOM     24  O   LIG d   1       8.596   0.330  -4.988  0.00  0.00    -0.276 OA
ATOM     25  N   LIG d   1       6.502   0.659  -4.337  0.00  0.00    -0.308 N 
ATOM     26  H   LIG d   1       5.832   1.268  -3.988  0.00  0.00     0.149 HD
BRANCH  25  27
ATOM     27  C   LIG d   1       6.144  -0.731  -4.632  0.00  0.00     0.070 C 
ATOM     28  H   LIG d   1       6.873  -1.152  -5.324  0.00  0.00     0.054 H 
ATOM     29  C   LIG d   1       4.743  -0.772  -5.272  0.00  0.00     0.094 C 
ATOM     30  C   LIG d   1       3.692  -0.470  -4.166  0.00  0.00     0.093 C 
ATOM     31  H   LIG d   1       4.563  -1.762  -5.692  0.00  0.00     0.063 H 
ATOM     32  S   LIG d   1       4.398  -1.431  -2.761  0.00  0.00    -0.027 S 
ATOM     33  H   LIG d   1       2.708  -0.846  -4.444  0.00  0.00     0.053 H 
ATOM     34  H   LIG d   1       3.654   0.595  -3.936  0.00  0.00     0.053 H 
ATOM     35  C   LIG d   1       6.145  -1.551  -3.321  0.00  0.00     0.087 C 
ATOM     36  O   LIG d   1       3.823  -2.730  -2.754  0.00  0.00    -0.174 OA
ATOM     37  O   LIG d   1       4.343  -0.636  -1.583  0.00  0.00    -0.174 OA
ATOM     38  H   LIG d   1       6.818  -1.107  -2.587  0.00  0.00     0.052 H 
ATOM     39  H   LIG d   1       6.418  -2.589  -3.515  0.00  0.00     0.052 H 
BRANCH  29  40
ATOM     40  O   LIG d   1       4.654   0.213  -6.304  0.00  0.00    -0.388 OA
ATOM     41  H   LIG d   1       5.449   0.287  -6.848  0.00  0.00     0.210 HD
ENDBRANCH  29  40
ENDBRANCH  25  27
ENDBRANCH  20  23
ENDBRANCH  17  20
ENDBRANCH   9  17
BRANCH   8  42
ATOM     42  C   LIG d   1       9.612   2.579  -7.538  0.00  0.00    -0.039 C 
ATOM     43  H   LIG d   1      10.092   2.647  -8.514  0.00  0.00     0.028 H 
ATOM     44  H   LIG d   1      10.132   1.840  -6.928  0.00  0.00     0.028 H 
ATOM     45  H   LIG d   1       8.572   2.279  -7.664  0.00  0.00     0.028 H 
ENDBRANCH   8  42
BRANCH   1  46
ATOM     46  C   LIG d   1       9.815   5.690 -12.330  0.00  0.00    -0.036 C 
ATOM     47  H   LIG d   1      10.093   4.694 -11.985  0.00  0.00     0.028 H 
ATOM     48  H   LIG d   1       8.807   5.663 -12.745  0.00  0.00     0.028 H 
ATOM     49  H   LIG d   1      10.515   6.016 -13.099  0.00  0.00     0.028 H 
ENDBRANCH   1  46
BRANCH   2  50
ATOM     50  C   LIG d   1       9.982   8.786 -12.517  0.00  0.00    -0.006 C 
ATOM     51  H   LIG d   1      10.623   8.273 -13.235  0.00  0.00     0.031 H 
ATOM     52  H   LIG d   1       8.979   8.883 -12.929  0.00  0.00     0.031 H 
ATOM     53  H   LIG d   1      10.389   9.775 -12.309  0.00  0.00     0.031 H 
ENDBRANCH   2  50
TORSDOF 8
ENDMDL
MODEL 9
REMARK VINA RESULT:      -6.4      7.441     11.061
REMARK  8 active torsions:
REMARK  status: ('A' for Active; 'I' for Inactive)
REMARK    1  A    between atoms: C_1  and  C_2 
REMARK    2  A    between atoms: C_3  and  C_32 
REMARK    3  A    between atoms: C_9  and  C_31 
REMARK    4  A    between atoms: C_10  and  C_16 
REMARK    5  A    between atoms: C_16  and  C_17 
REMARK    6  A    between atoms: C_17  and  C_18 
REMARK       I    between atoms: C_18  and  N_20 
REMARK    7  A    between atoms: N_20  and  C_21 
REMARK    8  A    between atoms: C_28  and  O_30 
ROOT
ATOM      1  C   LIG d   1       2.187  -2.231 -15.049  0.00  0.00    -0.002 A 
ATOM      2  C   LIG d   1       0.956  -2.727 -15.222  0.00  0.00     0.106 A 
ATOM      3  O   LIG d   1       0.256  -2.649 -14.076  0.00  0.00    -0.460 OA
ATOM      4  C   LIG d   1       0.998  -2.097 -13.094  0.00  0.00     0.139 A 
ATOM      5  C   LIG d   1       2.261  -1.800 -13.645  0.00  0.00     0.024 A 
ATOM      6  C   LIG d   1       3.249  -1.217 -12.865  0.00  0.00    -0.040 A 
ATOM      7  C   LIG d   1       2.982  -0.928 -11.527  0.00  0.00     0.022 A 
ATOM      8  C   LIG d   1       4.001  -0.308 -10.675  0.00  0.00    -0.030 A 
ATOM      9  C   LIG d   1       3.687  -0.053  -9.381  0.00  0.00     0.041 A 
ATOM     10  C   LIG d   1       2.403  -0.377  -8.893  0.00  0.00     0.341 A 
ATOM     11  O   LIG d   1       2.132  -0.140  -7.730  0.00  0.00    -0.245 OA
ATOM     12  O   LIG d   1       1.471  -0.940  -9.678  0.00  0.00    -0.422 OA
ATOM     13  C   LIG d   1       1.718  -1.226 -10.976  0.00  0.00     0.143 A 
ATOM     14  C   LIG d   1       0.739  -1.807 -11.763  0.00  0.00     0.024 A 
ATOM     15  H   LIG d   1       4.216  -0.990 -13.290  0.00  0.00     0.063 H 
ATOM     16  H   LIG d   1      -0.228  -2.034 -11.339  0.00  0.00     0.069 H 
ENDROOT
BRANCH   9  17
ATOM     17  C   LIG d   1       4.704   0.580  -8.466  0.00  0.00    -0.012 C 
ATOM     18  H   LIG d   1       4.198   1.009  -7.601  0.00  0.00     0.032 H 
ATOM     19  H   LIG d   1       5.236   1.365  -9.002  0.00  0.00     0.032 H 
BRANCH  17  20
ATOM     20  C   LIG d   1       5.701  -0.483  -7.998  0.00  0.00     0.028 C 
ATOM     21  H   LIG d   1       6.679  -0.025  -7.855  0.00  0.00     0.036 H 
ATOM     22  H   LIG d   1       5.773  -1.269  -8.751  0.00  0.00     0.036 H 
BRANCH  20  23
ATOM     23  C   LIG d   1       5.229  -1.077  -6.697  0.00  0.00     0.214 C 
ATOM     24  O   LIG d   1       5.301  -2.273  -6.514  0.00  0.00    -0.276 OA
ATOM     25  N   LIG d   1       4.725  -0.278  -5.735  0.00  0.00    -0.308 N 
ATOM     26  H   LIG d   1       4.667   0.679  -5.881  0.00  0.00     0.149 HD
BRANCH  25  27
ATOM     27  C   LIG d   1       4.267  -0.855  -4.469  0.00  0.00     0.070 C 
ATOM     28  H   LIG d   1       4.025  -1.907  -4.618  0.00  0.00     0.054 H 
ATOM     29  C   LIG d   1       3.011  -0.101  -3.990  0.00  0.00     0.094 C 
ATOM     30  C   LIG d   1       3.449   1.304  -3.484  0.00  0.00     0.093 C 
ATOM     31  H   LIG d   1       2.540  -0.655  -3.178  0.00  0.00     0.063 H 
ATOM     32  S   LIG d   1       5.001   0.870  -2.591  0.00  0.00    -0.027 S 
ATOM     33  H   LIG d   1       2.709   1.726  -2.804  0.00  0.00     0.053 H 
ATOM     34  H   LIG d   1       3.648   1.979  -4.315  0.00  0.00     0.053 H 
ATOM     35  C   LIG d   1       5.388  -0.730  -3.411  0.00  0.00     0.087 C 
ATOM     36  O   LIG d   1       4.697   0.629  -1.225  0.00  0.00    -0.174 OA
ATOM     37  O   LIG d   1       6.008   1.816  -2.926  0.00  0.00    -0.174 OA
ATOM     38  H   LIG d   1       6.367  -0.693  -3.888  0.00  0.00     0.052 H 
ATOM     39  H   LIG d   1       5.338  -1.553  -2.696  0.00  0.00     0.052 H 
BRANCH  29  40
ATOM     40  O   LIG d   1       2.091   0.043  -5.074  0.00  0.00    -0.388 OA
ATOM     41  H   LIG d   1       1.535  -0.734  -5.225  0.00  0.00     0.210 HD
ENDBRANCH  29  40
ENDBRANCH  25  27
ENDBRANCH  20  23
ENDBRANCH  17  20
ENDBRANCH   9  17
BRANCH   8  42
ATOM     42  C   LIG d   1       5.363   0.035 -11.222  0.00  0.00    -0.039 C 
ATOM     43  H   LIG d   1       6.058   0.185 -10.396  0.00  0.00     0.028 H 
ATOM     44  H   LIG d   1       5.718  -0.781 -11.851  0.00  0.00     0.028 H 
ATOM     45  H   LIG d   1       5.298   0.947 -11.815  0.00  0.00     0.028 H 
ENDBRANCH   8  42
BRANCH   1  46
ATOM     46  C   LIG d   1       3.278  -2.136 -16.083  0.00  0.00    -0.036 C 
ATOM     47  H   LIG d   1       2.836  -1.969 -17.065  0.00  0.00     0.028 H 
ATOM     48  H   LIG d   1       3.940  -1.304 -15.836  0.00  0.00     0.028 H 
ATOM     49  H   LIG d   1       3.850  -3.063 -16.095  0.00  0.00     0.028 H 
ENDBRANCH   1  46
BRANCH   2  50
ATOM     50  C   LIG d   1       0.428  -3.291 -16.517  0.00  0.00    -0.006 C 
ATOM     51  H   LIG d   1       0.836  -4.291 -16.669  0.00  0.00     0.031 H 
ATOM     52  H   LIG d   1      -0.659  -3.344 -16.474  0.00  0.00     0.031 H 
ATOM     53  H   LIG d   1       0.729  -2.647 -17.342  0.00  0.00     0.031 H 
ENDBRANCH   2  50
TORSDOF 8
ENDMDL
MODEL 10
REMARK VINA RESULT:      -6.2      6.427     10.343
REMARK  8 active torsions:
REMARK  status: ('A' for Active; 'I' for Inactive)
REMARK    1  A    between atoms: C_1  and  C_2 
REMARK    2  A    between atoms: C_3  and  C_32 
REMARK    3  A    between atoms: C_9  and  C_31 
REMARK    4  A    between atoms: C_10  and  C_16 
REMARK    5  A    between atoms: C_16  and  C_17 
REMARK    6  A    between atoms: C_17  and  C_18 
REMARK       I    between atoms: C_18  and  N_20 
REMARK    7  A    between atoms: N_20  and  C_21 
REMARK    8  A    between atoms: C_28  and  O_30 
ROOT
ATOM      1  C   LIG d   1       1.729  -2.319 -13.900  0.00  0.00    -0.002 A 
ATOM      2  C   LIG d   1       0.419  -2.536 -13.731  0.00  0.00     0.106 A 
ATOM      3  O   LIG d   1       0.014  -2.043 -12.546  0.00  0.00    -0.460 OA
ATOM      4  C   LIG d   1       1.043  -1.479 -11.882  0.00  0.00     0.139 A 
ATOM      5  C   LIG d   1       2.188  -1.618 -12.692  0.00  0.00     0.024 A 
ATOM      6  C   LIG d   1       3.414  -1.127 -12.268  0.00  0.00    -0.040 A 
ATOM      7  C   LIG d   1       3.505  -0.494 -11.029  0.00  0.00     0.022 A 
ATOM      8  C   LIG d   1       4.784   0.041 -10.551  0.00  0.00    -0.030 A 
ATOM      9  C   LIG d   1       4.814   0.643  -9.336  0.00  0.00     0.041 A 
ATOM     10  C   LIG d   1       3.630   0.748  -8.575  0.00  0.00     0.341 A 
ATOM     11  O   LIG d   1       3.670   1.294  -7.488  0.00  0.00    -0.245 OA
ATOM     12  O   LIG d   1       2.460   0.262  -9.018  0.00  0.00    -0.422 OA
ATOM     13  C   LIG d   1       2.360  -0.355 -10.217  0.00  0.00     0.143 A 
ATOM     14  C   LIG d   1       1.141  -0.848 -10.650  0.00  0.00     0.024 A 
ATOM     15  H   LIG d   1       4.290  -1.235 -12.891  0.00  0.00     0.063 H 
ATOM     16  H   LIG d   1       0.264  -0.741 -10.028  0.00  0.00     0.069 H 
ENDROOT
BRANCH   9  17
ATOM     17  C   LIG d   1       6.106   1.205  -8.801  0.00  0.00    -0.012 C 
ATOM     18  H   LIG d   1       5.896   2.072  -8.177  0.00  0.00     0.032 H 
ATOM     19  H   LIG d   1       6.744   1.502  -9.633  0.00  0.00     0.032 H 
BRANCH  17  20
ATOM     20  C   LIG d   1       6.820   0.138  -7.968  0.00  0.00     0.028 C 
ATOM     21  H   LIG d   1       7.847   0.033  -8.315  0.00  0.00     0.036 H 
ATOM     22  H   LIG d   1       6.301  -0.815  -8.076  0.00  0.00     0.036 H 
BRANCH  20  23
ATOM     23  C   LIG d   1       6.818   0.548  -6.519  0.00  0.00     0.214 C 
ATOM     24  O   LIG d   1       7.524   1.462  -6.146  0.00  0.00    -0.276 OA
ATOM     25  N   LIG d   1       6.033  -0.099  -5.635  0.00  0.00    -0.308 N 
ATOM     26  H   LIG d   1       5.469  -0.830  -5.933  0.00  0.00     0.149 HD
BRANCH  25  27
ATOM     27  C   LIG d   1       6.031   0.300  -4.226  0.00  0.00     0.070 C 
ATOM     28  H   LIG d   1       6.363   1.335  -4.143  0.00  0.00     0.054 H 
ATOM     29  C   LIG d   1       6.987  -0.613  -3.435  0.00  0.00     0.094 C 
ATOM     30  C   LIG d   1       6.326  -2.014  -3.302  0.00  0.00     0.093 C 
ATOM     31  H   LIG d   1       7.160  -0.191  -2.445  0.00  0.00     0.063 H 
ATOM     32  S   LIG d   1       4.579  -1.530  -2.968  0.00  0.00    -0.027 S 
ATOM     33  H   LIG d   1       6.746  -2.571  -2.465  0.00  0.00     0.053 H 
ATOM     34  H   LIG d   1       6.407  -2.580  -4.229  0.00  0.00     0.053 H 
ATOM     35  C   LIG d   1       4.597   0.174  -3.658  0.00  0.00     0.087 C 
ATOM     36  O   LIG d   1       4.379  -1.458  -1.563  0.00  0.00    -0.174 OA
ATOM     37  O   LIG d   1       3.715  -2.339  -3.756  0.00  0.00    -0.174 OA
ATOM     38  H   LIG d   1       3.857   0.278  -4.451  0.00  0.00     0.052 H 
ATOM     39  H   LIG d   1       4.427   0.911  -2.873  0.00  0.00     0.052 H 
BRANCH  29  40
ATOM     40  O   LIG d   1       8.230  -0.731  -4.133  0.00  0.00    -0.388 OA
ATOM     41  H   LIG d   1       8.999  -0.814  -3.555  0.00  0.00     0.210 HD
ENDBRANCH  29  40
ENDBRANCH  25  27
ENDBRANCH  20  23
ENDBRANCH  17  20
ENDBRANCH   9  17
BRANCH   8  42
ATOM     42  C   LIG d   1       6.032  -0.077 -11.386  0.00  0.00    -0.039 C 
ATOM     43  H   LIG d   1       6.037   0.706 -12.145  0.00  0.00     0.028 H 
ATOM     44  H   LIG d   1       6.909   0.032 -10.747  0.00  0.00     0.028 H 
ATOM     45  H   LIG d   1       6.055  -1.053 -11.870  0.00  0.00     0.028 H 
ENDBRANCH   8  42
BRANCH   1  46
ATOM     46  C   LIG d   1       2.566  -2.716 -15.088  0.00  0.00    -0.036 C 
ATOM     47  H   LIG d   1       3.522  -2.194 -15.051  0.00  0.00     0.028 H 
ATOM     48  H   LIG d   1       2.739  -3.793 -15.066  0.00  0.00     0.028 H 
ATOM     49  H   LIG d   1       2.043  -2.451 -16.007  0.00  0.00     0.028 H 
ENDBRANCH   1  46
BRANCH   2  50
ATOM     50  C   LIG d   1      -0.475  -3.232 -14.725  0.00  0.00    -0.006 C 
ATOM     51  H   LIG d   1      -0.462  -4.306 -14.534  0.00  0.00     0.031 H 
ATOM     52  H   LIG d   1      -1.492  -2.857 -14.624  0.00  0.00     0.031 H 
ATOM     53  H   LIG d   1      -0.114  -3.039 -15.735  0.00  0.00     0.031 H 
ENDBRANCH   2  50
TORSDOF 8
ENDMDL
