MODEL 1
REMARK VINA RESULT:      -7.4      0.000      0.000
REMARK  4 active torsions:
REMARK  status: ('A' for Active; 'I' for Inactive)
REMARK    1  A    between atoms: C_1  and  C_2 
REMARK    2  A    between atoms: C_15  and  O_24 
REMARK    3  A    between atoms: C_17  and  O_23 
REMARK    4  A    between atoms: C_19  and  O_22 
ROOT
ATOM      1  C   LIG d   1      10.008   3.670  -6.368  0.00  0.00    -0.033 C 
ATOM      2  H   LIG d   1      10.853   3.035  -6.101  0.00  0.00     0.030 H 
ATOM      3  C   LIG d   1       9.137   2.959  -7.397  0.00  0.00    -0.028 C 
ATOM      4  C   LIG d   1       8.500   1.710  -6.830  0.00  0.00    -0.062 C 
ATOM      5  C   LIG d   1       8.311   1.557  -5.525  0.00  0.00     0.008 C 
ATOM      6  C   LIG d   1       7.680   0.326  -4.930  0.00  0.00     0.082 C 
ATOM      7  H   LIG d   1       8.457  -0.321  -4.524  0.00  0.00     0.046 H 
ATOM      8  C   LIG d   1       6.714   0.711  -3.829  0.00  0.00     0.174 C 
ATOM      9  O   LIG d   1       6.735   1.813  -3.324  0.00  0.00    -0.291 OA
ATOM     10  C   LIG d   1       5.745  -0.319  -3.399  0.00  0.00     0.027 A 
ATOM     11  C   LIG d   1       4.990  -0.115  -2.240  0.00  0.00    -0.051 A 
ATOM     12  C   LIG d   1       4.083  -1.071  -1.833  0.00  0.00    -0.058 A 
ATOM     13  C   LIG d   1       3.919  -2.228  -2.572  0.00  0.00    -0.020 A 
ATOM     14  C   LIG d   1       4.665  -2.439  -3.723  0.00  0.00     0.123 A 
ATOM     15  C   LIG d   1       5.583  -1.487  -4.145  0.00  0.00     0.035 A 
ATOM     16  C   LIG d   1       6.376  -1.742  -5.400  0.00  0.00     0.114 C 
ATOM     17  H   LIG d   1       5.743  -2.249  -6.129  0.00  0.00     0.067 H 
ATOM     18  C   LIG d   1       6.882  -0.433  -5.993  0.00  0.00     0.110 C 
ATOM     19  C   LIG d   1       7.817  -0.685  -7.179  0.00  0.00    -0.017 C 
ATOM     20  C   LIG d   1       8.087   0.666  -7.844  0.00  0.00    -0.028 C 
ATOM     21  C   LIG d   1       8.730   2.605  -4.578  0.00  0.00     0.160 C 
ATOM     22  O   LIG d   1       8.733   2.392  -3.384  0.00  0.00    -0.292 OA
ATOM     23  C   LIG d   1       9.156   3.949  -5.120  0.00  0.00     0.013 C 
ATOM     24  H   LIG d   1       8.351   3.640  -7.726  0.00  0.00     0.031 H 
ATOM     25  H   LIG d   1       9.751   2.688  -8.255  0.00  0.00     0.031 H 
ATOM     26  H   LIG d   1       5.118   0.789  -1.664  0.00  0.00     0.062 H 
ATOM     27  H   LIG d   1       3.499  -0.914  -0.938  0.00  0.00     0.062 H 
ATOM     28  H   LIG d   1       3.208  -2.974  -2.251  0.00  0.00     0.065 H 
ATOM     29  H   LIG d   1       8.748  -1.127  -6.826  0.00  0.00     0.030 H 
ATOM     30  H   LIG d   1       7.336  -1.354  -7.892  0.00  0.00     0.030 H 
ATOM     31  H   LIG d   1       7.189   1.007  -8.359  0.00  0.00     0.031 H 
ATOM     32  H   LIG d   1       8.887   0.541  -8.572  0.00  0.00     0.031 H 
ATOM     33  H   LIG d   1       9.749   4.481  -4.375  0.00  0.00     0.035 H 
ATOM     34  H   LIG d   1       8.279   4.536  -5.391  0.00  0.00     0.035 H 
ENDROOT
BRANCH   1  35
ATOM     35  C   LIG d   1      10.519   4.990  -6.949  0.00  0.00    -0.062 C 
ATOM     36  H   LIG d   1      10.168   5.818  -6.333  0.00  0.00     0.023 H 
ATOM     37  H   LIG d   1      11.609   4.983  -6.962  0.00  0.00     0.023 H 
ATOM     38  H   LIG d   1      10.143   5.109  -7.965  0.00  0.00     0.023 H 
ENDBRANCH   1  35
BRANCH  18  39
ATOM     39  O   LIG d   1       5.767   0.357  -6.411  0.00  0.00    -0.385 OA
ATOM     40  H   LIG d   1       4.977   0.242  -5.865  0.00  0.00     0.210 HD
ENDBRANCH  18  39
BRANCH  16  41
ATOM     41  O   LIG d   1       7.498  -2.571  -5.090  0.00  0.00    -0.384 OA
ATOM     42  H   LIG d   1       8.346  -2.212  -5.384  0.00  0.00     0.210 HD
ENDBRANCH  16  41
BRANCH  14  43
ATOM     43  O   LIG d   1       4.496  -3.582  -4.439  0.00  0.00    -0.506 OA
ATOM     44  H   LIG d   1       5.305  -4.100  -4.550  0.00  0.00     0.292 HD
ENDBRANCH  14  43
TORSDOF 4
ENDMDL
MODEL 2
REMARK VINA RESULT:      -7.2      2.975      6.343
REMARK  4 active torsions:
REMARK  status: ('A' for Active; 'I' for Inactive)
REMARK    1  A    between atoms: C_1  and  C_2 
REMARK    2  A    between atoms: C_15  and  O_24 
REMARK    3  A    between atoms: C_17  and  O_23 
REMARK    4  A    between atoms: C_19  and  O_22 
ROOT
ATOM      1  C   LIG d   1       6.791  -6.913  -6.147  0.00  0.00    -0.033 C 
ATOM      2  H   LIG d   1       6.707  -6.520  -7.161  0.00  0.00     0.030 H 
ATOM      3  C   LIG d   1       7.946  -6.229  -5.427  0.00  0.00    -0.028 C 
ATOM      4  C   LIG d   1       7.695  -4.750  -5.235  0.00  0.00    -0.062 C 
ATOM      5  C   LIG d   1       6.465  -4.250  -5.221  0.00  0.00     0.008 C 
ATOM      6  C   LIG d   1       6.181  -2.784  -5.032  0.00  0.00     0.082 C 
ATOM      7  H   LIG d   1       5.964  -2.327  -5.998  0.00  0.00     0.046 H 
ATOM      8  C   LIG d   1       5.000  -2.593  -4.104  0.00  0.00     0.174 C 
ATOM      9  O   LIG d   1       4.238  -3.501  -3.852  0.00  0.00    -0.291 OA
ATOM     10  C   LIG d   1       4.820  -1.247  -3.519  0.00  0.00     0.027 A 
ATOM     11  C   LIG d   1       3.631  -0.939  -2.849  0.00  0.00    -0.051 A 
ATOM     12  C   LIG d   1       3.456   0.313  -2.300  0.00  0.00    -0.058 A 
ATOM     13  C   LIG d   1       4.455   1.263  -2.410  0.00  0.00    -0.020 A 
ATOM     14  C   LIG d   1       5.637   0.966  -3.074  0.00  0.00     0.123 A 
ATOM     15  C   LIG d   1       5.828  -0.290  -3.633  0.00  0.00     0.035 A 
ATOM     16  C   LIG d   1       7.123  -0.584  -4.344  0.00  0.00     0.114 C 
ATOM     17  H   LIG d   1       7.942  -0.091  -3.820  0.00  0.00     0.067 H 
ATOM     18  C   LIG d   1       7.383  -2.084  -4.392  0.00  0.00     0.110 C 
ATOM     19  C   LIG d   1       8.612  -2.409  -5.244  0.00  0.00    -0.017 C 
ATOM     20  C   LIG d   1       8.927  -3.892  -5.049  0.00  0.00    -0.028 C 
ATOM     21  C   LIG d   1       5.296  -5.128  -5.406  0.00  0.00     0.160 C 
ATOM     22  O   LIG d   1       4.192  -4.657  -5.582  0.00  0.00    -0.292 OA
ATOM     23  C   LIG d   1       5.496  -6.625  -5.372  0.00  0.00     0.013 C 
ATOM     24  H   LIG d   1       8.081  -6.695  -4.450  0.00  0.00     0.031 H 
ATOM     25  H   LIG d   1       8.857  -6.362  -6.010  0.00  0.00     0.031 H 
ATOM     26  H   LIG d   1       2.851  -1.681  -2.764  0.00  0.00     0.062 H 
ATOM     27  H   LIG d   1       2.539   0.552  -1.782  0.00  0.00     0.062 H 
ATOM     28  H   LIG d   1       4.314   2.243  -1.978  0.00  0.00     0.065 H 
ATOM     29  H   LIG d   1       8.399  -2.201  -6.293  0.00  0.00     0.030 H 
ATOM     30  H   LIG d   1       9.459  -1.808  -4.913  0.00  0.00     0.030 H 
ATOM     31  H   LIG d   1       9.323  -4.054  -4.046  0.00  0.00     0.031 H 
ATOM     32  H   LIG d   1       9.680  -4.188  -5.779  0.00  0.00     0.031 H 
ATOM     33  H   LIG d   1       4.655  -7.125  -5.853  0.00  0.00     0.035 H 
ATOM     34  H   LIG d   1       5.595  -6.964  -4.341  0.00  0.00     0.035 H 
ENDROOT
BRANCH   1  35
ATOM     35  C   LIG d   1       7.037  -8.422  -6.198  0.00  0.00    -0.062 C 
ATOM     36  H   LIG d   1       8.110  -8.615  -6.197  0.00  0.00     0.023 H 
ATOM     37  H   LIG d   1       6.581  -8.894  -5.328  0.00  0.00     0.023 H 
ATOM     38  H   LIG d   1       6.595  -8.831  -7.107  0.00  0.00     0.023 H 
ENDBRANCH   1  35
BRANCH  18  39
ATOM     39  O   LIG d   1       7.569  -2.573  -3.062  0.00  0.00    -0.385 OA
ATOM     40  H   LIG d   1       6.884  -3.191  -2.771  0.00  0.00     0.210 HD
ENDBRANCH  18  39
BRANCH  16  41
ATOM     41  O   LIG d   1       7.050  -0.086  -5.682  0.00  0.00    -0.384 OA
ATOM     42  H   LIG d   1       7.486   0.768  -5.809  0.00  0.00     0.210 HD
ENDBRANCH  16  41
BRANCH  14  43
ATOM     43  O   LIG d   1       6.611   1.909  -3.177  0.00  0.00    -0.506 OA
ATOM     44  H   LIG d   1       6.678   2.312  -4.052  0.00  0.00     0.292 HD
ENDBRANCH  14  43
TORSDOF 4
ENDMDL
MODEL 3
REMARK VINA RESULT:      -7.0      3.799      5.778
REMARK  4 active torsions:
REMARK  status: ('A' for Active; 'I' for Inactive)
REMARK    1  A    between atoms: C_1  and  C_2 
REMARK    2  A    between atoms: C_15  and  O_24 
REMARK    3  A    between atoms: C_17  and  O_23 
REMARK    4  A    between atoms: C_19  and  O_22 
ROOT
ATOM      1  C   LIG d   1       2.343  -1.285 -10.868  0.00  0.00    -0.033 C 
ATOM      2  H   LIG d   1       3.140  -0.650 -11.257  0.00  0.00     0.030 H 
ATOM      3  C   LIG d   1       2.946  -2.523 -10.216  0.00  0.00    -0.028 C 
ATOM      4  C   LIG d   1       3.773  -2.173  -8.999  0.00  0.00    -0.062 C 
ATOM      5  C   LIG d   1       3.569  -1.052  -8.319  0.00  0.00     0.008 C 
ATOM      6  C   LIG d   1       4.374  -0.675  -7.104  0.00  0.00     0.082 C 
ATOM      7  H   LIG d   1       5.130   0.059  -7.381  0.00  0.00     0.046 H 
ATOM      8  C   LIG d   1       3.472  -0.096  -6.035  0.00  0.00     0.174 C 
ATOM      9  O   LIG d   1       2.351   0.290  -6.291  0.00  0.00    -0.291 OA
ATOM     10  C   LIG d   1       4.020  -0.023  -4.664  0.00  0.00     0.027 A 
ATOM     11  C   LIG d   1       3.339   0.710  -3.686  0.00  0.00    -0.051 A 
ATOM     12  C   LIG d   1       3.843   0.782  -2.405  0.00  0.00    -0.058 A 
ATOM     13  C   LIG d   1       5.020   0.129  -2.087  0.00  0.00    -0.020 A 
ATOM     14  C   LIG d   1       5.703  -0.598  -3.051  0.00  0.00     0.123 A 
ATOM     15  C   LIG d   1       5.208  -0.680  -4.346  0.00  0.00     0.035 A 
ATOM     16  C   LIG d   1       5.970  -1.480  -5.370  0.00  0.00     0.114 C 
ATOM     17  H   LIG d   1       6.396  -2.363  -4.894  0.00  0.00     0.067 H 
ATOM     18  C   LIG d   1       5.053  -1.911  -6.507  0.00  0.00     0.110 C 
ATOM     19  C   LIG d   1       5.841  -2.590  -7.630  0.00  0.00    -0.017 C 
ATOM     20  C   LIG d   1       4.826  -3.186  -8.607  0.00  0.00    -0.028 C 
ATOM     21  C   LIG d   1       2.529  -0.097  -8.740  0.00  0.00     0.160 C 
ATOM     22  O   LIG d   1       2.465   1.007  -8.242  0.00  0.00    -0.292 OA
ATOM     23  C   LIG d   1       1.542  -0.517  -9.805  0.00  0.00     0.013 C 
ATOM     24  H   LIG d   1       2.140  -3.194  -9.917  0.00  0.00     0.031 H 
ATOM     25  H   LIG d   1       3.579  -3.033 -10.942  0.00  0.00     0.031 H 
ATOM     26  H   LIG d   1       2.420   1.219  -3.935  0.00  0.00     0.062 H 
ATOM     27  H   LIG d   1       3.317   1.346  -1.649  0.00  0.00     0.062 H 
ATOM     28  H   LIG d   1       5.412   0.187  -1.082  0.00  0.00     0.065 H 
ATOM     29  H   LIG d   1       6.469  -1.857  -8.136  0.00  0.00     0.030 H 
ATOM     30  H   LIG d   1       6.461  -3.385  -7.216  0.00  0.00     0.030 H 
ATOM     31  H   LIG d   1       4.338  -4.046  -8.149  0.00  0.00     0.031 H 
ATOM     32  H   LIG d   1       5.355  -3.514  -9.501  0.00  0.00     0.031 H 
ATOM     33  H   LIG d   1       1.078   0.363 -10.251  0.00  0.00     0.035 H 
ATOM     34  H   LIG d   1       0.781  -1.165  -9.372  0.00  0.00     0.035 H 
ENDROOT
BRANCH   1  35
ATOM     35  C   LIG d   1       1.415  -1.704 -12.010  0.00  0.00    -0.062 C 
ATOM     36  H   LIG d   1       1.447  -0.952 -12.798  0.00  0.00     0.023 H 
ATOM     37  H   LIG d   1       1.741  -2.664 -12.409  0.00  0.00     0.023 H 
ATOM     38  H   LIG d   1       0.396  -1.793 -11.634  0.00  0.00     0.023 H 
ENDBRANCH   1  35
BRANCH  18  39
ATOM     39  O   LIG d   1       4.060  -2.805  -6.000  0.00  0.00    -0.385 OA
ATOM     40  H   LIG d   1       3.195  -2.395  -5.863  0.00  0.00     0.210 HD
ENDBRANCH  18  39
BRANCH  16  41
ATOM     41  O   LIG d   1       7.025  -0.678  -5.908  0.00  0.00    -0.384 OA
ATOM     42  H   LIG d   1       7.014   0.241  -5.605  0.00  0.00     0.210 HD
ENDBRANCH  16  41
BRANCH  14  43
ATOM     43  O   LIG d   1       6.861  -1.234  -2.727  0.00  0.00    -0.506 OA
ATOM     44  H   LIG d   1       7.626  -0.944  -3.240  0.00  0.00     0.292 HD
ENDBRANCH  14  43
TORSDOF 4
ENDMDL
MODEL 4
REMARK VINA RESULT:      -6.7      3.048      6.462
REMARK  4 active torsions:
REMARK  status: ('A' for Active; 'I' for Inactive)
REMARK    1  A    between atoms: C_1  and  C_2 
REMARK    2  A    between atoms: C_15  and  O_24 
REMARK    3  A    between atoms: C_17  and  O_23 
REMARK    4  A    between atoms: C_19  and  O_22 
ROOT
ATOM      1  C   LIG d   1       5.245  -6.538  -8.613  0.00  0.00    -0.033 C 
ATOM      2  H   LIG d   1       4.507  -6.033  -9.236  0.00  0.00     0.030 H 
ATOM      3  C   LIG d   1       6.514  -5.699  -8.537  0.00  0.00    -0.028 C 
ATOM      4  C   LIG d   1       6.277  -4.379  -7.839  0.00  0.00    -0.062 C 
ATOM      5  C   LIG d   1       5.277  -4.216  -6.981  0.00  0.00     0.008 C 
ATOM      6  C   LIG d   1       5.014  -2.916  -6.269  0.00  0.00     0.082 C 
ATOM      7  H   LIG d   1       4.196  -2.390  -6.761  0.00  0.00     0.046 H 
ATOM      8  C   LIG d   1       4.653  -3.173  -4.821  0.00  0.00     0.174 C 
ATOM      9  O   LIG d   1       4.318  -4.273  -4.437  0.00  0.00    -0.291 OA
ATOM     10  C   LIG d   1       4.730  -2.022  -3.898  0.00  0.00     0.027 A 
ATOM     11  C   LIG d   1       4.191  -2.130  -2.612  0.00  0.00    -0.051 A 
ATOM     12  C   LIG d   1       4.259  -1.060  -1.745  0.00  0.00    -0.058 A 
ATOM     13  C   LIG d   1       4.863   0.117  -2.145  0.00  0.00    -0.020 A 
ATOM     14  C   LIG d   1       5.400   0.234  -3.419  0.00  0.00     0.123 A 
ATOM     15  C   LIG d   1       5.338  -0.833  -4.305  0.00  0.00     0.035 A 
ATOM     16  C   LIG d   1       5.933  -0.678  -5.680  0.00  0.00     0.114 C 
ATOM     17  H   LIG d   1       6.840  -0.077  -5.614  0.00  0.00     0.067 H 
ATOM     18  C   LIG d   1       6.268  -2.038  -6.279  0.00  0.00     0.110 C 
ATOM     19  C   LIG d   1       6.728  -1.907  -7.733  0.00  0.00    -0.017 C 
ATOM     20  C   LIG d   1       7.256  -3.274  -8.171  0.00  0.00    -0.028 C 
ATOM     21  C   LIG d   1       4.351  -5.325  -6.689  0.00  0.00     0.160 C 
ATOM     22  O   LIG d   1       3.333  -5.129  -6.058  0.00  0.00    -0.292 OA
ATOM     23  C   LIG d   1       4.690  -6.709  -7.190  0.00  0.00     0.013 C 
ATOM     24  H   LIG d   1       7.276  -6.257  -7.992  0.00  0.00     0.031 H 
ATOM     25  H   LIG d   1       6.873  -5.507  -9.548  0.00  0.00     0.031 H 
ATOM     26  H   LIG d   1       3.719  -3.050  -2.300  0.00  0.00     0.062 H 
ATOM     27  H   LIG d   1       3.843  -1.144  -0.752  0.00  0.00     0.062 H 
ATOM     28  H   LIG d   1       4.915   0.953  -1.463  0.00  0.00     0.065 H 
ATOM     29  H   LIG d   1       5.889  -1.606  -8.359  0.00  0.00     0.030 H 
ATOM     30  H   LIG d   1       7.526  -1.168  -7.802  0.00  0.00     0.030 H 
ATOM     31  H   LIG d   1       8.203  -3.478  -7.673  0.00  0.00     0.031 H 
ATOM     32  H   LIG d   1       7.418  -3.256  -9.248  0.00  0.00     0.031 H 
ATOM     33  H   LIG d   1       3.793  -7.329  -7.211  0.00  0.00     0.035 H 
ATOM     34  H   LIG d   1       5.444  -7.162  -6.547  0.00  0.00     0.035 H 
ENDROOT
BRANCH   1  35
ATOM     35  C   LIG d   1       5.568  -7.910  -9.208  0.00  0.00    -0.062 C 
ATOM     36  H   LIG d   1       4.884  -8.120 -10.030  0.00  0.00     0.023 H 
ATOM     37  H   LIG d   1       6.593  -7.913  -9.578  0.00  0.00     0.023 H 
ATOM     38  H   LIG d   1       5.457  -8.674  -8.439  0.00  0.00     0.023 H 
ENDBRANCH   1  35
BRANCH  18  39
ATOM     39  O   LIG d   1       7.292  -2.657  -5.498  0.00  0.00    -0.385 OA
ATOM     40  H   LIG d   1       7.220  -3.621  -5.448  0.00  0.00     0.210 HD
ENDBRANCH  18  39
BRANCH  16  41
ATOM     41  O   LIG d   1       4.991  -0.020  -6.530  0.00  0.00    -0.384 OA
ATOM     42  H   LIG d   1       4.937  -0.394  -7.421  0.00  0.00     0.210 HD
ENDBRANCH  16  41
BRANCH  14  43
ATOM     43  O   LIG d   1       5.989   1.398  -3.802  0.00  0.00    -0.506 OA
ATOM     44  H   LIG d   1       5.417   1.976  -4.324  0.00  0.00     0.292 HD
ENDBRANCH  14  43
TORSDOF 4
ENDMDL
MODEL 5
REMARK VINA RESULT:      -6.4      4.268      6.156
REMARK  4 active torsions:
REMARK  status: ('A' for Active; 'I' for Inactive)
REMARK    1  A    between atoms: C_1  and  C_2 
REMARK    2  A    between atoms: C_15  and  O_24 
REMARK    3  A    between atoms: C_17  and  O_23 
REMARK    4  A    between atoms: C_19  and  O_22 
ROOT
ATOM      1  C   LIG d   1       3.584  -0.919 -12.332  0.00  0.00    -0.033 C 
ATOM      2  H   LIG d   1       2.525  -1.160 -12.237  0.00  0.00     0.030 H 
ATOM      3  C   LIG d   1       3.875   0.400 -11.627  0.00  0.00    -0.028 C 
ATOM      4  C   LIG d   1       3.648   0.303 -10.135  0.00  0.00    -0.062 C 
ATOM      5  C   LIG d   1       3.701  -0.860  -9.497  0.00  0.00     0.008 C 
ATOM      6  C   LIG d   1       3.480  -0.990  -8.014  0.00  0.00     0.082 C 
ATOM      7  H   LIG d   1       2.467  -1.347  -7.826  0.00  0.00     0.046 H 
ATOM      8  C   LIG d   1       4.478  -1.959  -7.417  0.00  0.00     0.174 C 
ATOM      9  O   LIG d   1       5.108  -2.728  -8.110  0.00  0.00    -0.291 OA
ATOM     10  C   LIG d   1       4.650  -1.922  -5.949  0.00  0.00     0.027 A 
ATOM     11  C   LIG d   1       5.371  -2.938  -5.313  0.00  0.00    -0.051 A 
ATOM     12  C   LIG d   1       5.536  -2.910  -3.944  0.00  0.00    -0.058 A 
ATOM     13  C   LIG d   1       4.991  -1.879  -3.202  0.00  0.00    -0.020 A 
ATOM     14  C   LIG d   1       4.273  -0.868  -3.825  0.00  0.00     0.123 A 
ATOM     15  C   LIG d   1       4.097  -0.882  -5.202  0.00  0.00     0.035 A 
ATOM     16  C   LIG d   1       3.316   0.232  -5.850  0.00  0.00     0.114 C 
ATOM     17  H   LIG d   1       3.533   1.170  -5.339  0.00  0.00     0.067 H 
ATOM     18  C   LIG d   1       3.684   0.361  -7.322  0.00  0.00     0.110 C 
ATOM     19  C   LIG d   1       2.790   1.381  -8.032  0.00  0.00    -0.017 C 
ATOM     20  C   LIG d   1       3.373   1.611  -9.426  0.00  0.00    -0.028 C 
ATOM     21  C   LIG d   1       3.974  -2.107 -10.233  0.00  0.00     0.160 C 
ATOM     22  O   LIG d   1       3.836  -3.185  -9.694  0.00  0.00    -0.292 OA
ATOM     23  C   LIG d   1       4.427  -2.020 -11.672  0.00  0.00     0.013 C 
ATOM     24  H   LIG d   1       4.914   0.677 -11.811  0.00  0.00     0.031 H 
ATOM     25  H   LIG d   1       3.226   1.173 -12.037  0.00  0.00     0.031 H 
ATOM     26  H   LIG d   1       5.796  -3.743  -5.893  0.00  0.00     0.062 H 
ATOM     27  H   LIG d   1       6.093  -3.694  -3.452  0.00  0.00     0.062 H 
ATOM     28  H   LIG d   1       5.123  -1.860  -2.130  0.00  0.00     0.065 H 
ATOM     29  H   LIG d   1       1.774   0.993  -8.104  0.00  0.00     0.030 H 
ATOM     30  H   LIG d   1       2.789   2.319  -7.476  0.00  0.00     0.030 H 
ATOM     31  H   LIG d   1       4.304   2.173  -9.346  0.00  0.00     0.031 H 
ATOM     32  H   LIG d   1       2.659   2.190 -10.012  0.00  0.00     0.031 H 
ATOM     33  H   LIG d   1       4.256  -2.973 -12.175  0.00  0.00     0.035 H 
ATOM     34  H   LIG d   1       5.483  -1.758 -11.714  0.00  0.00     0.035 H 
ENDROOT
BRANCH   1  35
ATOM     35  C   LIG d   1       3.954  -0.804 -13.813  0.00  0.00    -0.062 C 
ATOM     36  H   LIG d   1       4.419   0.165 -13.997  0.00  0.00     0.023 H 
ATOM     37  H   LIG d   1       4.652  -1.599 -14.075  0.00  0.00     0.023 H 
ATOM     38  H   LIG d   1       3.053  -0.896 -14.420  0.00  0.00     0.023 H 
ENDBRANCH   1  35
BRANCH  18  39
ATOM     39  O   LIG d   1       5.053   0.753  -7.433  0.00  0.00    -0.385 OA
ATOM     40  H   LIG d   1       5.179   1.689  -7.644  0.00  0.00     0.210 HD
ENDBRANCH  18  39
BRANCH  16  41
ATOM     41  O   LIG d   1       1.918  -0.050  -5.748  0.00  0.00    -0.384 OA
ATOM     42  H   LIG d   1       1.635  -0.826  -6.252  0.00  0.00     0.210 HD
ENDBRANCH  16  41
BRANCH  14  43
ATOM     43  O   LIG d   1       3.740   0.140  -3.084  0.00  0.00    -0.506 OA
ATOM     44  H   LIG d   1       3.611   0.963  -3.573  0.00  0.00     0.292 HD
ENDBRANCH  14  43
TORSDOF 4
ENDMDL
MODEL 6
REMARK VINA RESULT:      -6.2      6.861      9.001
REMARK  4 active torsions:
REMARK  status: ('A' for Active; 'I' for Inactive)
REMARK    1  A    between atoms: C_1  and  C_2 
REMARK    2  A    between atoms: C_15  and  O_24 
REMARK    3  A    between atoms: C_17  and  O_23 
REMARK    4  A    between atoms: C_19  and  O_22 
ROOT
ATOM      1  C   LIG d   1      10.401   8.775  -6.843  0.00  0.00    -0.033 C 
ATOM      2  H   LIG d   1      11.294   8.193  -7.071  0.00  0.00     0.030 H 
ATOM      3  C   LIG d   1       9.327   7.862  -6.263  0.00  0.00    -0.028 C 
ATOM      4  C   LIG d   1       9.743   7.279  -4.931  0.00  0.00    -0.062 C 
ATOM      5  C   LIG d   1      10.646   7.875  -4.162  0.00  0.00     0.008 C 
ATOM      6  C   LIG d   1      11.081   7.322  -2.832  0.00  0.00     0.082 C 
ATOM      7  H   LIG d   1      12.041   6.817  -2.943  0.00  0.00     0.046 H 
ATOM      8  C   LIG d   1      11.208   8.436  -1.815  0.00  0.00     0.174 C 
ATOM      9  O   LIG d   1      11.267   9.599  -2.153  0.00  0.00    -0.291 OA
ATOM     10  C   LIG d   1      11.257   8.041  -0.391  0.00  0.00     0.027 A 
ATOM     11  C   LIG d   1      11.609   8.988   0.576  0.00  0.00    -0.051 A 
ATOM     12  C   LIG d   1      11.656   8.627   1.906  0.00  0.00    -0.058 A 
ATOM     13  C   LIG d   1      11.354   7.331   2.282  0.00  0.00    -0.020 A 
ATOM     14  C   LIG d   1      11.006   6.385   1.329  0.00  0.00     0.123 A 
ATOM     15  C   LIG d   1      10.955   6.733  -0.014  0.00  0.00     0.035 A 
ATOM     16  C   LIG d   1      10.571   5.685  -1.026  0.00  0.00     0.114 C 
ATOM     17  H   LIG d   1       9.802   5.038  -0.602  0.00  0.00     0.067 H 
ATOM     18  C   LIG d   1      10.040   6.333  -2.298  0.00  0.00     0.110 C 
ATOM     19  C   LIG d   1       9.791   5.292  -3.392  0.00  0.00    -0.017 C 
ATOM     20  C   LIG d   1       9.054   5.993  -4.533  0.00  0.00    -0.028 C 
ATOM     21  C   LIG d   1      11.288   9.130  -4.594  0.00  0.00     0.160 C 
ATOM     22  O   LIG d   1      12.243   9.574  -3.991  0.00  0.00    -0.292 OA
ATOM     23  C   LIG d   1      10.737   9.853  -5.801  0.00  0.00     0.013 C 
ATOM     24  H   LIG d   1       8.409   8.436  -6.129  0.00  0.00     0.031 H 
ATOM     25  H   LIG d   1       9.136   7.050  -6.963  0.00  0.00     0.031 H 
ATOM     26  H   LIG d   1      11.844  10.000   0.281  0.00  0.00     0.062 H 
ATOM     27  H   LIG d   1      11.926   9.358   2.654  0.00  0.00     0.062 H 
ATOM     28  H   LIG d   1      11.392   7.052   3.325  0.00  0.00     0.065 H 
ATOM     29  H   LIG d   1      10.742   4.892  -3.743  0.00  0.00     0.030 H 
ATOM     30  H   LIG d   1       9.173   4.485  -2.998  0.00  0.00     0.030 H 
ATOM     31  H   LIG d   1       8.032   6.217  -4.226  0.00  0.00     0.031 H 
ATOM     32  H   LIG d   1       9.026   5.324  -5.393  0.00  0.00     0.031 H 
ATOM     33  H   LIG d   1      11.487  10.537  -6.200  0.00  0.00     0.035 H 
ATOM     34  H   LIG d   1       9.836  10.401  -5.527  0.00  0.00     0.035 H 
ENDROOT
BRANCH   1  35
ATOM     35  C   LIG d   1       9.879   9.438  -8.120  0.00  0.00    -0.062 C 
ATOM     36  H   LIG d   1       8.961   8.942  -8.437  0.00  0.00     0.023 H 
ATOM     37  H   LIG d   1       9.675  10.491  -7.925  0.00  0.00     0.023 H 
ATOM     38  H   LIG d   1      10.629   9.352  -8.906  0.00  0.00     0.023 H 
ENDBRANCH   1  35
BRANCH  18  39
ATOM     39  O   LIG d   1       8.827   7.029  -2.002  0.00  0.00    -0.385 OA
ATOM     40  H   LIG d   1       8.538   6.942  -1.083  0.00  0.00     0.210 HD
ENDBRANCH  18  39
BRANCH  16  41
ATOM     41  O   LIG d   1      11.720   4.900  -1.354  0.00  0.00    -0.384 OA
ATOM     42  H   LIG d   1      11.981   4.954  -2.284  0.00  0.00     0.210 HD
ENDBRANCH  16  41
BRANCH  14  43
ATOM     43  O   LIG d   1      10.714   5.113   1.711  0.00  0.00    -0.506 OA
ATOM     44  H   LIG d   1      10.958   4.911   2.624  0.00  0.00     0.292 HD
ENDBRANCH  14  43
TORSDOF 4
ENDMDL
MODEL 7
REMARK VINA RESULT:      -5.9      7.261      9.926
REMARK  4 active torsions:
REMARK  status: ('A' for Active; 'I' for Inactive)
REMARK    1  A    between atoms: C_1  and  C_2 
REMARK    2  A    between atoms: C_15  and  O_24 
REMARK    3  A    between atoms: C_17  and  O_23 
REMARK    4  A    between atoms: C_19  and  O_22 
ROOT
ATOM      1  C   LIG d   1       9.535  12.741  -5.846  0.00  0.00    -0.033 C 
ATOM      2  H   LIG d   1       8.455  12.641  -5.737  0.00  0.00     0.030 H 
ATOM      3  C   LIG d   1      10.180  12.865  -4.471  0.00  0.00    -0.028 C 
ATOM      4  C   LIG d   1      10.003  11.607  -3.650  0.00  0.00    -0.062 C 
ATOM      5  C   LIG d   1       9.790  10.428  -4.221  0.00  0.00     0.008 C 
ATOM      6  C   LIG d   1       9.610   9.158  -3.432  0.00  0.00     0.082 C 
ATOM      7  H   LIG d   1       8.550   8.913  -3.374  0.00  0.00     0.046 H 
ATOM      8  C   LIG d   1      10.359   8.020  -4.092  0.00  0.00     0.174 C 
ATOM      9  O   LIG d   1      10.744   8.093  -5.239  0.00  0.00    -0.291 OA
ATOM     10  C   LIG d   1      10.600   6.814  -3.271  0.00  0.00     0.027 A 
ATOM     11  C   LIG d   1      11.071   5.647  -3.881  0.00  0.00    -0.051 A 
ATOM     12  C   LIG d   1      11.299   4.518  -3.123  0.00  0.00    -0.058 A 
ATOM     13  C   LIG d   1      11.064   4.541  -1.760  0.00  0.00    -0.020 A 
ATOM     14  C   LIG d   1      10.596   5.694  -1.147  0.00  0.00     0.123 A 
ATOM     15  C   LIG d   1      10.361   6.838  -1.897  0.00  0.00     0.035 A 
ATOM     16  C   LIG d   1       9.856   8.076  -1.203  0.00  0.00     0.114 C 
ATOM     17  H   LIG d   1      10.324   8.156  -0.222  0.00  0.00     0.067 H 
ATOM     18  C   LIG d   1      10.178   9.321  -2.019  0.00  0.00     0.110 C 
ATOM     19  C   LIG d   1       9.538  10.569  -1.407  0.00  0.00    -0.017 C 
ATOM     20  C   LIG d   1      10.097  11.783  -2.150  0.00  0.00    -0.028 C 
ATOM     21  C   LIG d   1       9.708  10.308  -5.687  0.00  0.00     0.160 C 
ATOM     22  O   LIG d   1       9.329   9.277  -6.202  0.00  0.00    -0.292 OA
ATOM     23  C   LIG d   1      10.104  11.492  -6.538  0.00  0.00     0.013 C 
ATOM     24  H   LIG d   1      11.246  13.060  -4.596  0.00  0.00     0.031 H 
ATOM     25  H   LIG d   1       9.728  13.703  -3.941  0.00  0.00     0.031 H 
ATOM     26  H   LIG d   1      11.254   5.629  -4.945  0.00  0.00     0.062 H 
ATOM     27  H   LIG d   1      11.663   3.616  -3.593  0.00  0.00     0.062 H 
ATOM     28  H   LIG d   1      11.245   3.655  -1.169  0.00  0.00     0.065 H 
ATOM     29  H   LIG d   1       8.455  10.521  -1.520  0.00  0.00     0.030 H 
ATOM     30  H   LIG d   1       9.797  10.635  -0.351  0.00  0.00     0.030 H 
ATOM     31  H   LIG d   1      11.142  11.932  -1.876  0.00  0.00     0.031 H 
ATOM     32  H   LIG d   1       9.526  12.664  -1.859  0.00  0.00     0.031 H 
ATOM     33  H   LIG d   1       9.677  11.393  -7.537  0.00  0.00     0.035 H 
ATOM     34  H   LIG d   1      11.189  11.561  -6.599  0.00  0.00     0.035 H 
ENDROOT
BRANCH   1  35
ATOM     35  C   LIG d   1       9.855  13.983  -6.679  0.00  0.00    -0.062 C 
ATOM     36  H   LIG d   1       8.926  14.451  -7.006  0.00  0.00     0.023 H 
ATOM     37  H   LIG d   1      10.425  14.689  -6.076  0.00  0.00     0.023 H 
ATOM     38  H   LIG d   1      10.442  13.694  -7.551  0.00  0.00     0.023 H 
ENDBRANCH   1  35
BRANCH  18  39
ATOM     39  O   LIG d   1      11.596   9.485  -2.089  0.00  0.00    -0.385 OA
ATOM     40  H   LIG d   1      12.069   8.698  -2.394  0.00  0.00     0.210 HD
ENDBRANCH  18  39
BRANCH  16  41
ATOM     41  O   LIG d   1       8.438   7.984  -1.044  0.00  0.00    -0.384 OA
ATOM     42  H   LIG d   1       8.156   7.307  -0.413  0.00  0.00     0.210 HD
ENDBRANCH  16  41
BRANCH  14  43
ATOM     43  O   LIG d   1      10.367   5.704   0.193  0.00  0.00    -0.506 OA
ATOM     44  H   LIG d   1      11.170   5.740   0.729  0.00  0.00     0.292 HD
ENDBRANCH  14  43
TORSDOF 4
ENDMDL
MODEL 8
REMARK VINA RESULT:      -5.9      6.823      9.996
REMARK  4 active torsions:
REMARK  status: ('A' for Active; 'I' for Inactive)
REMARK    1  A    between atoms: C_1  and  C_2 
REMARK    2  A    between atoms: C_15  and  O_24 
REMARK    3  A    between atoms: C_17  and  O_23 
REMARK    4  A    between atoms: C_19  and  O_22 
ROOT
ATOM      1  C   LIG d   1      11.015  12.598  -0.056  0.00  0.00    -0.033 C 
ATOM      2  H   LIG d   1      10.267  12.403   0.712  0.00  0.00     0.030 H 
ATOM      3  C   LIG d   1      12.217  11.686   0.156  0.00  0.00    -0.028 C 
ATOM      4  C   LIG d   1      11.859  10.228  -0.033  0.00  0.00    -0.062 C 
ATOM      5  C   LIG d   1      10.819   9.858  -0.770  0.00  0.00     0.008 C 
ATOM      6  C   LIG d   1      10.436   8.417  -0.977  0.00  0.00     0.082 C 
ATOM      7  H   LIG d   1       9.601   8.163  -0.324  0.00  0.00     0.046 H 
ATOM      8  C   LIG d   1      10.041   8.181  -2.420  0.00  0.00     0.174 C 
ATOM      9  O   LIG d   1       9.772   9.100  -3.162  0.00  0.00    -0.291 OA
ATOM     10  C   LIG d   1      10.001   6.777  -2.881  0.00  0.00     0.027 A 
ATOM     11  C   LIG d   1       9.423   6.473  -4.118  0.00  0.00    -0.051 A 
ATOM     12  C   LIG d   1       9.381   5.166  -4.555  0.00  0.00    -0.058 A 
ATOM     13  C   LIG d   1       9.913   4.157  -3.772  0.00  0.00    -0.020 A 
ATOM     14  C   LIG d   1      10.487   4.450  -2.544  0.00  0.00     0.123 A 
ATOM     15  C   LIG d   1      10.535   5.761  -2.089  0.00  0.00     0.035 A 
ATOM     16  C   LIG d   1      11.168   6.047  -0.752  0.00  0.00     0.114 C 
ATOM     17  H   LIG d   1      12.027   5.391  -0.611  0.00  0.00     0.067 H 
ATOM     18  C   LIG d   1      11.623   7.499  -0.672  0.00  0.00     0.110 C 
ATOM     19  C   LIG d   1      12.126   7.848   0.731  0.00  0.00    -0.017 C 
ATOM     20  C   LIG d   1      12.767   9.234   0.656  0.00  0.00    -0.028 C 
ATOM     21  C   LIG d   1       9.965  10.866  -1.423  0.00  0.00     0.160 C 
ATOM     22  O   LIG d   1       8.913  10.545  -1.935  0.00  0.00    -0.292 OA
ATOM     23  C   LIG d   1      10.422  12.305  -1.443  0.00  0.00     0.013 C 
ATOM     24  H   LIG d   1      12.996  11.955  -0.558  0.00  0.00     0.031 H 
ATOM     25  H   LIG d   1      12.598  11.830   1.166  0.00  0.00     0.031 H 
ATOM     26  H   LIG d   1       9.007   7.261  -4.728  0.00  0.00     0.062 H 
ATOM     27  H   LIG d   1       8.936   4.930  -5.510  0.00  0.00     0.062 H 
ATOM     28  H   LIG d   1       9.879   3.135  -4.119  0.00  0.00     0.065 H 
ATOM     29  H   LIG d   1      11.291   7.852   1.431  0.00  0.00     0.030 H 
ATOM     30  H   LIG d   1      12.870   7.117   1.047  0.00  0.00     0.030 H 
ATOM     31  H   LIG d   1      13.708   9.174   0.109  0.00  0.00     0.031 H 
ATOM     32  H   LIG d   1      12.968   9.580   1.670  0.00  0.00     0.031 H 
ATOM     33  H   LIG d   1       9.573  12.964  -1.632  0.00  0.00     0.035 H 
ATOM     34  H   LIG d   1      11.182  12.444  -2.211  0.00  0.00     0.035 H 
ENDROOT
BRANCH   1  35
ATOM     35  C   LIG d   1      11.459  14.060   0.016  0.00  0.00    -0.062 C 
ATOM     36  H   LIG d   1      10.597  14.691   0.234  0.00  0.00     0.023 H 
ATOM     37  H   LIG d   1      12.203  14.176   0.805  0.00  0.00     0.023 H 
ATOM     38  H   LIG d   1      11.892  14.356  -0.939  0.00  0.00     0.023 H 
ENDBRANCH   1  35
BRANCH  18  39
ATOM     39  O   LIG d   1      12.659   7.722  -1.631  0.00  0.00    -0.385 OA
ATOM     40  H   LIG d   1      12.597   8.573  -2.087  0.00  0.00     0.210 HD
ENDBRANCH  18  39
BRANCH  16  41
ATOM     41  O   LIG d   1      10.214   5.806   0.284  0.00  0.00    -0.384 OA
ATOM     42  H   LIG d   1       9.395   6.312   0.190  0.00  0.00     0.210 HD
ENDBRANCH  16  41
BRANCH  14  43
ATOM     43  O   LIG d   1      11.004   3.449  -1.782  0.00  0.00    -0.506 OA
ATOM     44  H   LIG d   1      11.256   3.723  -0.891  0.00  0.00     0.292 HD
ENDBRANCH  14  43
TORSDOF 4
ENDMDL
MODEL 9
REMARK VINA RESULT:      -5.9      7.562     10.039
REMARK  4 active torsions:
REMARK  status: ('A' for Active; 'I' for Inactive)
REMARK    1  A    between atoms: C_1  and  C_2 
REMARK    2  A    between atoms: C_15  and  O_24 
REMARK    3  A    between atoms: C_17  and  O_23 
REMARK    4  A    between atoms: C_19  and  O_22 
ROOT
ATOM      1  C   LIG d   1       9.219   7.820  -7.931  0.00  0.00    -0.033 C 
ATOM      2  H   LIG d   1       8.146   7.802  -7.739  0.00  0.00     0.030 H 
ATOM      3  C   LIG d   1       9.782   9.188  -7.564  0.00  0.00    -0.028 C 
ATOM      4  C   LIG d   1       9.662   9.468  -6.082  0.00  0.00    -0.062 C 
ATOM      5  C   LIG d   1       9.573   8.485  -5.194  0.00  0.00     0.008 C 
ATOM      6  C   LIG d   1       9.453   8.730  -3.714  0.00  0.00     0.082 C 
ATOM      7  H   LIG d   1       8.414   8.612  -3.408  0.00  0.00     0.046 H 
ATOM      8  C   LIG d   1      10.321   7.754  -2.948  0.00  0.00     0.174 C 
ATOM      9  O   LIG d   1      10.756   6.749  -3.468  0.00  0.00    -0.291 OA
ATOM     10  C   LIG d   1      10.615   8.084  -1.537  0.00  0.00     0.027 A 
ATOM     11  C   LIG d   1      11.205   7.122  -0.712  0.00  0.00    -0.051 A 
ATOM     12  C   LIG d   1      11.483   7.423   0.605  0.00  0.00    -0.058 A 
ATOM     13  C   LIG d   1      11.178   8.674   1.108  0.00  0.00    -0.020 A 
ATOM     14  C   LIG d   1      10.591   9.634   0.296  0.00  0.00     0.123 A 
ATOM     15  C   LIG d   1      10.304   9.346  -1.031  0.00  0.00     0.035 A 
ATOM     16  C   LIG d   1       9.670  10.410  -1.889  0.00  0.00     0.114 C 
ATOM     17  H   LIG d   1      10.080  11.383  -1.619  0.00  0.00     0.067 H 
ATOM     18  C   LIG d   1       9.934  10.141  -3.365  0.00  0.00     0.110 C 
ATOM     19  C   LIG d   1       9.168  11.122  -4.255  0.00  0.00    -0.017 C 
ATOM     20  C   LIG d   1       9.667  10.928  -5.687  0.00  0.00    -0.028 C 
ATOM     21  C   LIG d   1       9.574   7.077  -5.630  0.00  0.00     0.160 C 
ATOM     22  O   LIG d   1       9.303   6.189  -4.849  0.00  0.00    -0.292 OA
ATOM     23  C   LIG d   1       9.918   6.759  -7.066  0.00  0.00     0.013 C 
ATOM     24  H   LIG d   1      10.834   9.226  -7.849  0.00  0.00     0.031 H 
ATOM     25  H   LIG d   1       9.239   9.955  -8.116  0.00  0.00     0.031 H 
ATOM     26  H   LIG d   1      11.443   6.145  -1.105  0.00  0.00     0.062 H 
ATOM     27  H   LIG d   1      11.940   6.680   1.243  0.00  0.00     0.062 H 
ATOM     28  H   LIG d   1      11.398   8.906   2.140  0.00  0.00     0.065 H 
ATOM     29  H   LIG d   1       8.099  10.918  -4.194  0.00  0.00     0.030 H 
ATOM     30  H   LIG d   1       9.368  12.144  -3.933  0.00  0.00     0.030 H 
ATOM     31  H   LIG d   1      10.682  11.317  -5.778  0.00  0.00     0.031 H 
ATOM     32  H   LIG d   1       9.015  11.481  -6.362  0.00  0.00     0.031 H 
ATOM     33  H   LIG d   1       9.551   5.766  -7.327  0.00  0.00     0.035 H 
ATOM     34  H   LIG d   1      10.997   6.811  -7.211  0.00  0.00     0.035 H 
ENDROOT
BRANCH   1  35
ATOM     35  C   LIG d   1       9.483   7.535  -9.411  0.00  0.00    -0.062 C 
ATOM     36  H   LIG d   1       8.806   8.132 -10.022  0.00  0.00     0.023 H 
ATOM     37  H   LIG d   1      10.514   7.791  -9.653  0.00  0.00     0.023 H 
ATOM     38  H   LIG d   1       9.314   6.477  -9.611  0.00  0.00     0.023 H 
ENDBRANCH   1  35
BRANCH  18  39
ATOM     39  O   LIG d   1      11.336  10.245  -3.619  0.00  0.00    -0.385 OA
ATOM     40  H   LIG d   1      11.708   9.487  -4.090  0.00  0.00     0.210 HD
ENDBRANCH  18  39
BRANCH  16  41
ATOM     41  O   LIG d   1       8.257  10.415  -1.667  0.00  0.00    -0.384 OA
ATOM     42  H   LIG d   1       7.996  10.109  -0.788  0.00  0.00     0.210 HD
ENDBRANCH  16  41
BRANCH  14  43
ATOM     43  O   LIG d   1      10.294  10.860   0.804  0.00  0.00    -0.506 OA
ATOM     44  H   LIG d   1      10.808  11.581   0.416  0.00  0.00     0.292 HD
ENDBRANCH  14  43
TORSDOF 4
ENDMDL
