MODEL 1
REMARK VINA RESULT:      -4.4      0.000      0.000
REMARK  6 active torsions:
REMARK  status: ('A' for Active; 'I' for Inactive)
REMARK    1  A    between atoms: C_1  and  C_2 
REMARK    2  A    between atoms: C_2  and  C_4 
REMARK    3  A    between atoms: C_2  and  C_8 
REMARK    4  A    between atoms: C_4  and  C_5 
REMARK    5  A    between atoms: C_5  and  C_6 
REMARK    6  A    between atoms: C_5  and  C_7 
ROOT
ATOM      1  C   LIG d   1       3.966  -1.381  -2.377  0.00  0.00    -0.043 C 
ATOM      2  H   LIG d   1       4.579  -1.251  -1.485  0.00  0.00     0.027 H 
ATOM      3  H   LIG d   1       3.295  -2.229  -2.235  0.00  0.00     0.027 H 
ENDROOT
BRANCH   1   4
ATOM      4  C   LIG d   1       3.142  -0.115  -2.618  0.00  0.00    -0.004 C 
ATOM      5  H   LIG d   1       2.288  -0.102  -1.941  0.00  0.00     0.036 H 
BRANCH   4   6
ATOM      6  C   LIG d   1       2.646  -0.097  -4.065  0.00  0.00    -0.057 C 
ATOM      7  H   LIG d   1       1.558  -0.179  -4.077  0.00  0.00     0.024 H 
ATOM      8  H   LIG d   1       2.945   0.836  -4.541  0.00  0.00     0.024 H 
ATOM      9  H   LIG d   1       3.079  -0.938  -4.607  0.00  0.00     0.024 H 
ENDBRANCH   4   6
BRANCH   4  10
ATOM     10  C   LIG d   1       4.000   1.099  -2.366  0.00  0.00     0.045 C 
ATOM     11  O   LIG d   1       3.983   2.030  -3.153  0.00  0.00    -0.549 OA
ATOM     12  O   LIG d   1       4.709   1.149  -1.376  0.00  0.00    -0.549 OA
ENDBRANCH   4  10
ENDBRANCH   1   4
BRANCH   1  13
ATOM     13  C   LIG d   1       4.868  -1.640  -3.584  0.00  0.00    -0.046 C 
ATOM     14  H   LIG d   1       4.619  -0.940  -4.381  0.00  0.00     0.030 H 
BRANCH  13  15
ATOM     15  C   LIG d   1       6.331  -1.451  -3.178  0.00  0.00    -0.063 C 
ATOM     16  H   LIG d   1       6.774  -2.421  -2.953  0.00  0.00     0.023 H 
ATOM     17  H   LIG d   1       6.878  -0.983  -3.997  0.00  0.00     0.023 H 
ATOM     18  H   LIG d   1       6.383  -0.815  -2.295  0.00  0.00     0.023 H 
ENDBRANCH  13  15
BRANCH  13  19
ATOM     19  C   LIG d   1       4.658  -3.072  -4.080  0.00  0.00    -0.063 C 
ATOM     20  H   LIG d   1       4.164  -3.051  -5.052  0.00  0.00     0.023 H 
ATOM     21  H   LIG d   1       5.623  -3.571  -4.174  0.00  0.00     0.023 H 
ATOM     22  H   LIG d   1       4.035  -3.616  -3.369  0.00  0.00     0.023 H 
ENDBRANCH  13  19
ENDBRANCH   1  13
TORSDOF 6
ENDMDL
MODEL 2
REMARK VINA RESULT:      -4.3      1.954      2.703
REMARK  6 active torsions:
REMARK  status: ('A' for Active; 'I' for Inactive)
REMARK    1  A    between atoms: C_1  and  C_2 
REMARK    2  A    between atoms: C_2  and  C_4 
REMARK    3  A    between atoms: C_2  and  C_8 
REMARK    4  A    between atoms: C_4  and  C_5 
REMARK    5  A    between atoms: C_5  and  C_6 
REMARK    6  A    between atoms: C_5  and  C_7 
ROOT
ATOM      1  C   LIG d   1       2.677  -0.784  -3.018  0.00  0.00    -0.043 C 
ATOM      2  H   LIG d   1       2.162  -0.432  -2.125  0.00  0.00     0.027 H 
ATOM      3  H   LIG d   1       1.945  -1.150  -3.738  0.00  0.00     0.027 H 
ENDROOT
BRANCH   1   4
ATOM      4  C   LIG d   1       3.470   0.369  -3.638  0.00  0.00    -0.004 C 
ATOM      5  H   LIG d   1       4.474   0.027  -3.886  0.00  0.00     0.036 H 
BRANCH   4   6
ATOM      6  C   LIG d   1       3.557   1.523  -2.637  0.00  0.00    -0.057 C 
ATOM      7  H   LIG d   1       3.201   2.440  -3.108  0.00  0.00     0.024 H 
ATOM      8  H   LIG d   1       2.940   1.298  -1.767  0.00  0.00     0.024 H 
ATOM      9  H   LIG d   1       4.593   1.655  -2.324  0.00  0.00     0.024 H 
ENDBRANCH   4   6
BRANCH   4  10
ATOM     10  C   LIG d   1       2.776   0.841  -4.889  0.00  0.00     0.045 C 
ATOM     11  O   LIG d   1       2.558   0.057  -5.798  0.00  0.00    -0.549 OA
ATOM     12  O   LIG d   1       2.431   2.006  -4.993  0.00  0.00    -0.549 OA
ENDBRANCH   4  10
ENDBRANCH   1   4
BRANCH   1  13
ATOM     13  C   LIG d   1       3.633  -1.917  -2.642  0.00  0.00    -0.046 C 
ATOM     14  H   LIG d   1       3.067  -2.742  -2.210  0.00  0.00     0.030 H 
BRANCH  13  15
ATOM     15  C   LIG d   1       4.366  -2.403  -3.894  0.00  0.00    -0.063 C 
ATOM     16  H   LIG d   1       3.823  -2.077  -4.782  0.00  0.00     0.023 H 
ATOM     17  H   LIG d   1       5.373  -1.984  -3.911  0.00  0.00     0.023 H 
ATOM     18  H   LIG d   1       4.423  -3.490  -3.882  0.00  0.00     0.023 H 
ENDBRANCH  13  15
BRANCH  13  19
ATOM     19  C   LIG d   1       4.652  -1.407  -1.620  0.00  0.00    -0.063 C 
ATOM     20  H   LIG d   1       5.459  -2.133  -1.519  0.00  0.00     0.023 H 
ATOM     21  H   LIG d   1       5.060  -0.454  -1.957  0.00  0.00     0.023 H 
ATOM     22  H   LIG d   1       4.162  -1.272  -0.655  0.00  0.00     0.023 H 
ENDBRANCH  13  19
ENDBRANCH   1  13
TORSDOF 6
ENDMDL
MODEL 3
REMARK VINA RESULT:      -4.2      1.376      2.232
REMARK  6 active torsions:
REMARK  status: ('A' for Active; 'I' for Inactive)
REMARK    1  A    between atoms: C_1  and  C_2 
REMARK    2  A    between atoms: C_2  and  C_4 
REMARK    3  A    between atoms: C_2  and  C_8 
REMARK    4  A    between atoms: C_4  and  C_5 
REMARK    5  A    between atoms: C_5  and  C_6 
REMARK    6  A    between atoms: C_5  and  C_7 
ROOT
ATOM      1  C   LIG d   1       4.231  -1.279  -2.282  0.00  0.00    -0.043 C 
ATOM      2  H   LIG d   1       4.349  -1.272  -1.198  0.00  0.00     0.027 H 
ATOM      3  H   LIG d   1       3.244  -1.666  -2.537  0.00  0.00     0.027 H 
ENDROOT
BRANCH   1   4
ATOM      4  C   LIG d   1       4.374   0.147  -2.819  0.00  0.00    -0.004 C 
ATOM      5  H   LIG d   1       5.285   0.222  -3.412  0.00  0.00     0.036 H 
BRANCH   4   6
ATOM      6  C   LIG d   1       4.445   1.128  -1.647  0.00  0.00    -0.057 C 
ATOM      7  H   LIG d   1       3.964   2.065  -1.929  0.00  0.00     0.024 H 
ATOM      8  H   LIG d   1       3.934   0.702  -0.784  0.00  0.00     0.024 H 
ATOM      9  H   LIG d   1       5.488   1.317  -1.395  0.00  0.00     0.024 H 
ENDBRANCH   4   6
BRANCH   4  10
ATOM     10  C   LIG d   1       3.184   0.480  -3.682  0.00  0.00     0.045 C 
ATOM     11  O   LIG d   1       3.106   1.573  -4.217  0.00  0.00    -0.549 OA
ATOM     12  O   LIG d   1       2.300  -0.344  -3.846  0.00  0.00    -0.549 OA
ENDBRANCH   4  10
ENDBRANCH   1   4
BRANCH   1  13
ATOM     13  C   LIG d   1       5.305  -2.170  -2.907  0.00  0.00    -0.046 C 
ATOM     14  H   LIG d   1       5.652  -2.893  -2.168  0.00  0.00     0.030 H 
BRANCH  13  15
ATOM     15  C   LIG d   1       4.718  -2.911  -4.109  0.00  0.00    -0.063 C 
ATOM     16  H   LIG d   1       5.283  -3.827  -4.283  0.00  0.00     0.023 H 
ATOM     17  H   LIG d   1       3.675  -3.160  -3.909  0.00  0.00     0.023 H 
ATOM     18  H   LIG d   1       4.778  -2.275  -4.992  0.00  0.00     0.023 H 
ENDBRANCH  13  15
BRANCH  13  19
ATOM     19  C   LIG d   1       6.482  -1.305  -3.364  0.00  0.00    -0.063 C 
ATOM     20  H   LIG d   1       6.326  -0.997  -4.398  0.00  0.00     0.023 H 
ATOM     21  H   LIG d   1       6.554  -0.423  -2.728  0.00  0.00     0.023 H 
ATOM     22  H   LIG d   1       7.406  -1.881  -3.292  0.00  0.00     0.023 H 
ENDBRANCH  13  19
ENDBRANCH   1  13
TORSDOF 6
ENDMDL
MODEL 4
REMARK VINA RESULT:      -4.1      2.062      3.486
REMARK  6 active torsions:
REMARK  status: ('A' for Active; 'I' for Inactive)
REMARK    1  A    between atoms: C_1  and  C_2 
REMARK    2  A    between atoms: C_2  and  C_4 
REMARK    3  A    between atoms: C_2  and  C_8 
REMARK    4  A    between atoms: C_4  and  C_5 
REMARK    5  A    between atoms: C_5  and  C_6 
REMARK    6  A    between atoms: C_5  and  C_7 
ROOT
ATOM      1  C   LIG d   1       4.497  -1.438  -2.226  0.00  0.00    -0.043 C 
ATOM      2  H   LIG d   1       3.848  -2.289  -2.020  0.00  0.00     0.027 H 
ATOM      3  H   LIG d   1       5.260  -1.368  -1.450  0.00  0.00     0.027 H 
ENDROOT
BRANCH   1   4
ATOM      4  C   LIG d   1       5.169  -1.624  -3.587  0.00  0.00    -0.004 C 
ATOM      5  H   LIG d   1       4.777  -0.890  -4.290  0.00  0.00     0.036 H 
BRANCH   4   6
ATOM      6  C   LIG d   1       4.881  -3.034  -4.109  0.00  0.00    -0.057 C 
ATOM      7  H   LIG d   1       5.818  -3.515  -4.390  0.00  0.00     0.024 H 
ATOM      8  H   LIG d   1       4.392  -3.617  -3.329  0.00  0.00     0.024 H 
ATOM      9  H   LIG d   1       4.228  -2.972  -4.980  0.00  0.00     0.024 H 
ENDBRANCH   4   6
BRANCH   4  10
ATOM     10  C   LIG d   1       6.657  -1.436  -3.443  0.00  0.00     0.045 C 
ATOM     11  O   LIG d   1       7.381  -2.404  -3.279  0.00  0.00    -0.549 OA
ATOM     12  O   LIG d   1       7.138  -0.317  -3.491  0.00  0.00    -0.549 OA
ENDBRANCH   4  10
ENDBRANCH   1   4
BRANCH   1  13
ATOM     13  C   LIG d   1       3.664  -0.155  -2.239  0.00  0.00    -0.046 C 
ATOM     14  H   LIG d   1       2.775  -0.292  -1.623  0.00  0.00     0.030 H 
BRANCH  13  15
ATOM     15  C   LIG d   1       4.497   1.000  -1.680  0.00  0.00    -0.063 C 
ATOM     16  H   LIG d   1       4.644   0.857  -0.609  0.00  0.00     0.023 H 
ATOM     17  H   LIG d   1       5.467   1.024  -2.178  0.00  0.00     0.023 H 
ATOM     18  H   LIG d   1       3.976   1.941  -1.853  0.00  0.00     0.023 H 
ENDBRANCH  13  15
BRANCH  13  19
ATOM     19  C   LIG d   1       3.245   0.167  -3.675  0.00  0.00    -0.063 C 
ATOM     20  H   LIG d   1       3.849  -0.418  -4.369  0.00  0.00     0.023 H 
ATOM     21  H   LIG d   1       2.192  -0.082  -3.811  0.00  0.00     0.023 H 
ATOM     22  H   LIG d   1       3.395   1.229  -3.869  0.00  0.00     0.023 H 
ENDBRANCH  13  19
ENDBRANCH   1  13
TORSDOF 6
ENDMDL
MODEL 5
REMARK VINA RESULT:      -4.0      2.555      4.041
REMARK  6 active torsions:
REMARK  status: ('A' for Active; 'I' for Inactive)
REMARK    1  A    between atoms: C_1  and  C_2 
REMARK    2  A    between atoms: C_2  and  C_4 
REMARK    3  A    between atoms: C_2  and  C_8 
REMARK    4  A    between atoms: C_4  and  C_5 
REMARK    5  A    between atoms: C_5  and  C_6 
REMARK    6  A    between atoms: C_5  and  C_7 
ROOT
ATOM      1  C   LIG d   1       4.548  -1.388  -2.113  0.00  0.00    -0.043 C 
ATOM      2  H   LIG d   1       3.786  -2.150  -1.953  0.00  0.00     0.027 H 
ATOM      3  H   LIG d   1       4.937  -1.055  -1.150  0.00  0.00     0.027 H 
ENDROOT
BRANCH   1   4
ATOM      4  C   LIG d   1       5.688  -1.973  -2.949  0.00  0.00    -0.004 C 
ATOM      5  H   LIG d   1       6.242  -2.696  -2.351  0.00  0.00     0.036 H 
BRANCH   4   6
ATOM      6  C   LIG d   1       6.628  -0.848  -3.388  0.00  0.00    -0.057 C 
ATOM      7  H   LIG d   1       7.051  -0.364  -2.508  0.00  0.00     0.024 H 
ATOM      8  H   LIG d   1       7.431  -1.262  -3.997  0.00  0.00     0.024 H 
ATOM      9  H   LIG d   1       6.069  -0.116  -3.972  0.00  0.00     0.024 H 
ENDBRANCH   4   6
BRANCH   4  10
ATOM     10  C   LIG d   1       5.120  -2.657  -4.165  0.00  0.00     0.045 C 
ATOM     11  O   LIG d   1       4.308  -3.557  -4.035  0.00  0.00    -0.549 OA
ATOM     12  O   LIG d   1       5.472  -2.311  -5.280  0.00  0.00    -0.549 OA
ENDBRANCH   4  10
ENDBRANCH   1   4
BRANCH   1  13
ATOM     13  C   LIG d   1       3.932  -0.199  -2.852  0.00  0.00    -0.046 C 
ATOM     14  H   LIG d   1       4.482  -0.021  -3.777  0.00  0.00     0.030 H 
BRANCH  13  15
ATOM     15  C   LIG d   1       2.469  -0.503  -3.180  0.00  0.00    -0.063 C 
ATOM     16  H   LIG d   1       2.219  -1.504  -2.827  0.00  0.00     0.023 H 
ATOM     17  H   LIG d   1       1.827   0.226  -2.686  0.00  0.00     0.023 H 
ATOM     18  H   LIG d   1       2.319  -0.450  -4.257  0.00  0.00     0.023 H 
ENDBRANCH  13  15
BRANCH  13  19
ATOM     19  C   LIG d   1       4.009   1.047  -1.967  0.00  0.00    -0.063 C 
ATOM     20  H   LIG d   1       3.724   1.924  -2.550  0.00  0.00     0.023 H 
ATOM     21  H   LIG d   1       3.329   0.936  -1.122  0.00  0.00     0.023 H 
ATOM     22  H   LIG d   1       5.028   1.171  -1.600  0.00  0.00     0.023 H 
ENDBRANCH  13  19
ENDBRANCH   1  13
TORSDOF 6
ENDMDL
MODEL 6
REMARK VINA RESULT:      -3.9      2.344      3.654
REMARK  6 active torsions:
REMARK  status: ('A' for Active; 'I' for Inactive)
REMARK    1  A    between atoms: C_1  and  C_2 
REMARK    2  A    between atoms: C_2  and  C_4 
REMARK    3  A    between atoms: C_2  and  C_8 
REMARK    4  A    between atoms: C_4  and  C_5 
REMARK    5  A    between atoms: C_5  and  C_6 
REMARK    6  A    between atoms: C_5  and  C_7 
ROOT
ATOM      1  C   LIG d   1       5.888   0.588  -2.903  0.00  0.00    -0.043 C 
ATOM      2  H   LIG d   1       6.832   0.603  -2.359  0.00  0.00     0.027 H 
ATOM      3  H   LIG d   1       5.771   1.523  -3.453  0.00  0.00     0.027 H 
ENDROOT
BRANCH   1   4
ATOM      4  C   LIG d   1       5.882  -0.585  -3.885  0.00  0.00    -0.004 C 
ATOM      5  H   LIG d   1       5.176  -1.341  -3.545  0.00  0.00     0.036 H 
BRANCH   4   6
ATOM      6  C   LIG d   1       7.284  -1.194  -3.958  0.00  0.00    -0.057 C 
ATOM      7  H   LIG d   1       7.294  -2.146  -3.427  0.00  0.00     0.024 H 
ATOM      8  H   LIG d   1       7.556  -1.357  -5.001  0.00  0.00     0.024 H 
ATOM      9  H   LIG d   1       8.000  -0.514  -3.497  0.00  0.00     0.024 H 
ENDBRANCH   4   6
BRANCH   4  10
ATOM     10  C   LIG d   1       5.475  -0.096  -5.251  0.00  0.00     0.045 C 
ATOM     11  O   LIG d   1       6.325   0.251  -6.053  0.00  0.00    -0.549 OA
ATOM     12  O   LIG d   1       4.295  -0.048  -5.554  0.00  0.00    -0.549 OA
ENDBRANCH   4  10
ENDBRANCH   1   4
BRANCH   1  13
ATOM     13  C   LIG d   1       4.732   0.431  -1.914  0.00  0.00    -0.046 C 
ATOM     14  H   LIG d   1       5.063   0.728  -0.918  0.00  0.00     0.030 H 
BRANCH  13  15
ATOM     15  C   LIG d   1       3.563   1.317  -2.349  0.00  0.00    -0.063 C 
ATOM     16  H   LIG d   1       3.943   2.291  -2.660  0.00  0.00     0.023 H 
ATOM     17  H   LIG d   1       3.042   0.847  -3.183  0.00  0.00     0.023 H 
ATOM     18  H   LIG d   1       2.875   1.445  -1.515  0.00  0.00     0.023 H 
ENDBRANCH  13  15
BRANCH  13  19
ATOM     19  C   LIG d   1       4.281  -1.031  -1.884  0.00  0.00    -0.063 C 
ATOM     20  H   LIG d   1       3.320  -1.105  -1.373  0.00  0.00     0.023 H 
ATOM     21  H   LIG d   1       4.179  -1.401  -2.905  0.00  0.00     0.023 H 
ATOM     22  H   LIG d   1       5.021  -1.630  -1.353  0.00  0.00     0.023 H 
ENDBRANCH  13  19
ENDBRANCH   1  13
TORSDOF 6
ENDMDL
MODEL 7
REMARK VINA RESULT:      -3.9      2.172      3.023
REMARK  6 active torsions:
REMARK  status: ('A' for Active; 'I' for Inactive)
REMARK    1  A    between atoms: C_1  and  C_2 
REMARK    2  A    between atoms: C_2  and  C_4 
REMARK    3  A    between atoms: C_2  and  C_8 
REMARK    4  A    between atoms: C_4  and  C_5 
REMARK    5  A    between atoms: C_5  and  C_6 
REMARK    6  A    between atoms: C_5  and  C_7 
ROOT
ATOM      1  C   LIG d   1       5.222  -0.134  -3.871  0.00  0.00    -0.043 C 
ATOM      2  H   LIG d   1       6.192  -0.516  -4.188  0.00  0.00     0.027 H 
ATOM      3  H   LIG d   1       5.146   0.923  -4.130  0.00  0.00     0.027 H 
ENDROOT
BRANCH   1   4
ATOM      4  C   LIG d   1       4.110  -0.913  -4.577  0.00  0.00    -0.004 C 
ATOM      5  H   LIG d   1       3.587  -1.536  -3.854  0.00  0.00     0.036 H 
BRANCH   4   6
ATOM      6  C   LIG d   1       4.721  -1.799  -5.665  0.00  0.00    -0.057 C 
ATOM      7  H   LIG d   1       4.714  -2.837  -5.334  0.00  0.00     0.024 H 
ATOM      8  H   LIG d   1       4.137  -1.705  -6.581  0.00  0.00     0.024 H 
ATOM      9  H   LIG d   1       5.748  -1.485  -5.855  0.00  0.00     0.024 H 
ENDBRANCH   4   6
BRANCH   4  10
ATOM     10  C   LIG d   1       3.139   0.054  -5.204  0.00  0.00     0.045 C 
ATOM     11  O   LIG d   1       3.408   0.587  -6.267  0.00  0.00    -0.549 OA
ATOM     12  O   LIG d   1       2.083   0.303  -4.647  0.00  0.00    -0.549 OA
ENDBRANCH   4  10
ENDBRANCH   1   4
BRANCH   1  13
ATOM     13  C   LIG d   1       5.079  -0.300  -2.357  0.00  0.00    -0.046 C 
ATOM     14  H   LIG d   1       6.067  -0.408  -1.909  0.00  0.00     0.030 H 
BRANCH  13  15
ATOM     15  C   LIG d   1       4.385   0.932  -1.772  0.00  0.00    -0.063 C 
ATOM     16  H   LIG d   1       3.895   1.487  -2.573  0.00  0.00     0.023 H 
ATOM     17  H   LIG d   1       3.639   0.616  -1.041  0.00  0.00     0.023 H 
ATOM     18  H   LIG d   1       5.123   1.569  -1.288  0.00  0.00     0.023 H 
ENDBRANCH  13  15
BRANCH  13  19
ATOM     19  C   LIG d   1       4.244  -1.547  -2.057  0.00  0.00    -0.063 C 
ATOM     20  H   LIG d   1       3.517  -1.697  -2.855  0.00  0.00     0.023 H 
ATOM     21  H   LIG d   1       4.899  -2.416  -1.994  0.00  0.00     0.023 H 
ATOM     22  H   LIG d   1       3.722  -1.415  -1.110  0.00  0.00     0.023 H 
ENDBRANCH  13  19
ENDBRANCH   1  13
TORSDOF 6
ENDMDL
MODEL 8
REMARK VINA RESULT:      -3.9      2.302      3.073
REMARK  6 active torsions:
REMARK  status: ('A' for Active; 'I' for Inactive)
REMARK    1  A    between atoms: C_1  and  C_2 
REMARK    2  A    between atoms: C_2  and  C_4 
REMARK    3  A    between atoms: C_2  and  C_8 
REMARK    4  A    between atoms: C_4  and  C_5 
REMARK    5  A    between atoms: C_5  and  C_6 
REMARK    6  A    between atoms: C_5  and  C_7 
ROOT
ATOM      1  C   LIG d   1       3.183  -1.017  -3.289  0.00  0.00    -0.043 C 
ATOM      2  H   LIG d   1       2.147  -0.909  -2.969  0.00  0.00     0.027 H 
ATOM      3  H   LIG d   1       3.326  -2.006  -3.726  0.00  0.00     0.027 H 
ENDROOT
BRANCH   1   4
ATOM      4  C   LIG d   1       3.509   0.053  -4.333  0.00  0.00    -0.004 C 
ATOM      5  H   LIG d   1       4.028   0.882  -3.854  0.00  0.00     0.036 H 
BRANCH   4   6
ATOM      6  C   LIG d   1       2.211   0.561  -4.964  0.00  0.00    -0.057 C 
ATOM      7  H   LIG d   1       1.709  -0.261  -5.475  0.00  0.00     0.024 H 
ATOM      8  H   LIG d   1       1.559   0.957  -4.186  0.00  0.00     0.024 H 
ATOM      9  H   LIG d   1       2.440   1.348  -5.682  0.00  0.00     0.024 H 
ENDBRANCH   4   6
BRANCH   4  10
ATOM     10  C   LIG d   1       4.389  -0.540  -5.403  0.00  0.00     0.045 C 
ATOM     11  O   LIG d   1       4.288  -1.721  -5.690  0.00  0.00    -0.549 OA
ATOM     12  O   LIG d   1       5.201   0.161  -5.982  0.00  0.00    -0.549 OA
ENDBRANCH   4  10
ENDBRANCH   1   4
BRANCH   1  13
ATOM     13  C   LIG d   1       4.109  -0.853  -2.083  0.00  0.00    -0.046 C 
ATOM     14  H   LIG d   1       3.636  -1.282  -1.200  0.00  0.00     0.030 H 
BRANCH  13  15
ATOM     15  C   LIG d   1       5.432  -1.573  -2.354  0.00  0.00    -0.063 C 
ATOM     16  H   LIG d   1       6.206  -1.167  -1.702  0.00  0.00     0.023 H 
ATOM     17  H   LIG d   1       5.312  -2.639  -2.155  0.00  0.00     0.023 H 
ATOM     18  H   LIG d   1       5.719  -1.427  -3.394  0.00  0.00     0.023 H 
ENDBRANCH  13  15
BRANCH  13  19
ATOM     19  C   LIG d   1       4.378   0.635  -1.845  0.00  0.00    -0.063 C 
ATOM     20  H   LIG d   1       3.502   1.092  -1.384  0.00  0.00     0.023 H 
ATOM     21  H   LIG d   1       5.238   0.748  -1.185  0.00  0.00     0.023 H 
ATOM     22  H   LIG d   1       4.583   1.124  -2.797  0.00  0.00     0.023 H 
ENDBRANCH  13  19
ENDBRANCH   1  13
TORSDOF 6
ENDMDL
MODEL 9
REMARK VINA RESULT:      -3.9      2.749      3.759
REMARK  6 active torsions:
REMARK  status: ('A' for Active; 'I' for Inactive)
REMARK    1  A    between atoms: C_1  and  C_2 
REMARK    2  A    between atoms: C_2  and  C_4 
REMARK    3  A    between atoms: C_2  and  C_8 
REMARK    4  A    between atoms: C_4  and  C_5 
REMARK    5  A    between atoms: C_5  and  C_6 
REMARK    6  A    between atoms: C_5  and  C_7 
ROOT
ATOM      1  C   LIG d   1       4.084  -0.180  -3.730  0.00  0.00    -0.043 C 
ATOM      2  H   LIG d   1       4.553   0.024  -4.692  0.00  0.00     0.027 H 
ATOM      3  H   LIG d   1       3.207   0.457  -3.612  0.00  0.00     0.027 H 
ENDROOT
BRANCH   1   4
ATOM      4  C   LIG d   1       3.659  -1.649  -3.672  0.00  0.00    -0.004 C 
ATOM      5  H   LIG d   1       2.610  -1.735  -3.951  0.00  0.00     0.036 H 
BRANCH   4   6
ATOM      6  C   LIG d   1       3.853  -2.179  -2.249  0.00  0.00    -0.057 C 
ATOM      7  H   LIG d   1       4.108  -1.352  -1.586  0.00  0.00     0.024 H 
ATOM      8  H   LIG d   1       2.931  -2.649  -1.907  0.00  0.00     0.024 H 
ATOM      9  H   LIG d   1       4.659  -2.912  -2.242  0.00  0.00     0.024 H 
ENDBRANCH   4   6
BRANCH   4  10
ATOM     10  C   LIG d   1       4.501  -2.455  -4.627  0.00  0.00     0.045 C 
ATOM     11  O   LIG d   1       4.481  -3.673  -4.579  0.00  0.00    -0.549 OA
ATOM     12  O   LIG d   1       5.201  -1.888  -5.449  0.00  0.00    -0.549 OA
ENDBRANCH   4  10
ENDBRANCH   1   4
BRANCH   1  13
ATOM     13  C   LIG d   1       5.080   0.108  -2.606  0.00  0.00    -0.046 C 
ATOM     14  H   LIG d   1       5.284  -0.811  -2.056  0.00  0.00     0.030 H 
BRANCH  13  15
ATOM     15  C   LIG d   1       6.382   0.646  -3.202  0.00  0.00    -0.063 C 
ATOM     16  H   LIG d   1       6.725  -0.026  -3.990  0.00  0.00     0.023 H 
ATOM     17  H   LIG d   1       6.208   1.637  -3.621  0.00  0.00     0.023 H 
ATOM     18  H   LIG d   1       7.140   0.708  -2.423  0.00  0.00     0.023 H 
ENDBRANCH  13  15
BRANCH  13  19
ATOM     19  C   LIG d   1       4.486   1.149  -1.654  0.00  0.00    -0.063 C 
ATOM     20  H   LIG d   1       3.630   0.719  -1.134  0.00  0.00     0.023 H 
ATOM     21  H   LIG d   1       5.241   1.448  -0.926  0.00  0.00     0.023 H 
ATOM     22  H   LIG d   1       4.164   2.021  -2.223  0.00  0.00     0.023 H 
ENDBRANCH  13  19
ENDBRANCH   1  13
TORSDOF 6
ENDMDL
MODEL 10
REMARK VINA RESULT:      -3.6      2.352      3.513
REMARK  6 active torsions:
REMARK  status: ('A' for Active; 'I' for Inactive)
REMARK    1  A    between atoms: C_1  and  C_2 
REMARK    2  A    between atoms: C_2  and  C_4 
REMARK    3  A    between atoms: C_2  and  C_8 
REMARK    4  A    between atoms: C_4  and  C_5 
REMARK    5  A    between atoms: C_5  and  C_6 
REMARK    6  A    between atoms: C_5  and  C_7 
ROOT
ATOM      1  C   LIG d   1       5.042  -0.075  -3.972  0.00  0.00    -0.043 C 
ATOM      2  H   LIG d   1       4.991   1.011  -4.044  0.00  0.00     0.027 H 
ATOM      3  H   LIG d   1       4.325  -0.519  -4.664  0.00  0.00     0.027 H 
ENDROOT
BRANCH   1   4
ATOM      4  C   LIG d   1       6.454  -0.543  -4.332  0.00  0.00    -0.004 C 
ATOM      5  H   LIG d   1       6.448  -0.984  -5.328  0.00  0.00     0.036 H 
BRANCH   4   6
ATOM      6  C   LIG d   1       6.918  -1.588  -3.315  0.00  0.00    -0.057 C 
ATOM      7  H   LIG d   1       6.446  -1.392  -2.352  0.00  0.00     0.024 H 
ATOM      8  H   LIG d   1       6.639  -2.582  -3.662  0.00  0.00     0.024 H 
ATOM      9  H   LIG d   1       8.001  -1.531  -3.206  0.00  0.00     0.024 H 
ENDBRANCH   4   6
BRANCH   4  10
ATOM     10  C   LIG d   1       7.395   0.634  -4.309  0.00  0.00     0.045 C 
ATOM     11  O   LIG d   1       6.978   1.742  -4.020  0.00  0.00    -0.549 OA
ATOM     12  O   LIG d   1       8.573   0.477  -4.580  0.00  0.00    -0.549 OA
ENDBRANCH   4  10
ENDBRANCH   1   4
BRANCH   1  13
ATOM     13  C   LIG d   1       4.709  -0.508  -2.544  0.00  0.00    -0.046 C 
ATOM     14  H   LIG d   1       5.534  -1.096  -2.141  0.00  0.00     0.030 H 
BRANCH  13  15
ATOM     15  C   LIG d   1       4.492   0.730  -1.673  0.00  0.00    -0.063 C 
ATOM     16  H   LIG d   1       4.042   1.522  -2.272  0.00  0.00     0.023 H 
ATOM     17  H   LIG d   1       3.827   0.480  -0.845  0.00  0.00     0.023 H 
ATOM     18  H   LIG d   1       5.449   1.071  -1.280  0.00  0.00     0.023 H 
ENDBRANCH  13  15
BRANCH  13  19
ATOM     19  C   LIG d   1       3.435  -1.356  -2.553  0.00  0.00    -0.063 C 
ATOM     20  H   LIG d   1       3.699  -2.405  -2.694  0.00  0.00     0.023 H 
ATOM     21  H   LIG d   1       2.913  -1.237  -1.603  0.00  0.00     0.023 H 
ATOM     22  H   LIG d   1       2.788  -1.032  -3.368  0.00  0.00     0.023 H 
ENDBRANCH  13  19
ENDBRANCH   1  13
TORSDOF 6
ENDMDL
