MODEL 1
REMARK VINA RESULT:      -6.0      0.000      0.000
REMARK  13 active torsions:
REMARK  status: ('A' for Active; 'I' for Inactive)
REMARK    1  A    between atoms: C_1  and  C_2 
REMARK    2  A    between atoms: C_5  and  O_40 
REMARK    3  A    between atoms: C_7  and  C_38 
REMARK    4  A    between atoms: C_7  and  C_39 
REMARK    5  A    between atoms: C_12  and  C_37 
REMARK    6  A    between atoms: C_20  and  C_30 
REMARK    7  A    between atoms: C_20  and  C_31 
REMARK    8  A    between atoms: C_24  and  C_29 
REMARK    9  A    between atoms: C_27  and  C_28 
REMARK   10  A    between atoms: C_31  and  O_33 
REMARK   11  A    between atoms: O_33  and  C_34 
REMARK   12  A    between atoms: C_34  and  C_35 
REMARK   13  A    between atoms: C_35  and  N_36 
ROOT
ATOM      1  C   LIG d   1       9.985   3.493  -5.819  0.00  0.00    -0.022 C 
ATOM      2  C   LIG d   1       9.543   4.069  -7.179  0.00  0.00    -0.044 C 
ATOM      3  C   LIG d   1       9.007   2.942  -8.055  0.00  0.00    -0.026 C 
ATOM      4  C   LIG d   1      10.098   1.920  -8.340  0.00  0.00     0.061 C 
ATOM      5  H   LIG d   1      10.882   2.391  -8.945  0.00  0.00     0.060 H 
ATOM      6  C   LIG d   1      10.732   1.369  -7.061  0.00  0.00    -0.006 C 
ATOM      7  C   LIG d   1      11.082   2.468  -6.083  0.00  0.00    -0.028 C 
ATOM      8  H   LIG d   1      11.916   3.047  -6.566  0.00  0.00     0.031 H 
ATOM      9  C   LIG d   1      11.670   1.949  -4.776  0.00  0.00    -0.049 C 
ATOM     10  C   LIG d   1      12.359   3.122  -4.054  0.00  0.00    -0.046 C 
ATOM     11  C   LIG d   1      11.325   4.197  -3.745  0.00  0.00    -0.016 C 
ATOM     12  C   LIG d   1      10.594   4.631  -5.002  0.00  0.00    -0.011 C 
ATOM     13  H   LIG d   1      11.349   5.050  -5.701  0.00  0.00     0.035 H 
ATOM     14  C   LIG d   1       9.645   5.751  -4.732  0.00  0.00    -0.080 C 
ATOM     15  C   LIG d   1       9.765   6.552  -3.678  0.00  0.00    -0.062 C 
ATOM     16  C   LIG d   1      10.843   6.334  -2.685  0.00  0.00    -0.041 C 
ATOM     17  C   LIG d   1      10.767   6.910  -1.493  0.00  0.00    -0.052 C 
ATOM     18  C   LIG d   1       9.573   7.779  -1.170  0.00  0.00    -0.014 C 
ATOM     19  C   LIG d   1      10.025   9.111  -0.573  0.00  0.00     0.075 C 
ATOM     20  C   LIG d   1      10.855   8.858   0.688  0.00  0.00     0.022 C 
ATOM     21  C   LIG d   1      12.038   7.994   0.328  0.00  0.00     0.144 C 
ATOM     22  O   LIG d   1      13.152   8.320   0.658  0.00  0.00    -0.296 OA
ATOM     23  C   LIG d   1      11.823   6.717  -0.442  0.00  0.00     0.048 C 
ATOM     24  C   LIG d   1      13.139   6.252  -1.050  0.00  0.00    -0.036 C 
ATOM     25  C   LIG d   1      12.902   5.056  -1.969  0.00  0.00    -0.042 C 
ATOM     26  C   LIG d   1      11.977   5.435  -3.106  0.00  0.00    -0.001 C 
ATOM     27  H   LIG d   1       8.764   4.812  -7.013  0.00  0.00     0.027 H 
ATOM     28  H   LIG d   1      10.403   4.535  -7.659  0.00  0.00     0.027 H 
ATOM     29  H   LIG d   1       8.143   2.464  -7.602  0.00  0.00     0.029 H 
ATOM     30  H   LIG d   1       8.676   3.375  -9.012  0.00  0.00     0.029 H 
ATOM     31  H   LIG d   1      10.904   1.517  -4.142  0.00  0.00     0.027 H 
ATOM     32  H   LIG d   1      12.429   1.189  -4.975  0.00  0.00     0.027 H 
ATOM     33  H   LIG d   1      12.802   2.756  -3.128  0.00  0.00     0.027 H 
ATOM     34  H   LIG d   1      13.139   3.519  -4.701  0.00  0.00     0.027 H 
ATOM     35  H   LIG d   1       8.831   5.929  -5.416  0.00  0.00     0.058 H 
ATOM     36  H   LIG d   1       9.074   7.371  -3.579  0.00  0.00     0.062 H 
ATOM     37  H   LIG d   1       8.982   7.976  -2.058  0.00  0.00     0.032 H 
ATOM     38  H   LIG d   1       8.943   7.263  -0.439  0.00  0.00     0.032 H 
ATOM     39  H   LIG d   1      11.205   9.807   1.092  0.00  0.00     0.035 H 
ATOM     40  H   LIG d   1      10.241   8.351   1.433  0.00  0.00     0.035 H 
ATOM     41  H   LIG d   1      13.595   7.071  -1.608  0.00  0.00     0.028 H 
ATOM     42  H   LIG d   1      13.822   5.959  -0.245  0.00  0.00     0.028 H 
ATOM     43  H   LIG d   1      13.869   4.752  -2.397  0.00  0.00     0.027 H 
ATOM     44  H   LIG d   1      12.514   4.216  -1.403  0.00  0.00     0.027 H 
ENDROOT
BRANCH  19  45
ATOM     45  C   LIG d   1       8.793   9.944  -0.209  0.00  0.00    -0.049 C 
ATOM     46  H   LIG d   1       9.039  11.004  -0.270  0.00  0.00     0.024 H 
ATOM     47  H   LIG d   1       7.984   9.719  -0.904  0.00  0.00     0.024 H 
ATOM     48  H   LIG d   1       8.478   9.702   0.806  0.00  0.00     0.024 H 
ENDBRANCH  19  45
BRANCH  19  49
ATOM     49  C   LIG d   1      10.853   9.862  -1.582  0.00  0.00     0.314 C 
ATOM     50  O   LIG d   1      11.861  10.431  -1.234  0.00  0.00    -0.250 OA
BRANCH  49  51
ATOM     51  O   LIG d   1      10.472   9.901  -2.869  0.00  0.00    -0.459 OA
BRANCH  51  52
ATOM     52  C   LIG d   1      10.184  11.186  -3.422  0.00  0.00     0.132 C 
ATOM     53  H   LIG d   1      10.208  11.936  -2.632  0.00  0.00     0.075 H 
ATOM     54  H   LIG d   1      10.929  11.432  -4.178  0.00  0.00     0.075 H 
BRANCH  52  55
ATOM     55  C   LIG d   1       8.794  11.165  -4.063  0.00  0.00    -0.000 C 
ATOM     56  H   LIG d   1       8.765  11.874  -4.891  0.00  0.00     0.085 H 
ATOM     57  H   LIG d   1       8.582  10.163  -4.436  0.00  0.00     0.085 H 
BRANCH  55  58
ATOM     58  N   LIG d   1       7.787  11.540  -3.062  0.00  0.00     0.221 N 
ATOM     59  H   LIG d   1       7.058  10.843  -3.041  0.00  0.00     0.200 HD
ATOM     60  H   LIG d   1       8.222  11.599  -2.153  0.00  0.00     0.200 HD
ATOM     61  H   LIG d   1       7.390  12.435  -3.303  0.00  0.00     0.200 HD
ENDBRANCH  55  58
ENDBRANCH  52  55
ENDBRANCH  51  52
ENDBRANCH  49  51
ENDBRANCH  19  49
BRANCH  23  62
ATOM     62  C   LIG d   1      11.335   5.653   0.545  0.00  0.00    -0.049 C 
ATOM     63  H   LIG d   1      10.268   5.784   0.722  0.00  0.00     0.024 H 
ATOM     64  H   LIG d   1      11.515   4.662   0.129  0.00  0.00     0.024 H 
ATOM     65  H   LIG d   1      11.875   5.757   1.486  0.00  0.00     0.024 H 
ENDBRANCH  23  62
BRANCH  26  66
ATOM     66  C   LIG d   1      12.815   6.183  -4.144  0.00  0.00    -0.055 C 
ATOM     67  H   LIG d   1      13.097   7.158  -3.749  0.00  0.00     0.024 H 
ATOM     68  H   LIG d   1      13.713   5.607  -4.369  0.00  0.00     0.024 H 
ATOM     69  H   LIG d   1      12.230   6.316  -5.055  0.00  0.00     0.024 H 
ENDBRANCH  26  66
BRANCH  11  70
ATOM     70  C   LIG d   1      10.349   3.651  -2.687  0.00  0.00    -0.058 C 
ATOM     71  H   LIG d   1       9.689   4.451  -2.354  0.00  0.00     0.024 H 
ATOM     72  H   LIG d   1       9.756   2.846  -3.121  0.00  0.00     0.024 H 
ATOM     73  H   LIG d   1      10.913   3.268  -1.836  0.00  0.00     0.024 H 
ENDBRANCH  11  70
BRANCH   1  74
ATOM     74  C   LIG d   1       8.754   2.915  -5.137  0.00  0.00    -0.059 C 
ATOM     75  H   LIG d   1       8.082   3.724  -4.851  0.00  0.00     0.024 H 
ATOM     76  H   LIG d   1       8.239   2.243  -5.825  0.00  0.00     0.024 H 
ATOM     77  H   LIG d   1       9.056   2.361  -4.248  0.00  0.00     0.024 H 
ENDBRANCH   1  74
BRANCH   6  78
ATOM     78  C   LIG d   1       9.835   0.293  -6.453  0.00  0.00    -0.057 C 
ATOM     79  H   LIG d   1       8.825   0.395  -6.849  0.00  0.00     0.024 H 
ATOM     80  H   LIG d   1      10.227  -0.692  -6.707  0.00  0.00     0.024 H 
ATOM     81  H   LIG d   1       9.815   0.407  -5.369  0.00  0.00     0.024 H 
ENDBRANCH   6  78
BRANCH   6  82
ATOM     82  C   LIG d   1      12.045   0.671  -7.496  0.00  0.00    -0.057 C 
ATOM     83  H   LIG d   1      12.554   1.285  -8.240  0.00  0.00     0.024 H 
ATOM     84  H   LIG d   1      12.691   0.541  -6.628  0.00  0.00     0.024 H 
ATOM     85  H   LIG d   1      11.813  -0.303  -7.926  0.00  0.00     0.024 H 
ENDBRANCH   6  82
BRANCH   4  86
ATOM     86  O   LIG d   1       9.545   0.831  -9.091  0.00  0.00    -0.391 OA
ATOM     87  H   LIG d   1       9.932   0.725  -9.971  0.00  0.00     0.210 HD
ENDBRANCH   4  86
TORSDOF 13
ENDMDL
MODEL 2
REMARK VINA RESULT:      -5.8      9.591     12.037
REMARK  13 active torsions:
REMARK  status: ('A' for Active; 'I' for Inactive)
REMARK    1  A    between atoms: C_1  and  C_2 
REMARK    2  A    between atoms: C_5  and  O_40 
REMARK    3  A    between atoms: C_7  and  C_38 
REMARK    4  A    between atoms: C_7  and  C_39 
REMARK    5  A    between atoms: C_12  and  C_37 
REMARK    6  A    between atoms: C_20  and  C_30 
REMARK    7  A    between atoms: C_20  and  C_31 
REMARK    8  A    between atoms: C_24  and  C_29 
REMARK    9  A    between atoms: C_27  and  C_28 
REMARK   10  A    between atoms: C_31  and  O_33 
REMARK   11  A    between atoms: O_33  and  C_34 
REMARK   12  A    between atoms: C_34  and  C_35 
REMARK   13  A    between atoms: C_35  and  N_36 
ROOT
ATOM      1  C   LIG d   1       8.717  -4.504  -4.375  0.00  0.00    -0.022 C 
ATOM      2  C   LIG d   1       8.915  -3.878  -2.980  0.00  0.00    -0.044 C 
ATOM      3  C   LIG d   1      10.138  -4.501  -2.316  0.00  0.00    -0.026 C 
ATOM      4  C   LIG d   1       9.932  -5.994  -2.107  0.00  0.00     0.061 C 
ATOM      5  H   LIG d   1       9.119  -6.147  -1.387  0.00  0.00     0.060 H 
ATOM      6  C   LIG d   1       9.579  -6.724  -3.404  0.00  0.00    -0.006 C 
ATOM      7  C   LIG d   1       8.505  -6.002  -4.186  0.00  0.00    -0.028 C 
ATOM      8  H   LIG d   1       7.570  -6.091  -3.568  0.00  0.00     0.031 H 
ATOM      9  C   LIG d   1       8.166  -6.676  -5.511  0.00  0.00    -0.049 C 
ATOM     10  C   LIG d   1       6.817  -6.122  -6.006  0.00  0.00    -0.046 C 
ATOM     11  C   LIG d   1       6.942  -4.620  -6.228  0.00  0.00    -0.016 C 
ATOM     12  C   LIG d   1       7.438  -3.922  -4.975  0.00  0.00    -0.011 C 
ATOM     13  H   LIG d   1       6.692  -4.104  -4.172  0.00  0.00     0.035 H 
ATOM     14  C   LIG d   1       7.477  -2.439  -5.145  0.00  0.00    -0.080 C 
ATOM     15  C   LIG d   1       6.751  -1.806  -6.061  0.00  0.00    -0.062 C 
ATOM     16  C   LIG d   1       5.890  -2.565  -6.998  0.00  0.00    -0.041 C 
ATOM     17  C   LIG d   1       5.434  -1.979  -8.097  0.00  0.00    -0.052 C 
ATOM     18  C   LIG d   1       5.808  -0.541  -8.373  0.00  0.00    -0.014 C 
ATOM     19  C   LIG d   1       4.568   0.275  -8.738  0.00  0.00     0.075 C 
ATOM     20  C   LIG d   1       3.886  -0.342  -9.961  0.00  0.00     0.022 C 
ATOM     21  C   LIG d   1       3.523  -1.772  -9.649  0.00  0.00     0.144 C 
ATOM     22  O   LIG d   1       2.402  -2.173  -9.850  0.00  0.00    -0.296 OA
ATOM     23  C   LIG d   1       4.567  -2.702  -9.088  0.00  0.00     0.048 C 
ATOM     24  C   LIG d   1       3.896  -3.917  -8.464  0.00  0.00    -0.036 C 
ATOM     25  C   LIG d   1       4.931  -4.780  -7.747  0.00  0.00    -0.042 C 
ATOM     26  C   LIG d   1       5.596  -3.998  -6.633  0.00  0.00    -0.001 C 
ATOM     27  H   LIG d   1       9.060  -2.805  -3.091  0.00  0.00     0.027 H 
ATOM     28  H   LIG d   1       8.028  -4.072  -2.379  0.00  0.00     0.027 H 
ATOM     29  H   LIG d   1      11.040  -4.316  -2.892  0.00  0.00     0.029 H 
ATOM     30  H   LIG d   1      10.276  -4.027  -1.332  0.00  0.00     0.029 H 
ATOM     31  H   LIG d   1       8.936  -6.502  -6.252  0.00  0.00     0.027 H 
ATOM     32  H   LIG d   1       8.051  -7.753  -5.372  0.00  0.00     0.027 H 
ATOM     33  H   LIG d   1       6.554  -6.615  -6.942  0.00  0.00     0.027 H 
ATOM     34  H   LIG d   1       6.056  -6.333  -5.256  0.00  0.00     0.027 H 
ATOM     35  H   LIG d   1       8.109  -1.850  -4.501  0.00  0.00     0.058 H 
ATOM     36  H   LIG d   1       6.790  -0.731  -6.088  0.00  0.00     0.062 H 
ATOM     37  H   LIG d   1       6.282  -0.088  -7.509  0.00  0.00     0.032 H 
ATOM     38  H   LIG d   1       6.509  -0.509  -9.213  0.00  0.00     0.032 H 
ATOM     39  H   LIG d   1       2.983   0.222 -10.199  0.00  0.00     0.035 H 
ATOM     40  H   LIG d   1       4.566  -0.311 -10.813  0.00  0.00     0.035 H 
ATOM     41  H   LIG d   1       3.126  -3.592  -7.763  0.00  0.00     0.028 H 
ATOM     42  H   LIG d   1       3.419  -4.508  -9.253  0.00  0.00     0.028 H 
ATOM     43  H   LIG d   1       4.413  -5.642  -7.301  0.00  0.00     0.027 H 
ATOM     44  H   LIG d   1       5.659  -5.163  -8.454  0.00  0.00     0.027 H 
ENDROOT
BRANCH  19  45
ATOM     45  C   LIG d   1       4.988   1.711  -9.062  0.00  0.00    -0.049 C 
ATOM     46  H   LIG d   1       4.668   1.964 -10.073  0.00  0.00     0.024 H 
ATOM     47  H   LIG d   1       4.523   2.395  -8.353  0.00  0.00     0.024 H 
ATOM     48  H   LIG d   1       6.072   1.797  -8.993  0.00  0.00     0.024 H 
ENDBRANCH  19  45
BRANCH  19  49
ATOM     49  C   LIG d   1       3.610   0.287  -7.575  0.00  0.00     0.314 C 
ATOM     50  O   LIG d   1       2.418   0.293  -7.775  0.00  0.00    -0.250 OA
BRANCH  49  51
ATOM     51  O   LIG d   1       4.080   0.290  -6.318  0.00  0.00    -0.459 OA
BRANCH  51  52
ATOM     52  C   LIG d   1       3.165  -0.072  -5.283  0.00  0.00     0.132 C 
ATOM     53  H   LIG d   1       2.561   0.794  -5.012  0.00  0.00     0.075 H 
ATOM     54  H   LIG d   1       2.513  -0.871  -5.637  0.00  0.00     0.075 H 
BRANCH  52  55
ATOM     55  C   LIG d   1       3.945  -0.554  -4.058  0.00  0.00    -0.000 C 
ATOM     56  H   LIG d   1       4.900  -0.973  -4.377  0.00  0.00     0.085 H 
ATOM     57  H   LIG d   1       4.122   0.286  -3.387  0.00  0.00     0.085 H 
BRANCH  55  58
ATOM     58  N   LIG d   1       3.168  -1.585  -3.357  0.00  0.00     0.221 N 
ATOM     59  H   LIG d   1       2.397  -1.878  -3.937  0.00  0.00     0.200 HD
ATOM     60  H   LIG d   1       3.761  -2.378  -3.160  0.00  0.00     0.200 HD
ATOM     61  H   LIG d   1       2.813  -1.209  -2.491  0.00  0.00     0.200 HD
ENDBRANCH  55  58
ENDBRANCH  52  55
ENDBRANCH  51  52
ENDBRANCH  49  51
ENDBRANCH  19  49
BRANCH  23  62
ATOM     62  C   LIG d   1       5.448  -3.169 -10.250  0.00  0.00    -0.049 C 
ATOM     63  H   LIG d   1       4.817  -3.538 -11.058  0.00  0.00     0.024 H 
ATOM     64  H   LIG d   1       6.048  -2.333 -10.610  0.00  0.00     0.024 H 
ATOM     65  H   LIG d   1       6.106  -3.968  -9.907  0.00  0.00     0.024 H 
ENDBRANCH  23  62
BRANCH  26  66
ATOM     66  C   LIG d   1       4.637  -3.997  -5.442  0.00  0.00    -0.055 C 
ATOM     67  H   LIG d   1       4.591  -4.997  -5.012  0.00  0.00     0.024 H 
ATOM     68  H   LIG d   1       4.992  -3.292  -4.691  0.00  0.00     0.024 H 
ATOM     69  H   LIG d   1       3.642  -3.701  -5.778  0.00  0.00     0.024 H 
ENDBRANCH  26  66
BRANCH  11  70
ATOM     70  C   LIG d   1       7.887  -4.377  -7.419  0.00  0.00    -0.058 C 
ATOM     71  H   LIG d   1       8.872  -4.782  -7.190  0.00  0.00     0.024 H 
ATOM     72  H   LIG d   1       7.487  -4.869  -8.305  0.00  0.00     0.024 H 
ATOM     73  H   LIG d   1       7.969  -3.306  -7.604  0.00  0.00     0.024 H 
ENDBRANCH  11  70
BRANCH   1  74
ATOM     74  C   LIG d   1       9.936  -4.157  -5.217  0.00  0.00    -0.059 C 
ATOM     75  H   LIG d   1       9.680  -4.228  -6.274  0.00  0.00     0.024 H 
ATOM     76  H   LIG d   1      10.257  -3.140  -4.990  0.00  0.00     0.024 H 
ATOM     77  H   LIG d   1      10.744  -4.852  -4.992  0.00  0.00     0.024 H 
ENDBRANCH   1  74
BRANCH   6  78
ATOM     78  C   LIG d   1      10.843  -6.979  -4.222  0.00  0.00    -0.057 C 
ATOM     79  H   LIG d   1      10.570  -7.200  -5.254  0.00  0.00     0.024 H 
ATOM     80  H   LIG d   1      11.478  -6.093  -4.196  0.00  0.00     0.024 H 
ATOM     81  H   LIG d   1      11.385  -7.825  -3.800  0.00  0.00     0.024 H 
ENDBRANCH   6  78
BRANCH   6  82
ATOM     82  C   LIG d   1       9.025  -8.108  -2.985  0.00  0.00    -0.057 C 
ATOM     83  H   LIG d   1       8.804  -8.103  -1.917  0.00  0.00     0.024 H 
ATOM     84  H   LIG d   1       8.114  -8.319  -3.544  0.00  0.00     0.024 H 
ATOM     85  H   LIG d   1       9.768  -8.876  -3.198  0.00  0.00     0.024 H 
ENDBRANCH   6  82
BRANCH   4  86
ATOM     86  O   LIG d   1      11.127  -6.568  -1.561  0.00  0.00    -0.391 OA
ATOM     87  H   LIG d   1      11.069  -6.771  -0.617  0.00  0.00     0.210 HD
ENDBRANCH   4  86
TORSDOF 13
ENDMDL
MODEL 3
REMARK VINA RESULT:      -5.7      1.526      2.776
REMARK  13 active torsions:
REMARK  status: ('A' for Active; 'I' for Inactive)
REMARK    1  A    between atoms: C_1  and  C_2 
REMARK    2  A    between atoms: C_5  and  O_40 
REMARK    3  A    between atoms: C_7  and  C_38 
REMARK    4  A    between atoms: C_7  and  C_39 
REMARK    5  A    between atoms: C_12  and  C_37 
REMARK    6  A    between atoms: C_20  and  C_30 
REMARK    7  A    between atoms: C_20  and  C_31 
REMARK    8  A    between atoms: C_24  and  C_29 
REMARK    9  A    between atoms: C_27  and  C_28 
REMARK   10  A    between atoms: C_31  and  O_33 
REMARK   11  A    between atoms: O_33  and  C_34 
REMARK   12  A    between atoms: C_34  and  C_35 
REMARK   13  A    between atoms: C_35  and  N_36 
ROOT
ATOM      1  C   LIG d   1       9.453   2.392  -5.590  0.00  0.00    -0.022 C 
ATOM      2  C   LIG d   1       8.056   1.820  -5.276  0.00  0.00    -0.044 C 
ATOM      3  C   LIG d   1       7.897   0.467  -5.962  0.00  0.00    -0.026 C 
ATOM      4  C   LIG d   1       7.985   0.620  -7.474  0.00  0.00     0.061 C 
ATOM      5  H   LIG d   1       7.130   1.210  -7.825  0.00  0.00     0.060 H 
ATOM      6  C   LIG d   1       9.274   1.315  -7.918  0.00  0.00    -0.006 C 
ATOM      7  C   LIG d   1       9.560   2.555  -7.102  0.00  0.00    -0.028 C 
ATOM      8  H   LIG d   1       8.753   3.289  -7.376  0.00  0.00     0.031 H 
ATOM      9  C   LIG d   1      10.865   3.244  -7.486  0.00  0.00    -0.049 C 
ATOM     10  C   LIG d   1      10.846   4.672  -6.911  0.00  0.00    -0.046 C 
ATOM     11  C   LIG d   1      10.748   4.601  -5.392  0.00  0.00    -0.016 C 
ATOM     12  C   LIG d   1       9.546   3.780  -4.961  0.00  0.00    -0.011 C 
ATOM     13  H   LIG d   1       8.637   4.283  -5.356  0.00  0.00     0.035 H 
ATOM     14  C   LIG d   1       9.380   3.779  -3.477  0.00  0.00    -0.080 C 
ATOM     15  C   LIG d   1       9.904   4.721  -2.699  0.00  0.00    -0.062 C 
ATOM     16  C   LIG d   1      10.727   5.808  -3.280  0.00  0.00    -0.041 C 
ATOM     17  C   LIG d   1      11.504   6.539  -2.492  0.00  0.00    -0.052 C 
ATOM     18  C   LIG d   1      11.535   6.244  -1.010  0.00  0.00    -0.014 C 
ATOM     19  C   LIG d   1      11.365   7.530  -0.203  0.00  0.00     0.075 C 
ATOM     20  C   LIG d   1      12.471   8.522  -0.572  0.00  0.00     0.022 C 
ATOM     21  C   LIG d   1      12.407   8.797  -2.053  0.00  0.00     0.144 C 
ATOM     22  O   LIG d   1      12.390   9.932  -2.461  0.00  0.00    -0.296 OA
ATOM     23  C   LIG d   1      12.367   7.646  -3.025  0.00  0.00     0.048 C 
ATOM     24  C   LIG d   1      11.880   8.132  -4.383  0.00  0.00    -0.036 C 
ATOM     25  C   LIG d   1      11.676   6.948  -5.324  0.00  0.00    -0.042 C 
ATOM     26  C   LIG d   1      10.631   6.002  -4.771  0.00  0.00    -0.001 C 
ATOM     27  H   LIG d   1       7.955   1.703  -4.199  0.00  0.00     0.027 H 
ATOM     28  H   LIG d   1       7.302   2.514  -5.646  0.00  0.00     0.027 H 
ATOM     29  H   LIG d   1       8.634  -0.247  -5.606  0.00  0.00     0.029 H 
ATOM     30  H   LIG d   1       6.904   0.066  -5.709  0.00  0.00     0.029 H 
ATOM     31  H   LIG d   1      11.723   2.700  -7.111  0.00  0.00     0.027 H 
ATOM     32  H   LIG d   1      10.948   3.324  -8.571  0.00  0.00     0.027 H 
ATOM     33  H   LIG d   1      11.766   5.181  -7.200  0.00  0.00     0.027 H 
ATOM     34  H   LIG d   1       9.990   5.203  -7.323  0.00  0.00     0.027 H 
ATOM     35  H   LIG d   1       8.810   2.993  -3.011  0.00  0.00     0.058 H 
ATOM     36  H   LIG d   1       9.696   4.683  -1.643  0.00  0.00     0.062 H 
ATOM     37  H   LIG d   1      10.748   5.551  -0.733  0.00  0.00     0.032 H 
ATOM     38  H   LIG d   1      12.500   5.796  -0.756  0.00  0.00     0.032 H 
ATOM     39  H   LIG d   1      12.328   9.451  -0.020  0.00  0.00     0.035 H 
ATOM     40  H   LIG d   1      13.443   8.096  -0.317  0.00  0.00     0.035 H 
ATOM     41  H   LIG d   1      10.946   8.682  -4.262  0.00  0.00     0.028 H 
ATOM     42  H   LIG d   1      12.628   8.809  -4.811  0.00  0.00     0.028 H 
ATOM     43  H   LIG d   1      11.317   7.332  -6.291  0.00  0.00     0.027 H 
ATOM     44  H   LIG d   1      12.618   6.441  -5.502  0.00  0.00     0.027 H 
ENDROOT
BRANCH  19  45
ATOM     45  C   LIG d   1      11.455   7.204   1.290  0.00  0.00    -0.049 C 
ATOM     46  H   LIG d   1      10.459   7.242   1.732  0.00  0.00     0.024 H 
ATOM     47  H   LIG d   1      11.872   6.205   1.420  0.00  0.00     0.024 H 
ATOM     48  H   LIG d   1      12.098   7.933   1.783  0.00  0.00     0.024 H 
ENDBRANCH  19  45
BRANCH  19  49
ATOM     49  C   LIG d   1      10.020   8.139  -0.499  0.00  0.00     0.314 C 
ATOM     50  O   LIG d   1       9.086   7.429  -0.791  0.00  0.00    -0.250 OA
BRANCH  49  51
ATOM     51  O   LIG d   1       9.857   9.470  -0.440  0.00  0.00    -0.459 OA
BRANCH  51  52
ATOM     52  C   LIG d   1       8.679  10.007  -1.044  0.00  0.00     0.132 C 
ATOM     53  H   LIG d   1       8.010   9.194  -1.324  0.00  0.00     0.075 H 
ATOM     54  H   LIG d   1       8.174  10.663  -0.335  0.00  0.00     0.075 H 
BRANCH  52  55
ATOM     55  C   LIG d   1       9.064  10.805  -2.292  0.00  0.00    -0.000 C 
ATOM     56  H   LIG d   1       9.810  11.554  -2.028  0.00  0.00     0.085 H 
ATOM     57  H   LIG d   1       9.477  10.128  -3.041  0.00  0.00     0.085 H 
BRANCH  55  58
ATOM     58  N   LIG d   1       7.873  11.470  -2.835  0.00  0.00     0.221 N 
ATOM     59  H   LIG d   1       8.118  11.963  -3.679  0.00  0.00     0.200 HD
ATOM     60  H   LIG d   1       7.166  10.779  -3.042  0.00  0.00     0.200 HD
ATOM     61  H   LIG d   1       7.513  12.123  -2.156  0.00  0.00     0.200 HD
ENDBRANCH  55  58
ENDBRANCH  52  55
ENDBRANCH  51  52
ENDBRANCH  49  51
ENDBRANCH  19  49
BRANCH  23  62
ATOM     62  C   LIG d   1      13.795   7.115  -3.177  0.00  0.00    -0.049 C 
ATOM     63  H   LIG d   1      14.146   6.737  -2.217  0.00  0.00     0.024 H 
ATOM     64  H   LIG d   1      13.807   6.309  -3.911  0.00  0.00     0.024 H 
ATOM     65  H   LIG d   1      14.448   7.921  -3.511  0.00  0.00     0.024 H 
ENDBRANCH  23  62
BRANCH  26  66
ATOM     66  C   LIG d   1       9.261   6.605  -5.084  0.00  0.00    -0.055 C 
ATOM     67  H   LIG d   1       9.090   6.579  -6.160  0.00  0.00     0.024 H 
ATOM     68  H   LIG d   1       8.487   6.028  -4.579  0.00  0.00     0.024 H 
ATOM     69  H   LIG d   1       9.231   7.638  -4.737  0.00  0.00     0.024 H 
ENDBRANCH  26  66
BRANCH  11  70
ATOM     70  C   LIG d   1      12.058   4.011  -4.842  0.00  0.00    -0.058 C 
ATOM     71  H   LIG d   1      12.899   4.615  -5.181  0.00  0.00     0.024 H 
ATOM     72  H   LIG d   1      12.027   4.009  -3.753  0.00  0.00     0.024 H 
ATOM     73  H   LIG d   1      12.177   2.989  -5.203  0.00  0.00     0.024 H 
ENDBRANCH  11  70
BRANCH   1  74
ATOM     74  C   LIG d   1      10.486   1.443  -5.000  0.00  0.00    -0.059 C 
ATOM     75  H   LIG d   1      11.462   1.928  -4.989  0.00  0.00     0.024 H 
ATOM     76  H   LIG d   1      10.200   1.182  -3.981  0.00  0.00     0.024 H 
ATOM     77  H   LIG d   1      10.537   0.538  -5.605  0.00  0.00     0.024 H 
ENDBRANCH   1  74
BRANCH   6  78
ATOM     78  C   LIG d   1      10.432   0.320  -7.917  0.00  0.00    -0.057 C 
ATOM     79  H   LIG d   1      11.077   0.512  -8.774  0.00  0.00     0.024 H 
ATOM     80  H   LIG d   1      11.007   0.432  -6.998  0.00  0.00     0.024 H 
ATOM     81  H   LIG d   1      10.040  -0.695  -7.977  0.00  0.00     0.024 H 
ENDBRANCH   6  78
BRANCH   6  82
ATOM     82  C   LIG d   1       9.048   1.744  -9.389  0.00  0.00    -0.057 C 
ATOM     83  H   LIG d   1       8.715   0.884  -9.972  0.00  0.00     0.024 H 
ATOM     84  H   LIG d   1       8.289   2.525  -9.427  0.00  0.00     0.024 H 
ATOM     85  H   LIG d   1       9.981   2.124  -9.804  0.00  0.00     0.024 H 
ENDBRANCH   6  82
BRANCH   4  86
ATOM     86  O   LIG d   1       7.920  -0.674  -8.087  0.00  0.00    -0.391 OA
ATOM     87  H   LIG d   1       8.781  -1.028  -8.350  0.00  0.00     0.210 HD
ENDBRANCH   4  86
TORSDOF 13
ENDMDL
MODEL 4
REMARK VINA RESULT:      -5.7      8.964     12.990
REMARK  13 active torsions:
REMARK  status: ('A' for Active; 'I' for Inactive)
REMARK    1  A    between atoms: C_1  and  C_2 
REMARK    2  A    between atoms: C_5  and  O_40 
REMARK    3  A    between atoms: C_7  and  C_38 
REMARK    4  A    between atoms: C_7  and  C_39 
REMARK    5  A    between atoms: C_12  and  C_37 
REMARK    6  A    between atoms: C_20  and  C_30 
REMARK    7  A    between atoms: C_20  and  C_31 
REMARK    8  A    between atoms: C_24  and  C_29 
REMARK    9  A    between atoms: C_27  and  C_28 
REMARK   10  A    between atoms: C_31  and  O_33 
REMARK   11  A    between atoms: O_33  and  C_34 
REMARK   12  A    between atoms: C_34  and  C_35 
REMARK   13  A    between atoms: C_35  and  N_36 
ROOT
ATOM      1  C   LIG d   1       5.018  -0.922  -5.573  0.00  0.00    -0.022 C 
ATOM      2  C   LIG d   1       6.329  -0.825  -4.768  0.00  0.00    -0.044 C 
ATOM      3  C   LIG d   1       6.032  -1.055  -3.290  0.00  0.00    -0.026 C 
ATOM      4  C   LIG d   1       5.102   0.024  -2.756  0.00  0.00     0.061 C 
ATOM      5  H   LIG d   1       5.619   0.990  -2.786  0.00  0.00     0.060 H 
ATOM      6  C   LIG d   1       3.809   0.136  -3.566  0.00  0.00    -0.006 C 
ATOM      7  C   LIG d   1       4.072   0.156  -5.054  0.00  0.00    -0.028 C 
ATOM      8  H   LIG d   1       4.597   1.129  -5.255  0.00  0.00     0.031 H 
ATOM      9  C   LIG d   1       2.800   0.214  -5.893  0.00  0.00    -0.049 C 
ATOM     10  C   LIG d   1       3.181   0.645  -7.321  0.00  0.00    -0.046 C 
ATOM     11  C   LIG d   1       4.126  -0.388  -7.922  0.00  0.00    -0.016 C 
ATOM     12  C   LIG d   1       5.337  -0.602  -7.033  0.00  0.00    -0.011 C 
ATOM     13  H   LIG d   1       5.871   0.369  -6.953  0.00  0.00     0.035 H 
ATOM     14  C   LIG d   1       6.320  -1.540  -7.652  0.00  0.00    -0.080 C 
ATOM     15  C   LIG d   1       6.359  -1.774  -8.960  0.00  0.00    -0.062 C 
ATOM     16  C   LIG d   1       5.381  -1.133  -9.870  0.00  0.00    -0.041 C 
ATOM     17  C   LIG d   1       5.211  -1.608 -11.096  0.00  0.00    -0.052 C 
ATOM     18  C   LIG d   1       6.023  -2.803 -11.541  0.00  0.00    -0.014 C 
ATOM     19  C   LIG d   1       6.657  -2.543 -12.906  0.00  0.00     0.075 C 
ATOM     20  C   LIG d   1       5.565  -2.230 -13.932  0.00  0.00     0.022 C 
ATOM     21  C   LIG d   1       4.780  -1.032 -13.460  0.00  0.00     0.144 C 
ATOM     22  O   LIG d   1       4.591  -0.098 -14.200  0.00  0.00    -0.296 OA
ATOM     23  C   LIG d   1       4.227  -1.007 -12.058  0.00  0.00     0.048 C 
ATOM     24  C   LIG d   1       3.865   0.420 -11.671  0.00  0.00    -0.036 C 
ATOM     25  C   LIG d   1       3.464   0.481 -10.199  0.00  0.00    -0.042 C 
ATOM     26  C   LIG d   1       4.613   0.041  -9.316  0.00  0.00    -0.001 C 
ATOM     27  H   LIG d   1       7.024  -1.581  -5.129  0.00  0.00     0.027 H 
ATOM     28  H   LIG d   1       6.755   0.168  -4.910  0.00  0.00     0.027 H 
ATOM     29  H   LIG d   1       5.612  -2.042  -3.119  0.00  0.00     0.029 H 
ATOM     30  H   LIG d   1       6.982  -1.004  -2.735  0.00  0.00     0.029 H 
ATOM     31  H   LIG d   1       2.295  -0.744  -5.912  0.00  0.00     0.027 H 
ATOM     32  H   LIG d   1       2.115   0.963  -5.492  0.00  0.00     0.027 H 
ATOM     33  H   LIG d   1       2.274   0.712  -7.923  0.00  0.00     0.027 H 
ATOM     34  H   LIG d   1       3.662   1.620  -7.276  0.00  0.00     0.027 H 
ATOM     35  H   LIG d   1       7.034  -2.047  -7.023  0.00  0.00     0.058 H 
ATOM     36  H   LIG d   1       7.131  -2.421  -9.338  0.00  0.00     0.062 H 
ATOM     37  H   LIG d   1       6.810  -3.028 -10.828  0.00  0.00     0.032 H 
ATOM     38  H   LIG d   1       5.364  -3.673 -11.620  0.00  0.00     0.032 H 
ATOM     39  H   LIG d   1       6.021  -2.011 -14.897  0.00  0.00     0.035 H 
ATOM     40  H   LIG d   1       4.901  -3.090 -14.032  0.00  0.00     0.035 H 
ATOM     41  H   LIG d   1       4.716   1.077 -11.857  0.00  0.00     0.028 H 
ATOM     42  H   LIG d   1       3.025   0.757 -12.287  0.00  0.00     0.028 H 
ATOM     43  H   LIG d   1       3.218   1.524  -9.950  0.00  0.00     0.027 H 
ATOM     44  H   LIG d   1       2.576  -0.117 -10.025  0.00  0.00     0.027 H 
ENDROOT
BRANCH  19  45
ATOM     45  C   LIG d   1       7.427  -3.789 -13.350  0.00  0.00    -0.049 C 
ATOM     46  H   LIG d   1       7.279  -4.587 -12.622  0.00  0.00     0.024 H 
ATOM     47  H   LIG d   1       7.060  -4.115 -14.324  0.00  0.00     0.024 H 
ATOM     48  H   LIG d   1       8.488  -3.555 -13.422  0.00  0.00     0.024 H 
ENDBRANCH  19  45
BRANCH  19  49
ATOM     49  C   LIG d   1       7.608  -1.379 -12.809  0.00  0.00     0.314 C 
ATOM     50  O   LIG d   1       8.341  -1.276 -11.853  0.00  0.00    -0.250 OA
BRANCH  49  51
ATOM     51  O   LIG d   1       7.643  -0.457 -13.783  0.00  0.00    -0.459 OA
BRANCH  51  52
ATOM     52  C   LIG d   1       8.777  -0.474 -14.653  0.00  0.00     0.132 C 
ATOM     53  H   LIG d   1       9.616   0.023 -14.166  0.00  0.00     0.075 H 
ATOM     54  H   LIG d   1       9.048  -1.506 -14.877  0.00  0.00     0.075 H 
BRANCH  52  55
ATOM     55  C   LIG d   1       8.434   0.258 -15.953  0.00  0.00    -0.000 C 
ATOM     56  H   LIG d   1       9.044   1.158 -16.034  0.00  0.00     0.085 H 
ATOM     57  H   LIG d   1       8.637  -0.396 -16.801  0.00  0.00     0.085 H 
BRANCH  55  58
ATOM     58  N   LIG d   1       7.013   0.627 -15.946  0.00  0.00     0.221 N 
ATOM     59  H   LIG d   1       6.530   0.093 -15.240  0.00  0.00     0.200 HD
ATOM     60  H   LIG d   1       6.922   1.612 -15.744  0.00  0.00     0.200 HD
ATOM     61  H   LIG d   1       6.610   0.431 -16.850  0.00  0.00     0.200 HD
ENDBRANCH  55  58
ENDBRANCH  52  55
ENDBRANCH  51  52
ENDBRANCH  49  51
ENDBRANCH  19  49
BRANCH  23  62
ATOM     62  C   LIG d   1       2.955  -1.858 -12.043  0.00  0.00    -0.049 C 
ATOM     63  H   LIG d   1       2.584  -1.939 -11.022  0.00  0.00     0.024 H 
ATOM     64  H   LIG d   1       2.196  -1.388 -12.669  0.00  0.00     0.024 H 
ATOM     65  H   LIG d   1       3.180  -2.853 -12.428  0.00  0.00     0.024 H 
ENDBRANCH  23  62
BRANCH  26  66
ATOM     66  C   LIG d   1       5.575   1.223  -9.197  0.00  0.00    -0.055 C 
ATOM     67  H   LIG d   1       6.105   1.166  -8.247  0.00  0.00     0.024 H 
ATOM     68  H   LIG d   1       6.292   1.192 -10.017  0.00  0.00     0.024 H 
ATOM     69  H   LIG d   1       5.011   2.155  -9.242  0.00  0.00     0.024 H 
ENDBRANCH  26  66
BRANCH  11  70
ATOM     70  C   LIG d   1       3.349  -1.698  -8.139  0.00  0.00    -0.058 C 
ATOM     71  H   LIG d   1       2.366  -1.474  -8.553  0.00  0.00     0.024 H 
ATOM     72  H   LIG d   1       3.898  -2.337  -8.830  0.00  0.00     0.024 H 
ATOM     73  H   LIG d   1       3.231  -2.213  -7.185  0.00  0.00     0.024 H 
ENDBRANCH  11  70
BRANCH   1  74
ATOM     74  C   LIG d   1       4.482  -2.338  -5.418  0.00  0.00    -0.059 C 
ATOM     75  H   LIG d   1       4.594  -2.875  -6.360  0.00  0.00     0.024 H 
ATOM     76  H   LIG d   1       5.041  -2.854  -4.638  0.00  0.00     0.024 H 
ATOM     77  H   LIG d   1       3.427  -2.300  -5.146  0.00  0.00     0.024 H 
ENDBRANCH   1  74
BRANCH   6  78
ATOM     78  C   LIG d   1       2.832  -0.961  -3.147  0.00  0.00    -0.057 C 
ATOM     79  H   LIG d   1       1.999  -0.518  -2.602  0.00  0.00     0.024 H 
ATOM     80  H   LIG d   1       2.456  -1.471  -4.034  0.00  0.00     0.024 H 
ATOM     81  H   LIG d   1       3.345  -1.679  -2.507  0.00  0.00     0.024 H 
ENDBRANCH   6  78
BRANCH   6  82
ATOM     82  C   LIG d   1       3.166   1.488  -3.170  0.00  0.00    -0.057 C 
ATOM     83  H   LIG d   1       3.909   2.282  -3.255  0.00  0.00     0.024 H 
ATOM     84  H   LIG d   1       2.329   1.701  -3.834  0.00  0.00     0.024 H 
ATOM     85  H   LIG d   1       2.810   1.433  -2.142  0.00  0.00     0.024 H 
ENDBRANCH   6  82
BRANCH   4  86
ATOM     86  O   LIG d   1       4.772  -0.266  -1.391  0.00  0.00    -0.391 OA
ATOM     87  H   LIG d   1       5.542  -0.361  -0.813  0.00  0.00     0.210 HD
ENDBRANCH   4  86
TORSDOF 13
ENDMDL
MODEL 5
REMARK VINA RESULT:      -5.5      2.608      8.248
REMARK  13 active torsions:
REMARK  status: ('A' for Active; 'I' for Inactive)
REMARK    1  A    between atoms: C_1  and  C_2 
REMARK    2  A    between atoms: C_5  and  O_40 
REMARK    3  A    between atoms: C_7  and  C_38 
REMARK    4  A    between atoms: C_7  and  C_39 
REMARK    5  A    between atoms: C_12  and  C_37 
REMARK    6  A    between atoms: C_20  and  C_30 
REMARK    7  A    between atoms: C_20  and  C_31 
REMARK    8  A    between atoms: C_24  and  C_29 
REMARK    9  A    between atoms: C_27  and  C_28 
REMARK   10  A    between atoms: C_31  and  O_33 
REMARK   11  A    between atoms: O_33  and  C_34 
REMARK   12  A    between atoms: C_34  and  C_35 
REMARK   13  A    between atoms: C_35  and  N_36 
ROOT
ATOM      1  C   LIG d   1      10.250   8.036  -2.149  0.00  0.00    -0.022 C 
ATOM      2  C   LIG d   1       8.927   8.263  -1.390  0.00  0.00    -0.044 C 
ATOM      3  C   LIG d   1       8.911   9.674  -0.812  0.00  0.00    -0.026 C 
ATOM      4  C   LIG d   1      10.037   9.852   0.196  0.00  0.00     0.061 C 
ATOM      5  H   LIG d   1       9.855   9.199   1.057  0.00  0.00     0.060 H 
ATOM      6  C   LIG d   1      11.408   9.513  -0.392  0.00  0.00    -0.006 C 
ATOM      7  C   LIG d   1      11.392   8.208  -1.153  0.00  0.00    -0.028 C 
ATOM      8  H   LIG d   1      11.229   7.409  -0.379  0.00  0.00     0.031 H 
ATOM      9  C   LIG d   1      12.731   7.866  -1.796  0.00  0.00    -0.049 C 
ATOM     10  C   LIG d   1      12.722   6.372  -2.170  0.00  0.00    -0.046 C 
ATOM     11  C   LIG d   1      11.606   6.112  -3.174  0.00  0.00    -0.016 C 
ATOM     12  C   LIG d   1      10.269   6.590  -2.640  0.00  0.00    -0.011 C 
ATOM     13  H   LIG d   1      10.055   6.019  -1.711  0.00  0.00     0.035 H 
ATOM     14  C   LIG d   1       9.150   6.257  -3.571  0.00  0.00    -0.080 C 
ATOM     15  C   LIG d   1       9.239   5.290  -4.478  0.00  0.00    -0.062 C 
ATOM     16  C   LIG d   1      10.493   4.516  -4.635  0.00  0.00    -0.041 C 
ATOM     17  C   LIG d   1      10.690   3.797  -5.731  0.00  0.00    -0.052 C 
ATOM     18  C   LIG d   1       9.626   3.783  -6.805  0.00  0.00    -0.014 C 
ATOM     19  C   LIG d   1       9.318   2.351  -7.237  0.00  0.00     0.075 C 
ATOM     20  C   LIG d   1      10.595   1.678  -7.745  0.00  0.00     0.022 C 
ATOM     21  C   LIG d   1      11.630   1.704  -6.649  0.00  0.00     0.144 C 
ATOM     22  O   LIG d   1      12.208   0.692  -6.333  0.00  0.00    -0.296 OA
ATOM     23  C   LIG d   1      11.945   3.001  -5.950  0.00  0.00     0.048 C 
ATOM     24  C   LIG d   1      12.667   2.721  -4.640  0.00  0.00    -0.036 C 
ATOM     25  C   LIG d   1      12.840   4.013  -3.847  0.00  0.00    -0.042 C 
ATOM     26  C   LIG d   1      11.492   4.616  -3.511  0.00  0.00    -0.001 C 
ATOM     27  H   LIG d   1       8.096   8.136  -2.081  0.00  0.00     0.027 H 
ATOM     28  H   LIG d   1       8.854   7.532  -0.586  0.00  0.00     0.027 H 
ATOM     29  H   LIG d   1       8.975  10.424  -1.595  0.00  0.00     0.029 H 
ATOM     30  H   LIG d   1       7.951   9.824  -0.294  0.00  0.00     0.029 H 
ATOM     31  H   LIG d   1      12.913   8.471  -2.676  0.00  0.00     0.027 H 
ATOM     32  H   LIG d   1      13.546   8.026  -1.087  0.00  0.00     0.027 H 
ATOM     33  H   LIG d   1      13.685   6.112  -2.609  0.00  0.00     0.027 H 
ATOM     34  H   LIG d   1      12.564   5.787  -1.265  0.00  0.00     0.027 H 
ATOM     35  H   LIG d   1       8.228   6.812  -3.508  0.00  0.00     0.058 H 
ATOM     36  H   LIG d   1       8.372   5.073  -5.077  0.00  0.00     0.062 H 
ATOM     37  H   LIG d   1       8.711   4.247  -6.453  0.00  0.00     0.032 H 
ATOM     38  H   LIG d   1       9.990   4.341  -7.673  0.00  0.00     0.032 H 
ATOM     39  H   LIG d   1      10.379   0.645  -8.020  0.00  0.00     0.035 H 
ATOM     40  H   LIG d   1      10.968   2.214  -8.618  0.00  0.00     0.035 H 
ATOM     41  H   LIG d   1      12.099   1.994  -4.057  0.00  0.00     0.028 H 
ATOM     42  H   LIG d   1      13.653   2.296  -4.857  0.00  0.00     0.028 H 
ATOM     43  H   LIG d   1      13.355   3.775  -2.904  0.00  0.00     0.027 H 
ATOM     44  H   LIG d   1      13.463   4.712  -4.394  0.00  0.00     0.027 H 
ENDROOT
BRANCH  19  45
ATOM     45  C   LIG d   1       8.278   2.376  -8.360  0.00  0.00    -0.049 C 
ATOM     46  H   LIG d   1       8.215   1.390  -8.820  0.00  0.00     0.024 H 
ATOM     47  H   LIG d   1       7.305   2.647  -7.949  0.00  0.00     0.024 H 
ATOM     48  H   LIG d   1       8.571   3.109  -9.111  0.00  0.00     0.024 H 
ENDBRANCH  19  45
BRANCH  19  49
ATOM     49  C   LIG d   1       8.768   1.577  -6.067  0.00  0.00     0.314 C 
ATOM     50  O   LIG d   1       9.096   0.426  -5.897  0.00  0.00    -0.250 OA
BRANCH  49  51
ATOM     51  O   LIG d   1       7.916   2.165  -5.214  0.00  0.00    -0.459 OA
BRANCH  51  52
ATOM     52  C   LIG d   1       8.032   1.811  -3.834  0.00  0.00     0.132 C 
ATOM     53  H   LIG d   1       8.968   1.277  -3.673  0.00  0.00     0.075 H 
ATOM     54  H   LIG d   1       8.020   2.715  -3.225  0.00  0.00     0.075 H 
BRANCH  52  55
ATOM     55  C   LIG d   1       6.858   0.913  -3.438  0.00  0.00    -0.000 C 
ATOM     56  H   LIG d   1       6.512   1.187  -2.441  0.00  0.00     0.085 H 
ATOM     57  H   LIG d   1       6.045   1.042  -4.153  0.00  0.00     0.085 H 
BRANCH  55  58
ATOM     58  N   LIG d   1       7.293  -0.490  -3.437  0.00  0.00     0.221 N 
ATOM     59  H   LIG d   1       6.579  -1.063  -3.015  0.00  0.00     0.200 HD
ATOM     60  H   LIG d   1       7.451  -0.793  -4.387  0.00  0.00     0.200 HD
ATOM     61  H   LIG d   1       8.148  -0.576  -2.910  0.00  0.00     0.200 HD
ENDBRANCH  55  58
ENDBRANCH  52  55
ENDBRANCH  51  52
ENDBRANCH  49  51
ENDBRANCH  19  49
BRANCH  23  62
ATOM     62  C   LIG d   1      12.876   3.807  -6.861  0.00  0.00    -0.049 C 
ATOM     63  H   LIG d   1      12.281   4.425  -7.532  0.00  0.00     0.024 H 
ATOM     64  H   LIG d   1      13.517   4.444  -6.252  0.00  0.00     0.024 H 
ATOM     65  H   LIG d   1      13.492   3.124  -7.445  0.00  0.00     0.024 H 
ENDBRANCH  23  62
BRANCH  26  66
ATOM     66  C   LIG d   1      10.936   3.847  -2.312  0.00  0.00    -0.055 C 
ATOM     67  H   LIG d   1       9.976   4.273  -2.021  0.00  0.00     0.024 H 
ATOM     68  H   LIG d   1      10.802   2.800  -2.582  0.00  0.00     0.024 H 
ATOM     69  H   LIG d   1      11.633   3.922  -1.478  0.00  0.00     0.024 H 
ENDBRANCH  26  66
BRANCH  11  70
ATOM     70  C   LIG d   1      11.965   6.809  -4.498  0.00  0.00    -0.058 C 
ATOM     71  H   LIG d   1      12.921   7.321  -4.392  0.00  0.00     0.024 H 
ATOM     72  H   LIG d   1      12.036   6.066  -5.292  0.00  0.00     0.024 H 
ATOM     73  H   LIG d   1      11.191   7.535  -4.748  0.00  0.00     0.024 H 
ENDBRANCH  11  70
BRANCH   1  74
ATOM     74  C   LIG d   1      10.293   9.019  -3.310  0.00  0.00    -0.059 C 
ATOM     75  H   LIG d   1      10.858   8.584  -4.134  0.00  0.00     0.024 H 
ATOM     76  H   LIG d   1       9.277   9.236  -3.641  0.00  0.00     0.024 H 
ATOM     77  H   LIG d   1      10.774   9.943  -2.987  0.00  0.00     0.024 H 
ENDBRANCH   1  74
BRANCH   6  78
ATOM     78  C   LIG d   1      11.924  10.684  -1.226  0.00  0.00    -0.057 C 
ATOM     79  H   LIG d   1      11.080  11.244  -1.629  0.00  0.00     0.024 H 
ATOM     80  H   LIG d   1      12.528  11.340  -0.598  0.00  0.00     0.024 H 
ATOM     81  H   LIG d   1      12.534  10.305  -2.045  0.00  0.00     0.024 H 
ENDBRANCH   6  78
BRANCH   6  82
ATOM     82  C   LIG d   1      12.369   9.359   0.813  0.00  0.00    -0.057 C 
ATOM     83  H   LIG d   1      13.278   8.850   0.490  0.00  0.00     0.024 H 
ATOM     84  H   LIG d   1      12.624  10.344   1.204  0.00  0.00     0.024 H 
ATOM     85  H   LIG d   1      11.883   8.774   1.593  0.00  0.00     0.024 H 
ENDBRANCH   6  82
BRANCH   4  86
ATOM     86  O   LIG d   1      10.051  11.209   0.658  0.00  0.00    -0.391 OA
ATOM     87  H   LIG d   1       9.946  11.864  -0.047  0.00  0.00     0.210 HD
ENDBRANCH   4  86
TORSDOF 13
ENDMDL
MODEL 6
REMARK VINA RESULT:      -5.4      8.060     12.314
REMARK  13 active torsions:
REMARK  status: ('A' for Active; 'I' for Inactive)
REMARK    1  A    between atoms: C_1  and  C_2 
REMARK    2  A    between atoms: C_5  and  O_40 
REMARK    3  A    between atoms: C_7  and  C_38 
REMARK    4  A    between atoms: C_7  and  C_39 
REMARK    5  A    between atoms: C_12  and  C_37 
REMARK    6  A    between atoms: C_20  and  C_30 
REMARK    7  A    between atoms: C_20  and  C_31 
REMARK    8  A    between atoms: C_24  and  C_29 
REMARK    9  A    between atoms: C_27  and  C_28 
REMARK   10  A    between atoms: C_31  and  O_33 
REMARK   11  A    between atoms: O_33  and  C_34 
REMARK   12  A    between atoms: C_34  and  C_35 
REMARK   13  A    between atoms: C_35  and  N_36 
ROOT
ATOM      1  C   LIG d   1       1.629  -3.267 -11.293  0.00  0.00    -0.022 C 
ATOM      2  C   LIG d   1       0.410  -3.929 -10.620  0.00  0.00    -0.044 C 
ATOM      3  C   LIG d   1      -0.338  -4.773 -11.648  0.00  0.00    -0.026 C 
ATOM      4  C   LIG d   1      -0.872  -3.898 -12.772  0.00  0.00     0.061 C 
ATOM      5  H   LIG d   1      -1.631  -3.218 -12.368  0.00  0.00     0.060 H 
ATOM      6  C   LIG d   1       0.225  -3.065 -13.438  0.00  0.00    -0.006 C 
ATOM      7  C   LIG d   1       1.114  -2.382 -12.422  0.00  0.00    -0.028 C 
ATOM      8  H   LIG d   1       0.464  -1.615 -11.921  0.00  0.00     0.031 H 
ATOM      9  C   LIG d   1       2.250  -1.585 -13.052  0.00  0.00    -0.049 C 
ATOM     10  C   LIG d   1       2.813  -0.623 -11.991  0.00  0.00    -0.046 C 
ATOM     11  C   LIG d   1       3.360  -1.430 -10.820  0.00  0.00    -0.016 C 
ATOM     12  C   LIG d   1       2.304  -2.365 -10.261  0.00  0.00    -0.011 C 
ATOM     13  H   LIG d   1       1.459  -1.740  -9.902  0.00  0.00     0.035 H 
ATOM     14  C   LIG d   1       2.793  -3.095  -9.054  0.00  0.00    -0.080 C 
ATOM     15  C   LIG d   1       3.803  -2.653  -8.312  0.00  0.00    -0.062 C 
ATOM     16  C   LIG d   1       4.527  -1.415  -8.685  0.00  0.00    -0.041 C 
ATOM     17  C   LIG d   1       5.714  -1.159  -8.151  0.00  0.00    -0.052 C 
ATOM     18  C   LIG d   1       6.306  -2.142  -7.167  0.00  0.00    -0.014 C 
ATOM     19  C   LIG d   1       6.803  -1.418  -5.917  0.00  0.00     0.075 C 
ATOM     20  C   LIG d   1       7.843  -0.366  -6.309  0.00  0.00     0.022 C 
ATOM     21  C   LIG d   1       7.217   0.600  -7.283  0.00  0.00     0.144 C 
ATOM     22  O   LIG d   1       7.293   1.790  -7.095  0.00  0.00    -0.296 OA
ATOM     23  C   LIG d   1       6.498   0.074  -8.498  0.00  0.00     0.048 C 
ATOM     24  C   LIG d   1       5.606   1.160  -9.082  0.00  0.00    -0.036 C 
ATOM     25  C   LIG d   1       4.749   0.589 -10.209  0.00  0.00    -0.042 C 
ATOM     26  C   LIG d   1       3.852  -0.514  -9.688  0.00  0.00    -0.001 C 
ATOM     27  H   LIG d   1       0.755  -4.560  -9.803  0.00  0.00     0.027 H 
ATOM     28  H   LIG d   1      -0.245  -3.149 -10.234  0.00  0.00     0.027 H 
ATOM     29  H   LIG d   1       0.291  -5.565 -12.044  0.00  0.00     0.029 H 
ATOM     30  H   LIG d   1      -1.190  -5.254 -11.144  0.00  0.00     0.029 H 
ATOM     31  H   LIG d   1       3.033  -2.237 -13.421  0.00  0.00     0.027 H 
ATOM     32  H   LIG d   1       1.877  -0.982 -13.883  0.00  0.00     0.027 H 
ATOM     33  H   LIG d   1       3.612  -0.031 -12.439  0.00  0.00     0.027 H 
ATOM     34  H   LIG d   1       2.014   0.037 -11.658  0.00  0.00     0.027 H 
ATOM     35  H   LIG d   1       2.311  -4.013  -8.761  0.00  0.00     0.058 H 
ATOM     36  H   LIG d   1       4.064  -3.205  -7.426  0.00  0.00     0.062 H 
ATOM     37  H   LIG d   1       5.575  -2.888  -6.873  0.00  0.00     0.032 H 
ATOM     38  H   LIG d   1       7.153  -2.651  -7.639  0.00  0.00     0.032 H 
ATOM     39  H   LIG d   1       8.170   0.172  -5.419  0.00  0.00     0.035 H 
ATOM     40  H   LIG d   1       8.701  -0.854  -6.772  0.00  0.00     0.035 H 
ATOM     41  H   LIG d   1       4.970   1.573  -8.298  0.00  0.00     0.028 H 
ATOM     42  H   LIG d   1       6.233   1.965  -9.480  0.00  0.00     0.028 H 
ATOM     43  H   LIG d   1       4.111   1.395 -10.602  0.00  0.00     0.027 H 
ATOM     44  H   LIG d   1       5.377   0.241 -11.022  0.00  0.00     0.027 H 
ENDROOT
BRANCH  19  45
ATOM     45  C   LIG d   1       7.443  -2.434  -4.968  0.00  0.00    -0.049 C 
ATOM     46  H   LIG d   1       7.927  -1.909  -4.145  0.00  0.00     0.024 H 
ATOM     47  H   LIG d   1       6.675  -3.098  -4.573  0.00  0.00     0.024 H 
ATOM     48  H   LIG d   1       8.186  -3.020  -5.510  0.00  0.00     0.024 H 
ENDBRANCH  19  45
BRANCH  19  49
ATOM     49  C   LIG d   1       5.643  -0.752  -5.224  0.00  0.00     0.314 C 
ATOM     50  O   LIG d   1       4.545  -1.257  -5.262  0.00  0.00    -0.250 OA
BRANCH  49  51
ATOM     51  O   LIG d   1       5.829   0.401  -4.564  0.00  0.00    -0.459 OA
BRANCH  51  52
ATOM     52  C   LIG d   1       5.705   0.361  -3.141  0.00  0.00     0.132 C 
ATOM     53  H   LIG d   1       5.364  -0.627  -2.833  0.00  0.00     0.075 H 
ATOM     54  H   LIG d   1       6.674   0.569  -2.686  0.00  0.00     0.075 H 
BRANCH  52  55
ATOM     55  C   LIG d   1       4.692   1.415  -2.687  0.00  0.00    -0.000 C 
ATOM     56  H   LIG d   1       4.353   1.181  -1.678  0.00  0.00     0.085 H 
ATOM     57  H   LIG d   1       5.163   2.398  -2.694  0.00  0.00     0.085 H 
BRANCH  55  58
ATOM     58  N   LIG d   1       3.543   1.415  -3.602  0.00  0.00     0.221 N 
ATOM     59  H   LIG d   1       3.842   1.713  -4.517  0.00  0.00     0.200 HD
ATOM     60  H   LIG d   1       3.159   0.483  -3.660  0.00  0.00     0.200 HD
ATOM     61  H   LIG d   1       2.838   2.047  -3.256  0.00  0.00     0.200 HD
ENDBRANCH  55  58
ENDBRANCH  52  55
ENDBRANCH  51  52
ENDBRANCH  49  51
ENDBRANCH  19  49
BRANCH  23  62
ATOM     62  C   LIG d   1       7.556  -0.305  -9.538  0.00  0.00    -0.049 C 
ATOM     63  H   LIG d   1       7.836   0.579 -10.111  0.00  0.00     0.024 H 
ATOM     64  H   LIG d   1       8.435  -0.704  -9.033  0.00  0.00     0.024 H 
ATOM     65  H   LIG d   1       7.149  -1.060 -10.211  0.00  0.00     0.024 H 
ENDBRANCH  23  62
BRANCH  26  66
ATOM     66  C   LIG d   1       2.662   0.155  -8.998  0.00  0.00    -0.055 C 
ATOM     67  H   LIG d   1       2.063  -0.602  -8.492  0.00  0.00     0.024 H 
ATOM     68  H   LIG d   1       3.025   0.879  -8.269  0.00  0.00     0.024 H 
ATOM     69  H   LIG d   1       2.050   0.663  -9.743  0.00  0.00     0.024 H 
ENDBRANCH  26  66
BRANCH  11  70
ATOM     70  C   LIG d   1       4.602  -2.205 -11.296  0.00  0.00    -0.058 C 
ATOM     71  H   LIG d   1       4.381  -2.703 -12.239  0.00  0.00     0.024 H 
ATOM     72  H   LIG d   1       5.431  -1.511 -11.436  0.00  0.00     0.024 H 
ATOM     73  H   LIG d   1       4.874  -2.949 -10.548  0.00  0.00     0.024 H 
ENDBRANCH  11  70
BRANCH   1  74
ATOM     74  C   LIG d   1       2.562  -4.376 -11.757  0.00  0.00    -0.059 C 
ATOM     75  H   LIG d   1       3.206  -4.001 -12.553  0.00  0.00     0.024 H 
ATOM     76  H   LIG d   1       3.176  -4.709 -10.920  0.00  0.00     0.024 H 
ATOM     77  H   LIG d   1       1.974  -5.215 -12.131  0.00  0.00     0.024 H 
ENDBRANCH   1  74
BRANCH   6  78
ATOM     78  C   LIG d   1       1.005  -3.924 -14.431  0.00  0.00    -0.057 C 
ATOM     79  H   LIG d   1       1.776  -4.483 -13.901  0.00  0.00     0.024 H 
ATOM     80  H   LIG d   1       0.325  -4.620 -14.922  0.00  0.00     0.024 H 
ATOM     81  H   LIG d   1       1.470  -3.283 -15.179  0.00  0.00     0.024 H 
ENDBRANCH   6  78
BRANCH   6  82
ATOM     82  C   LIG d   1      -0.501  -1.971 -14.259  0.00  0.00    -0.057 C 
ATOM     83  H   LIG d   1      -1.515  -1.844 -13.879  0.00  0.00     0.024 H 
ATOM     84  H   LIG d   1       0.042  -1.030 -14.170  0.00  0.00     0.024 H 
ATOM     85  H   LIG d   1      -0.541  -2.270 -15.306  0.00  0.00     0.024 H 
ENDBRANCH   6  82
BRANCH   4  86
ATOM     86  O   LIG d   1      -1.494  -4.725 -13.764  0.00  0.00    -0.391 OA
ATOM     87  H   LIG d   1      -2.459  -4.662 -13.779  0.00  0.00     0.210 HD
ENDBRANCH   4  86
TORSDOF 13
ENDMDL
MODEL 7
REMARK VINA RESULT:      -5.3      2.979      3.832
REMARK  13 active torsions:
REMARK  status: ('A' for Active; 'I' for Inactive)
REMARK    1  A    between atoms: C_1  and  C_2 
REMARK    2  A    between atoms: C_5  and  O_40 
REMARK    3  A    between atoms: C_7  and  C_38 
REMARK    4  A    between atoms: C_7  and  C_39 
REMARK    5  A    between atoms: C_12  and  C_37 
REMARK    6  A    between atoms: C_20  and  C_30 
REMARK    7  A    between atoms: C_20  and  C_31 
REMARK    8  A    between atoms: C_24  and  C_29 
REMARK    9  A    between atoms: C_27  and  C_28 
REMARK   10  A    between atoms: C_31  and  O_33 
REMARK   11  A    between atoms: O_33  and  C_34 
REMARK   12  A    between atoms: C_34  and  C_35 
REMARK   13  A    between atoms: C_35  and  N_36 
ROOT
ATOM      1  C   LIG d   1      10.375   6.787  -9.072  0.00  0.00    -0.022 C 
ATOM      2  C   LIG d   1      10.324   8.156  -9.778  0.00  0.00    -0.044 C 
ATOM      3  C   LIG d   1       9.898   7.961 -11.229  0.00  0.00    -0.026 C 
ATOM      4  C   LIG d   1      10.917   7.114 -11.977  0.00  0.00     0.061 C 
ATOM      5  H   LIG d   1      11.864   7.663 -12.039  0.00  0.00     0.060 H 
ATOM      6  C   LIG d   1      11.175   5.770 -11.293  0.00  0.00    -0.006 C 
ATOM      7  C   LIG d   1      11.395   5.923  -9.806  0.00  0.00    -0.028 C 
ATOM      8  H   LIG d   1      12.372   6.468  -9.699  0.00  0.00     0.031 H 
ATOM      9  C   LIG d   1      11.604   4.596  -9.085  0.00  0.00    -0.049 C 
ATOM     10  C   LIG d   1      12.219   4.886  -7.704  0.00  0.00    -0.046 C 
ATOM     11  C   LIG d   1      11.255   5.745  -6.895  0.00  0.00    -0.016 C 
ATOM     12  C   LIG d   1      10.887   7.009  -7.650  0.00  0.00    -0.011 C 
ATOM     13  H   LIG d   1      11.823   7.583  -7.819  0.00  0.00     0.035 H 
ATOM     14  C   LIG d   1      10.018   7.908  -6.833  0.00  0.00    -0.080 C 
ATOM     15  C   LIG d   1       9.968   7.841  -5.506  0.00  0.00    -0.062 C 
ATOM     16  C   LIG d   1      10.756   6.824  -4.772  0.00  0.00    -0.041 C 
ATOM     17  C   LIG d   1      10.460   6.546  -3.509  0.00  0.00    -0.052 C 
ATOM     18  C   LIG d   1       9.318   7.278  -2.843  0.00  0.00    -0.014 C 
ATOM     19  C   LIG d   1       9.749   7.819  -1.481  0.00  0.00     0.075 C 
ATOM     20  C   LIG d   1      10.230   6.666  -0.596  0.00  0.00     0.022 C 
ATOM     21  C   LIG d   1      11.371   5.964  -1.287  0.00  0.00     0.144 C 
ATOM     22  O   LIG d   1      12.404   5.755  -0.699  0.00  0.00    -0.296 OA
ATOM     23  C   LIG d   1      11.216   5.517  -2.718  0.00  0.00     0.048 C 
ATOM     24  C   LIG d   1      12.584   5.239  -3.324  0.00  0.00    -0.036 C 
ATOM     25  C   LIG d   1      12.450   4.950  -4.817  0.00  0.00    -0.042 C 
ATOM     26  C   LIG d   1      11.861   6.143  -5.539  0.00  0.00    -0.001 C 
ATOM     27  H   LIG d   1       9.607   8.794  -9.263  0.00  0.00     0.027 H 
ATOM     28  H   LIG d   1      11.315   8.608  -9.740  0.00  0.00     0.027 H 
ATOM     29  H   LIG d   1       8.909   7.518 -11.295  0.00  0.00     0.029 H 
ATOM     30  H   LIG d   1       9.846   8.950 -11.710  0.00  0.00     0.029 H 
ATOM     31  H   LIG d   1      10.673   4.055  -8.975  0.00  0.00     0.027 H 
ATOM     32  H   LIG d   1      12.309   3.970  -9.637  0.00  0.00     0.027 H 
ATOM     33  H   LIG d   1      12.395   3.941  -7.189  0.00  0.00     0.027 H 
ATOM     34  H   LIG d   1      13.166   5.405  -7.845  0.00  0.00     0.027 H 
ATOM     35  H   LIG d   1       9.410   8.647  -7.329  0.00  0.00     0.058 H 
ATOM     36  H   LIG d   1       9.359   8.558  -4.983  0.00  0.00     0.062 H 
ATOM     37  H   LIG d   1       8.974   8.106  -3.455  0.00  0.00     0.032 H 
ATOM     38  H   LIG d   1       8.486   6.582  -2.698  0.00  0.00     0.032 H 
ATOM     39  H   LIG d   1      10.569   7.058   0.363  0.00  0.00     0.035 H 
ATOM     40  H   LIG d   1       9.411   5.965  -0.431  0.00  0.00     0.035 H 
ATOM     41  H   LIG d   1      13.238   6.097  -3.164  0.00  0.00     0.028 H 
ATOM     42  H   LIG d   1      13.026   4.368  -2.827  0.00  0.00     0.028 H 
ATOM     43  H   LIG d   1      13.455   4.762  -5.225  0.00  0.00     0.027 H 
ATOM     44  H   LIG d   1      11.858   4.055  -4.977  0.00  0.00     0.027 H 
ENDROOT
BRANCH  19  45
ATOM     45  C   LIG d   1       8.556   8.506  -0.811  0.00  0.00    -0.049 C 
ATOM     46  H   LIG d   1       7.853   7.752  -0.457  0.00  0.00     0.024 H 
ATOM     47  H   LIG d   1       8.905   9.101   0.033  0.00  0.00     0.024 H 
ATOM     48  H   LIG d   1       8.058   9.155  -1.532  0.00  0.00     0.024 H 
ENDBRANCH  19  45
BRANCH  19  49
ATOM     49  C   LIG d   1      10.861   8.817  -1.661  0.00  0.00     0.314 C 
ATOM     50  O   LIG d   1      11.734   8.907  -0.830  0.00  0.00    -0.250 OA
BRANCH  49  51
ATOM     51  O   LIG d   1      10.884   9.608  -2.746  0.00  0.00    -0.459 OA
BRANCH  51  52
ATOM     52  C   LIG d   1      10.312  10.910  -2.612  0.00  0.00     0.132 C 
ATOM     53  H   LIG d   1       9.926  11.035  -1.600  0.00  0.00     0.075 H 
ATOM     54  H   LIG d   1      11.075  11.664  -2.804  0.00  0.00     0.075 H 
BRANCH  52  55
ATOM     55  C   LIG d   1       9.170  11.072  -3.618  0.00  0.00    -0.000 C 
ATOM     56  H   LIG d   1       9.425  11.853  -4.333  0.00  0.00     0.085 H 
ATOM     57  H   LIG d   1       9.017  10.131  -4.146  0.00  0.00     0.085 H 
BRANCH  55  58
ATOM     58  N   LIG d   1       7.940  11.441  -2.906  0.00  0.00     0.221 N 
ATOM     59  H   LIG d   1       8.175  11.951  -2.069  0.00  0.00     0.200 HD
ATOM     60  H   LIG d   1       7.367  12.020  -3.502  0.00  0.00     0.200 HD
ATOM     61  H   LIG d   1       7.430  10.606  -2.659  0.00  0.00     0.200 HD
ENDBRANCH  55  58
ENDBRANCH  52  55
ENDBRANCH  51  52
ENDBRANCH  49  51
ENDBRANCH  19  49
BRANCH  23  62
ATOM     62  C   LIG d   1      10.406   4.218  -2.716  0.00  0.00    -0.049 C 
ATOM     63  H   LIG d   1      10.847   3.514  -3.421  0.00  0.00     0.024 H 
ATOM     64  H   LIG d   1      10.415   3.786  -1.716  0.00  0.00     0.024 H 
ATOM     65  H   LIG d   1       9.378   4.432  -3.011  0.00  0.00     0.024 H 
ENDBRANCH  23  62
BRANCH  26  66
ATOM     66  C   LIG d   1      12.989   7.155  -5.743  0.00  0.00    -0.055 C 
ATOM     67  H   LIG d   1      12.914   7.939  -4.991  0.00  0.00     0.024 H 
ATOM     68  H   LIG d   1      13.950   6.650  -5.648  0.00  0.00     0.024 H 
ATOM     69  H   LIG d   1      12.905   7.596  -6.736  0.00  0.00     0.024 H 
ENDBRANCH  26  66
BRANCH  11  70
ATOM     70  C   LIG d   1      10.009   4.905  -6.563  0.00  0.00    -0.058 C 
ATOM     71  H   LIG d   1      10.242   3.847  -6.681  0.00  0.00     0.024 H 
ATOM     72  H   LIG d   1       9.705   5.098  -5.534  0.00  0.00     0.024 H 
ATOM     73  H   LIG d   1       9.198   5.175  -7.239  0.00  0.00     0.024 H 
ENDBRANCH  11  70
BRANCH   1  74
ATOM     74  C   LIG d   1       8.967   6.211  -9.073  0.00  0.00    -0.059 C 
ATOM     75  H   LIG d   1       9.018   5.123  -9.041  0.00  0.00     0.024 H 
ATOM     76  H   LIG d   1       8.425   6.574  -8.199  0.00  0.00     0.024 H 
ATOM     77  H   LIG d   1       8.446   6.524  -9.978  0.00  0.00     0.024 H 
ENDBRANCH   1  74
BRANCH   6  78
ATOM     78  C   LIG d   1      10.058   4.786 -11.633  0.00  0.00    -0.057 C 
ATOM     79  H   LIG d   1       9.806   4.201 -10.749  0.00  0.00     0.024 H 
ATOM     80  H   LIG d   1       9.178   5.336 -11.966  0.00  0.00     0.024 H 
ATOM     81  H   LIG d   1      10.390   4.119 -12.429  0.00  0.00     0.024 H 
ENDBRANCH   6  78
BRANCH   6  82
ATOM     82  C   LIG d   1      12.477   5.209 -11.920  0.00  0.00    -0.057 C 
ATOM     83  H   LIG d   1      12.223   4.516 -12.723  0.00  0.00     0.024 H 
ATOM     84  H   LIG d   1      13.069   6.030 -12.322  0.00  0.00     0.024 H 
ATOM     85  H   LIG d   1      13.051   4.686 -11.156  0.00  0.00     0.024 H 
ENDBRANCH   6  82
BRANCH   4  86
ATOM     86  O   LIG d   1      10.449   6.875 -13.311  0.00  0.00    -0.391 OA
ATOM     87  H   LIG d   1      11.099   7.081 -13.998  0.00  0.00     0.210 HD
ENDBRANCH   4  86
TORSDOF 13
ENDMDL
MODEL 8
REMARK VINA RESULT:      -5.2      3.112      8.590
REMARK  13 active torsions:
REMARK  status: ('A' for Active; 'I' for Inactive)
REMARK    1  A    between atoms: C_1  and  C_2 
REMARK    2  A    between atoms: C_5  and  O_40 
REMARK    3  A    between atoms: C_7  and  C_38 
REMARK    4  A    between atoms: C_7  and  C_39 
REMARK    5  A    between atoms: C_12  and  C_37 
REMARK    6  A    between atoms: C_20  and  C_30 
REMARK    7  A    between atoms: C_20  and  C_31 
REMARK    8  A    between atoms: C_24  and  C_29 
REMARK    9  A    between atoms: C_27  and  C_28 
REMARK   10  A    between atoms: C_31  and  O_33 
REMARK   11  A    between atoms: O_33  and  C_34 
REMARK   12  A    between atoms: C_34  and  C_35 
REMARK   13  A    between atoms: C_35  and  N_36 
ROOT
ATOM      1  C   LIG d   1      10.635   9.640  -1.211  0.00  0.00    -0.022 C 
ATOM      2  C   LIG d   1      10.671   9.467   0.320  0.00  0.00    -0.044 C 
ATOM      3  C   LIG d   1      10.390  10.810   0.987  0.00  0.00    -0.026 C 
ATOM      4  C   LIG d   1      11.468  11.822   0.629  0.00  0.00     0.061 C 
ATOM      5  H   LIG d   1      12.423  11.496   1.057  0.00  0.00     0.060 H 
ATOM      6  C   LIG d   1      11.640  11.984  -0.883  0.00  0.00    -0.006 C 
ATOM      7  C   LIG d   1      11.712  10.650  -1.591  0.00  0.00    -0.028 C 
ATOM      8  H   LIG d   1      12.680  10.185  -1.261  0.00  0.00     0.031 H 
ATOM      9  C   LIG d   1      11.832  10.776  -3.106  0.00  0.00    -0.049 C 
ATOM     10  C   LIG d   1      12.309   9.424  -3.668  0.00  0.00    -0.046 C 
ATOM     11  C   LIG d   1      11.279   8.351  -3.337  0.00  0.00    -0.016 C 
ATOM     12  C   LIG d   1      11.004   8.300  -1.845  0.00  0.00    -0.011 C 
ATOM     13  H   LIG d   1      11.959   8.050  -1.336  0.00  0.00     0.035 H 
ATOM     14  C   LIG d   1      10.069   7.191  -1.492  0.00  0.00    -0.080 C 
ATOM     15  C   LIG d   1       9.885   6.134  -2.276  0.00  0.00    -0.062 C 
ATOM     16  C   LIG d   1      10.583   6.032  -3.580  0.00  0.00    -0.041 C 
ATOM     17  C   LIG d   1      10.159   5.163  -4.488  0.00  0.00    -0.052 C 
ATOM     18  C   LIG d   1       8.965   4.292  -4.173  0.00  0.00    -0.014 C 
ATOM     19  C   LIG d   1       9.264   2.831  -4.504  0.00  0.00     0.075 C 
ATOM     20  C   LIG d   1       9.640   2.703  -5.982  0.00  0.00     0.022 C 
ATOM     21  C   LIG d   1      10.836   3.579  -6.259  0.00  0.00     0.144 C 
ATOM     22  O   LIG d   1      11.802   3.128  -6.825  0.00  0.00    -0.296 OA
ATOM     23  C   LIG d   1      10.819   5.023  -5.830  0.00  0.00     0.048 C 
ATOM     24  C   LIG d   1      12.238   5.575  -5.817  0.00  0.00    -0.036 C 
ATOM     25  C   LIG d   1      12.250   6.982  -5.224  0.00  0.00    -0.042 C 
ATOM     26  C   LIG d   1      11.751   6.961  -3.795  0.00  0.00    -0.001 C 
ATOM     27  H   LIG d   1       9.914   8.742   0.613  0.00  0.00     0.027 H 
ATOM     28  H   LIG d   1      11.659   9.110   0.609  0.00  0.00     0.027 H 
ATOM     29  H   LIG d   1       9.407  11.187   0.721  0.00  0.00     0.029 H 
ATOM     30  H   LIG d   1      10.398  10.662   2.078  0.00  0.00     0.029 H 
ATOM     31  H   LIG d   1      10.887  11.056  -3.555  0.00  0.00     0.027 H 
ATOM     32  H   LIG d   1      12.580  11.527  -3.367  0.00  0.00     0.027 H 
ATOM     33  H   LIG d   1      12.420   9.510  -4.749  0.00  0.00     0.027 H 
ATOM     34  H   LIG d   1      13.271   9.180  -3.221  0.00  0.00     0.027 H 
ATOM     35  H   LIG d   1       9.522   7.237  -0.564  0.00  0.00     0.058 H 
ATOM     36  H   LIG d   1       9.236   5.349  -1.929  0.00  0.00     0.062 H 
ATOM     37  H   LIG d   1       8.695   4.365  -3.124  0.00  0.00     0.032 H 
ATOM     38  H   LIG d   1       8.114   4.622  -4.776  0.00  0.00     0.032 H 
ATOM     39  H   LIG d   1       9.886   1.665  -6.207  0.00  0.00     0.035 H 
ATOM     40  H   LIG d   1       8.800   3.018  -6.601  0.00  0.00     0.035 H 
ATOM     41  H   LIG d   1      12.883   4.915  -5.235  0.00  0.00     0.028 H 
ATOM     42  H   LIG d   1      12.617   5.614  -6.843  0.00  0.00     0.028 H 
ATOM     43  H   LIG d   1      13.288   7.347  -5.221  0.00  0.00     0.027 H 
ATOM     44  H   LIG d   1      11.666   7.656  -5.840  0.00  0.00     0.027 H 
ENDROOT
BRANCH  19  45
ATOM     45  C   LIG d   1       8.018   1.986  -4.223  0.00  0.00    -0.049 C 
ATOM     46  H   LIG d   1       7.406   2.479  -3.468  0.00  0.00     0.024 H 
ATOM     47  H   LIG d   1       7.441   1.873  -5.141  0.00  0.00     0.024 H 
ATOM     48  H   LIG d   1       8.320   1.004  -3.861  0.00  0.00     0.024 H 
ENDBRANCH  19  45
BRANCH  19  49
ATOM     49  C   LIG d   1      10.401   2.341  -3.647  0.00  0.00     0.314 C 
ATOM     50  O   LIG d   1      10.586   2.823  -2.554  0.00  0.00    -0.250 OA
BRANCH  49  51
ATOM     51  O   LIG d   1      11.209   1.368  -4.096  0.00  0.00    -0.459 OA
BRANCH  51  52
ATOM     52  C   LIG d   1      12.581   1.431  -3.704  0.00  0.00     0.132 C 
ATOM     53  H   LIG d   1      12.886   2.474  -3.612  0.00  0.00     0.075 H 
ATOM     54  H   LIG d   1      12.709   0.930  -2.744  0.00  0.00     0.075 H 
BRANCH  52  55
ATOM     55  C   LIG d   1      13.446   0.739  -4.760  0.00  0.00    -0.000 C 
ATOM     56  H   LIG d   1      14.228   1.421  -5.094  0.00  0.00     0.085 H 
ATOM     57  H   LIG d   1      13.902  -0.153  -4.328  0.00  0.00     0.085 H 
BRANCH  55  58
ATOM     58  N   LIG d   1      12.609   0.356  -5.904  0.00  0.00     0.221 N 
ATOM     59  H   LIG d   1      13.156   0.396  -6.750  0.00  0.00     0.200 HD
ATOM     60  H   LIG d   1      12.265  -0.583  -5.771  0.00  0.00     0.200 HD
ATOM     61  H   LIG d   1      11.829   0.992  -5.978  0.00  0.00     0.200 HD
ENDBRANCH  55  58
ENDBRANCH  52  55
ENDBRANCH  51  52
ENDBRANCH  49  51
ENDBRANCH  19  49
BRANCH  23  62
ATOM     62  C   LIG d   1       9.997   5.805  -6.857  0.00  0.00    -0.049 C 
ATOM     63  H   LIG d   1      10.481   5.746  -7.831  0.00  0.00     0.024 H 
ATOM     64  H   LIG d   1       8.996   5.378  -6.922  0.00  0.00     0.024 H 
ATOM     65  H   LIG d   1       9.928   6.848  -6.547  0.00  0.00     0.024 H 
ENDBRANCH  23  62
BRANCH  26  66
ATOM     66  C   LIG d   1      12.906   6.481  -2.915  0.00  0.00    -0.055 C 
ATOM     67  H   LIG d   1      13.598   5.890  -3.515  0.00  0.00     0.024 H 
ATOM     68  H   LIG d   1      13.429   7.343  -2.500  0.00  0.00     0.024 H 
ATOM     69  H   LIG d   1      12.514   5.867  -2.104  0.00  0.00     0.024 H 
ENDBRANCH  26  66
BRANCH  11  70
ATOM     70  C   LIG d   1       9.996   8.638  -4.136  0.00  0.00    -0.058 C 
ATOM     71  H   LIG d   1       9.168   8.804  -3.448  0.00  0.00     0.024 H 
ATOM     72  H   LIG d   1      10.142   9.526  -4.751  0.00  0.00     0.024 H 
ATOM     73  H   LIG d   1       9.769   7.786  -4.777  0.00  0.00     0.024 H 
ENDBRANCH  11  70
BRANCH   1  74
ATOM     74  C   LIG d   1       9.226  10.069  -1.597  0.00  0.00    -0.059 C 
ATOM     75  H   LIG d   1       9.171  10.210  -2.676  0.00  0.00     0.024 H 
ATOM     76  H   LIG d   1       8.516   9.298  -1.295  0.00  0.00     0.024 H 
ATOM     77  H   LIG d   1       8.980  11.005  -1.095  0.00  0.00     0.024 H 
ENDBRANCH   1  74
BRANCH   6  78
ATOM     78  C   LIG d   1      10.550  12.897  -1.439  0.00  0.00    -0.057 C 
ATOM     79  H   LIG d   1      10.534  12.825  -2.527  0.00  0.00     0.024 H 
ATOM     80  H   LIG d   1       9.582  12.592  -1.041  0.00  0.00     0.024 H 
ATOM     81  H   LIG d   1      10.754  13.927  -1.146  0.00  0.00     0.024 H 
ENDBRANCH   6  78
BRANCH   6  82
ATOM     82  C   LIG d   1      12.991  12.715  -1.088  0.00  0.00    -0.057 C 
ATOM     83  H   LIG d   1      13.805  11.991  -1.046  0.00  0.00     0.024 H 
ATOM     84  H   LIG d   1      12.992  13.207  -2.061  0.00  0.00     0.024 H 
ATOM     85  H   LIG d   1      13.124  13.458  -0.304  0.00  0.00     0.024 H 
ENDBRANCH   6  82
BRANCH   4  86
ATOM     86  O   LIG d   1      11.133  13.094   1.197  0.00  0.00    -0.391 OA
ATOM     87  H   LIG d   1      10.635  13.672   0.601  0.00  0.00     0.210 HD
ENDBRANCH   4  86
TORSDOF 13
ENDMDL
MODEL 9
REMARK VINA RESULT:      -5.1     14.777     17.911
REMARK  13 active torsions:
REMARK  status: ('A' for Active; 'I' for Inactive)
REMARK    1  A    between atoms: C_1  and  C_2 
REMARK    2  A    between atoms: C_5  and  O_40 
REMARK    3  A    between atoms: C_7  and  C_38 
REMARK    4  A    between atoms: C_7  and  C_39 
REMARK    5  A    between atoms: C_12  and  C_37 
REMARK    6  A    between atoms: C_20  and  C_30 
REMARK    7  A    between atoms: C_20  and  C_31 
REMARK    8  A    between atoms: C_24  and  C_29 
REMARK    9  A    between atoms: C_27  and  C_28 
REMARK   10  A    between atoms: C_31  and  O_33 
REMARK   11  A    between atoms: O_33  and  C_34 
REMARK   12  A    between atoms: C_34  and  C_35 
REMARK   13  A    between atoms: C_35  and  N_36 
ROOT
ATOM      1  C   LIG d   1      11.764  -9.777   1.499  0.00  0.00    -0.022 C 
ATOM      2  C   LIG d   1      11.740 -10.965   2.482  0.00  0.00    -0.044 C 
ATOM      3  C   LIG d   1      12.470 -10.576   3.763  0.00  0.00    -0.026 C 
ATOM      4  C   LIG d   1      13.933 -10.269   3.473  0.00  0.00     0.061 C 
ATOM      5  H   LIG d   1      14.432 -11.185   3.138  0.00  0.00     0.060 H 
ATOM      6  C   LIG d   1      14.103  -9.197   2.395  0.00  0.00    -0.006 C 
ATOM      7  C   LIG d   1      13.223  -9.456   1.194  0.00  0.00    -0.028 C 
ATOM      8  H   LIG d   1      13.634 -10.385   0.713  0.00  0.00     0.031 H 
ATOM      9  C   LIG d   1      13.331  -8.377   0.121  0.00  0.00    -0.049 C 
ATOM     10  C   LIG d   1      12.742  -8.935  -1.187  0.00  0.00    -0.046 C 
ATOM     11  C   LIG d   1      11.274  -9.278  -0.972  0.00  0.00    -0.016 C 
ATOM     12  C   LIG d   1      11.101 -10.228   0.199  0.00  0.00    -0.011 C 
ATOM     13  H   LIG d   1      11.656 -11.161  -0.041  0.00  0.00     0.035 H 
ATOM     14  C   LIG d   1       9.679 -10.650   0.366  0.00  0.00    -0.080 C 
ATOM     15  C   LIG d   1       8.794 -10.588  -0.625  0.00  0.00    -0.062 C 
ATOM     16  C   LIG d   1       9.182 -10.047  -1.949  0.00  0.00    -0.041 C 
ATOM     17  C   LIG d   1       8.244  -9.685  -2.814  0.00  0.00    -0.052 C 
ATOM     18  C   LIG d   1       6.790  -9.832  -2.427  0.00  0.00    -0.014 C 
ATOM     19  C   LIG d   1       6.006 -10.530  -3.537  0.00  0.00     0.075 C 
ATOM     20  C   LIG d   1       6.133  -9.733  -4.838  0.00  0.00     0.022 C 
ATOM     21  C   LIG d   1       7.592  -9.611  -5.196  0.00  0.00     0.144 C 
ATOM     22  O   LIG d   1       7.973  -9.901  -6.304  0.00  0.00    -0.296 OA
ATOM     23  C   LIG d   1       8.576  -9.121  -4.165  0.00  0.00     0.048 C 
ATOM     24  C   LIG d   1       9.993  -9.482  -4.590  0.00  0.00    -0.036 C 
ATOM     25  C   LIG d   1      10.979  -9.141  -3.476  0.00  0.00    -0.042 C 
ATOM     26  C   LIG d   1      10.660  -9.927  -2.223  0.00  0.00    -0.001 C 
ATOM     27  H   LIG d   1      10.705 -11.217   2.708  0.00  0.00     0.027 H 
ATOM     28  H   LIG d   1      12.236 -11.815   2.016  0.00  0.00     0.027 H 
ATOM     29  H   LIG d   1      11.992  -9.733   4.252  0.00  0.00     0.029 H 
ATOM     30  H   LIG d   1      12.423 -11.427   4.459  0.00  0.00     0.029 H 
ATOM     31  H   LIG d   1      12.807  -7.475   0.414  0.00  0.00     0.027 H 
ATOM     32  H   LIG d   1      14.378  -8.129  -0.064  0.00  0.00     0.027 H 
ATOM     33  H   LIG d   1      12.836  -8.179  -1.967  0.00  0.00     0.027 H 
ATOM     34  H   LIG d   1      13.303  -9.824  -1.472  0.00  0.00     0.027 H 
ATOM     35  H   LIG d   1       9.348 -11.026   1.320  0.00  0.00     0.058 H 
ATOM     36  H   LIG d   1       7.801 -10.960  -0.445  0.00  0.00     0.062 H 
ATOM     37  H   LIG d   1       6.686 -10.406  -1.511  0.00  0.00     0.032 H 
ATOM     38  H   LIG d   1       6.362  -8.838  -2.266  0.00  0.00     0.032 H 
ATOM     39  H   LIG d   1       5.601 -10.250  -5.636  0.00  0.00     0.035 H 
ATOM     40  H   LIG d   1       5.702  -8.740  -4.701  0.00  0.00     0.035 H 
ATOM     41  H   LIG d   1      10.045 -10.545  -4.827  0.00  0.00     0.028 H 
ATOM     42  H   LIG d   1      10.253  -8.913  -5.489  0.00  0.00     0.028 H 
ATOM     43  H   LIG d   1      11.989  -9.420  -3.811  0.00  0.00     0.027 H 
ATOM     44  H   LIG d   1      10.980  -8.073  -3.287  0.00  0.00     0.027 H 
ENDROOT
BRANCH  19  45
ATOM     45  C   LIG d   1       4.531 -10.614  -3.136  0.00  0.00    -0.049 C 
ATOM     46  H   LIG d   1       4.310 -11.616  -2.770  0.00  0.00     0.024 H 
ATOM     47  H   LIG d   1       4.326  -9.887  -2.350  0.00  0.00     0.024 H 
ATOM     48  H   LIG d   1       3.906 -10.398  -4.003  0.00  0.00     0.024 H 
ENDBRANCH  19  45
BRANCH  19  49
ATOM     49  C   LIG d   1       6.547 -11.921  -3.741  0.00  0.00     0.314 C 
ATOM     50  O   LIG d   1       6.462 -12.449  -4.825  0.00  0.00    -0.250 OA
BRANCH  49  51
ATOM     51  O   LIG d   1       7.124 -12.573  -2.720  0.00  0.00    -0.459 OA
BRANCH  51  52
ATOM     52  C   LIG d   1       8.223 -13.430  -3.035  0.00  0.00     0.132 C 
ATOM     53  H   LIG d   1       7.920 -14.144  -3.801  0.00  0.00     0.075 H 
ATOM     54  H   LIG d   1       9.055 -12.831  -3.406  0.00  0.00     0.075 H 
BRANCH  52  55
ATOM     55  C   LIG d   1       8.658 -14.185  -1.777  0.00  0.00    -0.000 C 
ATOM     56  H   LIG d   1       8.846 -15.229  -2.027  0.00  0.00     0.085 H 
ATOM     57  H   LIG d   1       9.570 -13.736  -1.382  0.00  0.00     0.085 H 
BRANCH  55  58
ATOM     58  N   LIG d   1       7.595 -14.107  -0.767  0.00  0.00     0.221 N 
ATOM     59  H   LIG d   1       7.742 -14.820  -0.068  0.00  0.00     0.200 HD
ATOM     60  H   LIG d   1       7.613 -13.198  -0.328  0.00  0.00     0.200 HD
ATOM     61  H   LIG d   1       6.700 -14.249  -1.209  0.00  0.00     0.200 HD
ENDBRANCH  55  58
ENDBRANCH  52  55
ENDBRANCH  51  52
ENDBRANCH  49  51
ENDBRANCH  19  49
BRANCH  23  62
ATOM     62  C   LIG d   1       8.457  -7.596  -4.095  0.00  0.00    -0.049 C 
ATOM     63  H   LIG d   1       9.118  -7.146  -4.834  0.00  0.00     0.024 H 
ATOM     64  H   LIG d   1       7.428  -7.303  -4.301  0.00  0.00     0.024 H 
ATOM     65  H   LIG d   1       8.740  -7.257  -3.098  0.00  0.00     0.024 H 
ENDBRANCH  23  62
BRANCH  26  66
ATOM     66  C   LIG d   1      11.222 -11.337  -2.414  0.00  0.00    -0.055 C 
ATOM     67  H   LIG d   1      10.471 -11.965  -2.893  0.00  0.00     0.024 H 
ATOM     68  H   LIG d   1      12.111 -11.291  -3.042  0.00  0.00     0.024 H 
ATOM     69  H   LIG d   1      11.482 -11.758  -1.443  0.00  0.00     0.024 H 
ENDBRANCH  26  66
BRANCH  11  70
ATOM     70  C   LIG d   1      10.490  -7.971  -0.756  0.00  0.00    -0.058 C 
ATOM     71  H   LIG d   1      10.604  -7.646   0.278  0.00  0.00     0.024 H 
ATOM     72  H   LIG d   1      10.877  -7.202  -1.424  0.00  0.00     0.024 H 
ATOM     73  H   LIG d   1       9.435  -8.141  -0.969  0.00  0.00     0.024 H 
ENDBRANCH  11  70
BRANCH   1  74
ATOM     74  C   LIG d   1      11.003  -8.627   2.142  0.00  0.00    -0.059 C 
ATOM     75  H   LIG d   1      11.696  -7.822   2.385  0.00  0.00     0.024 H 
ATOM     76  H   LIG d   1      10.248  -8.257   1.448  0.00  0.00     0.024 H 
ATOM     77  H   LIG d   1      10.517  -8.976   3.054  0.00  0.00     0.024 H 
ENDBRANCH   1  74
BRANCH   6  78
ATOM     78  C   LIG d   1      13.896  -7.809   2.999  0.00  0.00    -0.057 C 
ATOM     79  H   LIG d   1      14.283  -7.794   4.018  0.00  0.00     0.024 H 
ATOM     80  H   LIG d   1      14.426  -7.069   2.398  0.00  0.00     0.024 H 
ATOM     81  H   LIG d   1      12.832  -7.573   3.009  0.00  0.00     0.024 H 
ENDBRANCH   6  78
BRANCH   6  82
ATOM     82  C   LIG d   1      15.582  -9.275   1.938  0.00  0.00    -0.057 C 
ATOM     83  H   LIG d   1      15.834  -8.378   1.372  0.00  0.00     0.024 H 
ATOM     84  H   LIG d   1      16.228  -9.348   2.812  0.00  0.00     0.024 H 
ATOM     85  H   LIG d   1      15.720 -10.153   1.308  0.00  0.00     0.024 H 
ENDBRANCH   6  82
BRANCH   4  86
ATOM     86  O   LIG d   1      14.572  -9.824   4.677  0.00  0.00    -0.391 OA
ATOM     87  H   LIG d   1      13.986  -9.341   5.277  0.00  0.00     0.210 HD
ENDBRANCH   4  86
TORSDOF 13
ENDMDL
MODEL 10
REMARK VINA RESULT:      -5.1      2.856      8.622
REMARK  13 active torsions:
REMARK  status: ('A' for Active; 'I' for Inactive)
REMARK    1  A    between atoms: C_1  and  C_2 
REMARK    2  A    between atoms: C_5  and  O_40 
REMARK    3  A    between atoms: C_7  and  C_38 
REMARK    4  A    between atoms: C_7  and  C_39 
REMARK    5  A    between atoms: C_12  and  C_37 
REMARK    6  A    between atoms: C_20  and  C_30 
REMARK    7  A    between atoms: C_20  and  C_31 
REMARK    8  A    between atoms: C_24  and  C_29 
REMARK    9  A    between atoms: C_27  and  C_28 
REMARK   10  A    between atoms: C_31  and  O_33 
REMARK   11  A    between atoms: O_33  and  C_34 
REMARK   12  A    between atoms: C_34  and  C_35 
REMARK   13  A    between atoms: C_35  and  N_36 
ROOT
ATOM      1  C   LIG d   1      10.822   6.674  -1.604  0.00  0.00    -0.022 C 
ATOM      2  C   LIG d   1      11.098   6.020  -0.236  0.00  0.00    -0.044 C 
ATOM      3  C   LIG d   1      10.901   7.055   0.868  0.00  0.00    -0.026 C 
ATOM      4  C   LIG d   1      11.894   8.198   0.713  0.00  0.00     0.061 C 
ATOM      5  H   LIG d   1      12.909   7.816   0.871  0.00  0.00     0.060 H 
ATOM      6  C   LIG d   1      11.827   8.848  -0.670  0.00  0.00    -0.006 C 
ATOM      7  C   LIG d   1      11.811   7.821  -1.780  0.00  0.00    -0.028 C 
ATOM      8  H   LIG d   1      12.826   7.340  -1.760  0.00  0.00     0.031 H 
ATOM      9  C   LIG d   1      11.692   8.435  -3.170  0.00  0.00    -0.049 C 
ATOM     10  C   LIG d   1      12.099   7.371  -4.206  0.00  0.00    -0.046 C 
ATOM     11  C   LIG d   1      11.152   6.182  -4.103  0.00  0.00    -0.016 C 
ATOM     12  C   LIG d   1      11.111   5.637  -2.688  0.00  0.00    -0.011 C 
ATOM     13  H   LIG d   1      12.138   5.300  -2.429  0.00  0.00     0.035 H 
ATOM     14  C   LIG d   1      10.261   4.414  -2.590  0.00  0.00    -0.080 C 
ATOM     15  C   LIG d   1       9.976   3.655  -3.644  0.00  0.00    -0.062 C 
ATOM     16  C   LIG d   1      10.464   4.024  -4.993  0.00  0.00    -0.041 C 
ATOM     17  C   LIG d   1       9.920   3.468  -6.066  0.00  0.00    -0.052 C 
ATOM     18  C   LIG d   1       8.803   2.464  -5.889  0.00  0.00    -0.014 C 
ATOM     19  C   LIG d   1       9.072   1.210  -6.719  0.00  0.00     0.075 C 
ATOM     20  C   LIG d   1       9.217   1.590  -8.195  0.00  0.00     0.022 C 
ATOM     21  C   LIG d   1      10.340   2.585  -8.336  0.00  0.00     0.144 C 
ATOM     22  O   LIG d   1      11.215   2.406  -9.148  0.00  0.00    -0.296 OA
ATOM     23  C   LIG d   1      10.367   3.810  -7.459  0.00  0.00     0.048 C 
ATOM     24  C   LIG d   1      11.760   4.422  -7.465  0.00  0.00    -0.036 C 
ATOM     25  C   LIG d   1      11.841   5.560  -6.452  0.00  0.00    -0.042 C 
ATOM     26  C   LIG d   1      11.569   5.048  -5.053  0.00  0.00    -0.001 C 
ATOM     27  H   LIG d   1      10.408   5.191  -0.093  0.00  0.00     0.027 H 
ATOM     28  H   LIG d   1      12.124   5.655  -0.222  0.00  0.00     0.027 H 
ATOM     29  H   LIG d   1       9.883   7.432   0.881  0.00  0.00     0.029 H 
ATOM     30  H   LIG d   1      11.081   6.565   1.837  0.00  0.00     0.029 H 
ATOM     31  H   LIG d   1      10.685   8.782  -3.365  0.00  0.00     0.027 H 
ATOM     32  H   LIG d   1      12.379   9.278  -3.273  0.00  0.00     0.027 H 
ATOM     33  H   LIG d   1      12.040   7.807  -5.203  0.00  0.00     0.027 H 
ATOM     34  H   LIG d   1      13.123   7.060  -4.004  0.00  0.00     0.027 H 
ATOM     35  H   LIG d   1       9.863   4.122  -1.631  0.00  0.00     0.058 H 
ATOM     36  H   LIG d   1       9.401   2.759  -3.485  0.00  0.00     0.062 H 
ATOM     37  H   LIG d   1       8.698   2.178  -4.848  0.00  0.00     0.032 H 
ATOM     38  H   LIG d   1       7.864   2.914  -6.225  0.00  0.00     0.032 H 
ATOM     39  H   LIG d   1       9.442   0.698  -8.781  0.00  0.00     0.035 H 
ATOM     40  H   LIG d   1       8.285   2.031  -8.552  0.00  0.00     0.035 H 
ATOM     41  H   LIG d   1      12.499   3.654  -7.229  0.00  0.00     0.028 H 
ATOM     42  H   LIG d   1      11.976   4.813  -8.465  0.00  0.00     0.028 H 
ATOM     43  H   LIG d   1      12.861   5.973  -6.476  0.00  0.00     0.027 H 
ATOM     44  H   LIG d   1      11.158   6.357  -6.724  0.00  0.00     0.027 H 
ENDROOT
BRANCH  19  45
ATOM     45  C   LIG d   1       7.899   0.240  -6.559  0.00  0.00    -0.049 C 
ATOM     46  H   LIG d   1       8.052  -0.374  -5.672  0.00  0.00     0.024 H 
ATOM     47  H   LIG d   1       6.972   0.803  -6.455  0.00  0.00     0.024 H 
ATOM     48  H   LIG d   1       7.836  -0.403  -7.438  0.00  0.00     0.024 H 
ENDBRANCH  19  45
BRANCH  19  49
ATOM     49  C   LIG d   1      10.336   0.547  -6.240  0.00  0.00     0.314 C 
ATOM     50  O   LIG d   1      11.094   0.044  -7.037  0.00  0.00    -0.250 OA
BRANCH  49  51
ATOM     51  O   LIG d   1      10.622   0.514  -4.930  0.00  0.00    -0.459 OA
BRANCH  51  52
ATOM     52  C   LIG d   1      11.989   0.703  -4.559  0.00  0.00     0.132 C 
ATOM     53  H   LIG d   1      12.548   1.083  -5.414  0.00  0.00     0.075 H 
ATOM     54  H   LIG d   1      12.047   1.420  -3.740  0.00  0.00     0.075 H 
BRANCH  52  55
ATOM     55  C   LIG d   1      12.586  -0.633  -4.111  0.00  0.00    -0.000 C 
ATOM     56  H   LIG d   1      13.425  -0.890  -4.757  0.00  0.00     0.085 H 
ATOM     57  H   LIG d   1      12.931  -0.549  -3.081  0.00  0.00     0.085 H 
BRANCH  55  58
ATOM     58  N   LIG d   1      11.560  -1.681  -4.200  0.00  0.00     0.221 N 
ATOM     59  H   LIG d   1      10.645  -1.262  -4.146  0.00  0.00     0.200 HD
ATOM     60  H   LIG d   1      11.655  -2.170  -5.078  0.00  0.00     0.200 HD
ATOM     61  H   LIG d   1      11.678  -2.332  -3.439  0.00  0.00     0.200 HD
ENDBRANCH  55  58
ENDBRANCH  52  55
ENDBRANCH  51  52
ENDBRANCH  49  51
ENDBRANCH  19  49
BRANCH  23  62
ATOM     62  C   LIG d   1       9.382   4.825  -8.046  0.00  0.00    -0.049 C 
ATOM     63  H   LIG d   1       9.412   4.773  -9.133  0.00  0.00     0.024 H 
ATOM     64  H   LIG d   1       8.375   4.596  -7.698  0.00  0.00     0.024 H 
ATOM     65  H   LIG d   1       9.660   5.828  -7.722  0.00  0.00     0.024 H 
ENDBRANCH  23  62
BRANCH  26  66
ATOM     66  C   LIG d   1      12.855   4.388  -4.552  0.00  0.00    -0.055 C 
ATOM     67  H   LIG d   1      12.611   3.655  -3.784  0.00  0.00     0.024 H 
ATOM     68  H   LIG d   1      13.356   3.892  -5.383  0.00  0.00     0.024 H 
ATOM     69  H   LIG d   1      13.513   5.149  -4.132  0.00  0.00     0.024 H 
ENDBRANCH  26  66
BRANCH  11  70
ATOM     70  C   LIG d   1       9.755   6.625  -4.575  0.00  0.00    -0.058 C 
ATOM     71  H   LIG d   1       9.363   5.897  -5.285  0.00  0.00     0.024 H 
ATOM     72  H   LIG d   1       9.086   6.694  -3.717  0.00  0.00     0.024 H 
ATOM     73  H   LIG d   1       9.827   7.600  -5.059  0.00  0.00     0.024 H 
ENDBRANCH  11  70
BRANCH   1  74
ATOM     74  C   LIG d   1       9.364   7.109  -1.625  0.00  0.00    -0.059 C 
ATOM     75  H   LIG d   1       9.273   8.098  -1.176  0.00  0.00     0.024 H 
ATOM     76  H   LIG d   1       9.010   7.145  -2.656  0.00  0.00     0.024 H 
ATOM     77  H   LIG d   1       8.763   6.397  -1.059  0.00  0.00     0.024 H 
ENDBRANCH   1  74
BRANCH   6  78
ATOM     78  C   LIG d   1      10.649   9.818  -0.737  0.00  0.00    -0.057 C 
ATOM     79  H   LIG d   1      10.210   9.926   0.255  0.00  0.00     0.024 H 
ATOM     80  H   LIG d   1      10.997  10.789  -1.087  0.00  0.00     0.024 H 
ATOM     81  H   LIG d   1       9.899   9.431  -1.427  0.00  0.00     0.024 H 
ENDBRANCH   6  78
BRANCH   6  82
ATOM     82  C   LIG d   1      13.117   9.694  -0.813  0.00  0.00    -0.057 C 
ATOM     83  H   LIG d   1      13.915   9.073  -1.221  0.00  0.00     0.024 H 
ATOM     84  H   LIG d   1      12.929  10.532  -1.484  0.00  0.00     0.024 H 
ATOM     85  H   LIG d   1      13.414  10.071   0.165  0.00  0.00     0.024 H 
ENDBRANCH   6  82
BRANCH   4  86
ATOM     86  O   LIG d   1      11.630   9.195   1.708  0.00  0.00    -0.391 OA
ATOM     87  H   LIG d   1      10.689   9.367   1.852  0.00  0.00     0.210 HD
ENDBRANCH   4  86
TORSDOF 13
ENDMDL
