MODEL 1
REMARK VINA RESULT:      -6.5      0.000      0.000
REMARK  5 active torsions:
REMARK  status: ('A' for Active; 'I' for Inactive)
REMARK    1  A    between atoms: C_1  and  O_2 
REMARK    2  A    between atoms: O_2  and  C_3 
REMARK    3  A    between atoms: C_8  and  C_9 
REMARK    4  A    between atoms: C_14  and  O_20 
REMARK    5  A    between atoms: O_20  and  C_21 
REMARK       I    between atoms: C_21  and  N_23 
ROOT
ATOM      1  C   LIG d   1       4.237  -0.840  -5.956  0.00  0.00     0.068 C 
ATOM      2  C   LIG d   1       4.808  -1.835  -6.686  0.00  0.00     0.104 C 
ATOM      3  O   LIG d   1       4.722  -1.894  -8.017  0.00  0.00    -0.462 OA
ATOM      4  C   LIG d   1       4.338  -0.831  -8.751  0.00  0.00     0.142 A 
ATOM      5  C   LIG d   1       4.554  -0.802 -10.123  0.00  0.00     0.024 A 
ATOM      6  C   LIG d   1       4.143   0.293 -10.862  0.00  0.00     0.137 A 
ATOM      7  C   LIG d   1       3.515   1.371 -10.244  0.00  0.00    -0.018 A 
ATOM      8  C   LIG d   1       3.297   1.362  -8.895  0.00  0.00    -0.044 A 
ATOM      9  C   LIG d   1       3.709   0.266  -8.137  0.00  0.00     0.065 A 
ATOM     10  C   LIG d   1       3.504   0.219  -6.675  0.00  0.00     0.200 C 
ATOM     11  O   LIG d   1       2.777   1.008  -6.097  0.00  0.00    -0.286 OA
ATOM     12  H   LIG d   1       5.353  -2.609  -6.169  0.00  0.00     0.104 H 
ATOM     13  H   LIG d   1       5.040  -1.634 -10.612  0.00  0.00     0.069 H 
ATOM     14  H   LIG d   1       3.196   2.219 -10.833  0.00  0.00     0.065 H 
ATOM     15  H   LIG d   1       2.809   2.199  -8.418  0.00  0.00     0.063 H 
ENDROOT
BRANCH   6  16
ATOM     16  O   LIG d   1       4.357   0.318 -12.203  0.00  0.00    -0.411 OA
BRANCH  16  17
ATOM     17  C   LIG d   1       4.015  -0.770 -12.918  0.00  0.00     0.408 C 
ATOM     18  O   LIG d   1       2.855  -1.130 -12.959  0.00  0.00    -0.226 OA
ATOM     19  N   LIG d   1       4.959  -1.459 -13.590  0.00  0.00    -0.263 N 
ATOM     20  C   LIG d   1       4.609  -2.651 -14.379  0.00  0.00     0.041 C 
ATOM     21  C   LIG d   1       6.370  -1.047 -13.551  0.00  0.00     0.041 C 
ATOM     22  C   LIG d   1       5.545  -3.792 -13.982  0.00  0.00     0.064 C 
ATOM     23  H   LIG d   1       3.576  -2.937 -14.175  0.00  0.00     0.049 H 
ATOM     24  H   LIG d   1       4.727  -2.436 -15.442  0.00  0.00     0.049 H 
ATOM     25  O   LIG d   1       6.900  -3.344 -14.073  0.00  0.00    -0.377 OA
ATOM     26  H   LIG d   1       5.395  -4.639 -14.652  0.00  0.00     0.058 H 
ATOM     27  H   LIG d   1       5.331  -4.095 -12.958  0.00  0.00     0.058 H 
ATOM     28  C   LIG d   1       7.222  -2.268 -13.190  0.00  0.00     0.064 C 
ATOM     29  H   LIG d   1       8.278  -2.018 -13.290  0.00  0.00     0.058 H 
ATOM     30  H   LIG d   1       7.013  -2.566 -12.162  0.00  0.00     0.058 H 
ATOM     31  H   LIG d   1       6.669  -0.667 -14.528  0.00  0.00     0.049 H 
ATOM     32  H   LIG d   1       6.504  -0.269 -12.799  0.00  0.00     0.049 H 
ENDBRANCH  16  17
ENDBRANCH   6  16
BRANCH   1  33
ATOM     33  C   LIG d   1       4.344  -0.824  -4.477  0.00  0.00     0.030 A 
ATOM     34  C   LIG d   1       5.305  -0.023  -3.851  0.00  0.00     0.128 A 
ATOM     35  C   LIG d   1       5.394  -0.011  -2.469  0.00  0.00    -0.019 A 
ATOM     36  C   LIG d   1       4.540  -0.791  -1.712  0.00  0.00    -0.058 A 
ATOM     37  H   LIG d   1       6.132   0.610  -1.982  0.00  0.00     0.065 H 
ATOM     38  C   LIG d   1       3.593  -1.589  -2.329  0.00  0.00    -0.061 A 
ATOM     39  H   LIG d   1       4.614  -0.778  -0.635  0.00  0.00     0.062 H 
ATOM     40  C   LIG d   1       3.493  -1.611  -3.706  0.00  0.00    -0.050 A 
ATOM     41  H   LIG d   1       2.929  -2.197  -1.731  0.00  0.00     0.062 H 
ATOM     42  H   LIG d   1       2.753  -2.236  -4.183  0.00  0.00     0.062 H 
BRANCH  34  43
ATOM     43  O   LIG d   1       6.143   0.745  -4.596  0.00  0.00    -0.494 OA
BRANCH  43  44
ATOM     44  C   LIG d   1       7.263   1.322  -3.923  0.00  0.00     0.079 C 
ATOM     45  H   LIG d   1       7.388   2.356  -4.246  0.00  0.00     0.066 H 
ATOM     46  H   LIG d   1       7.094   1.296  -2.846  0.00  0.00     0.066 H 
ATOM     47  H   LIG d   1       8.163   0.755  -4.162  0.00  0.00     0.066 H 
ENDBRANCH  43  44
ENDBRANCH  34  43
ENDBRANCH   1  33
TORSDOF 5
ENDMDL
MODEL 2
REMARK VINA RESULT:      -6.3      5.272      6.681
REMARK  5 active torsions:
REMARK  status: ('A' for Active; 'I' for Inactive)
REMARK    1  A    between atoms: C_1  and  O_2 
REMARK    2  A    between atoms: O_2  and  C_3 
REMARK    3  A    between atoms: C_8  and  C_9 
REMARK    4  A    between atoms: C_14  and  O_20 
REMARK    5  A    between atoms: O_20  and  C_21 
REMARK       I    between atoms: C_21  and  N_23 
ROOT
ATOM      1  C   LIG d   1       7.342   1.030  -4.277  0.00  0.00     0.068 C 
ATOM      2  C   LIG d   1       8.424   1.648  -3.734  0.00  0.00     0.104 C 
ATOM      3  O   LIG d   1       9.401   2.175  -4.475  0.00  0.00    -0.462 OA
ATOM      4  C   LIG d   1       9.245   2.408  -5.793  0.00  0.00     0.142 A 
ATOM      5  C   LIG d   1      10.129   3.233  -6.476  0.00  0.00     0.024 A 
ATOM      6  C   LIG d   1       9.959   3.453  -7.832  0.00  0.00     0.137 A 
ATOM      7  C   LIG d   1       8.907   2.854  -8.521  0.00  0.00    -0.018 A 
ATOM      8  C   LIG d   1       8.025   2.043  -7.865  0.00  0.00    -0.044 A 
ATOM      9  C   LIG d   1       8.182   1.816  -6.498  0.00  0.00     0.065 A 
ATOM     10  C   LIG d   1       7.247   0.955  -5.747  0.00  0.00     0.200 C 
ATOM     11  O   LIG d   1       6.444   0.229  -6.306  0.00  0.00    -0.286 OA
ATOM     12  H   LIG d   1       8.498   1.714  -2.659  0.00  0.00     0.104 H 
ATOM     13  H   LIG d   1      10.949   3.701  -5.951  0.00  0.00     0.069 H 
ATOM     14  H   LIG d   1       8.788   3.032  -9.580  0.00  0.00     0.065 H 
ATOM     15  H   LIG d   1       7.211   1.579  -8.402  0.00  0.00     0.063 H 
ENDROOT
BRANCH   6  16
ATOM     16  O   LIG d   1      10.825   4.260  -8.496  0.00  0.00    -0.411 OA
BRANCH  16  17
ATOM     17  C   LIG d   1      10.338   5.379  -9.065  0.00  0.00     0.408 C 
ATOM     18  O   LIG d   1       9.785   6.217  -8.380  0.00  0.00    -0.226 OA
ATOM     19  N   LIG d   1      10.465   5.570 -10.393  0.00  0.00    -0.263 N 
ATOM     20  C   LIG d   1       9.940   6.785 -11.036  0.00  0.00     0.041 C 
ATOM     21  C   LIG d   1      11.125   4.568 -11.243  0.00  0.00     0.041 C 
ATOM     22  C   LIG d   1       9.085   6.373 -12.234  0.00  0.00     0.064 C 
ATOM     23  H   LIG d   1       9.331   7.344 -10.326  0.00  0.00     0.049 H 
ATOM     24  H   LIG d   1      10.769   7.407 -11.377  0.00  0.00     0.049 H 
ATOM     25  O   LIG d   1       9.834   5.485 -13.067  0.00  0.00    -0.377 OA
ATOM     26  H   LIG d   1       8.803   7.258 -12.805  0.00  0.00     0.058 H 
ATOM     27  H   LIG d   1       8.187   5.868 -11.879  0.00  0.00     0.058 H 
ATOM     28  C   LIG d   1      10.207   4.261 -12.431  0.00  0.00     0.064 C 
ATOM     29  H   LIG d   1      10.734   3.626 -13.144  0.00  0.00     0.058 H 
ATOM     30  H   LIG d   1       9.313   3.748 -12.077  0.00  0.00     0.058 H 
ATOM     31  H   LIG d   1      12.075   4.962 -11.605  0.00  0.00     0.049 H 
ATOM     32  H   LIG d   1      11.300   3.658 -10.669  0.00  0.00     0.049 H 
ENDBRANCH  16  17
ENDBRANCH   6  16
BRANCH   1  33
ATOM     33  C   LIG d   1       6.288   0.443  -3.413  0.00  0.00     0.030 A 
ATOM     34  C   LIG d   1       6.242  -0.938  -3.202  0.00  0.00     0.128 A 
ATOM     35  C   LIG d   1       5.258  -1.477  -2.390  0.00  0.00    -0.019 A 
ATOM     36  C   LIG d   1       4.322  -0.652  -1.796  0.00  0.00    -0.058 A 
ATOM     37  H   LIG d   1       5.223  -2.543  -2.221  0.00  0.00     0.065 H 
ATOM     38  C   LIG d   1       4.361   0.715  -2.009  0.00  0.00    -0.061 A 
ATOM     39  H   LIG d   1       3.555  -1.076  -1.163  0.00  0.00     0.062 H 
ATOM     40  C   LIG d   1       5.336   1.265  -2.816  0.00  0.00    -0.050 A 
ATOM     41  H   LIG d   1       3.625   1.353  -1.541  0.00  0.00     0.062 H 
ATOM     42  H   LIG d   1       5.363   2.332  -2.979  0.00  0.00     0.062 H 
BRANCH  34  43
ATOM     43  O   LIG d   1       7.165  -1.749  -3.785  0.00  0.00    -0.494 OA
BRANCH  43  44
ATOM     44  C   LIG d   1       6.675  -2.917  -4.447  0.00  0.00     0.079 C 
ATOM     45  H   LIG d   1       5.619  -3.052  -4.211  0.00  0.00     0.066 H 
ATOM     46  H   LIG d   1       6.796  -2.802  -5.524  0.00  0.00     0.066 H 
ATOM     47  H   LIG d   1       7.237  -3.787  -4.109  0.00  0.00     0.066 H 
ENDBRANCH  43  44
ENDBRANCH  34  43
ENDBRANCH   1  33
TORSDOF 5
ENDMDL
MODEL 3
REMARK VINA RESULT:      -6.3      5.705      7.953
REMARK  5 active torsions:
REMARK  status: ('A' for Active; 'I' for Inactive)
REMARK    1  A    between atoms: C_1  and  O_2 
REMARK    2  A    between atoms: O_2  and  C_3 
REMARK    3  A    between atoms: C_8  and  C_9 
REMARK    4  A    between atoms: C_14  and  O_20 
REMARK    5  A    between atoms: O_20  and  C_21 
REMARK       I    between atoms: C_21  and  N_23 
ROOT
ATOM      1  C   LIG d   1       5.306  -2.479  -4.359  0.00  0.00     0.068 C 
ATOM      2  C   LIG d   1       4.254  -2.982  -5.057  0.00  0.00     0.104 C 
ATOM      3  O   LIG d   1       4.348  -4.076  -5.816  0.00  0.00    -0.462 OA
ATOM      4  C   LIG d   1       5.388  -4.927  -5.710  0.00  0.00     0.142 A 
ATOM      5  C   LIG d   1       5.322  -6.199  -6.263  0.00  0.00     0.024 A 
ATOM      6  C   LIG d   1       6.403  -7.055  -6.152  0.00  0.00     0.137 A 
ATOM      7  C   LIG d   1       7.561  -6.654  -5.489  0.00  0.00    -0.018 A 
ATOM      8  C   LIG d   1       7.643  -5.408  -4.936  0.00  0.00    -0.044 A 
ATOM      9  C   LIG d   1       6.559  -4.536  -5.036  0.00  0.00     0.065 A 
ATOM     10  C   LIG d   1       6.599  -3.184  -4.444  0.00  0.00     0.200 C 
ATOM     11  O   LIG d   1       7.636  -2.682  -4.046  0.00  0.00    -0.286 OA
ATOM     12  H   LIG d   1       3.302  -2.478  -4.994  0.00  0.00     0.104 H 
ATOM     13  H   LIG d   1       4.429  -6.519  -6.780  0.00  0.00     0.069 H 
ATOM     14  H   LIG d   1       8.399  -7.332  -5.414  0.00  0.00     0.065 H 
ATOM     15  H   LIG d   1       8.542  -5.100  -4.423  0.00  0.00     0.063 H 
ENDROOT
BRANCH   6  16
ATOM     16  O   LIG d   1       6.335  -8.298  -6.694  0.00  0.00    -0.411 OA
BRANCH  16  17
ATOM     17  C   LIG d   1       5.277  -9.069  -6.377  0.00  0.00     0.408 C 
ATOM     18  O   LIG d   1       4.240  -8.962  -7.001  0.00  0.00    -0.226 OA
ATOM     19  N   LIG d   1       5.370  -9.959  -5.369  0.00  0.00    -0.263 N 
ATOM     20  C   LIG d   1       4.227 -10.812  -5.006  0.00  0.00     0.041 C 
ATOM     21  C   LIG d   1       6.612 -10.102  -4.596  0.00  0.00     0.041 C 
ATOM     22  C   LIG d   1       3.999 -10.706  -3.498  0.00  0.00     0.064 C 
ATOM     23  H   LIG d   1       3.335 -10.479  -5.536  0.00  0.00     0.049 H 
ATOM     24  H   LIG d   1       4.444 -11.848  -5.269  0.00  0.00     0.049 H 
ATOM     25  O   LIG d   1       5.228 -10.963  -2.815  0.00  0.00    -0.377 OA
ATOM     26  H   LIG d   1       3.250 -11.435  -3.189  0.00  0.00     0.058 H 
ATOM     27  H   LIG d   1       3.651  -9.702  -3.256  0.00  0.00     0.058 H 
ATOM     28  C   LIG d   1       6.267 -10.025  -3.105  0.00  0.00     0.064 C 
ATOM     29  H   LIG d   1       7.150 -10.266  -2.513  0.00  0.00     0.058 H 
ATOM     30  H   LIG d   1       5.927  -9.019  -2.861  0.00  0.00     0.058 H 
ATOM     31  H   LIG d   1       7.074 -11.064  -4.817  0.00  0.00     0.049 H 
ATOM     32  H   LIG d   1       7.301  -9.297  -4.855  0.00  0.00     0.049 H 
ENDBRANCH  16  17
ENDBRANCH   6  16
BRANCH   1  33
ATOM     33  C   LIG d   1       5.159  -1.251  -3.540  0.00  0.00     0.030 A 
ATOM     34  C   LIG d   1       5.580  -0.017  -4.044  0.00  0.00     0.128 A 
ATOM     35  C   LIG d   1       5.434   1.125  -3.275  0.00  0.00    -0.019 A 
ATOM     36  C   LIG d   1       4.879   1.044  -2.011  0.00  0.00    -0.058 A 
ATOM     37  H   LIG d   1       5.754   2.081  -3.662  0.00  0.00     0.065 H 
ATOM     38  C   LIG d   1       4.467  -0.177  -1.508  0.00  0.00    -0.061 A 
ATOM     39  H   LIG d   1       4.767   1.937  -1.414  0.00  0.00     0.062 H 
ATOM     40  C   LIG d   1       4.607  -1.324  -2.264  0.00  0.00    -0.050 A 
ATOM     41  H   LIG d   1       4.035  -0.234  -0.519  0.00  0.00     0.062 H 
ATOM     42  H   LIG d   1       4.285  -2.275  -1.867  0.00  0.00     0.062 H 
BRANCH  34  43
ATOM     43  O   LIG d   1       6.125   0.063  -5.287  0.00  0.00    -0.494 OA
BRANCH  43  44
ATOM     44  C   LIG d   1       7.446   0.599  -5.383  0.00  0.00     0.079 C 
ATOM     45  H   LIG d   1       8.116   0.030  -4.738  0.00  0.00     0.066 H 
ATOM     46  H   LIG d   1       7.791   0.533  -6.414  0.00  0.00     0.066 H 
ATOM     47  H   LIG d   1       7.438   1.642  -5.069  0.00  0.00     0.066 H 
ENDBRANCH  43  44
ENDBRANCH  34  43
ENDBRANCH   1  33
TORSDOF 5
ENDMDL
MODEL 4
REMARK VINA RESULT:      -6.2      5.364      7.281
REMARK  5 active torsions:
REMARK  status: ('A' for Active; 'I' for Inactive)
REMARK    1  A    between atoms: C_1  and  O_2 
REMARK    2  A    between atoms: O_2  and  C_3 
REMARK    3  A    between atoms: C_8  and  C_9 
REMARK    4  A    between atoms: C_14  and  O_20 
REMARK    5  A    between atoms: O_20  and  C_21 
REMARK       I    between atoms: C_21  and  N_23 
ROOT
ATOM      1  C   LIG d   1       7.355   1.047  -4.257  0.00  0.00     0.068 C 
ATOM      2  C   LIG d   1       8.449   1.637  -3.708  0.00  0.00     0.104 C 
ATOM      3  O   LIG d   1       9.439   2.148  -4.443  0.00  0.00    -0.462 OA
ATOM      4  C   LIG d   1       9.291   2.393  -5.760  0.00  0.00     0.142 A 
ATOM      5  C   LIG d   1      10.194   3.203  -6.436  0.00  0.00     0.024 A 
ATOM      6  C   LIG d   1      10.032   3.436  -7.790  0.00  0.00     0.137 A 
ATOM      7  C   LIG d   1       8.968   2.866  -8.486  0.00  0.00    -0.018 A 
ATOM      8  C   LIG d   1       8.067   2.069  -7.837  0.00  0.00    -0.044 A 
ATOM      9  C   LIG d   1       8.217   1.829  -6.471  0.00  0.00     0.065 A 
ATOM     10  C   LIG d   1       7.261   0.984  -5.728  0.00  0.00     0.200 C 
ATOM     11  O   LIG d   1       6.443   0.279  -6.293  0.00  0.00    -0.286 OA
ATOM     12  H   LIG d   1       8.522   1.694  -2.632  0.00  0.00     0.104 H 
ATOM     13  H   LIG d   1      11.023   3.650  -5.905  0.00  0.00     0.069 H 
ATOM     14  H   LIG d   1       8.855   3.053  -9.543  0.00  0.00     0.065 H 
ATOM     15  H   LIG d   1       7.244   1.628  -8.378  0.00  0.00     0.063 H 
ENDROOT
BRANCH   6  16
ATOM     16  O   LIG d   1      10.916   4.229  -8.447  0.00  0.00    -0.411 OA
BRANCH  16  17
ATOM     17  C   LIG d   1      10.534   4.769  -9.620  0.00  0.00     0.408 C 
ATOM     18  O   LIG d   1      10.668   4.139 -10.650  0.00  0.00    -0.226 OA
ATOM     19  N   LIG d   1      10.003   6.007  -9.650  0.00  0.00    -0.263 N 
ATOM     20  C   LIG d   1       9.577   6.617 -10.920  0.00  0.00     0.041 C 
ATOM     21  C   LIG d   1       9.837   6.791  -8.417  0.00  0.00     0.041 C 
ATOM     22  C   LIG d   1      10.193   8.012 -11.022  0.00  0.00     0.064 C 
ATOM     23  H   LIG d   1       9.918   6.004 -11.755  0.00  0.00     0.049 H 
ATOM     24  H   LIG d   1       8.490   6.696 -10.943  0.00  0.00     0.049 H 
ATOM     25  O   LIG d   1       9.896   8.748  -9.833  0.00  0.00    -0.377 OA
ATOM     26  H   LIG d   1       9.779   8.533 -11.885  0.00  0.00     0.058 H 
ATOM     27  H   LIG d   1      11.273   7.923 -11.134  0.00  0.00     0.058 H 
ATOM     28  C   LIG d   1      10.445   8.180  -8.641  0.00  0.00     0.064 C 
ATOM     29  H   LIG d   1      10.211   8.822  -7.791  0.00  0.00     0.058 H 
ATOM     30  H   LIG d   1      11.526   8.091  -8.745  0.00  0.00     0.058 H 
ATOM     31  H   LIG d   1       8.776   6.888  -8.184  0.00  0.00     0.049 H 
ATOM     32  H   LIG d   1      10.349   6.294  -7.594  0.00  0.00     0.049 H 
ENDBRANCH  16  17
ENDBRANCH   6  16
BRANCH   1  33
ATOM     33  C   LIG d   1       6.287   0.477  -3.399  0.00  0.00     0.030 A 
ATOM     34  C   LIG d   1       6.224  -0.902  -3.179  0.00  0.00     0.128 A 
ATOM     35  C   LIG d   1       5.227  -1.425  -2.373  0.00  0.00    -0.019 A 
ATOM     36  C   LIG d   1       4.294  -0.586  -1.793  0.00  0.00    -0.058 A 
ATOM     37  H   LIG d   1       5.178  -2.489  -2.196  0.00  0.00     0.065 H 
ATOM     38  C   LIG d   1       4.349   0.778  -2.015  0.00  0.00    -0.061 A 
ATOM     39  H   LIG d   1       3.517  -0.998  -1.165  0.00  0.00     0.062 H 
ATOM     40  C   LIG d   1       5.338   1.313  -2.816  0.00  0.00    -0.050 A 
ATOM     41  H   LIG d   1       3.616   1.428  -1.559  0.00  0.00     0.062 H 
ATOM     42  H   LIG d   1       5.377   2.378  -2.987  0.00  0.00     0.062 H 
BRANCH  34  43
ATOM     43  O   LIG d   1       7.143  -1.726  -3.748  0.00  0.00    -0.494 OA
BRANCH  43  44
ATOM     44  C   LIG d   1       6.646  -2.880  -4.430  0.00  0.00     0.079 C 
ATOM     45  H   LIG d   1       6.279  -2.590  -5.414  0.00  0.00     0.066 H 
ATOM     46  H   LIG d   1       7.447  -3.610  -4.540  0.00  0.00     0.066 H 
ATOM     47  H   LIG d   1       5.831  -3.318  -3.853  0.00  0.00     0.066 H 
ENDBRANCH  43  44
ENDBRANCH  34  43
ENDBRANCH   1  33
TORSDOF 5
ENDMDL
MODEL 5
REMARK VINA RESULT:      -6.2      5.418      9.453
REMARK  5 active torsions:
REMARK  status: ('A' for Active; 'I' for Inactive)
REMARK    1  A    between atoms: C_1  and  O_2 
REMARK    2  A    between atoms: O_2  and  C_3 
REMARK    3  A    between atoms: C_8  and  C_9 
REMARK    4  A    between atoms: C_14  and  O_20 
REMARK    5  A    between atoms: O_20  and  C_21 
REMARK       I    between atoms: C_21  and  N_23 
ROOT
ATOM      1  C   LIG d   1       6.847  -0.119  -4.200  0.00  0.00     0.068 C 
ATOM      2  C   LIG d   1       7.590  -0.903  -5.026  0.00  0.00     0.104 C 
ATOM      3  O   LIG d   1       8.768  -0.516  -5.521  0.00  0.00    -0.462 OA
ATOM      4  C   LIG d   1       9.446   0.529  -5.006  0.00  0.00     0.142 A 
ATOM      5  C   LIG d   1      10.787   0.722  -5.310  0.00  0.00     0.024 A 
ATOM      6  C   LIG d   1      11.464   1.806  -4.780  0.00  0.00     0.137 A 
ATOM      7  C   LIG d   1      10.813   2.709  -3.942  0.00  0.00    -0.018 A 
ATOM      8  C   LIG d   1       9.495   2.533  -3.629  0.00  0.00    -0.044 A 
ATOM      9  C   LIG d   1       8.801   1.442  -4.153  0.00  0.00     0.065 A 
ATOM     10  C   LIG d   1       7.379   1.207  -3.833  0.00  0.00     0.200 C 
ATOM     11  O   LIG d   1       6.687   2.054  -3.295  0.00  0.00    -0.286 OA
ATOM     12  H   LIG d   1       7.212  -1.878  -5.293  0.00  0.00     0.104 H 
ATOM     13  H   LIG d   1      11.300   0.028  -5.960  0.00  0.00     0.069 H 
ATOM     14  H   LIG d   1      11.353   3.553  -3.538  0.00  0.00     0.065 H 
ATOM     15  H   LIG d   1       8.993   3.234  -2.980  0.00  0.00     0.063 H 
ENDROOT
BRANCH   6  16
ATOM     16  O   LIG d   1      12.775   1.991  -5.079  0.00  0.00    -0.411 OA
BRANCH  16  17
ATOM     17  C   LIG d   1      13.662   1.987  -4.066  0.00  0.00     0.408 C 
ATOM     18  O   LIG d   1      13.785   0.998  -3.371  0.00  0.00    -0.226 OA
ATOM     19  N   LIG d   1      14.414   3.079  -3.824  0.00  0.00    -0.263 N 
ATOM     20  C   LIG d   1      15.390   3.098  -2.723  0.00  0.00     0.041 C 
ATOM     21  C   LIG d   1      14.279   4.290  -4.648  0.00  0.00     0.041 C 
ATOM     22  C   LIG d   1      15.159   4.356  -1.887  0.00  0.00     0.064 C 
ATOM     23  H   LIG d   1      15.257   2.214  -2.098  0.00  0.00     0.049 H 
ATOM     24  H   LIG d   1      16.402   3.111  -3.129  0.00  0.00     0.049 H 
ATOM     25  O   LIG d   1      15.148   5.499  -2.746  0.00  0.00    -0.377 OA
ATOM     26  H   LIG d   1      15.958   4.460  -1.153  0.00  0.00     0.058 H 
ATOM     27  H   LIG d   1      14.201   4.278  -1.374  0.00  0.00     0.058 H 
ATOM     28  C   LIG d   1      14.098   5.493  -3.716  0.00  0.00     0.064 C 
ATOM     29  H   LIG d   1      14.134   6.414  -4.297  0.00  0.00     0.058 H 
ATOM     30  H   LIG d   1      13.136   5.418  -3.208  0.00  0.00     0.058 H 
ATOM     31  H   LIG d   1      15.176   4.426  -5.252  0.00  0.00     0.049 H 
ATOM     32  H   LIG d   1      13.410   4.196  -5.299  0.00  0.00     0.049 H 
ENDBRANCH  16  17
ENDBRANCH   6  16
BRANCH   1  33
ATOM     33  C   LIG d   1       5.535  -0.584  -3.687  0.00  0.00     0.030 A 
ATOM     34  C   LIG d   1       4.367  -0.321  -4.408  0.00  0.00     0.128 A 
ATOM     35  C   LIG d   1       3.147  -0.763  -3.924  0.00  0.00    -0.019 A 
ATOM     36  C   LIG d   1       3.084  -1.456  -2.730  0.00  0.00    -0.058 A 
ATOM     37  H   LIG d   1       2.242  -0.566  -4.481  0.00  0.00     0.065 H 
ATOM     38  C   LIG d   1       4.238  -1.712  -2.011  0.00  0.00    -0.061 A 
ATOM     39  H   LIG d   1       2.131  -1.799  -2.356  0.00  0.00     0.062 H 
ATOM     40  C   LIG d   1       5.461  -1.277  -2.481  0.00  0.00    -0.050 A 
ATOM     41  H   LIG d   1       4.182  -2.254  -1.077  0.00  0.00     0.062 H 
ATOM     42  H   LIG d   1       6.359  -1.478  -1.917  0.00  0.00     0.062 H 
BRANCH  34  43
ATOM     43  O   LIG d   1       4.428   0.360  -5.583  0.00  0.00    -0.494 OA
BRANCH  43  44
ATOM     44  C   LIG d   1       4.047  -0.349  -6.764  0.00  0.00     0.079 C 
ATOM     45  H   LIG d   1       2.978  -0.561  -6.731  0.00  0.00     0.066 H 
ATOM     46  H   LIG d   1       4.270   0.258  -7.640  0.00  0.00     0.066 H 
ATOM     47  H   LIG d   1       4.602  -1.285  -6.820  0.00  0.00     0.066 H 
ENDBRANCH  43  44
ENDBRANCH  34  43
ENDBRANCH   1  33
TORSDOF 5
ENDMDL
MODEL 6
REMARK VINA RESULT:      -6.1      3.884      4.608
REMARK  5 active torsions:
REMARK  status: ('A' for Active; 'I' for Inactive)
REMARK    1  A    between atoms: C_1  and  O_2 
REMARK    2  A    between atoms: O_2  and  C_3 
REMARK    3  A    between atoms: C_8  and  C_9 
REMARK    4  A    between atoms: C_14  and  O_20 
REMARK    5  A    between atoms: O_20  and  C_21 
REMARK       I    between atoms: C_21  and  N_23 
ROOT
ATOM      1  C   LIG d   1       4.182  -0.820  -5.785  0.00  0.00     0.068 C 
ATOM      2  C   LIG d   1       3.671  -0.086  -6.809  0.00  0.00     0.104 C 
ATOM      3  O   LIG d   1       3.501  -0.582  -8.037  0.00  0.00    -0.462 OA
ATOM      4  C   LIG d   1       3.530  -1.907  -8.278  0.00  0.00     0.142 A 
ATOM      5  C   LIG d   1       3.045  -2.421  -9.474  0.00  0.00     0.024 A 
ATOM      6  C   LIG d   1       3.092  -3.784  -9.708  0.00  0.00     0.137 A 
ATOM      7  C   LIG d   1       3.621  -4.650  -8.754  0.00  0.00    -0.018 A 
ATOM      8  C   LIG d   1       4.099  -4.163  -7.570  0.00  0.00    -0.044 A 
ATOM      9  C   LIG d   1       4.054  -2.792  -7.319  0.00  0.00     0.065 A 
ATOM     10  C   LIG d   1       4.550  -2.224  -6.050  0.00  0.00     0.200 C 
ATOM     11  O   LIG d   1       5.219  -2.874  -5.266  0.00  0.00    -0.286 OA
ATOM     12  H   LIG d   1       3.392   0.939  -6.622  0.00  0.00     0.104 H 
ATOM     13  H   LIG d   1       2.633  -1.757 -10.220  0.00  0.00     0.069 H 
ATOM     14  H   LIG d   1       3.654  -5.711  -8.951  0.00  0.00     0.065 H 
ATOM     15  H   LIG d   1       4.509  -4.837  -6.833  0.00  0.00     0.063 H 
ENDROOT
BRANCH   6  16
ATOM     16  O   LIG d   1       2.616  -4.282 -10.878  0.00  0.00    -0.411 OA
BRANCH  16  17
ATOM     17  C   LIG d   1       1.357  -4.759 -10.898  0.00  0.00     0.408 C 
ATOM     18  O   LIG d   1       0.419  -4.003 -10.736  0.00  0.00    -0.226 OA
ATOM     19  N   LIG d   1       1.137  -6.073 -11.097  0.00  0.00    -0.263 N 
ATOM     20  C   LIG d   1      -0.230  -6.617 -11.123  0.00  0.00     0.041 C 
ATOM     21  C   LIG d   1       2.256  -7.008 -11.288  0.00  0.00     0.041 C 
ATOM     22  C   LIG d   1      -0.296  -7.817 -10.178  0.00  0.00     0.064 C 
ATOM     23  H   LIG d   1      -0.936  -5.854 -10.795  0.00  0.00     0.049 H 
ATOM     24  H   LIG d   1      -0.479  -6.937 -12.135  0.00  0.00     0.049 H 
ATOM     25  O   LIG d   1       0.757  -8.729 -10.498  0.00  0.00    -0.377 OA
ATOM     26  H   LIG d   1      -1.258  -8.318 -10.289  0.00  0.00     0.058 H 
ATOM     27  H   LIG d   1      -0.180  -7.474  -9.150  0.00  0.00     0.058 H 
ATOM     28  C   LIG d   1       2.070  -8.189 -10.330  0.00  0.00     0.064 C 
ATOM     29  H   LIG d   1       2.810  -8.959 -10.551  0.00  0.00     0.058 H 
ATOM     30  H   LIG d   1       2.194  -7.848  -9.302  0.00  0.00     0.058 H 
ATOM     31  H   LIG d   1       2.263  -7.368 -12.317  0.00  0.00     0.049 H 
ATOM     32  H   LIG d   1       3.198  -6.503 -11.071  0.00  0.00     0.049 H 
ENDBRANCH  16  17
ENDBRANCH   6  16
BRANCH   1  33
ATOM     33  C   LIG d   1       4.369  -0.223  -4.440  0.00  0.00     0.030 A 
ATOM     34  C   LIG d   1       5.580   0.390  -4.107  0.00  0.00     0.128 A 
ATOM     35  C   LIG d   1       5.744   0.950  -2.851  0.00  0.00    -0.019 A 
ATOM     36  C   LIG d   1       4.715   0.898  -1.929  0.00  0.00    -0.058 A 
ATOM     37  H   LIG d   1       6.677   1.428  -2.591  0.00  0.00     0.065 H 
ATOM     38  C   LIG d   1       3.518   0.286  -2.254  0.00  0.00    -0.061 A 
ATOM     39  H   LIG d   1       4.848   1.335  -0.950  0.00  0.00     0.062 H 
ATOM     40  C   LIG d   1       3.341  -0.276  -3.502  0.00  0.00    -0.050 A 
ATOM     41  H   LIG d   1       2.718   0.248  -1.528  0.00  0.00     0.062 H 
ATOM     42  H   LIG d   1       2.405  -0.753  -3.752  0.00  0.00     0.062 H 
BRANCH  34  43
ATOM     43  O   LIG d   1       6.591   0.443  -5.014  0.00  0.00    -0.494 OA
BRANCH  43  44
ATOM     44  C   LIG d   1       7.767  -0.313  -4.718  0.00  0.00     0.079 C 
ATOM     45  H   LIG d   1       8.647   0.242  -5.045  0.00  0.00     0.066 H 
ATOM     46  H   LIG d   1       7.826  -0.488  -3.644  0.00  0.00     0.066 H 
ATOM     47  H   LIG d   1       7.725  -1.269  -5.240  0.00  0.00     0.066 H 
ENDBRANCH  43  44
ENDBRANCH  34  43
ENDBRANCH   1  33
TORSDOF 5
ENDMDL
MODEL 7
REMARK VINA RESULT:      -6.1      1.627      1.849
REMARK  5 active torsions:
REMARK  status: ('A' for Active; 'I' for Inactive)
REMARK    1  A    between atoms: C_1  and  O_2 
REMARK    2  A    between atoms: O_2  and  C_3 
REMARK    3  A    between atoms: C_8  and  C_9 
REMARK    4  A    between atoms: C_14  and  O_20 
REMARK    5  A    between atoms: O_20  and  C_21 
REMARK       I    between atoms: C_21  and  N_23 
ROOT
ATOM      1  C   LIG d   1       4.004  -0.634  -5.879  0.00  0.00     0.068 C 
ATOM      2  C   LIG d   1       4.395  -1.857  -6.326  0.00  0.00     0.104 C 
ATOM      3  O   LIG d   1       4.200  -2.262  -7.584  0.00  0.00    -0.462 OA
ATOM      4  C   LIG d   1       3.889  -1.395  -8.568  0.00  0.00     0.142 A 
ATOM      5  C   LIG d   1       4.001  -1.769  -9.901  0.00  0.00     0.024 A 
ATOM      6  C   LIG d   1       3.667  -0.869 -10.899  0.00  0.00     0.137 A 
ATOM      7  C   LIG d   1       3.221   0.411 -10.580  0.00  0.00    -0.018 A 
ATOM      8  C   LIG d   1       3.108   0.797  -9.274  0.00  0.00    -0.044 A 
ATOM      9  C   LIG d   1       3.444  -0.098  -8.258  0.00  0.00     0.065 A 
ATOM     10  C   LIG d   1       3.348   0.280  -6.834  0.00  0.00     0.200 C 
ATOM     11  O   LIG d   1       2.767   1.287  -6.469  0.00  0.00    -0.286 OA
ATOM     12  H   LIG d   1       4.882  -2.529  -5.637  0.00  0.00     0.104 H 
ATOM     13  H   LIG d   1       4.346  -2.760 -10.159  0.00  0.00     0.069 H 
ATOM     14  H   LIG d   1       2.960   1.102 -11.368  0.00  0.00     0.065 H 
ATOM     15  H   LIG d   1       2.761   1.789  -9.029  0.00  0.00     0.063 H 
ENDROOT
BRANCH   6  16
ATOM     16  O   LIG d   1       3.779  -1.238 -12.201  0.00  0.00    -0.411 OA
BRANCH  16  17
ATOM     17  C   LIG d   1       2.858  -2.083 -12.701  0.00  0.00     0.408 C 
ATOM     18  O   LIG d   1       1.695  -1.738 -12.776  0.00  0.00    -0.226 OA
ATOM     19  N   LIG d   1       3.225  -3.310 -13.117  0.00  0.00    -0.263 N 
ATOM     20  C   LIG d   1       2.236  -4.251 -13.667  0.00  0.00     0.041 C 
ATOM     21  C   LIG d   1       4.625  -3.753 -13.031  0.00  0.00     0.041 C 
ATOM     22  C   LIG d   1       2.386  -5.592 -12.951  0.00  0.00     0.064 C 
ATOM     23  H   LIG d   1       1.230  -3.861 -13.509  0.00  0.00     0.049 H 
ATOM     24  H   LIG d   1       2.412  -4.386 -14.735  0.00  0.00     0.049 H 
ATOM     25  O   LIG d   1       3.754  -6.005 -13.003  0.00  0.00    -0.377 OA
ATOM     26  H   LIG d   1       1.761  -6.340 -13.438  0.00  0.00     0.058 H 
ATOM     27  H   LIG d   1       2.079  -5.483 -11.911  0.00  0.00     0.058 H 
ATOM     28  C   LIG d   1       4.659  -5.120 -12.339  0.00  0.00     0.064 C 
ATOM     29  H   LIG d   1       5.668  -5.528 -12.388  0.00  0.00     0.058 H 
ATOM     30  H   LIG d   1       4.359  -5.009 -11.297  0.00  0.00     0.058 H 
ATOM     31  H   LIG d   1       5.047  -3.837 -14.032  0.00  0.00     0.049 H 
ATOM     32  H   LIG d   1       5.202  -3.033 -12.449  0.00  0.00     0.049 H 
ENDBRANCH  16  17
ENDBRANCH   6  16
BRANCH   1  33
ATOM     33  C   LIG d   1       4.226  -0.232  -4.469  0.00  0.00     0.030 A 
ATOM     34  C   LIG d   1       5.445   0.331  -4.083  0.00  0.00     0.128 A 
ATOM     35  C   LIG d   1       5.642   0.708  -2.765  0.00  0.00    -0.019 A 
ATOM     36  C   LIG d   1       4.637   0.522  -1.834  0.00  0.00    -0.058 A 
ATOM     37  H   LIG d   1       6.581   1.148  -2.464  0.00  0.00     0.065 H 
ATOM     38  C   LIG d   1       3.431  -0.041  -2.212  0.00  0.00    -0.061 A 
ATOM     39  H   LIG d   1       4.794   0.817  -0.806  0.00  0.00     0.062 H 
ATOM     40  C   LIG d   1       3.222  -0.422  -3.522  0.00  0.00    -0.050 A 
ATOM     41  H   LIG d   1       2.650  -0.184  -1.478  0.00  0.00     0.062 H 
ATOM     42  H   LIG d   1       2.280  -0.861  -3.813  0.00  0.00     0.062 H 
BRANCH  34  43
ATOM     43  O   LIG d   1       6.433   0.515  -4.999  0.00  0.00    -0.494 OA
BRANCH  43  44
ATOM     44  C   LIG d   1       7.654   1.089  -4.530  0.00  0.00     0.079 C 
ATOM     45  H   LIG d   1       8.401   1.053  -5.323  0.00  0.00     0.066 H 
ATOM     46  H   LIG d   1       7.481   2.125  -4.239  0.00  0.00     0.066 H 
ATOM     47  H   LIG d   1       8.012   0.525  -3.668  0.00  0.00     0.066 H 
ENDBRANCH  43  44
ENDBRANCH  34  43
ENDBRANCH   1  33
TORSDOF 5
ENDMDL
MODEL 8
REMARK VINA RESULT:      -6.0      1.412      2.304
REMARK  5 active torsions:
REMARK  status: ('A' for Active; 'I' for Inactive)
REMARK    1  A    between atoms: C_1  and  O_2 
REMARK    2  A    between atoms: O_2  and  C_3 
REMARK    3  A    between atoms: C_8  and  C_9 
REMARK    4  A    between atoms: C_14  and  O_20 
REMARK    5  A    between atoms: O_20  and  C_21 
REMARK       I    between atoms: C_21  and  N_23 
ROOT
ATOM      1  C   LIG d   1       3.921  -0.085  -5.668  0.00  0.00     0.068 C 
ATOM      2  C   LIG d   1       2.686   0.290  -6.094  0.00  0.00     0.104 C 
ATOM      3  O   LIG d   1       2.418   0.575  -7.370  0.00  0.00    -0.462 OA
ATOM      4  C   LIG d   1       3.254   0.222  -8.367  0.00  0.00     0.142 A 
ATOM      5  C   LIG d   1       2.826   0.237  -9.689  0.00  0.00     0.024 A 
ATOM      6  C   LIG d   1       3.701  -0.120 -10.699  0.00  0.00     0.137 A 
ATOM      7  C   LIG d   1       5.010  -0.496 -10.406  0.00  0.00    -0.018 A 
ATOM      8  C   LIG d   1       5.447  -0.520  -9.112  0.00  0.00    -0.044 A 
ATOM      9  C   LIG d   1       4.575  -0.167  -8.082  0.00  0.00     0.065 A 
ATOM     10  C   LIG d   1       5.001  -0.189  -6.668  0.00  0.00     0.200 C 
ATOM     11  O   LIG d   1       6.172  -0.291  -6.346  0.00  0.00    -0.286 OA
ATOM     12  H   LIG d   1       1.888   0.361  -5.371  0.00  0.00     0.104 H 
ATOM     13  H   LIG d   1       1.813   0.527  -9.927  0.00  0.00     0.069 H 
ATOM     14  H   LIG d   1       5.684  -0.768 -11.205  0.00  0.00     0.065 H 
ATOM     15  H   LIG d   1       6.462  -0.811  -8.887  0.00  0.00     0.063 H 
ENDROOT
BRANCH   6  16
ATOM     16  O   LIG d   1       3.280  -0.105 -11.990  0.00  0.00    -0.411 OA
BRANCH  16  17
ATOM     17  C   LIG d   1       3.145  -1.284 -12.626  0.00  0.00     0.408 C 
ATOM     18  O   LIG d   1       2.446  -2.155 -12.147  0.00  0.00    -0.226 OA
ATOM     19  N   LIG d   1       3.785  -1.497 -13.793  0.00  0.00    -0.263 N 
ATOM     20  C   LIG d   1       3.652  -2.777 -14.506  0.00  0.00     0.041 C 
ATOM     21  C   LIG d   1       4.641  -0.460 -14.388  0.00  0.00     0.041 C 
ATOM     22  C   LIG d   1       5.049  -3.293 -14.848  0.00  0.00     0.064 C 
ATOM     23  H   LIG d   1       3.140  -3.501 -13.871  0.00  0.00     0.049 H 
ATOM     24  H   LIG d   1       3.083  -2.629 -15.425  0.00  0.00     0.049 H 
ATOM     25  O   LIG d   1       5.781  -2.264 -15.519  0.00  0.00    -0.377 OA
ATOM     26  H   LIG d   1       4.969  -4.165 -15.497  0.00  0.00     0.058 H 
ATOM     27  H   LIG d   1       5.568  -3.568 -13.930  0.00  0.00     0.058 H 
ATOM     28  C   LIG d   1       5.995  -1.089 -14.733  0.00  0.00     0.064 C 
ATOM     29  H   LIG d   1       6.594  -0.377 -15.300  0.00  0.00     0.058 H 
ATOM     30  H   LIG d   1       6.517  -1.357 -13.814  0.00  0.00     0.058 H 
ATOM     31  H   LIG d   1       4.174  -0.074 -15.295  0.00  0.00     0.049 H 
ATOM     32  H   LIG d   1       4.784   0.352 -13.675  0.00  0.00     0.049 H 
ENDBRANCH  16  17
ENDBRANCH   6  16
BRANCH   1  33
ATOM     33  C   LIG d   1       4.177  -0.377  -4.237  0.00  0.00     0.030 A 
ATOM     34  C   LIG d   1       4.176  -1.697  -3.778  0.00  0.00     0.128 A 
ATOM     35  C   LIG d   1       4.420  -1.960  -2.441  0.00  0.00    -0.019 A 
ATOM     36  C   LIG d   1       4.660  -0.920  -1.562  0.00  0.00    -0.058 A 
ATOM     37  H   LIG d   1       4.424  -2.979  -2.083  0.00  0.00     0.065 H 
ATOM     38  C   LIG d   1       4.656   0.388  -2.012  0.00  0.00    -0.061 A 
ATOM     39  H   LIG d   1       4.850  -1.129  -0.520  0.00  0.00     0.062 H 
ATOM     40  C   LIG d   1       4.413   0.665  -3.343  0.00  0.00    -0.050 A 
ATOM     41  H   LIG d   1       4.843   1.196  -1.320  0.00  0.00     0.062 H 
ATOM     42  H   LIG d   1       4.410   1.687  -3.690  0.00  0.00     0.062 H 
BRANCH  34  43
ATOM     43  O   LIG d   1       3.941  -2.720  -4.642  0.00  0.00    -0.494 OA
BRANCH  43  44
ATOM     44  C   LIG d   1       5.043  -3.577  -4.947  0.00  0.00     0.079 C 
ATOM     45  H   LIG d   1       5.966  -3.125  -4.584  0.00  0.00     0.066 H 
ATOM     46  H   LIG d   1       4.897  -4.543  -4.464  0.00  0.00     0.066 H 
ATOM     47  H   LIG d   1       5.106  -3.717  -6.026  0.00  0.00     0.066 H 
ENDBRANCH  43  44
ENDBRANCH  34  43
ENDBRANCH   1  33
TORSDOF 5
ENDMDL
MODEL 9
REMARK VINA RESULT:      -6.0      2.099      3.336
REMARK  5 active torsions:
REMARK  status: ('A' for Active; 'I' for Inactive)
REMARK    1  A    between atoms: C_1  and  O_2 
REMARK    2  A    between atoms: O_2  and  C_3 
REMARK    3  A    between atoms: C_8  and  C_9 
REMARK    4  A    between atoms: C_14  and  O_20 
REMARK    5  A    between atoms: O_20  and  C_21 
REMARK       I    between atoms: C_21  and  N_23 
ROOT
ATOM      1  C   LIG d   1       3.899  -0.204  -5.698  0.00  0.00     0.068 C 
ATOM      2  C   LIG d   1       2.691   0.215  -6.160  0.00  0.00     0.104 C 
ATOM      3  O   LIG d   1       2.456   0.452  -7.453  0.00  0.00    -0.462 OA
ATOM      4  C   LIG d   1       3.285   0.008  -8.418  0.00  0.00     0.142 A 
ATOM      5  C   LIG d   1       2.877  -0.017  -9.746  0.00  0.00     0.024 A 
ATOM      6  C   LIG d   1       3.745  -0.466 -10.725  0.00  0.00     0.137 A 
ATOM      7  C   LIG d   1       5.028  -0.896 -10.393  0.00  0.00    -0.018 A 
ATOM      8  C   LIG d   1       5.446  -0.882  -9.092  0.00  0.00    -0.044 A 
ATOM      9  C   LIG d   1       4.580  -0.435  -8.094  0.00  0.00     0.065 A 
ATOM     10  C   LIG d   1       4.985  -0.412  -6.674  0.00  0.00     0.200 C 
ATOM     11  O   LIG d   1       6.144  -0.559  -6.329  0.00  0.00    -0.286 OA
ATOM     12  H   LIG d   1       1.889   0.361  -5.454  0.00  0.00     0.104 H 
ATOM     13  H   LIG d   1       1.884   0.315 -10.014  0.00  0.00     0.069 H 
ATOM     14  H   LIG d   1       5.697  -1.241 -11.168  0.00  0.00     0.065 H 
ATOM     15  H   LIG d   1       6.441  -1.214  -8.837  0.00  0.00     0.063 H 
ENDROOT
BRANCH   6  16
ATOM     16  O   LIG d   1       3.343  -0.491 -12.021  0.00  0.00    -0.411 OA
BRANCH  16  17
ATOM     17  C   LIG d   1       3.328  -1.677 -12.657  0.00  0.00     0.408 C 
ATOM     18  O   LIG d   1       4.338  -2.093 -13.189  0.00  0.00    -0.226 OA
ATOM     19  N   LIG d   1       2.193  -2.402 -12.705  0.00  0.00    -0.263 N 
ATOM     20  C   LIG d   1       2.152  -3.701 -13.394  0.00  0.00     0.041 C 
ATOM     21  C   LIG d   1       0.956  -1.916 -12.074  0.00  0.00     0.041 C 
ATOM     22  C   LIG d   1       0.961  -3.709 -14.351  0.00  0.00     0.064 C 
ATOM     23  H   LIG d   1       3.075  -3.848 -13.957  0.00  0.00     0.049 H 
ATOM     24  H   LIG d   1       2.038  -4.502 -12.662  0.00  0.00     0.049 H 
ATOM     25  O   LIG d   1      -0.220  -3.331 -13.639  0.00  0.00    -0.377 OA
ATOM     26  H   LIG d   1       0.831  -4.709 -14.766  0.00  0.00     0.058 H 
ATOM     27  H   LIG d   1       1.141  -3.001 -15.159  0.00  0.00     0.058 H 
ATOM     28  C   LIG d   1      -0.179  -2.008 -13.099  0.00  0.00     0.064 C 
ATOM     29  H   LIG d   1      -1.129  -1.784 -12.613  0.00  0.00     0.058 H 
ATOM     30  H   LIG d   1      -0.002  -1.293 -13.903  0.00  0.00     0.058 H 
ATOM     31  H   LIG d   1       0.719  -2.533 -11.207  0.00  0.00     0.049 H 
ATOM     32  H   LIG d   1       1.086  -0.880 -11.762  0.00  0.00     0.049 H 
ENDBRANCH  16  17
ENDBRANCH   6  16
BRANCH   1  33
ATOM     33  C   LIG d   1       4.119  -0.440  -4.250  0.00  0.00     0.030 A 
ATOM     34  C   LIG d   1       4.160  -1.745  -3.750  0.00  0.00     0.128 A 
ATOM     35  C   LIG d   1       4.371  -1.956  -2.398  0.00  0.00    -0.019 A 
ATOM     36  C   LIG d   1       4.536  -0.880  -1.545  0.00  0.00    -0.058 A 
ATOM     37  H   LIG d   1       4.408  -2.963  -2.008  0.00  0.00     0.065 H 
ATOM     38  C   LIG d   1       4.491   0.412  -2.037  0.00  0.00    -0.061 A 
ATOM     39  H   LIG d   1       4.701  -1.049  -0.491  0.00  0.00     0.062 H 
ATOM     40  C   LIG d   1       4.280   0.637  -3.383  0.00  0.00    -0.050 A 
ATOM     41  H   LIG d   1       4.620   1.249  -1.365  0.00  0.00     0.062 H 
ATOM     42  H   LIG d   1       4.245   1.647  -3.762  0.00  0.00     0.062 H 
BRANCH  34  43
ATOM     43  O   LIG d   1       3.999  -2.803  -4.588  0.00  0.00    -0.494 OA
BRANCH  43  44
ATOM     44  C   LIG d   1       5.134  -3.646  -4.793  0.00  0.00     0.079 C 
ATOM     45  H   LIG d   1       6.024  -3.162  -4.392  0.00  0.00     0.066 H 
ATOM     46  H   LIG d   1       4.976  -4.597  -4.284  0.00  0.00     0.066 H 
ATOM     47  H   LIG d   1       5.265  -3.824  -5.861  0.00  0.00     0.066 H 
ENDBRANCH  43  44
ENDBRANCH  34  43
ENDBRANCH   1  33
TORSDOF 5
ENDMDL
