MODEL 1
REMARK VINA RESULT:      -7.9      0.000      0.000
REMARK  6 active torsions:
REMARK  status: ('A' for Active; 'I' for Inactive)
REMARK    1  A    between atoms: C_6  and  C_7 
REMARK    2  A    between atoms: C_7  and  N_8 
REMARK    3  A    between atoms: C_16  and  C_18 
REMARK    4  A    between atoms: C_20  and  C_23 
REMARK    5  A    between atoms: C_26  and  O_29 
REMARK    6  A    between atoms: O_29  and  C_30 
ROOT
ATOM      1  N   LIG d   1       7.544   1.237  -4.987  0.00  0.00    -0.281 N 
ATOM      2  C   LIG d   1       7.012   0.190  -5.876  0.00  0.00     0.044 C 
ATOM      3  C   LIG d   1       7.183   0.649  -7.303  0.00  0.00     0.076 A 
ATOM      4  C   LIG d   1       8.010   1.657  -7.665  0.00  0.00     0.042 A 
ATOM      5  N   LIG d   1       7.908   1.795  -9.012  0.00  0.00    -0.348 N 
ATOM      6  C   LIG d   1       7.021   0.865  -9.438  0.00  0.00     0.094 A 
ATOM      7  N   LIG d   1       6.595   0.185  -8.406  0.00  0.00    -0.239 NA
ATOM      8  C   LIG d   1       8.854   2.431  -6.686  0.00  0.00     0.014 C 
ATOM      9  C   LIG d   1       8.904   1.634  -5.374  0.00  0.00     0.096 C 
ATOM     10  H   LIG d   1       9.497   0.714  -5.491  0.00  0.00     0.057 H 
ATOM     11  H   LIG d   1       7.567  -0.745  -5.712  0.00  0.00     0.049 H 
ATOM     12  H   LIG d   1       5.947   0.028  -5.657  0.00  0.00     0.049 H 
ATOM     13  H   LIG d   1       6.682   0.650 -10.354  0.00  0.00     0.103 H 
ATOM     14  H   LIG d   1       9.868   2.556  -7.095  0.00  0.00     0.035 H 
ATOM     15  H   LIG d   1       8.403   3.419  -6.514  0.00  0.00     0.035 H 
ATOM     16  H   LIG d   1       8.497   2.565  -9.531  0.00  0.00     0.167 HD
ENDROOT
BRANCH   9  17
ATOM     17  C   LIG d   1       9.506   2.490  -4.290  0.00  0.00     0.245 A 
ATOM     18  O   LIG d   1      10.353   2.085  -3.338  0.00  0.00    -0.336 OA
ATOM     19  N   LIG d   1      10.650   3.018  -2.622  0.00  0.00    -0.056 NA
ATOM     20  C   LIG d   1      10.042   4.104  -3.023  0.00  0.00     0.202 A 
ATOM     21  N   LIG d   1       9.299   3.769  -4.103  0.00  0.00    -0.190 NA
BRANCH  20  22
ATOM     22  C   LIG d   1      10.147   5.450  -2.409  0.00  0.00     0.023 A 
ATOM     23  C   LIG d   1       9.933   6.589  -3.183  0.00  0.00    -0.048 A 
ATOM     24  C   LIG d   1      10.031   7.839  -2.608  0.00  0.00    -0.019 A 
ATOM     25  H   LIG d   1       9.691   6.494  -4.230  0.00  0.00     0.063 H 
ATOM     26  C   LIG d   1      10.342   7.964  -1.261  0.00  0.00     0.130 A 
ATOM     27  H   LIG d   1       9.867   8.723  -3.208  0.00  0.00     0.065 H 
ATOM     28  C   LIG d   1      10.556   6.829  -0.488  0.00  0.00    -0.019 A 
ATOM     29  C   LIG d   1      10.454   5.577  -1.055  0.00  0.00    -0.048 A 
ATOM     30  H   LIG d   1      10.798   6.929   0.561  0.00  0.00     0.065 H 
ATOM     31  H   LIG d   1      10.615   4.696  -0.452  0.00  0.00     0.063 H 
BRANCH  26  32
ATOM     32  O   LIG d   1      10.439   9.196  -0.698  0.00  0.00    -0.406 OA
BRANCH  32  33
ATOM     33  C   LIG d   1       9.231   9.947  -0.570  0.00  0.00     0.575 C 
ATOM     34  F   LIG d   1       9.277  10.709   0.603  0.00  0.00    -0.133 F 
ATOM     35  F   LIG d   1       9.092  10.798  -1.671  0.00  0.00    -0.133 F 
ATOM     36  F   LIG d   1       8.141   9.072  -0.516  0.00  0.00    -0.133 F 
ENDBRANCH  32  33
ENDBRANCH  26  32
ENDBRANCH  20  22
ENDBRANCH   9  17
BRANCH   1  37
ATOM     37  C   LIG d   1       7.500   0.808  -3.583  0.00  0.00     0.025 C 
ATOM     38  H   LIG d   1       7.794   1.645  -2.934  0.00  0.00     0.048 H 
ATOM     39  H   LIG d   1       8.195  -0.032  -3.435  0.00  0.00     0.048 H 
BRANCH  37  40
ATOM     40  C   LIG d   1       6.101   0.369  -3.235  0.00  0.00    -0.033 A 
ATOM     41  C   LIG d   1       5.119   1.314  -2.998  0.00  0.00    -0.055 A 
ATOM     42  C   LIG d   1       3.835   0.912  -2.683  0.00  0.00    -0.026 A 
ATOM     43  H   LIG d   1       5.357   2.366  -3.062  0.00  0.00     0.062 H 
ATOM     44  C   LIG d   1       3.533  -0.436  -2.597  0.00  0.00     0.123 A 
ATOM     45  H   LIG d   1       3.068   1.650  -2.503  0.00  0.00     0.065 H 
ATOM     46  C   LIG d   1       4.518  -1.381  -2.829  0.00  0.00    -0.026 A 
ATOM     47  F   LIG d   1       2.279  -0.830  -2.284  0.00  0.00    -0.205 F 
ATOM     48  C   LIG d   1       5.801  -0.978  -3.148  0.00  0.00    -0.055 A 
ATOM     49  H   LIG d   1       4.284  -2.434  -2.760  0.00  0.00     0.065 H 
ATOM     50  H   LIG d   1       6.569  -1.715  -3.330  0.00  0.00     0.062 H 
ENDBRANCH  37  40
ENDBRANCH   1  37
TORSDOF 6
ENDMDL
MODEL 2
REMARK VINA RESULT:      -7.7      7.496      9.742
REMARK  6 active torsions:
REMARK  status: ('A' for Active; 'I' for Inactive)
REMARK    1  A    between atoms: C_6  and  C_7 
REMARK    2  A    between atoms: C_7  and  N_8 
REMARK    3  A    between atoms: C_16  and  C_18 
REMARK    4  A    between atoms: C_20  and  C_23 
REMARK    5  A    between atoms: C_26  and  O_29 
REMARK    6  A    between atoms: O_29  and  C_30 
ROOT
ATOM      1  N   LIG d   1       4.805  -0.983 -12.529  0.00  0.00    -0.281 N 
ATOM      2  C   LIG d   1       4.984  -0.695 -13.962  0.00  0.00     0.044 C 
ATOM      3  C   LIG d   1       6.444  -0.867 -14.301  0.00  0.00     0.076 A 
ATOM      4  C   LIG d   1       7.318  -1.527 -13.506  0.00  0.00     0.042 A 
ATOM      5  N   LIG d   1       8.529  -1.482 -14.118  0.00  0.00    -0.348 N 
ATOM      6  C   LIG d   1       8.362  -0.797 -15.274  0.00  0.00     0.094 A 
ATOM      7  N   LIG d   1       7.110  -0.435 -15.373  0.00  0.00    -0.239 NA
ATOM      8  C   LIG d   1       6.932  -2.164 -12.196  0.00  0.00     0.014 C 
ATOM      9  C   LIG d   1       5.401  -2.274 -12.159  0.00  0.00     0.096 C 
ATOM     10  H   LIG d   1       5.039  -3.024 -12.880  0.00  0.00     0.057 H 
ATOM     11  H   LIG d   1       4.375  -1.392 -14.555  0.00  0.00     0.049 H 
ATOM     12  H   LIG d   1       4.668   0.337 -14.172  0.00  0.00     0.049 H 
ATOM     13  H   LIG d   1       9.012  -0.555 -15.996  0.00  0.00     0.103 H 
ATOM     14  H   LIG d   1       7.387  -3.163 -12.127  0.00  0.00     0.035 H 
ATOM     15  H   LIG d   1       7.289  -1.539 -11.365  0.00  0.00     0.035 H 
ATOM     16  H   LIG d   1       9.401  -1.958 -13.646  0.00  0.00     0.167 HD
ENDROOT
BRANCH   9  17
ATOM     17  C   LIG d   1       4.958  -2.653 -10.770  0.00  0.00     0.245 A 
ATOM     18  O   LIG d   1       4.056  -3.588 -10.452  0.00  0.00    -0.336 OA
ATOM     19  N   LIG d   1       3.927  -3.647  -9.247  0.00  0.00    -0.056 NA
ATOM     20  C   LIG d   1       4.713  -2.777  -8.668  0.00  0.00     0.202 A 
ATOM     21  N   LIG d   1       5.383  -2.129  -9.648  0.00  0.00    -0.190 NA
BRANCH  20  22
ATOM     22  C   LIG d   1       4.844  -2.544  -7.209  0.00  0.00     0.023 A 
ATOM     23  C   LIG d   1       4.693  -3.604  -6.316  0.00  0.00    -0.048 A 
ATOM     24  C   LIG d   1       4.816  -3.383  -4.960  0.00  0.00    -0.019 A 
ATOM     25  H   LIG d   1       4.481  -4.595  -6.685  0.00  0.00     0.063 H 
ATOM     26  C   LIG d   1       5.090  -2.109  -4.484  0.00  0.00     0.130 A 
ATOM     27  H   LIG d   1       4.698  -4.204  -4.268  0.00  0.00     0.065 H 
ATOM     28  C   LIG d   1       5.241  -1.051  -5.371  0.00  0.00    -0.019 A 
ATOM     29  C   LIG d   1       5.124  -1.265  -6.728  0.00  0.00    -0.048 A 
ATOM     30  H   LIG d   1       5.454  -0.059  -4.998  0.00  0.00     0.065 H 
ATOM     31  H   LIG d   1       5.247  -0.443  -7.418  0.00  0.00     0.063 H 
BRANCH  26  32
ATOM     32  O   LIG d   1       5.210  -1.895  -3.148  0.00  0.00    -0.406 OA
BRANCH  32  33
ATOM     33  C   LIG d   1       4.001  -1.710  -2.409  0.00  0.00     0.575 C 
ATOM     34  F   LIG d   1       3.549  -2.948  -1.938  0.00  0.00    -0.133 F 
ATOM     35  F   LIG d   1       4.242  -0.859  -1.326  0.00  0.00    -0.133 F 
ATOM     36  F   LIG d   1       3.029  -1.144  -3.240  0.00  0.00    -0.133 F 
ENDBRANCH  32  33
ENDBRANCH  26  32
ENDBRANCH  20  22
ENDBRANCH   9  17
BRANCH   1  37
ATOM     37  C   LIG d   1       3.386  -0.931 -12.155  0.00  0.00     0.025 C 
ATOM     38  H   LIG d   1       3.050  -1.932 -11.847  0.00  0.00     0.048 H 
ATOM     39  H   LIG d   1       2.792  -0.595 -13.017  0.00  0.00     0.048 H 
BRANCH  37  40
ATOM     40  C   LIG d   1       3.202   0.034 -11.012  0.00  0.00    -0.033 A 
ATOM     41  C   LIG d   1       2.318  -0.265  -9.991  0.00  0.00    -0.055 A 
ATOM     42  C   LIG d   1       2.152   0.617  -8.940  0.00  0.00    -0.026 A 
ATOM     43  H   LIG d   1       1.761  -1.190 -10.014  0.00  0.00     0.062 H 
ATOM     44  C   LIG d   1       2.864   1.804  -8.914  0.00  0.00     0.123 A 
ATOM     45  H   LIG d   1       1.466   0.381  -8.141  0.00  0.00     0.065 H 
ATOM     46  C   LIG d   1       3.744   2.105  -9.939  0.00  0.00    -0.026 A 
ATOM     47  F   LIG d   1       2.698   2.669  -7.890  0.00  0.00    -0.205 F 
ATOM     48  C   LIG d   1       3.912   1.219 -10.987  0.00  0.00    -0.055 A 
ATOM     49  H   LIG d   1       4.299   3.031  -9.921  0.00  0.00     0.065 H 
ATOM     50  H   LIG d   1       4.599   1.454 -11.787  0.00  0.00     0.062 H 
ENDBRANCH  37  40
ENDBRANCH   1  37
TORSDOF 6
ENDMDL
MODEL 3
REMARK VINA RESULT:      -7.6      7.535     10.548
REMARK  6 active torsions:
REMARK  status: ('A' for Active; 'I' for Inactive)
REMARK    1  A    between atoms: C_6  and  C_7 
REMARK    2  A    between atoms: C_7  and  N_8 
REMARK    3  A    between atoms: C_16  and  C_18 
REMARK    4  A    between atoms: C_20  and  C_23 
REMARK    5  A    between atoms: C_26  and  O_29 
REMARK    6  A    between atoms: O_29  and  C_30 
ROOT
ATOM      1  N   LIG d   1       6.580  -8.636  -6.235  0.00  0.00    -0.281 N 
ATOM      2  C   LIG d   1       7.486  -9.566  -6.932  0.00  0.00     0.044 C 
ATOM      3  C   LIG d   1       6.817 -10.009  -8.209  0.00  0.00     0.076 A 
ATOM      4  C   LIG d   1       5.761  -9.365  -8.757  0.00  0.00     0.042 A 
ATOM      5  N   LIG d   1       5.423 -10.038  -9.887  0.00  0.00    -0.348 N 
ATOM      6  C   LIG d   1       6.284 -11.076 -10.001  0.00  0.00     0.094 A 
ATOM      7  N   LIG d   1       7.114 -11.048  -8.991  0.00  0.00    -0.239 NA
ATOM      8  C   LIG d   1       5.137  -8.132  -8.156  0.00  0.00     0.014 C 
ATOM      9  C   LIG d   1       6.121  -7.561  -7.125  0.00  0.00     0.096 C 
ATOM     10  H   LIG d   1       7.009  -7.136  -7.617  0.00  0.00     0.057 H 
ATOM     11  H   LIG d   1       8.431  -9.054  -7.160  0.00  0.00     0.049 H 
ATOM     12  H   LIG d   1       7.685 -10.435  -6.289  0.00  0.00     0.049 H 
ATOM     13  H   LIG d   1       6.361 -11.794 -10.693  0.00  0.00     0.103 H 
ATOM     14  H   LIG d   1       4.946  -7.394  -8.949  0.00  0.00     0.035 H 
ATOM     15  H   LIG d   1       4.188  -8.402  -7.669  0.00  0.00     0.035 H 
ATOM     16  H   LIG d   1       4.580  -9.690 -10.503  0.00  0.00     0.167 HD
ENDROOT
BRANCH   9  17
ATOM     17  C   LIG d   1       5.434  -6.495  -6.312  0.00  0.00     0.245 A 
ATOM     18  O   LIG d   1       4.338  -6.652  -5.561  0.00  0.00    -0.336 OA
ATOM     19  N   LIG d   1       4.041  -5.600  -5.035  0.00  0.00    -0.056 NA
ATOM     20  C   LIG d   1       4.892  -4.669  -5.380  0.00  0.00     0.202 A 
ATOM     21  N   LIG d   1       5.796  -5.241  -6.207  0.00  0.00    -0.190 NA
BRANCH  20  22
ATOM     22  C   LIG d   1       4.869  -3.251  -4.946  0.00  0.00     0.023 A 
ATOM     23  C   LIG d   1       4.741  -2.233  -5.890  0.00  0.00    -0.048 A 
ATOM     24  C   LIG d   1       4.720  -0.916  -5.482  0.00  0.00    -0.019 A 
ATOM     25  H   LIG d   1       4.658  -2.476  -6.938  0.00  0.00     0.063 H 
ATOM     26  C   LIG d   1       4.825  -0.602  -4.134  0.00  0.00     0.130 A 
ATOM     27  H   LIG d   1       4.621  -0.127  -6.213  0.00  0.00     0.065 H 
ATOM     28  C   LIG d   1       4.953  -1.615  -3.191  0.00  0.00    -0.019 A 
ATOM     29  C   LIG d   1       4.970  -2.934  -3.592  0.00  0.00    -0.048 A 
ATOM     30  H   LIG d   1       5.035  -1.368  -2.143  0.00  0.00     0.065 H 
ATOM     31  H   LIG d   1       5.064  -3.720  -2.858  0.00  0.00     0.063 H 
BRANCH  26  32
ATOM     32  O   LIG d   1       4.804   0.696  -3.736  0.00  0.00    -0.406 OA
BRANCH  32  33
ATOM     33  C   LIG d   1       3.711   1.105  -2.912  0.00  0.00     0.575 C 
ATOM     34  F   LIG d   1       4.103   1.079  -1.569  0.00  0.00    -0.133 F 
ATOM     35  F   LIG d   1       3.325   2.403  -3.260  0.00  0.00    -0.133 F 
ATOM     36  F   LIG d   1       2.634   0.232  -3.101  0.00  0.00    -0.133 F 
ENDBRANCH  32  33
ENDBRANCH  26  32
ENDBRANCH  20  22
ENDBRANCH   9  17
BRANCH   1  37
ATOM     37  C   LIG d   1       7.215  -8.087  -5.030  0.00  0.00     0.025 C 
ATOM     38  H   LIG d   1       6.861  -7.060  -4.864  0.00  0.00     0.048 H 
ATOM     39  H   LIG d   1       8.307  -8.082  -5.162  0.00  0.00     0.048 H 
BRANCH  37  40
ATOM     40  C   LIG d   1       6.858  -8.941  -3.840  0.00  0.00    -0.033 A 
ATOM     41  C   LIG d   1       5.653  -9.619  -3.813  0.00  0.00    -0.055 A 
ATOM     42  C   LIG d   1       5.327 -10.406  -2.725  0.00  0.00    -0.026 A 
ATOM     43  H   LIG d   1       4.970  -9.537  -4.646  0.00  0.00     0.062 H 
ATOM     44  C   LIG d   1       6.202 -10.507  -1.657  0.00  0.00     0.123 A 
ATOM     45  H   LIG d   1       4.389 -10.940  -2.707  0.00  0.00     0.065 H 
ATOM     46  C   LIG d   1       7.405  -9.823  -1.682  0.00  0.00    -0.026 A 
ATOM     47  F   LIG d   1       5.882 -11.271  -0.590  0.00  0.00    -0.205 F 
ATOM     48  C   LIG d   1       7.732  -9.040  -2.774  0.00  0.00    -0.055 A 
ATOM     49  H   LIG d   1       8.088  -9.899  -0.849  0.00  0.00     0.065 H 
ATOM     50  H   LIG d   1       8.671  -8.507  -2.794  0.00  0.00     0.062 H 
ENDBRANCH  37  40
ENDBRANCH   1  37
TORSDOF 6
ENDMDL
MODEL 4
REMARK VINA RESULT:      -7.6      2.318      3.506
REMARK  6 active torsions:
REMARK  status: ('A' for Active; 'I' for Inactive)
REMARK    1  A    between atoms: C_6  and  C_7 
REMARK    2  A    between atoms: C_7  and  N_8 
REMARK    3  A    between atoms: C_16  and  C_18 
REMARK    4  A    between atoms: C_20  and  C_23 
REMARK    5  A    between atoms: C_26  and  O_29 
REMARK    6  A    between atoms: O_29  and  C_30 
ROOT
ATOM      1  N   LIG d   1       5.314  -0.375  -7.202  0.00  0.00    -0.281 N 
ATOM      2  C   LIG d   1       4.372  -1.110  -8.063  0.00  0.00     0.044 C 
ATOM      3  C   LIG d   1       4.229  -0.354  -9.361  0.00  0.00     0.076 A 
ATOM      4  C   LIG d   1       5.099   0.599  -9.765  0.00  0.00     0.042 A 
ATOM      5  N   LIG d   1       4.660   1.061 -10.964  0.00  0.00    -0.348 N 
ATOM      6  C   LIG d   1       3.533   0.374 -11.263  0.00  0.00     0.094 A 
ATOM      7  N   LIG d   1       3.285  -0.471 -10.296  0.00  0.00    -0.239 NA
ATOM      8  C   LIG d   1       6.309   1.012  -8.967  0.00  0.00     0.014 C 
ATOM      9  C   LIG d   1       6.566  -0.070  -7.907  0.00  0.00     0.096 C 
ATOM     10  H   LIG d   1       6.920  -1.003  -8.371  0.00  0.00     0.057 H 
ATOM     11  H   LIG d   1       4.764  -2.119  -8.256  0.00  0.00     0.049 H 
ATOM     12  H   LIG d   1       3.397  -1.185  -7.561  0.00  0.00     0.049 H 
ATOM     13  H   LIG d   1       2.922   0.423 -12.053  0.00  0.00     0.103 H 
ATOM     14  H   LIG d   1       7.177   1.102  -9.637  0.00  0.00     0.035 H 
ATOM     15  H   LIG d   1       6.116   1.981  -8.483  0.00  0.00     0.035 H 
ATOM     16  H   LIG d   1       5.219   1.852 -11.486  0.00  0.00     0.167 HD
ENDROOT
BRANCH   9  17
ATOM     17  C   LIG d   1       7.591   0.427  -6.921  0.00  0.00     0.245 A 
ATOM     18  O   LIG d   1       8.521  -0.310  -6.305  0.00  0.00    -0.336 OA
ATOM     19  N   LIG d   1       9.189   0.390  -5.575  0.00  0.00    -0.056 NA
ATOM     20  C   LIG d   1       8.774   1.629  -5.637  0.00  0.00     0.202 A 
ATOM     21  N   LIG d   1       7.740   1.660  -6.507  0.00  0.00    -0.190 NA
BRANCH  20  22
ATOM     22  C   LIG d   1       9.334   2.784  -4.893  0.00  0.00     0.023 A 
ATOM     23  C   LIG d   1       9.515   4.007  -5.535  0.00  0.00    -0.048 A 
ATOM     24  C   LIG d   1      10.035   5.079  -4.839  0.00  0.00    -0.019 A 
ATOM     25  H   LIG d   1       9.247   4.117  -6.575  0.00  0.00     0.063 H 
ATOM     26  C   LIG d   1      10.379   4.940  -3.502  0.00  0.00     0.130 A 
ATOM     27  H   LIG d   1      10.176   6.027  -5.337  0.00  0.00     0.065 H 
ATOM     28  C   LIG d   1      10.200   3.721  -2.860  0.00  0.00    -0.019 A 
ATOM     29  C   LIG d   1       9.676   2.648  -3.548  0.00  0.00    -0.048 A 
ATOM     30  H   LIG d   1      10.469   3.615  -1.818  0.00  0.00     0.065 H 
ATOM     31  H   LIG d   1       9.533   1.702  -3.047  0.00  0.00     0.063 H 
BRANCH  26  32
ATOM     32  O   LIG d   1      10.893   5.996  -2.820  0.00  0.00    -0.406 OA
BRANCH  32  33
ATOM     33  C   LIG d   1      10.027   6.651  -1.892  0.00  0.00     0.575 C 
ATOM     34  F   LIG d   1      10.068   5.982  -0.663  0.00  0.00    -0.133 F 
ATOM     35  F   LIG d   1      10.447   7.974  -1.715  0.00  0.00    -0.133 F 
ATOM     36  F   LIG d   1       8.718   6.640  -2.386  0.00  0.00    -0.133 F 
ENDBRANCH  32  33
ENDBRANCH  26  32
ENDBRANCH  20  22
ENDBRANCH   9  17
BRANCH   1  37
ATOM     37  C   LIG d   1       5.576  -1.112  -5.959  0.00  0.00     0.025 C 
ATOM     38  H   LIG d   1       6.661  -1.224  -5.821  0.00  0.00     0.048 H 
ATOM     39  H   LIG d   1       5.109  -2.106  -6.018  0.00  0.00     0.048 H 
BRANCH  37  40
ATOM     40  C   LIG d   1       4.996  -0.353  -4.792  0.00  0.00    -0.033 A 
ATOM     41  C   LIG d   1       3.632  -0.139  -4.717  0.00  0.00    -0.055 A 
ATOM     42  C   LIG d   1       3.100   0.552  -3.646  0.00  0.00    -0.026 A 
ATOM     43  H   LIG d   1       2.983  -0.517  -5.494  0.00  0.00     0.062 H 
ATOM     44  C   LIG d   1       3.933   1.038  -2.653  0.00  0.00     0.123 A 
ATOM     45  H   LIG d   1       2.034   0.714  -3.584  0.00  0.00     0.065 H 
ATOM     46  C   LIG d   1       5.299   0.828  -2.732  0.00  0.00    -0.026 A 
ATOM     47  F   LIG d   1       3.413   1.718  -1.607  0.00  0.00    -0.205 F 
ATOM     48  C   LIG d   1       5.829   0.133  -3.802  0.00  0.00    -0.055 A 
ATOM     49  H   LIG d   1       5.950   1.208  -1.959  0.00  0.00     0.065 H 
ATOM     50  H   LIG d   1       6.895  -0.032  -3.864  0.00  0.00     0.062 H 
ENDBRANCH  37  40
ENDBRANCH   1  37
TORSDOF 6
ENDMDL
MODEL 5
REMARK VINA RESULT:      -7.6      2.769      8.657
REMARK  6 active torsions:
REMARK  status: ('A' for Active; 'I' for Inactive)
REMARK    1  A    between atoms: C_6  and  C_7 
REMARK    2  A    between atoms: C_7  and  N_8 
REMARK    3  A    between atoms: C_16  and  C_18 
REMARK    4  A    between atoms: C_20  and  C_23 
REMARK    5  A    between atoms: C_26  and  O_29 
REMARK    6  A    between atoms: O_29  and  C_30 
ROOT
ATOM      1  N   LIG d   1      10.441   6.171  -4.315  0.00  0.00    -0.281 N 
ATOM      2  C   LIG d   1      10.644   7.483  -4.954  0.00  0.00     0.044 C 
ATOM      3  C   LIG d   1      11.717   7.336  -6.005  0.00  0.00     0.076 A 
ATOM      4  C   LIG d   1      12.119   6.141  -6.494  0.00  0.00     0.042 A 
ATOM      5  N   LIG d   1      13.091   6.389  -7.409  0.00  0.00    -0.348 N 
ATOM      6  C   LIG d   1      13.256   7.732  -7.456  0.00  0.00     0.094 A 
ATOM      7  N   LIG d   1      12.427   8.288  -6.611  0.00  0.00    -0.239 NA
ATOM      8  C   LIG d   1      11.539   4.823  -6.049  0.00  0.00     0.014 C 
ATOM      9  C   LIG d   1      10.224   5.113  -5.310  0.00  0.00     0.096 C 
ATOM     10  H   LIG d   1       9.448   5.466  -6.006  0.00  0.00     0.057 H 
ATOM     11  H   LIG d   1       9.703   7.811  -5.420  0.00  0.00     0.049 H 
ATOM     12  H   LIG d   1      10.954   8.216  -4.197  0.00  0.00     0.049 H 
ATOM     13  H   LIG d   1      13.871   8.301  -8.002  0.00  0.00     0.103 H 
ATOM     14  H   LIG d   1      11.351   4.190  -6.928  0.00  0.00     0.035 H 
ATOM     15  H   LIG d   1      12.250   4.318  -5.378  0.00  0.00     0.035 H 
ATOM     16  H   LIG d   1      13.571   5.554  -7.941  0.00  0.00     0.167 HD
ENDROOT
BRANCH   9  17
ATOM     17  C   LIG d   1       9.751   3.860  -4.618  0.00  0.00     0.245 A 
ATOM     18  O   LIG d   1      10.397   3.194  -3.656  0.00  0.00    -0.336 OA
ATOM     19  N   LIG d   1       9.747   2.230  -3.311  0.00  0.00    -0.056 NA
ATOM     20  C   LIG d   1       8.635   2.168  -3.997  0.00  0.00     0.202 A 
ATOM     21  N   LIG d   1       8.632   3.221  -4.846  0.00  0.00    -0.190 NA
BRANCH  20  22
ATOM     22  C   LIG d   1       7.577   1.137  -3.868  0.00  0.00     0.023 A 
ATOM     23  C   LIG d   1       6.310   1.490  -3.408  0.00  0.00    -0.048 A 
ATOM     24  C   LIG d   1       5.328   0.528  -3.290  0.00  0.00    -0.019 A 
ATOM     25  H   LIG d   1       6.097   2.515  -3.144  0.00  0.00     0.063 H 
ATOM     26  C   LIG d   1       5.601  -0.790  -3.628  0.00  0.00     0.130 A 
ATOM     27  H   LIG d   1       4.346   0.802  -2.932  0.00  0.00     0.065 H 
ATOM     28  C   LIG d   1       6.863  -1.144  -4.088  0.00  0.00    -0.019 A 
ATOM     29  C   LIG d   1       7.847  -0.187  -4.213  0.00  0.00    -0.048 A 
ATOM     30  H   LIG d   1       7.073  -2.171  -4.350  0.00  0.00     0.065 H 
ATOM     31  H   LIG d   1       8.826  -0.462  -4.574  0.00  0.00     0.063 H 
BRANCH  26  32
ATOM     32  O   LIG d   1       4.632  -1.735  -3.510  0.00  0.00    -0.406 OA
BRANCH  32  33
ATOM     33  C   LIG d   1       3.835  -1.702  -2.325  0.00  0.00     0.575 C 
ATOM     34  F   LIG d   1       2.677  -0.952  -2.562  0.00  0.00    -0.133 F 
ATOM     35  F   LIG d   1       3.479  -3.006  -1.966  0.00  0.00    -0.133 F 
ATOM     36  F   LIG d   1       4.567  -1.115  -1.287  0.00  0.00    -0.133 F 
ENDBRANCH  32  33
ENDBRANCH  26  32
ENDBRANCH  20  22
ENDBRANCH   9  17
BRANCH   1  37
ATOM     37  C   LIG d   1       9.336   6.221  -3.350  0.00  0.00     0.025 C 
ATOM     38  H   LIG d   1       8.840   5.240  -3.307  0.00  0.00     0.048 H 
ATOM     39  H   LIG d   1       8.609   6.985  -3.664  0.00  0.00     0.048 H 
BRANCH  37  40
ATOM     40  C   LIG d   1       9.874   6.571  -1.986  0.00  0.00    -0.033 A 
ATOM     41  C   LIG d   1      10.544   5.618  -1.242  0.00  0.00    -0.055 A 
ATOM     42  C   LIG d   1      11.042   5.939   0.006  0.00  0.00    -0.026 A 
ATOM     43  H   LIG d   1      10.682   4.623  -1.640  0.00  0.00     0.062 H 
ATOM     44  C   LIG d   1      10.861   7.213   0.516  0.00  0.00     0.123 A 
ATOM     45  H   LIG d   1      11.570   5.196   0.584  0.00  0.00     0.065 H 
ATOM     46  C   LIG d   1      10.185   8.166  -0.227  0.00  0.00    -0.026 A 
ATOM     47  F   LIG d   1      11.343   7.527   1.739  0.00  0.00    -0.205 F 
ATOM     48  C   LIG d   1       9.692   7.843  -1.477  0.00  0.00    -0.055 A 
ATOM     49  H   LIG d   1      10.041   9.160   0.170  0.00  0.00     0.065 H 
ATOM     50  H   LIG d   1       9.164   8.586  -2.057  0.00  0.00     0.062 H 
ENDBRANCH  37  40
ENDBRANCH   1  37
TORSDOF 6
ENDMDL
MODEL 6
REMARK VINA RESULT:      -7.5      4.104      8.860
REMARK  6 active torsions:
REMARK  status: ('A' for Active; 'I' for Inactive)
REMARK    1  A    between atoms: C_6  and  C_7 
REMARK    2  A    between atoms: C_7  and  N_8 
REMARK    3  A    between atoms: C_16  and  C_18 
REMARK    4  A    between atoms: C_20  and  C_23 
REMARK    5  A    between atoms: C_26  and  O_29 
REMARK    6  A    between atoms: O_29  and  C_30 
ROOT
ATOM      1  N   LIG d   1      10.509   5.864  -4.681  0.00  0.00    -0.281 N 
ATOM      2  C   LIG d   1      11.229   7.144  -4.570  0.00  0.00     0.044 C 
ATOM      3  C   LIG d   1      10.698   7.883  -3.367  0.00  0.00     0.076 A 
ATOM      4  C   LIG d   1       9.975   7.289  -2.390  0.00  0.00     0.042 A 
ATOM      5  N   LIG d   1       9.667   8.249  -1.480  0.00  0.00    -0.348 N 
ATOM      6  C   LIG d   1      10.213   9.405  -1.924  0.00  0.00     0.094 A 
ATOM      7  N   LIG d   1      10.828   9.174  -3.055  0.00  0.00    -0.239 NA
ATOM      8  C   LIG d   1       9.621   5.825  -2.392  0.00  0.00     0.014 C 
ATOM      9  C   LIG d   1      10.528   5.122  -3.413  0.00  0.00     0.096 C 
ATOM     10  H   LIG d   1      11.571   5.093  -3.062  0.00  0.00     0.057 H 
ATOM     11  H   LIG d   1      12.304   6.950  -4.449  0.00  0.00     0.049 H 
ATOM     12  H   LIG d   1      11.064   7.738  -5.481  0.00  0.00     0.049 H 
ATOM     13  H   LIG d   1      10.208  10.327  -1.536  0.00  0.00     0.103 H 
ATOM     14  H   LIG d   1       9.784   5.407  -1.387  0.00  0.00     0.035 H 
ATOM     15  H   LIG d   1       8.565   5.703  -2.674  0.00  0.00     0.035 H 
ATOM     16  H   LIG d   1       9.075   7.991  -0.589  0.00  0.00     0.167 HD
ENDROOT
BRANCH   9  17
ATOM     17  C   LIG d   1      10.032   3.719  -3.643  0.00  0.00     0.245 A 
ATOM     18  O   LIG d   1      10.760   2.679  -4.063  0.00  0.00    -0.336 OA
ATOM     19  N   LIG d   1      10.063   1.690  -4.146  0.00  0.00    -0.056 NA
ATOM     20  C   LIG d   1       8.835   1.976  -3.797  0.00  0.00     0.202 A 
ATOM     21  N   LIG d   1       8.808   3.288  -3.470  0.00  0.00    -0.190 NA
BRANCH  20  22
ATOM     22  C   LIG d   1       7.688   1.036  -3.765  0.00  0.00     0.023 A 
ATOM     23  C   LIG d   1       6.429   1.483  -3.366  0.00  0.00    -0.048 A 
ATOM     24  C   LIG d   1       5.365   0.606  -3.338  0.00  0.00    -0.019 A 
ATOM     25  H   LIG d   1       6.288   2.514  -3.080  0.00  0.00     0.063 H 
ATOM     26  C   LIG d   1       5.545  -0.720  -3.706  0.00  0.00     0.130 A 
ATOM     27  H   LIG d   1       4.389   0.953  -3.028  0.00  0.00     0.065 H 
ATOM     28  C   LIG d   1       6.798  -1.168  -4.104  0.00  0.00    -0.019 A 
ATOM     29  C   LIG d   1       7.865  -0.295  -4.139  0.00  0.00    -0.048 A 
ATOM     30  H   LIG d   1       6.936  -2.201  -4.390  0.00  0.00     0.065 H 
ATOM     31  H   LIG d   1       8.838  -0.644  -4.453  0.00  0.00     0.063 H 
BRANCH  26  32
ATOM     32  O   LIG d   1       4.495  -1.581  -3.677  0.00  0.00    -0.406 OA
BRANCH  32  33
ATOM     33  C   LIG d   1       3.791  -1.703  -2.440  0.00  0.00     0.575 C 
ATOM     34  F   LIG d   1       4.553  -1.136  -1.412  0.00  0.00    -0.133 F 
ATOM     35  F   LIG d   1       2.565  -1.035  -2.533  0.00  0.00    -0.133 F 
ATOM     36  F   LIG d   1       3.566  -3.055  -2.163  0.00  0.00    -0.133 F 
ENDBRANCH  32  33
ENDBRANCH  26  32
ENDBRANCH  20  22
ENDBRANCH   9  17
BRANCH   1  37
ATOM     37  C   LIG d   1      11.050   5.049  -5.776  0.00  0.00     0.025 C 
ATOM     38  H   LIG d   1      10.979   3.984  -5.511  0.00  0.00     0.048 H 
ATOM     39  H   LIG d   1      12.104   5.315  -5.945  0.00  0.00     0.048 H 
BRANCH  37  40
ATOM     40  C   LIG d   1      10.260   5.307  -7.033  0.00  0.00    -0.033 A 
ATOM     41  C   LIG d   1      10.099   6.601  -7.495  0.00  0.00    -0.055 A 
ATOM     42  C   LIG d   1       9.379   6.838  -8.649  0.00  0.00    -0.026 A 
ATOM     43  H   LIG d   1      10.540   7.425  -6.953  0.00  0.00     0.062 H 
ATOM     44  C   LIG d   1       8.810   5.781  -9.339  0.00  0.00     0.123 A 
ATOM     45  H   LIG d   1       9.258   7.848  -9.012  0.00  0.00     0.065 H 
ATOM     46  C   LIG d   1       8.967   4.487  -8.874  0.00  0.00    -0.026 A 
ATOM     47  F   LIG d   1       8.101   6.013 -10.466  0.00  0.00    -0.205 F 
ATOM     48  C   LIG d   1       9.692   4.252  -7.721  0.00  0.00    -0.055 A 
ATOM     49  H   LIG d   1       8.522   3.662  -9.411  0.00  0.00     0.065 H 
ATOM     50  H   LIG d   1       9.814   3.242  -7.358  0.00  0.00     0.062 H 
ENDBRANCH  37  40
ENDBRANCH   1  37
TORSDOF 6
ENDMDL
MODEL 7
REMARK VINA RESULT:      -7.5      2.595      3.262
REMARK  6 active torsions:
REMARK  status: ('A' for Active; 'I' for Inactive)
REMARK    1  A    between atoms: C_6  and  C_7 
REMARK    2  A    between atoms: C_7  and  N_8 
REMARK    3  A    between atoms: C_16  and  C_18 
REMARK    4  A    between atoms: C_20  and  C_23 
REMARK    5  A    between atoms: C_26  and  O_29 
REMARK    6  A    between atoms: O_29  and  C_30 
ROOT
ATOM      1  N   LIG d   1       7.564  -1.610  -4.607  0.00  0.00    -0.281 N 
ATOM      2  C   LIG d   1       7.695  -3.053  -4.338  0.00  0.00     0.044 C 
ATOM      3  C   LIG d   1       8.333  -3.702  -5.540  0.00  0.00     0.076 A 
ATOM      4  C   LIG d   1       8.988  -3.008  -6.499  0.00  0.00     0.042 A 
ATOM      5  N   LIG d   1       9.424  -3.908  -7.418  0.00  0.00    -0.348 N 
ATOM      6  C   LIG d   1       9.025  -5.130  -6.995  0.00  0.00     0.094 A 
ATOM      7  N   LIG d   1       8.373  -4.994  -5.869  0.00  0.00    -0.239 NA
ATOM      8  C   LIG d   1       9.157  -1.511  -6.473  0.00  0.00     0.014 C 
ATOM      9  C   LIG d   1       8.836  -1.026  -5.051  0.00  0.00     0.096 C 
ATOM     10  H   LIG d   1       9.613  -1.344  -4.339  0.00  0.00     0.057 H 
ATOM     11  H   LIG d   1       8.325  -3.203  -3.449  0.00  0.00     0.049 H 
ATOM     12  H   LIG d   1       6.700  -3.485  -4.159  0.00  0.00     0.049 H 
ATOM     13  H   LIG d   1       9.151  -6.039  -7.393  0.00  0.00     0.103 H 
ATOM     14  H   LIG d   1      10.193  -1.254  -6.739  0.00  0.00     0.035 H 
ATOM     15  H   LIG d   1       8.467  -1.052  -7.196  0.00  0.00     0.035 H 
ATOM     16  H   LIG d   1       9.987  -3.565  -8.299  0.00  0.00     0.167 HD
ENDROOT
BRANCH   9  17
ATOM     17  C   LIG d   1       8.729   0.477  -5.046  0.00  0.00     0.245 A 
ATOM     18  O   LIG d   1       7.968   1.221  -5.855  0.00  0.00    -0.336 OA
ATOM     19  N   LIG d   1       8.108   2.396  -5.593  0.00  0.00    -0.056 NA
ATOM     20  C   LIG d   1       8.957   2.538  -4.607  0.00  0.00     0.202 A 
ATOM     21  N   LIG d   1       9.362   1.299  -4.248  0.00  0.00    -0.190 NA
BRANCH  20  22
ATOM     22  C   LIG d   1       9.391   3.819  -3.997  0.00  0.00     0.023 A 
ATOM     23  C   LIG d   1       9.208   5.017  -4.684  0.00  0.00    -0.048 A 
ATOM     24  C   LIG d   1       9.613   6.206  -4.114  0.00  0.00    -0.019 A 
ATOM     25  H   LIG d   1       8.749   5.015  -5.661  0.00  0.00     0.063 H 
ATOM     26  C   LIG d   1      10.202   6.210  -2.857  0.00  0.00     0.130 A 
ATOM     27  H   LIG d   1       9.472   7.135  -4.647  0.00  0.00     0.065 H 
ATOM     28  C   LIG d   1      10.386   5.017  -2.171  0.00  0.00    -0.019 A 
ATOM     29  C   LIG d   1       9.979   3.826  -2.733  0.00  0.00    -0.048 A 
ATOM     30  H   LIG d   1      10.846   5.023  -1.192  0.00  0.00     0.065 H 
ATOM     31  H   LIG d   1      10.118   2.899  -2.196  0.00  0.00     0.063 H 
BRANCH  26  32
ATOM     32  O   LIG d   1      10.601   7.382  -2.299  0.00  0.00    -0.406 OA
BRANCH  32  33
ATOM     33  C   LIG d   1       9.782   7.916  -1.257  0.00  0.00     0.575 C 
ATOM     34  F   LIG d   1      10.275   7.499  -0.016  0.00  0.00    -0.133 F 
ATOM     35  F   LIG d   1       9.799   9.313  -1.319  0.00  0.00    -0.133 F 
ATOM     36  F   LIG d   1       8.469   7.459  -1.415  0.00  0.00    -0.133 F 
ENDBRANCH  32  33
ENDBRANCH  26  32
ENDBRANCH  20  22
ENDBRANCH   9  17
BRANCH   1  37
ATOM     37  C   LIG d   1       7.041  -0.901  -3.432  0.00  0.00     0.025 C 
ATOM     38  H   LIG d   1       7.478   0.106  -3.386  0.00  0.00     0.048 H 
ATOM     39  H   LIG d   1       7.305  -1.457  -2.521  0.00  0.00     0.048 H 
BRANCH  37  40
ATOM     40  C   LIG d   1       5.541  -0.793  -3.536  0.00  0.00    -0.033 A 
ATOM     41  C   LIG d   1       4.743  -1.215  -2.488  0.00  0.00    -0.055 A 
ATOM     42  C   LIG d   1       3.369  -1.111  -2.581  0.00  0.00    -0.026 A 
ATOM     43  H   LIG d   1       5.196  -1.620  -1.595  0.00  0.00     0.062 H 
ATOM     44  C   LIG d   1       2.790  -0.595  -3.727  0.00  0.00     0.123 A 
ATOM     45  H   LIG d   1       2.746  -1.436  -1.760  0.00  0.00     0.065 H 
ATOM     46  C   LIG d   1       3.588  -0.178  -4.778  0.00  0.00    -0.026 A 
ATOM     47  F   LIG d   1       1.445  -0.498  -3.822  0.00  0.00    -0.205 F 
ATOM     48  C   LIG d   1       4.963  -0.278  -4.682  0.00  0.00    -0.055 A 
ATOM     49  H   LIG d   1       3.138   0.224  -5.674  0.00  0.00     0.065 H 
ATOM     50  H   LIG d   1       5.587   0.047  -5.501  0.00  0.00     0.062 H 
ENDBRANCH  37  40
ENDBRANCH   1  37
TORSDOF 6
ENDMDL
MODEL 8
REMARK VINA RESULT:      -7.2      6.495     11.828
REMARK  6 active torsions:
REMARK  status: ('A' for Active; 'I' for Inactive)
REMARK    1  A    between atoms: C_6  and  C_7 
REMARK    2  A    between atoms: C_7  and  N_8 
REMARK    3  A    between atoms: C_16  and  C_18 
REMARK    4  A    between atoms: C_20  and  C_23 
REMARK    5  A    between atoms: C_26  and  O_29 
REMARK    6  A    between atoms: O_29  and  C_30 
ROOT
ATOM      1  N   LIG d   1       4.477  -1.094  -6.659  0.00  0.00    -0.281 N 
ATOM      2  C   LIG d   1       3.576   0.047  -6.897  0.00  0.00     0.044 C 
ATOM      3  C   LIG d   1       3.980   0.707  -8.192  0.00  0.00     0.076 A 
ATOM      4  C   LIG d   1       4.772   0.112  -9.113  0.00  0.00     0.042 A 
ATOM      5  N   LIG d   1       4.926   0.991 -10.137  0.00  0.00    -0.348 N 
ATOM      6  C   LIG d   1       4.221   2.100  -9.814  0.00  0.00     0.094 A 
ATOM      7  N   LIG d   1       3.659   1.919  -8.648  0.00  0.00    -0.239 NA
ATOM      8  C   LIG d   1       5.337  -1.276  -8.952  0.00  0.00     0.014 C 
ATOM      9  C   LIG d   1       4.554  -1.976  -7.832  0.00  0.00     0.096 C 
ATOM     10  H   LIG d   1       3.522  -2.197  -8.147  0.00  0.00     0.057 H 
ATOM     11  H   LIG d   1       2.540  -0.314  -6.966  0.00  0.00     0.049 H 
ATOM     12  H   LIG d   1       3.661   0.762  -6.066  0.00  0.00     0.049 H 
ATOM     13  H   LIG d   1       4.087   2.961 -10.306  0.00  0.00     0.103 H 
ATOM     14  H   LIG d   1       5.227  -1.828  -9.897  0.00  0.00     0.035 H 
ATOM     15  H   LIG d   1       6.402  -1.209  -8.687  0.00  0.00     0.035 H 
ATOM     16  H   LIG d   1       5.541   0.718 -11.007  0.00  0.00     0.167 HD
ENDROOT
BRANCH   9  17
ATOM     17  C   LIG d   1       5.253  -3.256  -7.454  0.00  0.00     0.245 A 
ATOM     18  O   LIG d   1       6.574  -3.446  -7.380  0.00  0.00    -0.336 OA
ATOM     19  N   LIG d   1       6.812  -4.588  -7.048  0.00  0.00    -0.056 NA
ATOM     20  C   LIG d   1       5.695  -5.247  -6.875  0.00  0.00     0.202 A 
ATOM     21  N   LIG d   1       4.682  -4.390  -7.136  0.00  0.00    -0.190 NA
BRANCH  20  22
ATOM     22  C   LIG d   1       5.565  -6.667  -6.468  0.00  0.00     0.023 A 
ATOM     23  C   LIG d   1       6.351  -7.172  -5.433  0.00  0.00    -0.048 A 
ATOM     24  C   LIG d   1       6.227  -8.493  -5.057  0.00  0.00    -0.019 A 
ATOM     25  H   LIG d   1       7.055  -6.529  -4.926  0.00  0.00     0.063 H 
ATOM     26  C   LIG d   1       5.321  -9.320  -5.708  0.00  0.00     0.130 A 
ATOM     27  H   LIG d   1       6.836  -8.885  -4.256  0.00  0.00     0.065 H 
ATOM     28  C   LIG d   1       4.538  -8.819  -6.739  0.00  0.00    -0.019 A 
ATOM     29  C   LIG d   1       4.653  -7.498  -7.117  0.00  0.00    -0.048 A 
ATOM     30  H   LIG d   1       3.834  -9.465  -7.244  0.00  0.00     0.065 H 
ATOM     31  H   LIG d   1       4.040  -7.109  -7.915  0.00  0.00     0.063 H 
BRANCH  26  32
ATOM     32  O   LIG d   1       5.203 -10.621  -5.336  0.00  0.00    -0.406 OA
BRANCH  32  33
ATOM     33  C   LIG d   1       4.201 -10.929  -4.364  0.00  0.00     0.575 C 
ATOM     34  F   LIG d   1       4.779 -11.643  -3.309  0.00  0.00    -0.133 F 
ATOM     35  F   LIG d   1       3.647  -9.742  -3.874  0.00  0.00    -0.133 F 
ATOM     36  F   LIG d   1       3.198 -11.702  -4.958  0.00  0.00    -0.133 F 
ENDBRANCH  32  33
ENDBRANCH  26  32
ENDBRANCH  20  22
ENDBRANCH   9  17
BRANCH   1  37
ATOM     37  C   LIG d   1       4.073  -1.843  -5.462  0.00  0.00     0.025 C 
ATOM     38  H   LIG d   1       4.694  -2.745  -5.367  0.00  0.00     0.048 H 
ATOM     39  H   LIG d   1       3.016  -2.134  -5.552  0.00  0.00     0.048 H 
BRANCH  37  40
ATOM     40  C   LIG d   1       4.253  -0.977  -4.242  0.00  0.00    -0.033 A 
ATOM     41  C   LIG d   1       3.158  -0.630  -3.473  0.00  0.00    -0.055 A 
ATOM     42  C   LIG d   1       3.323   0.160  -2.352  0.00  0.00    -0.026 A 
ATOM     43  H   LIG d   1       2.173  -0.980  -3.748  0.00  0.00     0.062 H 
ATOM     44  C   LIG d   1       4.584   0.612  -2.003  0.00  0.00     0.123 A 
ATOM     45  H   LIG d   1       2.467   0.427  -1.749  0.00  0.00     0.065 H 
ATOM     46  C   LIG d   1       5.679   0.268  -2.776  0.00  0.00    -0.026 A 
ATOM     47  F   LIG d   1       4.746   1.389  -0.909  0.00  0.00    -0.205 F 
ATOM     48  C   LIG d   1       5.513  -0.526  -3.895  0.00  0.00    -0.055 A 
ATOM     49  H   LIG d   1       6.664   0.621  -2.506  0.00  0.00     0.065 H 
ATOM     50  H   LIG d   1       6.368  -0.794  -4.498  0.00  0.00     0.062 H 
ENDBRANCH  37  40
ENDBRANCH   1  37
TORSDOF 6
ENDMDL
MODEL 9
REMARK VINA RESULT:      -7.2      3.708      5.393
REMARK  6 active torsions:
REMARK  status: ('A' for Active; 'I' for Inactive)
REMARK    1  A    between atoms: C_6  and  C_7 
REMARK    2  A    between atoms: C_7  and  N_8 
REMARK    3  A    between atoms: C_16  and  C_18 
REMARK    4  A    between atoms: C_20  and  C_23 
REMARK    5  A    between atoms: C_26  and  O_29 
REMARK    6  A    between atoms: O_29  and  C_30 
ROOT
ATOM      1  N   LIG d   1       5.053  -2.898  -5.368  0.00  0.00    -0.281 N 
ATOM      2  C   LIG d   1       4.642  -4.306  -5.505  0.00  0.00     0.044 C 
ATOM      3  C   LIG d   1       4.213  -4.537  -6.933  0.00  0.00     0.076 A 
ATOM      4  C   LIG d   1       4.520  -3.694  -7.946  0.00  0.00     0.042 A 
ATOM      5  N   LIG d   1       3.973  -4.211  -9.077  0.00  0.00    -0.348 N 
ATOM      6  C   LIG d   1       3.348  -5.359  -8.724  0.00  0.00     0.094 A 
ATOM      7  N   LIG d   1       3.498  -5.543  -7.438  0.00  0.00    -0.239 NA
ATOM      8  C   LIG d   1       5.325  -2.434  -7.764  0.00  0.00     0.014 C 
ATOM      9  C   LIG d   1       6.026  -2.516  -6.400  0.00  0.00     0.096 C 
ATOM     10  H   LIG d   1       6.818  -3.281  -6.407  0.00  0.00     0.057 H 
ATOM     11  H   LIG d   1       5.490  -4.960  -5.257  0.00  0.00     0.049 H 
ATOM     12  H   LIG d   1       3.806  -4.512  -4.822  0.00  0.00     0.049 H 
ATOM     13  H   LIG d   1       2.833  -6.022  -9.268  0.00  0.00     0.103 H 
ATOM     14  H   LIG d   1       6.069  -2.355  -8.571  0.00  0.00     0.035 H 
ATOM     15  H   LIG d   1       4.655  -1.562  -7.796  0.00  0.00     0.035 H 
ATOM     16  H   LIG d   1       4.095  -3.686 -10.036  0.00  0.00     0.167 HD
ENDROOT
BRANCH   9  17
ATOM     17  C   LIG d   1       6.621  -1.174  -6.060  0.00  0.00     0.245 A 
ATOM     18  O   LIG d   1       6.053   0.019  -6.261  0.00  0.00    -0.336 OA
ATOM     19  N   LIG d   1       6.792   0.901  -5.877  0.00  0.00    -0.056 NA
ATOM     20  C   LIG d   1       7.894   0.386  -5.395  0.00  0.00     0.202 A 
ATOM     21  N   LIG d   1       7.789  -0.958  -5.511  0.00  0.00    -0.190 NA
BRANCH  20  22
ATOM     22  C   LIG d   1       9.041   1.135  -4.828  0.00  0.00     0.023 A 
ATOM     23  C   LIG d   1      10.324   0.936  -5.335  0.00  0.00    -0.048 A 
ATOM     24  C   LIG d   1      11.389   1.635  -4.805  0.00  0.00    -0.019 A 
ATOM     25  H   LIG d   1      10.484   0.236  -6.140  0.00  0.00     0.063 H 
ATOM     26  C   LIG d   1      11.184   2.536  -3.770  0.00  0.00     0.130 A 
ATOM     27  H   LIG d   1      12.384   1.480  -5.197  0.00  0.00     0.065 H 
ATOM     28  C   LIG d   1       9.906   2.736  -3.263  0.00  0.00    -0.019 A 
ATOM     29  C   LIG d   1       8.837   2.044  -3.791  0.00  0.00    -0.048 A 
ATOM     30  H   LIG d   1       9.750   3.438  -2.456  0.00  0.00     0.065 H 
ATOM     31  H   LIG d   1       7.844   2.204  -3.400  0.00  0.00     0.063 H 
BRANCH  26  32
ATOM     32  O   LIG d   1      12.235   3.222  -3.250  0.00  0.00    -0.406 OA
BRANCH  32  33
ATOM     33  C   LIG d   1      12.361   4.595  -3.624  0.00  0.00     0.575 C 
ATOM     34  F   LIG d   1      13.712   4.960  -3.612  0.00  0.00    -0.133 F 
ATOM     35  F   LIG d   1      11.842   4.778  -4.910  0.00  0.00    -0.133 F 
ATOM     36  F   LIG d   1      11.655   5.393  -2.717  0.00  0.00    -0.133 F 
ENDBRANCH  32  33
ENDBRANCH  26  32
ENDBRANCH  20  22
ENDBRANCH   9  17
BRANCH   1  37
ATOM     37  C   LIG d   1       5.579  -2.632  -4.024  0.00  0.00     0.025 C 
ATOM     38  H   LIG d   1       6.661  -2.440  -4.084  0.00  0.00     0.048 H 
ATOM     39  H   LIG d   1       5.397  -3.504  -3.380  0.00  0.00     0.048 H 
BRANCH  37  40
ATOM     40  C   LIG d   1       4.888  -1.425  -3.442  0.00  0.00    -0.033 A 
ATOM     41  C   LIG d   1       5.606  -0.510  -2.695  0.00  0.00    -0.055 A 
ATOM     42  C   LIG d   1       4.974   0.599  -2.166  0.00  0.00    -0.026 A 
ATOM     43  H   LIG d   1       6.663  -0.661  -2.529  0.00  0.00     0.062 H 
ATOM     44  C   LIG d   1       3.619   0.789  -2.376  0.00  0.00     0.123 A 
ATOM     45  H   LIG d   1       5.537   1.316  -1.587  0.00  0.00     0.065 H 
ATOM     46  C   LIG d   1       2.899  -0.131  -3.119  0.00  0.00    -0.026 A 
ATOM     47  F   LIG d   1       2.999   1.870  -1.854  0.00  0.00    -0.205 F 
ATOM     48  C   LIG d   1       3.534  -1.237  -3.651  0.00  0.00    -0.055 A 
ATOM     49  H   LIG d   1       1.841   0.015  -3.282  0.00  0.00     0.065 H 
ATOM     50  H   LIG d   1       2.973  -1.954  -4.232  0.00  0.00     0.062 H 
ENDBRANCH  37  40
ENDBRANCH   1  37
TORSDOF 6
ENDMDL
MODEL 10
REMARK VINA RESULT:      -7.2      7.358     13.075
REMARK  6 active torsions:
REMARK  status: ('A' for Active; 'I' for Inactive)
REMARK    1  A    between atoms: C_6  and  C_7 
REMARK    2  A    between atoms: C_7  and  N_8 
REMARK    3  A    between atoms: C_16  and  C_18 
REMARK    4  A    between atoms: C_20  and  C_23 
REMARK    5  A    between atoms: C_26  and  O_29 
REMARK    6  A    between atoms: O_29  and  C_30 
ROOT
ATOM      1  N   LIG d   1       5.031  -1.562  -5.638  0.00  0.00    -0.281 N 
ATOM      2  C   LIG d   1       5.681  -0.313  -5.206  0.00  0.00     0.044 C 
ATOM      3  C   LIG d   1       5.217   0.002  -3.805  0.00  0.00     0.076 A 
ATOM      4  C   LIG d   1       4.620  -0.906  -2.999  0.00  0.00     0.042 A 
ATOM      5  N   LIG d   1       4.338  -0.278  -1.829  0.00  0.00    -0.348 N 
ATOM      6  C   LIG d   1       4.774   0.998  -1.950  0.00  0.00     0.094 A 
ATOM      7  N   LIG d   1       5.299   1.154  -3.138  0.00  0.00    -0.239 NA
ATOM      8  C   LIG d   1       4.353  -2.332  -3.407  0.00  0.00     0.014 C 
ATOM      9  C   LIG d   1       5.206  -2.633  -4.648  0.00  0.00     0.096 C 
ATOM     10  H   LIG d   1       6.276  -2.677  -4.394  0.00  0.00     0.057 H 
ATOM     11  H   LIG d   1       6.773  -0.446  -5.220  0.00  0.00     0.049 H 
ATOM     12  H   LIG d   1       5.402   0.502  -5.888  0.00  0.00     0.049 H 
ATOM     13  H   LIG d   1       4.750   1.766  -1.309  0.00  0.00     0.103 H 
ATOM     14  H   LIG d   1       4.629  -3.006  -2.583  0.00  0.00     0.035 H 
ATOM     15  H   LIG d   1       3.286  -2.453  -3.640  0.00  0.00     0.035 H 
ATOM     16  H   LIG d   1       3.844  -0.828  -1.015  0.00  0.00     0.167 HD
ENDROOT
BRANCH   9  17
ATOM     17  C   LIG d   1       4.774  -3.947  -5.247  0.00  0.00     0.245 A 
ATOM     18  O   LIG d   1       3.651  -4.174  -5.936  0.00  0.00    -0.336 OA
ATOM     19  N   LIG d   1       3.602  -5.336  -6.280  0.00  0.00    -0.056 NA
ATOM     20  C   LIG d   1       4.665  -5.973  -5.860  0.00  0.00     0.202 A 
ATOM     21  N   LIG d   1       5.428  -5.080  -5.191  0.00  0.00    -0.190 NA
BRANCH  20  22
ATOM     22  C   LIG d   1       4.974  -7.407  -6.079  0.00  0.00     0.023 A 
ATOM     23  C   LIG d   1       5.764  -8.099  -5.162  0.00  0.00    -0.048 A 
ATOM     24  C   LIG d   1       6.049  -9.433  -5.369  0.00  0.00    -0.019 A 
ATOM     25  H   LIG d   1       6.151  -7.592  -4.292  0.00  0.00     0.063 H 
ATOM     26  C   LIG d   1       5.551 -10.086  -6.487  0.00  0.00     0.130 A 
ATOM     27  H   LIG d   1       6.662  -9.969  -4.659  0.00  0.00     0.065 H 
ATOM     28  C   LIG d   1       4.763  -9.399  -7.402  0.00  0.00    -0.019 A 
ATOM     29  C   LIG d   1       4.471  -8.067  -7.199  0.00  0.00    -0.048 A 
ATOM     30  H   LIG d   1       4.377  -9.910  -8.273  0.00  0.00     0.065 H 
ATOM     31  H   LIG d   1       3.854  -7.535  -7.908  0.00  0.00     0.063 H 
BRANCH  26  32
ATOM     32  O   LIG d   1       5.834 -11.399  -6.688  0.00  0.00    -0.406 OA
BRANCH  32  33
ATOM     33  C   LIG d   1       5.229 -12.337  -5.796  0.00  0.00     0.575 C 
ATOM     34  F   LIG d   1       5.981 -12.414  -4.619  0.00  0.00    -0.133 F 
ATOM     35  F   LIG d   1       3.929 -11.919  -5.491  0.00  0.00    -0.133 F 
ATOM     36  F   LIG d   1       5.183 -13.596  -6.404  0.00  0.00    -0.133 F 
ENDBRANCH  32  33
ENDBRANCH  26  32
ENDBRANCH  20  22
ENDBRANCH   9  17
BRANCH   1  37
ATOM     37  C   LIG d   1       5.519  -1.980  -6.958  0.00  0.00     0.025 C 
ATOM     38  H   LIG d   1       5.169  -3.000  -7.174  0.00  0.00     0.048 H 
ATOM     39  H   LIG d   1       6.619  -1.962  -6.965  0.00  0.00     0.048 H 
BRANCH  37  40
ATOM     40  C   LIG d   1       4.995  -1.036  -8.011  0.00  0.00    -0.033 A 
ATOM     41  C   LIG d   1       3.635  -0.810  -8.120  0.00  0.00    -0.055 A 
ATOM     42  C   LIG d   1       3.155   0.058  -9.081  0.00  0.00    -0.026 A 
ATOM     43  H   LIG d   1       2.950  -1.310  -7.451  0.00  0.00     0.062 H 
ATOM     44  C   LIG d   1       4.034   0.695  -9.940  0.00  0.00     0.123 A 
ATOM     45  H   LIG d   1       2.093   0.239  -9.163  0.00  0.00     0.065 H 
ATOM     46  C   LIG d   1       5.394   0.464  -9.833  0.00  0.00    -0.026 A 
ATOM     47  F   LIG d   1       3.564   1.541 -10.884  0.00  0.00    -0.205 F 
ATOM     48  C   LIG d   1       5.874  -0.402  -8.869  0.00  0.00    -0.055 A 
ATOM     49  H   LIG d   1       6.081   0.959 -10.504  0.00  0.00     0.065 H 
ATOM     50  H   LIG d   1       6.935  -0.582  -8.785  0.00  0.00     0.062 H 
ENDBRANCH  37  40
ENDBRANCH   1  37
TORSDOF 6
ENDMDL
