MODEL 1
REMARK VINA RESULT:      -6.4      0.000      0.000
REMARK  5 active torsions:
REMARK  status: ('A' for Active; 'I' for Inactive)
REMARK    1  A    between atoms: C_1  and  C_2 
REMARK    2  A    between atoms: C_2  and  C_3 
REMARK    3  A    between atoms: C_8  and  O_9 
REMARK    4  A    between atoms: C_11  and  C_22 
REMARK    5  A    between atoms: C_12  and  C_15 
ROOT
ATOM      1  C   LIG d   1       3.009  -1.448 -10.354  0.00  0.00    -0.005 A 
ATOM      2  C   LIG d   1       3.091  -0.679  -9.228  0.00  0.00    -0.041 A 
ATOM      3  C   LIG d   1       3.596  -1.230  -8.049  0.00  0.00     0.065 A 
ATOM      4  C   LIG d   1       4.022  -2.569  -8.015  0.00  0.00     0.142 A 
ATOM      5  C   LIG d   1       3.933  -3.336  -9.170  0.00  0.00     0.023 A 
ATOM      6  C   LIG d   1       3.429  -2.776 -10.331  0.00  0.00     0.123 A 
ATOM      7  O   LIG d   1       4.511  -3.099  -6.876  0.00  0.00    -0.459 OA
ATOM      8  C   LIG d   1       4.622  -2.411  -5.737  0.00  0.00     0.114 A 
ATOM      9  C   LIG d   1       4.248  -1.110  -5.629  0.00  0.00     0.069 A 
ATOM     10  C   LIG d   1       3.700  -0.431  -6.815  0.00  0.00     0.201 A 
ATOM     11  O   LIG d   1       3.348   0.736  -6.777  0.00  0.00    -0.286 OA
ATOM     12  H   LIG d   1       2.765   0.350  -9.250  0.00  0.00     0.063 H 
ATOM     13  H   LIG d   1       4.256  -4.367  -9.160  0.00  0.00     0.069 H 
ENDROOT
BRANCH   9  14
ATOM     14  C   LIG d   1       4.389  -0.387  -4.341  0.00  0.00     0.007 A 
ATOM     15  C   LIG d   1       5.588   0.252  -4.024  0.00  0.00     0.049 A 
ATOM     16  C   LIG d   1       5.712   0.923  -2.824  0.00  0.00    -0.043 A 
ATOM     17 CL   LIG d   1       6.919   0.205  -5.137  0.00  0.00    -0.083 Cl
ATOM     18  C   LIG d   1       4.651   0.961  -1.937  0.00  0.00    -0.060 A 
ATOM     19  H   LIG d   1       6.639   1.419  -2.577  0.00  0.00     0.063 H 
ATOM     20  C   LIG d   1       3.461   0.328  -2.246  0.00  0.00    -0.061 A 
ATOM     21  H   LIG d   1       4.754   1.487  -0.999  0.00  0.00     0.062 H 
ATOM     22  C   LIG d   1       3.323  -0.341  -3.444  0.00  0.00    -0.052 A 
ATOM     23  H   LIG d   1       2.635   0.362  -1.550  0.00  0.00     0.062 H 
ATOM     24  H   LIG d   1       2.391  -0.831  -3.687  0.00  0.00     0.062 H 
ENDBRANCH   9  14
BRANCH   8  25
ATOM     25  C   LIG d   1       5.189  -3.105  -4.525  0.00  0.00    -0.006 C 
ATOM     26  H   LIG d   1       5.185  -4.192  -4.688  0.00  0.00     0.031 H 
ATOM     27  H   LIG d   1       4.573  -2.865  -3.645  0.00  0.00     0.031 H 
ATOM     28  H   LIG d   1       6.219  -2.762  -4.355  0.00  0.00     0.031 H 
ENDBRANCH   8  25
BRANCH   1  29
ATOM     29  C   LIG d   1       2.463  -0.857 -11.628  0.00  0.00    -0.027 C 
ATOM     30  H   LIG d   1       2.957  -1.326 -12.491  0.00  0.00     0.031 H 
ATOM     31  H   LIG d   1       2.653   0.227 -11.640  0.00  0.00     0.031 H 
BRANCH  29  32
ATOM     32  C   LIG d   1       0.955  -1.111 -11.704  0.00  0.00    -0.061 C 
ATOM     33  H   LIG d   1       0.610  -1.556 -10.759  0.00  0.00     0.023 H 
ATOM     34  H   LIG d   1       0.742  -1.801 -12.533  0.00  0.00     0.023 H 
ATOM     35  H   LIG d   1       0.431  -0.159 -11.874  0.00  0.00     0.023 H 
ENDBRANCH  29  32
ENDBRANCH   1  29
BRANCH   6  36
ATOM     36  O   LIG d   1       3.342  -3.528 -11.457  0.00  0.00    -0.506 OA
ATOM     37  H   LIG d   1       2.379  -3.972 -11.751  0.00  0.00     0.292 HD
ENDBRANCH   6  36
TORSDOF 5
ENDMDL
MODEL 2
REMARK VINA RESULT:      -6.1      3.628      6.137
REMARK  5 active torsions:
REMARK  status: ('A' for Active; 'I' for Inactive)
REMARK    1  A    between atoms: C_1  and  C_2 
REMARK    2  A    between atoms: C_2  and  C_3 
REMARK    3  A    between atoms: C_8  and  O_9 
REMARK    4  A    between atoms: C_11  and  C_22 
REMARK    5  A    between atoms: C_12  and  C_15 
ROOT
ATOM      1  C   LIG d   1       7.831  -6.514  -5.316  0.00  0.00    -0.005 A 
ATOM      2  C   LIG d   1       6.680  -5.783  -5.406  0.00  0.00    -0.041 A 
ATOM      3  C   LIG d   1       6.668  -4.455  -4.976  0.00  0.00     0.065 A 
ATOM      4  C   LIG d   1       7.832  -3.866  -4.454  0.00  0.00     0.142 A 
ATOM      5  C   LIG d   1       8.995  -4.622  -4.372  0.00  0.00     0.023 A 
ATOM      6  C   LIG d   1       8.991  -5.939  -4.801  0.00  0.00     0.123 A 
ATOM      7  O   LIG d   1       7.819  -2.583  -4.040  0.00  0.00    -0.459 OA
ATOM      8  C   LIG d   1       6.735  -1.807  -4.097  0.00  0.00     0.114 A 
ATOM      9  C   LIG d   1       5.544  -2.247  -4.578  0.00  0.00     0.069 A 
ATOM     10  C   LIG d   1       5.445  -3.636  -5.058  0.00  0.00     0.201 A 
ATOM     11  O   LIG d   1       4.402  -4.087  -5.500  0.00  0.00    -0.286 OA
ATOM     12  H   LIG d   1       5.783  -6.232  -5.806  0.00  0.00     0.063 H 
ATOM     13  H   LIG d   1       9.898  -4.185  -3.972  0.00  0.00     0.069 H 
ENDROOT
BRANCH   9  14
ATOM     14  C   LIG d   1       4.365  -1.348  -4.620  0.00  0.00     0.007 A 
ATOM     15  C   LIG d   1       3.494  -1.284  -3.533  0.00  0.00     0.049 A 
ATOM     16  C   LIG d   1       2.399  -0.444  -3.577  0.00  0.00    -0.043 A 
ATOM     17 CL   LIG d   1       3.786  -2.258  -2.126  0.00  0.00    -0.083 Cl
ATOM     18  C   LIG d   1       2.166   0.333  -4.698  0.00  0.00    -0.060 A 
ATOM     19  H   LIG d   1       1.724  -0.393  -2.736  0.00  0.00     0.063 H 
ATOM     20  C   LIG d   1       3.026   0.273  -5.779  0.00  0.00    -0.061 A 
ATOM     21  H   LIG d   1       1.307   0.988  -4.729  0.00  0.00     0.062 H 
ATOM     22  C   LIG d   1       4.127  -0.558  -5.744  0.00  0.00    -0.052 A 
ATOM     23  H   LIG d   1       2.839   0.883  -6.652  0.00  0.00     0.062 H 
ATOM     24  H   LIG d   1       4.801  -0.601  -6.587  0.00  0.00     0.062 H 
ENDBRANCH   9  14
BRANCH   8  25
ATOM     25  C   LIG d   1       6.837  -0.383  -3.611  0.00  0.00    -0.006 C 
ATOM     26  H   LIG d   1       6.156  -0.236  -2.760  0.00  0.00     0.031 H 
ATOM     27  H   LIG d   1       6.558   0.302  -4.426  0.00  0.00     0.031 H 
ATOM     28  H   LIG d   1       7.870  -0.177  -3.296  0.00  0.00     0.031 H 
ENDBRANCH   8  25
BRANCH   1  29
ATOM     29  C   LIG d   1       7.847  -7.947  -5.778  0.00  0.00    -0.027 C 
ATOM     30  H   LIG d   1       8.879  -8.326  -5.764  0.00  0.00     0.031 H 
ATOM     31  H   LIG d   1       7.448  -8.008  -6.802  0.00  0.00     0.031 H 
BRANCH  29  32
ATOM     32  C   LIG d   1       6.981  -8.795  -4.843  0.00  0.00    -0.061 C 
ATOM     33  H   LIG d   1       5.973  -8.358  -4.779  0.00  0.00     0.023 H 
ATOM     34  H   LIG d   1       7.436  -8.816  -3.841  0.00  0.00     0.023 H 
ATOM     35  H   LIG d   1       6.911  -9.820  -5.236  0.00  0.00     0.023 H 
ENDBRANCH  29  32
ENDBRANCH   1  29
BRANCH   6  36
ATOM     36  O   LIG d   1      10.127  -6.676  -4.718  0.00  0.00    -0.506 OA
ATOM     37  H   LIG d   1      10.828  -6.703  -5.565  0.00  0.00     0.292 HD
ENDBRANCH   6  36
TORSDOF 5
ENDMDL
MODEL 3
REMARK VINA RESULT:      -6.0      2.215      6.626
REMARK  5 active torsions:
REMARK  status: ('A' for Active; 'I' for Inactive)
REMARK    1  A    between atoms: C_1  and  C_2 
REMARK    2  A    between atoms: C_2  and  C_3 
REMARK    3  A    between atoms: C_8  and  O_9 
REMARK    4  A    between atoms: C_11  and  C_22 
REMARK    5  A    between atoms: C_12  and  C_15 
ROOT
ATOM      1  C   LIG d   1       3.720  -0.317  -3.496  0.00  0.00    -0.005 A 
ATOM      2  C   LIG d   1       3.664   0.129  -4.786  0.00  0.00    -0.041 A 
ATOM      3  C   LIG d   1       3.995  -0.734  -5.831  0.00  0.00     0.065 A 
ATOM      4  C   LIG d   1       4.384  -2.058  -5.565  0.00  0.00     0.142 A 
ATOM      5  C   LIG d   1       4.434  -2.496  -4.247  0.00  0.00     0.023 A 
ATOM      6  C   LIG d   1       4.104  -1.627  -3.220  0.00  0.00     0.123 A 
ATOM      7  O   LIG d   1       4.702  -2.891  -6.576  0.00  0.00    -0.459 OA
ATOM      8  C   LIG d   1       4.670  -2.529  -7.860  0.00  0.00     0.114 A 
ATOM      9  C   LIG d   1       4.313  -1.281  -8.260  0.00  0.00     0.069 A 
ATOM     10  C   LIG d   1       3.946  -0.288  -7.235  0.00  0.00     0.201 A 
ATOM     11  O   LIG d   1       3.617   0.847  -7.535  0.00  0.00    -0.286 OA
ATOM     12  H   LIG d   1       3.366   1.145  -4.995  0.00  0.00     0.063 H 
ATOM     13  H   LIG d   1       4.731  -3.510  -4.025  0.00  0.00     0.069 H 
ENDROOT
BRANCH   9  14
ATOM     14  C   LIG d   1       4.295  -0.924  -9.699  0.00  0.00     0.007 A 
ATOM     15  C   LIG d   1       3.103  -0.982 -10.420  0.00  0.00     0.049 A 
ATOM     16  C   LIG d   1       3.093  -0.648 -11.760  0.00  0.00    -0.043 A 
ATOM     17 CL   LIG d   1       1.634  -1.470  -9.634  0.00  0.00    -0.083 Cl
ATOM     18  C   LIG d   1       4.262  -0.258 -12.387  0.00  0.00    -0.060 A 
ATOM     19  H   LIG d   1       2.170  -0.691 -12.319  0.00  0.00     0.063 H 
ATOM     20  C   LIG d   1       5.448  -0.200 -11.677  0.00  0.00    -0.061 A 
ATOM     21  H   LIG d   1       4.250   0.001 -13.435  0.00  0.00     0.062 H 
ATOM     22  C   LIG d   1       5.470  -0.526 -10.336  0.00  0.00    -0.052 A 
ATOM     23  H   LIG d   1       6.358   0.106 -12.172  0.00  0.00     0.062 H 
ATOM     24  H   LIG d   1       6.395  -0.476  -9.782  0.00  0.00     0.062 H 
ENDBRANCH   9  14
BRANCH   8  25
ATOM     25  C   LIG d   1       5.042  -3.546  -8.909  0.00  0.00    -0.006 C 
ATOM     26  H   LIG d   1       6.081  -3.870  -8.754  0.00  0.00     0.031 H 
ATOM     27  H   LIG d   1       4.944  -3.094  -9.907  0.00  0.00     0.031 H 
ATOM     28  H   LIG d   1       4.370  -4.413  -8.832  0.00  0.00     0.031 H 
ENDBRANCH   8  25
BRANCH   1  29
ATOM     29  C   LIG d   1       3.364   0.613  -2.365  0.00  0.00    -0.027 C 
ATOM     30  H   LIG d   1       2.741   0.079  -1.633  0.00  0.00     0.031 H 
ATOM     31  H   LIG d   1       2.808   1.476  -2.760  0.00  0.00     0.031 H 
BRANCH  29  32
ATOM     32  C   LIG d   1       4.645   1.102  -1.683  0.00  0.00    -0.061 C 
ATOM     33  H   LIG d   1       4.780   2.175  -1.883  0.00  0.00     0.023 H 
ATOM     34  H   LIG d   1       5.506   0.544  -2.079  0.00  0.00     0.023 H 
ATOM     35  H   LIG d   1       4.568   0.938  -0.598  0.00  0.00     0.023 H 
ENDBRANCH  29  32
ENDBRANCH   1  29
BRANCH   6  36
ATOM     36  O   LIG d   1       4.154  -2.057  -1.934  0.00  0.00    -0.506 OA
ATOM     37  H   LIG d   1       3.588  -2.950  -1.629  0.00  0.00     0.292 HD
ENDBRANCH   6  36
TORSDOF 5
ENDMDL
MODEL 4
REMARK VINA RESULT:      -5.9      4.115      7.004
REMARK  5 active torsions:
REMARK  status: ('A' for Active; 'I' for Inactive)
REMARK    1  A    between atoms: C_1  and  C_2 
REMARK    2  A    between atoms: C_2  and  C_3 
REMARK    3  A    between atoms: C_8  and  O_9 
REMARK    4  A    between atoms: C_11  and  C_22 
REMARK    5  A    between atoms: C_12  and  C_15 
ROOT
ATOM      1  C   LIG d   1       5.433   0.019  -2.945  0.00  0.00    -0.005 A 
ATOM      2  C   LIG d   1       5.009  -1.247  -3.237  0.00  0.00    -0.041 A 
ATOM      3  C   LIG d   1       5.644  -1.974  -4.244  0.00  0.00     0.065 A 
ATOM      4  C   LIG d   1       6.716  -1.413  -4.959  0.00  0.00     0.142 A 
ATOM      5  C   LIG d   1       7.136  -0.126  -4.649  0.00  0.00     0.023 A 
ATOM      6  C   LIG d   1       6.495   0.585  -3.647  0.00  0.00     0.123 A 
ATOM      7  O   LIG d   1       7.328  -2.118  -5.932  0.00  0.00    -0.459 OA
ATOM      8  C   LIG d   1       6.972  -3.358  -6.272  0.00  0.00     0.114 A 
ATOM      9  C   LIG d   1       5.953  -4.019  -5.665  0.00  0.00     0.069 A 
ATOM     10  C   LIG d   1       5.213  -3.342  -4.586  0.00  0.00     0.201 A 
ATOM     11  O   LIG d   1       4.290  -3.886  -4.005  0.00  0.00    -0.286 OA
ATOM     12  H   LIG d   1       4.186  -1.681  -2.690  0.00  0.00     0.063 H 
ATOM     13  H   LIG d   1       7.958   0.320  -5.189  0.00  0.00     0.069 H 
ENDROOT
BRANCH   9  14
ATOM     14  C   LIG d   1       5.592  -5.397  -6.080  0.00  0.00     0.007 A 
ATOM     15  C   LIG d   1       4.613  -5.602  -7.051  0.00  0.00     0.049 A 
ATOM     16  C   LIG d   1       4.282  -6.887  -7.433  0.00  0.00    -0.043 A 
ATOM     17 CL   LIG d   1       3.814  -4.245  -7.781  0.00  0.00    -0.083 Cl
ATOM     18  C   LIG d   1       4.919  -7.969  -6.853  0.00  0.00    -0.060 A 
ATOM     19  H   LIG d   1       3.525  -7.048  -8.187  0.00  0.00     0.063 H 
ATOM     20  C   LIG d   1       5.890  -7.772  -5.888  0.00  0.00    -0.061 A 
ATOM     21  H   LIG d   1       4.656  -8.973  -7.154  0.00  0.00     0.062 H 
ATOM     22  C   LIG d   1       6.233  -6.492  -5.502  0.00  0.00    -0.052 A 
ATOM     23  H   LIG d   1       6.385  -8.621  -5.439  0.00  0.00     0.062 H 
ATOM     24  H   LIG d   1       6.995  -6.339  -4.751  0.00  0.00     0.062 H 
ENDBRANCH   9  14
BRANCH   8  25
ATOM     25  C   LIG d   1       7.732  -4.054  -7.373  0.00  0.00    -0.006 C 
ATOM     26  H   LIG d   1       7.045  -4.695  -7.945  0.00  0.00     0.031 H 
ATOM     27  H   LIG d   1       8.529  -4.672  -6.933  0.00  0.00     0.031 H 
ATOM     28  H   LIG d   1       8.177  -3.303  -8.042  0.00  0.00     0.031 H 
ENDBRANCH   8  25
BRANCH   1  29
ATOM     29  C   LIG d   1       4.749   0.807  -1.858  0.00  0.00    -0.027 C 
ATOM     30  H   LIG d   1       5.421   1.603  -1.504  0.00  0.00     0.031 H 
ATOM     31  H   LIG d   1       4.499   0.139  -1.021  0.00  0.00     0.031 H 
BRANCH  29  32
ATOM     32  C   LIG d   1       3.466   1.434  -2.411  0.00  0.00    -0.061 C 
ATOM     33  H   LIG d   1       3.669   1.871  -3.400  0.00  0.00     0.023 H 
ATOM     34  H   LIG d   1       3.119   2.221  -1.726  0.00  0.00     0.023 H 
ATOM     35  H   LIG d   1       2.691   0.659  -2.505  0.00  0.00     0.023 H 
ENDBRANCH  29  32
ENDBRANCH   1  29
BRANCH   6  36
ATOM     36  O   LIG d   1       6.906   1.842  -3.346  0.00  0.00    -0.506 OA
ATOM     37  H   LIG d   1       6.543   2.337  -2.433  0.00  0.00     0.292 HD
ENDBRANCH   6  36
TORSDOF 5
ENDMDL
MODEL 5
REMARK VINA RESULT:      -5.8      2.403      2.624
REMARK  5 active torsions:
REMARK  status: ('A' for Active; 'I' for Inactive)
REMARK    1  A    between atoms: C_1  and  C_2 
REMARK    2  A    between atoms: C_2  and  C_3 
REMARK    3  A    between atoms: C_8  and  O_9 
REMARK    4  A    between atoms: C_11  and  C_22 
REMARK    5  A    between atoms: C_12  and  C_15 
ROOT
ATOM      1  C   LIG d   1       4.916  -0.023 -10.383  0.00  0.00    -0.005 A 
ATOM      2  C   LIG d   1       4.423   0.094  -9.114  0.00  0.00    -0.041 A 
ATOM      3  C   LIG d   1       5.220  -0.265  -8.027  0.00  0.00     0.065 A 
ATOM      4  C   LIG d   1       6.525  -0.745  -8.228  0.00  0.00     0.142 A 
ATOM      5  C   LIG d   1       7.012  -0.856  -9.525  0.00  0.00     0.023 A 
ATOM      6  C   LIG d   1       6.209  -0.497 -10.595  0.00  0.00     0.123 A 
ATOM      7  O   LIG d   1       7.294  -1.091  -7.177  0.00  0.00    -0.459 OA
ATOM      8  C   LIG d   1       6.882  -1.004  -5.910  0.00  0.00     0.114 A 
ATOM      9  C   LIG d   1       5.645  -0.557  -5.571  0.00  0.00     0.069 A 
ATOM     10  C   LIG d   1       4.721  -0.152  -6.644  0.00  0.00     0.201 A 
ATOM     11  O   LIG d   1       3.599   0.257  -6.400  0.00  0.00    -0.286 OA
ATOM     12  H   LIG d   1       3.421   0.463  -8.955  0.00  0.00     0.063 H 
ATOM     13  H   LIG d   1       8.012  -1.223  -9.698  0.00  0.00     0.069 H 
ENDROOT
BRANCH   9  14
ATOM     14  C   LIG d   1       5.233  -0.480  -4.148  0.00  0.00     0.007 A 
ATOM     15  C   LIG d   1       4.727  -1.608  -3.503  0.00  0.00     0.049 A 
ATOM     16  C   LIG d   1       4.346  -1.529  -2.178  0.00  0.00    -0.043 A 
ATOM     17 CL   LIG d   1       4.581  -3.109  -4.363  0.00  0.00    -0.083 Cl
ATOM     18  C   LIG d   1       4.463  -0.334  -1.493  0.00  0.00    -0.060 A 
ATOM     19  H   LIG d   1       3.955  -2.402  -1.677  0.00  0.00     0.063 H 
ATOM     20  C   LIG d   1       4.963   0.789  -2.128  0.00  0.00    -0.061 A 
ATOM     21  H   LIG d   1       4.162  -0.277  -0.457  0.00  0.00     0.062 H 
ATOM     22  C   LIG d   1       5.352   0.721  -3.449  0.00  0.00    -0.052 A 
ATOM     23  H   LIG d   1       5.053   1.719  -1.587  0.00  0.00     0.062 H 
ATOM     24  H   LIG d   1       5.747   1.597  -3.943  0.00  0.00     0.062 H 
ENDBRANCH   9  14
BRANCH   8  25
ATOM     25  C   LIG d   1       7.830  -1.413  -4.811  0.00  0.00    -0.006 C 
ATOM     26  H   LIG d   1       7.514  -2.382  -4.396  0.00  0.00     0.031 H 
ATOM     27  H   LIG d   1       7.818  -0.653  -4.015  0.00  0.00     0.031 H 
ATOM     28  H   LIG d   1       8.847  -1.502  -5.218  0.00  0.00     0.031 H 
ENDBRANCH   8  25
BRANCH   1  29
ATOM     29  C   LIG d   1       4.058   0.364 -11.560  0.00  0.00    -0.027 C 
ATOM     30  H   LIG d   1       4.696   0.527 -12.441  0.00  0.00     0.031 H 
ATOM     31  H   LIG d   1       3.511   1.289 -11.327  0.00  0.00     0.031 H 
BRANCH  29  32
ATOM     32  C   LIG d   1       3.059  -0.759 -11.854  0.00  0.00    -0.061 C 
ATOM     33  H   LIG d   1       2.863  -0.800 -12.936  0.00  0.00     0.023 H 
ATOM     34  H   LIG d   1       2.119  -0.562 -11.318  0.00  0.00     0.023 H 
ATOM     35  H   LIG d   1       3.479  -1.719 -11.521  0.00  0.00     0.023 H 
ENDBRANCH  29  32
ENDBRANCH   1  29
BRANCH   6  36
ATOM     36  O   LIG d   1       6.686  -0.607 -11.860  0.00  0.00    -0.506 OA
ATOM     37  H   LIG d   1       6.494   0.191 -12.593  0.00  0.00     0.292 HD
ENDBRANCH   6  36
TORSDOF 5
ENDMDL
MODEL 6
REMARK VINA RESULT:      -5.7      4.096      6.672
REMARK  5 active torsions:
REMARK  status: ('A' for Active; 'I' for Inactive)
REMARK    1  A    between atoms: C_1  and  C_2 
REMARK    2  A    between atoms: C_2  and  C_3 
REMARK    3  A    between atoms: C_8  and  O_9 
REMARK    4  A    between atoms: C_11  and  C_22 
REMARK    5  A    between atoms: C_12  and  C_15 
ROOT
ATOM      1  C   LIG d   1       9.798   3.640  -5.367  0.00  0.00    -0.005 A 
ATOM      2  C   LIG d   1       8.850   3.074  -4.562  0.00  0.00    -0.041 A 
ATOM      3  C   LIG d   1       8.077   2.016  -5.042  0.00  0.00     0.065 A 
ATOM      4  C   LIG d   1       8.269   1.528  -6.345  0.00  0.00     0.142 A 
ATOM      5  C   LIG d   1       9.238   2.113  -7.150  0.00  0.00     0.023 A 
ATOM      6  C   LIG d   1       9.997   3.163  -6.661  0.00  0.00     0.123 A 
ATOM      7  O   LIG d   1       7.522   0.505  -6.806  0.00  0.00    -0.459 OA
ATOM      8  C   LIG d   1       6.578  -0.098  -6.080  0.00  0.00     0.114 A 
ATOM      9  C   LIG d   1       6.288   0.272  -4.806  0.00  0.00     0.069 A 
ATOM     10  C   LIG d   1       7.045   1.381  -4.202  0.00  0.00     0.201 A 
ATOM     11  O   LIG d   1       6.828   1.757  -3.062  0.00  0.00    -0.286 OA
ATOM     12  H   LIG d   1       8.699   3.446  -3.560  0.00  0.00     0.063 H 
ATOM     13  H   LIG d   1       9.399   1.750  -8.155  0.00  0.00     0.069 H 
ENDROOT
BRANCH   9  14
ATOM     14  C   LIG d   1       5.229  -0.428  -4.038  0.00  0.00     0.007 A 
ATOM     15  C   LIG d   1       5.544  -1.549  -3.271  0.00  0.00     0.049 A 
ATOM     16  C   LIG d   1       4.553  -2.195  -2.559  0.00  0.00    -0.043 A 
ATOM     17 CL   LIG d   1       7.178  -2.129  -3.211  0.00  0.00    -0.083 Cl
ATOM     18  C   LIG d   1       3.250  -1.732  -2.606  0.00  0.00    -0.060 A 
ATOM     19  H   LIG d   1       4.795  -3.062  -1.963  0.00  0.00     0.063 H 
ATOM     20  C   LIG d   1       2.932  -0.621  -3.365  0.00  0.00    -0.061 A 
ATOM     21  H   LIG d   1       2.478  -2.241  -2.047  0.00  0.00     0.062 H 
ATOM     22  C   LIG d   1       3.914   0.036  -4.078  0.00  0.00    -0.052 A 
ATOM     23  H   LIG d   1       1.913  -0.263  -3.398  0.00  0.00     0.062 H 
ATOM     24  H   LIG d   1       3.665   0.907  -4.667  0.00  0.00     0.062 H 
ENDBRANCH   9  14
BRANCH   8  25
ATOM     25  C   LIG d   1       5.807  -1.237  -6.696  0.00  0.00    -0.006 C 
ATOM     26  H   LIG d   1       4.730  -1.020  -6.648  0.00  0.00     0.031 H 
ATOM     27  H   LIG d   1       6.018  -2.164  -6.143  0.00  0.00     0.031 H 
ATOM     28  H   LIG d   1       6.111  -1.360  -7.746  0.00  0.00     0.031 H 
ENDBRANCH   8  25
BRANCH   1  29
ATOM     29  C   LIG d   1      10.633   4.783  -4.853  0.00  0.00    -0.027 C 
ATOM     30  H   LIG d   1      11.383   5.058  -5.609  0.00  0.00     0.031 H 
ATOM     31  H   LIG d   1      11.142   4.478  -3.926  0.00  0.00     0.031 H 
BRANCH  29  32
ATOM     32  C   LIG d   1       9.732   5.987  -4.567  0.00  0.00    -0.061 C 
ATOM     33  H   LIG d   1      10.341   6.902  -4.534  0.00  0.00     0.023 H 
ATOM     34  H   LIG d   1       9.229   5.845  -3.599  0.00  0.00     0.023 H 
ATOM     35  H   LIG d   1       8.978   6.077  -5.363  0.00  0.00     0.023 H 
ENDBRANCH  29  32
ENDBRANCH   1  29
BRANCH   6  36
ATOM     36  O   LIG d   1      10.943   3.734  -7.449  0.00  0.00    -0.506 OA
ATOM     37  H   LIG d   1      11.505   4.608  -7.090  0.00  0.00     0.292 HD
ENDBRANCH   6  36
TORSDOF 5
ENDMDL
MODEL 7
REMARK VINA RESULT:      -5.6      4.636      6.542
REMARK  5 active torsions:
REMARK  status: ('A' for Active; 'I' for Inactive)
REMARK    1  A    between atoms: C_1  and  C_2 
REMARK    2  A    between atoms: C_2  and  C_3 
REMARK    3  A    between atoms: C_8  and  O_9 
REMARK    4  A    between atoms: C_11  and  C_22 
REMARK    5  A    between atoms: C_12  and  C_15 
ROOT
ATOM      1  C   LIG d   1       4.786  -1.236  -3.227  0.00  0.00    -0.005 A 
ATOM      2  C   LIG d   1       5.614  -0.149  -3.249  0.00  0.00    -0.041 A 
ATOM      3  C   LIG d   1       6.842  -0.228  -3.907  0.00  0.00     0.065 A 
ATOM      4  C   LIG d   1       7.231  -1.417  -4.548  0.00  0.00     0.142 A 
ATOM      5  C   LIG d   1       6.376  -2.512  -4.518  0.00  0.00     0.023 A 
ATOM      6  C   LIG d   1       5.161  -2.419  -3.860  0.00  0.00     0.123 A 
ATOM      7  O   LIG d   1       8.417  -1.492  -5.184  0.00  0.00    -0.459 OA
ATOM      8  C   LIG d   1       9.278  -0.474  -5.248  0.00  0.00     0.114 A 
ATOM      9  C   LIG d   1       9.030   0.732  -4.674  0.00  0.00     0.069 A 
ATOM     10  C   LIG d   1       7.761   0.924  -3.951  0.00  0.00     0.201 A 
ATOM     11  O   LIG d   1       7.484   1.984  -3.416  0.00  0.00    -0.286 OA
ATOM     12  H   LIG d   1       5.319   0.766  -2.758  0.00  0.00     0.063 H 
ATOM     13  H   LIG d   1       6.659  -3.433  -5.005  0.00  0.00     0.069 H 
ENDROOT
BRANCH   9  14
ATOM     14  C   LIG d   1      10.019   1.833  -4.771  0.00  0.00     0.007 A 
ATOM     15  C   LIG d   1       9.988   2.709  -5.856  0.00  0.00     0.049 A 
ATOM     16  C   LIG d   1      10.911   3.732  -5.940  0.00  0.00    -0.043 A 
ATOM     17 CL   LIG d   1       8.790   2.513  -7.097  0.00  0.00    -0.083 Cl
ATOM     18  C   LIG d   1      11.865   3.889  -4.951  0.00  0.00    -0.060 A 
ATOM     19  H   LIG d   1      10.888   4.412  -6.779  0.00  0.00     0.063 H 
ATOM     20  C   LIG d   1      11.901   3.023  -3.873  0.00  0.00    -0.061 A 
ATOM     21  H   LIG d   1      12.586   4.691  -5.021  0.00  0.00     0.062 H 
ATOM     22  C   LIG d   1      10.981   2.000  -3.775  0.00  0.00    -0.052 A 
ATOM     23  H   LIG d   1      12.648   3.151  -3.103  0.00  0.00     0.062 H 
ATOM     24  H   LIG d   1      11.006   1.327  -2.930  0.00  0.00     0.062 H 
ENDBRANCH   9  14
BRANCH   8  25
ATOM     25  C   LIG d   1      10.575  -0.668  -5.992  0.00  0.00    -0.006 C 
ATOM     26  H   LIG d   1      11.033  -1.620  -5.689  0.00  0.00     0.031 H 
ATOM     27  H   LIG d   1      11.260   0.160  -5.755  0.00  0.00     0.031 H 
ATOM     28  H   LIG d   1      10.378  -0.683  -7.074  0.00  0.00     0.031 H 
ENDBRANCH   8  25
BRANCH   1  29
ATOM     29  C   LIG d   1       3.460  -1.153  -2.517  0.00  0.00    -0.027 C 
ATOM     30  H   LIG d   1       3.577  -0.578  -1.587  0.00  0.00     0.031 H 
ATOM     31  H   LIG d   1       3.107  -2.168  -2.278  0.00  0.00     0.031 H 
BRANCH  29  32
ATOM     32  C   LIG d   1       2.438  -0.458  -3.422  0.00  0.00    -0.061 C 
ATOM     33  H   LIG d   1       1.960   0.364  -2.870  0.00  0.00     0.023 H 
ATOM     34  H   LIG d   1       1.673  -1.184  -3.735  0.00  0.00     0.023 H 
ATOM     35  H   LIG d   1       2.949  -0.056  -4.309  0.00  0.00     0.023 H 
ENDBRANCH  29  32
ENDBRANCH   1  29
BRANCH   6  36
ATOM     36  O   LIG d   1       4.328  -3.490  -3.831  0.00  0.00    -0.506 OA
ATOM     37  H   LIG d   1       4.742  -4.508  -3.779  0.00  0.00     0.292 HD
ENDBRANCH   6  36
TORSDOF 5
ENDMDL
MODEL 8
REMARK VINA RESULT:      -5.5      4.544      7.185
REMARK  5 active torsions:
REMARK  status: ('A' for Active; 'I' for Inactive)
REMARK    1  A    between atoms: C_1  and  C_2 
REMARK    2  A    between atoms: C_2  and  C_3 
REMARK    3  A    between atoms: C_8  and  O_9 
REMARK    4  A    between atoms: C_11  and  C_22 
REMARK    5  A    between atoms: C_12  and  C_15 
ROOT
ATOM      1  C   LIG d   1      10.253   3.444  -4.702  0.00  0.00    -0.005 A 
ATOM      2  C   LIG d   1       9.028   3.053  -4.237  0.00  0.00    -0.041 A 
ATOM      3  C   LIG d   1       8.628   1.723  -4.377  0.00  0.00     0.065 A 
ATOM      4  C   LIG d   1       9.475   0.785  -4.990  0.00  0.00     0.142 A 
ATOM      5  C   LIG d   1      10.717   1.199  -5.455  0.00  0.00     0.023 A 
ATOM      6  C   LIG d   1      11.101   2.522  -5.311  0.00  0.00     0.123 A 
ATOM      7  O   LIG d   1       9.087  -0.499  -5.123  0.00  0.00    -0.459 OA
ATOM      8  C   LIG d   1       7.908  -0.955  -4.695  0.00  0.00     0.114 A 
ATOM      9  C   LIG d   1       6.993  -0.158  -4.085  0.00  0.00     0.069 A 
ATOM     10  C   LIG d   1       7.314   1.266  -3.888  0.00  0.00     0.201 A 
ATOM     11  O   LIG d   1       6.532   2.029  -3.347  0.00  0.00    -0.286 OA
ATOM     12  H   LIG d   1       8.374   3.770  -3.766  0.00  0.00     0.063 H 
ATOM     13  H   LIG d   1      11.381   0.491  -5.929  0.00  0.00     0.069 H 
ENDROOT
BRANCH   9  14
ATOM     14  C   LIG d   1       5.694  -0.710  -3.627  0.00  0.00     0.007 A 
ATOM     15  C   LIG d   1       4.622  -0.807  -4.514  0.00  0.00     0.049 A 
ATOM     16  C   LIG d   1       3.417  -1.323  -4.081  0.00  0.00    -0.043 A 
ATOM     17 CL   LIG d   1       4.804  -0.282  -6.158  0.00  0.00    -0.083 Cl
ATOM     18  C   LIG d   1       3.272  -1.741  -2.771  0.00  0.00    -0.060 A 
ATOM     19  H   LIG d   1       2.586  -1.399  -4.766  0.00  0.00     0.063 H 
ATOM     20  C   LIG d   1       4.331  -1.647  -1.887  0.00  0.00    -0.061 A 
ATOM     21  H   LIG d   1       2.326  -2.143  -2.437  0.00  0.00     0.062 H 
ATOM     22  C   LIG d   1       5.542  -1.138  -2.309  0.00  0.00    -0.052 A 
ATOM     23  H   LIG d   1       4.212  -1.976  -0.865  0.00  0.00     0.062 H 
ATOM     24  H   LIG d   1       6.371  -1.069  -1.619  0.00  0.00     0.062 H 
ENDBRANCH   9  14
BRANCH   8  25
ATOM     25  C   LIG d   1       7.580  -2.413  -4.891  0.00  0.00    -0.006 C 
ATOM     26  H   LIG d   1       6.711  -2.508  -5.559  0.00  0.00     0.031 H 
ATOM     27  H   LIG d   1       7.346  -2.870  -3.918  0.00  0.00     0.031 H 
ATOM     28  H   LIG d   1       8.444  -2.926  -5.338  0.00  0.00     0.031 H 
ENDBRANCH   8  25
BRANCH   1  29
ATOM     29  C   LIG d   1      10.688   4.878  -4.553  0.00  0.00    -0.027 C 
ATOM     30  H   LIG d   1      10.149   5.502  -5.281  0.00  0.00     0.031 H 
ATOM     31  H   LIG d   1      11.770   4.955  -4.736  0.00  0.00     0.031 H 
BRANCH  29  32
ATOM     32  C   LIG d   1      10.374   5.363  -3.135  0.00  0.00    -0.061 C 
ATOM     33  H   LIG d   1      10.552   6.447  -3.071  0.00  0.00     0.023 H 
ATOM     34  H   LIG d   1      11.025   4.841  -2.418  0.00  0.00     0.023 H 
ATOM     35  H   LIG d   1       9.321   5.149  -2.900  0.00  0.00     0.023 H 
ENDBRANCH  29  32
ENDBRANCH   1  29
BRANCH   6  36
ATOM     36  O   LIG d   1      12.314   2.923  -5.767  0.00  0.00    -0.506 OA
ATOM     37  H   LIG d   1      13.153   3.047  -5.065  0.00  0.00     0.292 HD
ENDBRANCH   6  36
TORSDOF 5
ENDMDL
MODEL 9
REMARK VINA RESULT:      -5.4      4.586      7.699
REMARK  5 active torsions:
REMARK  status: ('A' for Active; 'I' for Inactive)
REMARK    1  A    between atoms: C_1  and  C_2 
REMARK    2  A    between atoms: C_2  and  C_3 
REMARK    3  A    between atoms: C_8  and  O_9 
REMARK    4  A    between atoms: C_11  and  C_22 
REMARK    5  A    between atoms: C_12  and  C_15 
ROOT
ATOM      1  C   LIG d   1       5.355  -2.061  -3.438  0.00  0.00    -0.005 A 
ATOM      2  C   LIG d   1       4.759  -3.129  -4.046  0.00  0.00    -0.041 A 
ATOM      3  C   LIG d   1       5.506  -3.948  -4.895  0.00  0.00     0.065 A 
ATOM      4  C   LIG d   1       6.866  -3.681  -5.126  0.00  0.00     0.142 A 
ATOM      5  C   LIG d   1       7.457  -2.591  -4.498  0.00  0.00     0.023 A 
ATOM      6  C   LIG d   1       6.703  -1.787  -3.660  0.00  0.00     0.123 A 
ATOM      7  O   LIG d   1       7.586  -4.473  -5.945  0.00  0.00    -0.459 OA
ATOM      8  C   LIG d   1       7.074  -5.534  -6.573  0.00  0.00     0.114 A 
ATOM      9  C   LIG d   1       5.774  -5.906  -6.440  0.00  0.00     0.069 A 
ATOM     10  C   LIG d   1       4.896  -5.109  -5.568  0.00  0.00     0.201 A 
ATOM     11  O   LIG d   1       3.721  -5.396  -5.410  0.00  0.00    -0.286 OA
ATOM     12  H   LIG d   1       3.714  -3.338  -3.871  0.00  0.00     0.063 H 
ATOM     13  H   LIG d   1       8.501  -2.372  -4.666  0.00  0.00     0.069 H 
ENDROOT
BRANCH   9  14
ATOM     14  C   LIG d   1       5.250  -7.093  -7.160  0.00  0.00     0.007 A 
ATOM     15  C   LIG d   1       5.221  -8.337  -6.532  0.00  0.00     0.049 A 
ATOM     16  C   LIG d   1       4.732  -9.437  -7.208  0.00  0.00    -0.043 A 
ATOM     17 CL   LIG d   1       5.797  -8.502  -4.903  0.00  0.00    -0.083 Cl
ATOM     18  C   LIG d   1       4.272  -9.306  -8.506  0.00  0.00    -0.060 A 
ATOM     19  H   LIG d   1       4.707 -10.402  -6.723  0.00  0.00     0.063 H 
ATOM     20  C   LIG d   1       4.299  -8.074  -9.134  0.00  0.00    -0.061 A 
ATOM     21  H   LIG d   1       3.891 -10.170  -9.031  0.00  0.00     0.062 H 
ATOM     22  C   LIG d   1       4.781  -6.967  -8.467  0.00  0.00    -0.052 A 
ATOM     23  H   LIG d   1       3.938  -7.977 -10.148  0.00  0.00     0.062 H 
ATOM     24  H   LIG d   1       4.798  -6.004  -8.957  0.00  0.00     0.062 H 
ENDBRANCH   9  14
BRANCH   8  25
ATOM     25  C   LIG d   1       7.974  -6.353  -7.462  0.00  0.00    -0.006 C 
ATOM     26  H   LIG d   1       9.024  -6.091  -7.264  0.00  0.00     0.031 H 
ATOM     27  H   LIG d   1       7.737  -6.143  -8.516  0.00  0.00     0.031 H 
ATOM     28  H   LIG d   1       7.817  -7.422  -7.258  0.00  0.00     0.031 H 
ENDBRANCH   8  25
BRANCH   1  29
ATOM     29  C   LIG d   1       4.552  -1.175  -2.522  0.00  0.00    -0.027 C 
ATOM     30  H   LIG d   1       4.970  -0.157  -2.536  0.00  0.00     0.031 H 
ATOM     31  H   LIG d   1       4.591  -1.573  -1.498  0.00  0.00     0.031 H 
BRANCH  29  32
ATOM     32  C   LIG d   1       3.097  -1.134  -2.998  0.00  0.00    -0.061 C 
ATOM     33  H   LIG d   1       3.072  -1.017  -4.091  0.00  0.00     0.023 H 
ATOM     34  H   LIG d   1       2.582  -0.285  -2.526  0.00  0.00     0.023 H 
ATOM     35  H   LIG d   1       2.594  -2.071  -2.718  0.00  0.00     0.023 H 
ENDBRANCH  29  32
ENDBRANCH   1  29
BRANCH   6  36
ATOM     36  O   LIG d   1       7.283  -0.723  -3.049  0.00  0.00    -0.506 OA
ATOM     37  H   LIG d   1       6.660   0.020  -2.529  0.00  0.00     0.292 HD
ENDBRANCH   6  36
TORSDOF 5
ENDMDL
