MODEL 1
REMARK VINA RESULT:      -6.5      0.000      0.000
REMARK  2 active torsions:
REMARK  status: ('A' for Active; 'I' for Inactive)
REMARK    1  A    between atoms: C_3  and  C_6 
REMARK       I    between atoms: C_6  and  N_8 
REMARK    2  A    between atoms: C_17  and  C_24 
ROOT
ATOM      1  C   LIG d   1       4.029  -4.851  -7.322  0.00  0.00     0.253 C 
ATOM      2  O   LIG d   1       3.361  -4.898  -6.306  0.00  0.00    -0.269 OA
ATOM      3  N   LIG d   1       5.291  -4.382  -7.278  0.00  0.00    -0.296 N 
ATOM      4  C   LIG d   1       6.138  -4.393  -8.476  0.00  0.00     0.019 C 
ATOM      5  C   LIG d   1       6.759  -3.020  -8.696  0.00  0.00    -0.006 C 
ATOM      6  H   LIG d   1       7.530  -3.115  -9.461  0.00  0.00     0.033 H 
ATOM      7  C   LIG d   1       7.419  -2.504  -7.417  0.00  0.00    -0.037 C 
ATOM      8  C   LIG d   1       6.352  -2.421  -6.322  0.00  0.00     0.016 C 
ATOM      9  H   LIG d   1       6.770  -1.965  -5.425  0.00  0.00     0.038 H 
ATOM     10  C   LIG d   1       5.845  -3.839  -6.007  0.00  0.00     0.023 C 
ATOM     11  C   LIG d   1       5.177  -1.613  -6.817  0.00  0.00     0.030 A 
ATOM     12  C   LIG d   1       4.429  -0.960  -5.887  0.00  0.00    -0.024 A 
ATOM     13  C   LIG d   1       3.270  -0.271  -6.263  0.00  0.00    -0.051 A 
ATOM     14  C   LIG d   1       2.887  -0.289  -7.572  0.00  0.00     0.003 A 
ATOM     15  C   LIG d   1       3.683  -0.967  -8.506  0.00  0.00     0.252 A 
ATOM     16  O   LIG d   1       3.324  -1.033  -9.671  0.00  0.00    -0.268 OA
ATOM     17  N   LIG d   1       4.846  -1.551  -8.128  0.00  0.00    -0.311 N 
ATOM     18  C   LIG d   1       5.721  -2.039  -9.195  0.00  0.00     0.031 C 
ATOM     19  H   LIG d   1       5.534  -4.661  -9.343  0.00  0.00     0.047 H 
ATOM     20  H   LIG d   1       6.931  -5.131  -8.351  0.00  0.00     0.047 H 
ATOM     21  H   LIG d   1       7.840  -1.515  -7.595  0.00  0.00     0.028 H 
ATOM     22  H   LIG d   1       8.208  -3.190  -7.110  0.00  0.00     0.028 H 
ATOM     23  H   LIG d   1       6.674  -4.463  -5.673  0.00  0.00     0.047 H 
ATOM     24  H   LIG d   1       5.078  -3.795  -5.234  0.00  0.00     0.047 H 
ATOM     25  H   LIG d   1       2.686   0.262  -5.527  0.00  0.00     0.062 H 
ATOM     26  H   LIG d   1       1.985   0.217  -7.884  0.00  0.00     0.067 H 
ATOM     27  H   LIG d   1       5.109  -2.508  -9.965  0.00  0.00     0.050 H 
ATOM     28  H   LIG d   1       6.250  -1.193  -9.633  0.00  0.00     0.050 H 
ENDROOT
BRANCH  12  29
ATOM     29  C   LIG d   1       4.856  -0.973  -4.442  0.00  0.00    -0.014 C 
ATOM     30  C   LIG d   1       5.036   0.464  -3.950  0.00  0.00    -0.046 C 
ATOM     31  C   LIG d   1       5.469   0.451  -2.483  0.00  0.00    -0.052 C 
ATOM     32  H   LIG d   1       5.799   0.961  -4.550  0.00  0.00     0.027 H 
ATOM     33  H   LIG d   1       4.092   1.001  -4.045  0.00  0.00     0.027 H 
ATOM     34  C   LIG d   1       4.399  -0.247  -1.641  0.00  0.00    -0.053 C 
ATOM     35  H   LIG d   1       6.413  -0.087  -2.387  0.00  0.00     0.026 H 
ATOM     36  H   LIG d   1       5.597   1.475  -2.133  0.00  0.00     0.026 H 
ATOM     37  C   LIG d   1       4.218  -1.684  -2.133  0.00  0.00    -0.052 C 
ATOM     38  H   LIG d   1       4.708  -0.256  -0.596  0.00  0.00     0.026 H 
ATOM     39  H   LIG d   1       3.455   0.291  -1.737  0.00  0.00     0.026 H 
ATOM     40  C   LIG d   1       3.785  -1.669  -3.601  0.00  0.00    -0.046 C 
ATOM     41  H   LIG d   1       5.162  -2.221  -2.038  0.00  0.00     0.026 H 
ATOM     42  H   LIG d   1       3.455  -2.180  -1.534  0.00  0.00     0.026 H 
ATOM     43  H   LIG d   1       2.842  -1.133  -3.695  0.00  0.00     0.027 H 
ATOM     44  H   LIG d   1       3.656  -2.694  -3.951  0.00  0.00     0.027 H 
ATOM     45  H   LIG d   1       5.800  -1.510  -4.347  0.00  0.00     0.035 H 
ENDBRANCH  12  29
BRANCH   1  46
ATOM     46  C   LIG d   1       3.462  -5.307  -8.595  0.00  0.00     0.074 A 
ATOM     47  C   LIG d   1       2.836  -4.568  -9.587  0.00  0.00    -0.043 A 
ATOM     48  C   LIG d   1       2.392  -5.252 -10.691  0.00  0.00    -0.054 A 
ATOM     49  H   LIG d   1       2.702  -3.499  -9.495  0.00  0.00     0.063 H 
ATOM     50  C   LIG d   1       2.584  -6.595 -10.759  0.00  0.00    -0.024 A 
ATOM     51  H   LIG d   1       1.898  -4.729 -11.496  0.00  0.00     0.062 H 
ATOM     52  S   LIG d   1       3.403  -6.955  -9.274  0.00  0.00    -0.092 SA
ATOM     53  H   LIG d   1       2.298  -7.274 -11.550  0.00  0.00     0.069 H 
ENDBRANCH   1  46
TORSDOF 2
ENDMDL
MODEL 2
REMARK VINA RESULT:      -6.4      3.182      5.608
REMARK  2 active torsions:
REMARK  status: ('A' for Active; 'I' for Inactive)
REMARK    1  A    between atoms: C_3  and  C_6 
REMARK       I    between atoms: C_6  and  N_8 
REMARK    2  A    between atoms: C_17  and  C_24 
ROOT
ATOM      1  C   LIG d   1       5.891  -0.521  -6.713  0.00  0.00     0.253 C 
ATOM      2  O   LIG d   1       6.978  -0.644  -7.248  0.00  0.00    -0.269 OA
ATOM      3  N   LIG d   1       5.808  -0.401  -5.374  0.00  0.00    -0.296 N 
ATOM      4  C   LIG d   1       4.515  -0.171  -4.720  0.00  0.00     0.019 C 
ATOM      5  C   LIG d   1       4.314  -1.165  -3.585  0.00  0.00    -0.006 C 
ATOM      6  H   LIG d   1       3.453  -0.842  -2.999  0.00  0.00     0.033 H 
ATOM      7  C   LIG d   1       5.532  -1.198  -2.661  0.00  0.00    -0.037 C 
ATOM      8  C   LIG d   1       6.756  -1.597  -3.489  0.00  0.00     0.016 C 
ATOM      9  H   LIG d   1       7.623  -1.724  -2.840  0.00  0.00     0.038 H 
ATOM     10  C   LIG d   1       7.034  -0.503  -4.534  0.00  0.00     0.023 C 
ATOM     11  C   LIG d   1       6.471  -2.881  -4.232  0.00  0.00     0.030 A 
ATOM     12  C   LIG d   1       7.531  -3.676  -4.540  0.00  0.00    -0.024 A 
ATOM     13  C   LIG d   1       7.354  -4.830  -5.310  0.00  0.00    -0.051 A 
ATOM     14  C   LIG d   1       6.106  -5.131  -5.771  0.00  0.00     0.003 A 
ATOM     15  C   LIG d   1       5.034  -4.293  -5.432  0.00  0.00     0.252 A 
ATOM     16  O   LIG d   1       3.922  -4.524  -5.880  0.00  0.00    -0.268 OA
ATOM     17  N   LIG d   1       5.220  -3.231  -4.611  0.00  0.00    -0.311 N 
ATOM     18  C   LIG d   1       4.020  -2.545  -4.130  0.00  0.00     0.031 C 
ATOM     19  H   LIG d   1       3.714  -0.290  -5.451  0.00  0.00     0.047 H 
ATOM     20  H   LIG d   1       4.487   0.843  -4.320  0.00  0.00     0.047 H 
ATOM     21  H   LIG d   1       5.371  -1.928  -1.868  0.00  0.00     0.028 H 
ATOM     22  H   LIG d   1       5.689  -0.211  -2.227  0.00  0.00     0.028 H 
ATOM     23  H   LIG d   1       7.216   0.449  -4.035  0.00  0.00     0.047 H 
ATOM     24  H   LIG d   1       7.898  -0.778  -5.138  0.00  0.00     0.047 H 
ATOM     25  H   LIG d   1       8.193  -5.471  -5.540  0.00  0.00     0.062 H 
ATOM     26  H   LIG d   1       5.946  -6.004  -6.386  0.00  0.00     0.067 H 
ATOM     27  H   LIG d   1       3.302  -2.475  -4.947  0.00  0.00     0.050 H 
ATOM     28  H   LIG d   1       3.578  -3.132  -3.324  0.00  0.00     0.050 H 
ENDROOT
BRANCH  12  29
ATOM     29  C   LIG d   1       8.907  -3.312  -4.042  0.00  0.00    -0.014 C 
ATOM     30  C   LIG d   1       9.532  -4.521  -3.345  0.00  0.00    -0.046 C 
ATOM     31  C   LIG d   1      10.929  -4.153  -2.839  0.00  0.00    -0.052 C 
ATOM     32  H   LIG d   1       8.907  -4.819  -2.502  0.00  0.00     0.027 H 
ATOM     33  H   LIG d   1       9.608  -5.349  -4.051  0.00  0.00     0.027 H 
ATOM     34  C   LIG d   1      11.805  -3.736  -4.021  0.00  0.00    -0.053 C 
ATOM     35  H   LIG d   1      10.853  -3.325  -2.133  0.00  0.00     0.026 H 
ATOM     36  H   LIG d   1      11.374  -5.014  -2.342  0.00  0.00     0.026 H 
ATOM     37  C   LIG d   1      11.180  -2.526  -4.719  0.00  0.00    -0.052 C 
ATOM     38  H   LIG d   1      12.799  -3.473  -3.661  0.00  0.00     0.026 H 
ATOM     39  H   LIG d   1      11.880  -4.563  -4.727  0.00  0.00     0.026 H 
ATOM     40  C   LIG d   1       9.783  -2.896  -5.224  0.00  0.00    -0.046 C 
ATOM     41  H   LIG d   1      11.104  -1.699  -4.013  0.00  0.00     0.026 H 
ATOM     42  H   LIG d   1      11.804  -2.230  -5.561  0.00  0.00     0.026 H 
ATOM     43  H   LIG d   1       9.859  -3.722  -5.930  0.00  0.00     0.027 H 
ATOM     44  H   LIG d   1       9.337  -2.034  -5.722  0.00  0.00     0.027 H 
ATOM     45  H   LIG d   1       8.830  -2.485  -3.336  0.00  0.00     0.035 H 
ENDBRANCH  12  29
BRANCH   1  46
ATOM     46  C   LIG d   1       4.672  -0.502  -7.527  0.00  0.00     0.074 A 
ATOM     47  C   LIG d   1       3.861  -1.559  -7.910  0.00  0.00    -0.043 A 
ATOM     48  C   LIG d   1       2.766  -1.261  -8.682  0.00  0.00    -0.054 A 
ATOM     49  H   LIG d   1       4.081  -2.575  -7.614  0.00  0.00     0.063 H 
ATOM     50  C   LIG d   1       2.532   0.032  -9.028  0.00  0.00    -0.024 A 
ATOM     51  H   LIG d   1       2.098  -2.043  -9.010  0.00  0.00     0.062 H 
ATOM     52  S   LIG d   1       3.841   0.886  -8.277  0.00  0.00    -0.092 SA
ATOM     53  H   LIG d   1       1.725   0.431  -9.624  0.00  0.00     0.069 H 
ENDBRANCH   1  46
TORSDOF 2
ENDMDL
MODEL 3
REMARK VINA RESULT:      -6.4      2.384      4.111
REMARK  2 active torsions:
REMARK  status: ('A' for Active; 'I' for Inactive)
REMARK    1  A    between atoms: C_3  and  C_6 
REMARK       I    between atoms: C_6  and  N_8 
REMARK    2  A    between atoms: C_17  and  C_24 
ROOT
ATOM      1  C   LIG d   1       6.878  -1.085  -8.629  0.00  0.00     0.253 C 
ATOM      2  O   LIG d   1       7.606  -0.641  -7.761  0.00  0.00    -0.269 OA
ATOM      3  N   LIG d   1       5.593  -0.686  -8.701  0.00  0.00    -0.296 N 
ATOM      4  C   LIG d   1       4.723  -1.149  -9.788  0.00  0.00     0.019 C 
ATOM      5  C   LIG d   1       3.419  -1.695  -9.224  0.00  0.00    -0.006 C 
ATOM      6  H   LIG d   1       2.724  -1.838 -10.052  0.00  0.00     0.033 H 
ATOM      7  C   LIG d   1       2.789  -0.707  -8.241  0.00  0.00    -0.037 C 
ATOM      8  C   LIG d   1       3.783  -0.459  -7.102  0.00  0.00     0.016 C 
ATOM      9  H   LIG d   1       3.326   0.166  -6.335  0.00  0.00     0.038 H 
ATOM     10  C   LIG d   1       5.034   0.232  -7.670  0.00  0.00     0.023 C 
ATOM     11  C   LIG d   1       4.216  -1.778  -6.509  0.00  0.00     0.030 A 
ATOM     12  C   LIG d   1       4.607  -1.781  -5.206  0.00  0.00    -0.024 A 
ATOM     13  C   LIG d   1       5.111  -2.946  -4.617  0.00  0.00    -0.051 A 
ATOM     14  C   LIG d   1       5.232  -4.071  -5.379  0.00  0.00     0.003 A 
ATOM     15  C   LIG d   1       4.817  -4.036  -6.718  0.00  0.00     0.252 A 
ATOM     16  O   LIG d   1       4.967  -5.021  -7.423  0.00  0.00    -0.268 OA
ATOM     17  N   LIG d   1       4.249  -2.919  -7.236  0.00  0.00    -0.311 N 
ATOM     18  C   LIG d   1       3.643  -3.037  -8.563  0.00  0.00     0.031 C 
ATOM     19  H   LIG d   1       5.231  -1.935 -10.348  0.00  0.00     0.047 H 
ATOM     20  H   LIG d   1       4.506  -0.316 -10.457  0.00  0.00     0.047 H 
ATOM     21  H   LIG d   1       1.868  -1.127  -7.839  0.00  0.00     0.028 H 
ATOM     22  H   LIG d   1       2.575   0.231  -8.751  0.00  0.00     0.028 H 
ATOM     23  H   LIG d   1       4.756   1.178  -8.135  0.00  0.00     0.047 H 
ATOM     24  H   LIG d   1       5.755   0.408  -6.873  0.00  0.00     0.047 H 
ATOM     25  H   LIG d   1       5.405  -2.953  -3.577  0.00  0.00     0.062 H 
ATOM     26  H   LIG d   1       5.639  -4.977  -4.955  0.00  0.00     0.067 H 
ATOM     27  H   LIG d   1       4.285  -3.655  -9.190  0.00  0.00     0.050 H 
ATOM     28  H   LIG d   1       2.673  -3.524  -8.465  0.00  0.00     0.050 H 
ENDROOT
BRANCH  12  29
ATOM     29  C   LIG d   1       4.488  -0.520  -4.388  0.00  0.00    -0.014 C 
ATOM     30  C   LIG d   1       3.404  -0.703  -3.325  0.00  0.00    -0.046 C 
ATOM     31  C   LIG d   1       3.283   0.576  -2.494  0.00  0.00    -0.052 C 
ATOM     32  H   LIG d   1       2.450  -0.912  -3.810  0.00  0.00     0.027 H 
ATOM     33  H   LIG d   1       3.670  -1.535  -2.673  0.00  0.00     0.027 H 
ATOM     34  C   LIG d   1       4.621   0.870  -1.813  0.00  0.00    -0.053 C 
ATOM     35  H   LIG d   1       3.017   1.409  -3.145  0.00  0.00     0.026 H 
ATOM     36  H   LIG d   1       2.511   0.446  -1.737  0.00  0.00     0.026 H 
ATOM     37  C   LIG d   1       5.706   1.052  -2.876  0.00  0.00    -0.052 C 
ATOM     38  H   LIG d   1       4.535   1.782  -1.222  0.00  0.00     0.026 H 
ATOM     39  H   LIG d   1       4.887   0.037  -1.162  0.00  0.00     0.026 H 
ATOM     40  C   LIG d   1       5.825  -0.227  -3.706  0.00  0.00    -0.046 C 
ATOM     41  H   LIG d   1       5.440   1.885  -3.528  0.00  0.00     0.026 H 
ATOM     42  H   LIG d   1       6.659   1.261  -2.391  0.00  0.00     0.026 H 
ATOM     43  H   LIG d   1       6.092  -1.059  -3.055  0.00  0.00     0.027 H 
ATOM     44  H   LIG d   1       6.599  -0.098  -4.464  0.00  0.00     0.027 H 
ATOM     45  H   LIG d   1       4.222   0.311  -5.039  0.00  0.00     0.035 H 
ENDBRANCH  12  29
BRANCH   1  46
ATOM     46  C   LIG d   1       7.399  -2.055  -9.598  0.00  0.00     0.074 A 
ATOM     47  C   LIG d   1       7.406  -3.439  -9.531  0.00  0.00    -0.043 A 
ATOM     48  C   LIG d   1       7.963  -4.114 -10.589  0.00  0.00    -0.054 A 
ATOM     49  H   LIG d   1       6.992  -3.965  -8.683  0.00  0.00     0.063 H 
ATOM     50  C   LIG d   1       8.470  -3.407 -11.632  0.00  0.00    -0.024 A 
ATOM     51  H   LIG d   1       7.996  -5.193 -10.593  0.00  0.00     0.062 H 
ATOM     52  S   LIG d   1       8.181  -1.760 -11.174  0.00  0.00    -0.092 SA
ATOM     53  H   LIG d   1       8.937  -3.781 -12.532  0.00  0.00     0.069 H 
ENDBRANCH   1  46
TORSDOF 2
ENDMDL
MODEL 4
REMARK VINA RESULT:      -6.1      2.700      6.433
REMARK  2 active torsions:
REMARK  status: ('A' for Active; 'I' for Inactive)
REMARK    1  A    between atoms: C_3  and  C_6 
REMARK       I    between atoms: C_6  and  N_8 
REMARK    2  A    between atoms: C_17  and  C_24 
ROOT
ATOM      1  C   LIG d   1       3.944  -0.316  -5.773  0.00  0.00     0.253 C 
ATOM      2  O   LIG d   1       2.841  -0.145  -6.258  0.00  0.00    -0.269 OA
ATOM      3  N   LIG d   1       5.043  -0.213  -6.546  0.00  0.00    -0.296 N 
ATOM      4  C   LIG d   1       6.384  -0.336  -5.962  0.00  0.00     0.019 C 
ATOM      5  C   LIG d   1       7.213  -1.339  -6.751  0.00  0.00    -0.006 C 
ATOM      6  H   LIG d   1       8.249  -1.256  -6.424  0.00  0.00     0.033 H 
ATOM      7  C   LIG d   1       7.162  -1.036  -8.249  0.00  0.00    -0.037 C 
ATOM      8  C   LIG d   1       5.703  -1.097  -8.706  0.00  0.00     0.016 C 
ATOM      9  H   LIG d   1       5.642  -0.981  -9.788  0.00  0.00     0.038 H 
ATOM     10  C   LIG d   1       4.912   0.024  -8.010  0.00  0.00     0.023 C 
ATOM     11  C   LIG d   1       5.094  -2.415  -8.290  0.00  0.00     0.030 A 
ATOM     12  C   LIG d   1       4.068  -2.897  -9.042  0.00  0.00    -0.024 A 
ATOM     13  C   LIG d   1       3.394  -4.062  -8.661  0.00  0.00    -0.051 A 
ATOM     14  C   LIG d   1       3.762  -4.691  -7.508  0.00  0.00     0.003 A 
ATOM     15  C   LIG d   1       4.826  -4.171  -6.758  0.00  0.00     0.252 A 
ATOM     16  O   LIG d   1       5.132  -4.695  -5.699  0.00  0.00    -0.268 OA
ATOM     17  N   LIG d   1       5.519  -3.092  -7.197  0.00  0.00    -0.311 N 
ATOM     18  C   LIG d   1       6.746  -2.751  -6.476  0.00  0.00     0.031 C 
ATOM     19  H   LIG d   1       6.299  -0.671  -4.928  0.00  0.00     0.047 H 
ATOM     20  H   LIG d   1       6.878   0.636  -5.984  0.00  0.00     0.047 H 
ATOM     21  H   LIG d   1       7.748  -1.777  -8.793  0.00  0.00     0.028 H 
ATOM     22  H   LIG d   1       7.564  -0.040  -8.435  0.00  0.00     0.028 H 
ATOM     23  H   LIG d   1       5.341   0.993  -8.264  0.00  0.00     0.047 H 
ATOM     24  H   LIG d   1       3.867  -0.012  -8.318  0.00  0.00     0.047 H 
ATOM     25  H   LIG d   1       2.591  -4.455  -9.268  0.00  0.00     0.062 H 
ATOM     26  H   LIG d   1       3.244  -5.580  -7.181  0.00  0.00     0.067 H 
ATOM     27  H   LIG d   1       6.575  -2.882  -5.408  0.00  0.00     0.050 H 
ATOM     28  H   LIG d   1       7.540  -3.429  -6.791  0.00  0.00     0.050 H 
ENDROOT
BRANCH  12  29
ATOM     29  C   LIG d   1       3.660  -2.173 -10.300  0.00  0.00    -0.014 C 
ATOM     30  C   LIG d   1       3.681  -3.148 -11.478  0.00  0.00    -0.046 C 
ATOM     31  C   LIG d   1       3.266  -2.414 -12.755  0.00  0.00    -0.052 C 
ATOM     32  H   LIG d   1       4.688  -3.550 -11.601  0.00  0.00     0.027 H 
ATOM     33  H   LIG d   1       2.985  -3.965 -11.287  0.00  0.00     0.027 H 
ATOM     34  C   LIG d   1       1.855  -1.851 -12.584  0.00  0.00    -0.053 C 
ATOM     35  H   LIG d   1       3.962  -1.597 -12.947  0.00  0.00     0.026 H 
ATOM     36  H   LIG d   1       3.282  -3.108 -13.595  0.00  0.00     0.026 H 
ATOM     37  C   LIG d   1       1.833  -0.876 -11.405  0.00  0.00    -0.052 C 
ATOM     38  H   LIG d   1       1.560  -1.327 -13.493  0.00  0.00     0.026 H 
ATOM     39  H   LIG d   1       1.159  -2.668 -12.392  0.00  0.00     0.026 H 
ATOM     40  C   LIG d   1       2.248  -1.611 -10.129  0.00  0.00    -0.046 C 
ATOM     41  H   LIG d   1       2.529  -0.059 -11.597  0.00  0.00     0.026 H 
ATOM     42  H   LIG d   1       0.827  -0.475 -11.283  0.00  0.00     0.026 H 
ATOM     43  H   LIG d   1       1.552  -2.427  -9.937  0.00  0.00     0.027 H 
ATOM     44  H   LIG d   1       2.232  -0.917  -9.288  0.00  0.00     0.027 H 
ATOM     45  H   LIG d   1       4.356  -1.357 -10.491  0.00  0.00     0.035 H 
ENDBRANCH  12  29
BRANCH   1  46
ATOM     46  C   LIG d   1       4.077  -0.632  -4.348  0.00  0.00     0.074 A 
ATOM     47  C   LIG d   1       4.004  -1.864  -3.716  0.00  0.00    -0.043 A 
ATOM     48  C   LIG d   1       4.166  -1.878  -2.353  0.00  0.00    -0.054 A 
ATOM     49  H   LIG d   1       3.825  -2.773  -4.272  0.00  0.00     0.063 H 
ATOM     50  C   LIG d   1       4.389  -0.708  -1.700  0.00  0.00    -0.024 A 
ATOM     51  H   LIG d   1       4.120  -2.809  -1.806  0.00  0.00     0.062 H 
ATOM     52  S   LIG d   1       4.384   0.466  -2.976  0.00  0.00    -0.092 SA
ATOM     53  H   LIG d   1       4.536  -0.548  -0.642  0.00  0.00     0.069 H 
ENDBRANCH   1  46
TORSDOF 2
ENDMDL
MODEL 5
REMARK VINA RESULT:      -6.0      2.126      2.495
REMARK  2 active torsions:
REMARK  status: ('A' for Active; 'I' for Inactive)
REMARK    1  A    between atoms: C_3  and  C_6 
REMARK       I    between atoms: C_6  and  N_8 
REMARK    2  A    between atoms: C_17  and  C_24 
ROOT
ATOM      1  C   LIG d   1       3.917  -2.846  -9.397  0.00  0.00     0.253 C 
ATOM      2  O   LIG d   1       3.194  -3.427  -8.609  0.00  0.00    -0.269 OA
ATOM      3  N   LIG d   1       5.157  -2.474  -9.026  0.00  0.00    -0.296 N 
ATOM      4  C   LIG d   1       6.070  -1.845  -9.988  0.00  0.00     0.019 C 
ATOM      5  C   LIG d   1       6.654  -0.566  -9.402  0.00  0.00    -0.006 C 
ATOM      6  H   LIG d   1       7.469  -0.239 -10.047  0.00  0.00     0.033 H 
ATOM      7  C   LIG d   1       7.222  -0.812  -8.004  0.00  0.00    -0.037 C 
ATOM      8  C   LIG d   1       6.094  -1.325  -7.106  0.00  0.00     0.016 C 
ATOM      9  H   LIG d   1       6.444  -1.417  -6.078  0.00  0.00     0.038 H 
ATOM     10  C   LIG d   1       5.619  -2.692  -7.628  0.00  0.00     0.023 C 
ATOM     11  C   LIG d   1       4.920  -0.376  -7.172  0.00  0.00     0.030 A 
ATOM     12  C   LIG d   1       4.099  -0.319  -6.089  0.00  0.00    -0.024 A 
ATOM     13  C   LIG d   1       2.940   0.465  -6.117  0.00  0.00    -0.051 A 
ATOM     14  C   LIG d   1       2.632   1.148  -7.256  0.00  0.00     0.003 A 
ATOM     15  C   LIG d   1       3.502   1.071  -8.353  0.00  0.00     0.252 A 
ATOM     16  O   LIG d   1       3.212   1.637  -9.395  0.00  0.00    -0.268 OA
ATOM     17  N   LIG d   1       4.662   0.376  -8.268  0.00  0.00    -0.311 N 
ATOM     18  C   LIG d   1       5.612   0.530  -9.370  0.00  0.00     0.031 C 
ATOM     19  H   LIG d   1       5.525  -1.608 -10.902  0.00  0.00     0.047 H 
ATOM     20  H   LIG d   1       6.880  -2.537 -10.222  0.00  0.00     0.047 H 
ATOM     21  H   LIG d   1       7.618   0.120  -7.601  0.00  0.00     0.028 H 
ATOM     22  H   LIG d   1       8.016  -1.556  -8.057  0.00  0.00     0.028 H 
ATOM     23  H   LIG d   1       6.449  -3.399  -7.623  0.00  0.00     0.047 H 
ATOM     24  H   LIG d   1       4.809  -3.067  -7.003  0.00  0.00     0.047 H 
ATOM     25  H   LIG d   1       2.297   0.524  -5.250  0.00  0.00     0.062 H 
ATOM     26  H   LIG d   1       1.732   1.743  -7.311  0.00  0.00     0.067 H 
ATOM     27  H   LIG d   1       5.062   0.544 -10.311  0.00  0.00     0.050 H 
ATOM     28  H   LIG d   1       6.135   1.479  -9.255  0.00  0.00     0.050 H 
ENDROOT
BRANCH  12  29
ATOM     29  C   LIG d   1       4.444  -1.101  -4.848  0.00  0.00    -0.014 C 
ATOM     30  C   LIG d   1       5.568  -0.389  -4.094  0.00  0.00    -0.046 C 
ATOM     31  C   LIG d   1       5.919  -1.182  -2.833  0.00  0.00    -0.052 C 
ATOM     32  H   LIG d   1       6.448  -0.317  -4.734  0.00  0.00     0.027 H 
ATOM     33  H   LIG d   1       5.240   0.612  -3.813  0.00  0.00     0.027 H 
ATOM     34  C   LIG d   1       4.686  -1.283  -1.935  0.00  0.00    -0.053 C 
ATOM     35  H   LIG d   1       6.247  -2.183  -3.113  0.00  0.00     0.026 H 
ATOM     36  H   LIG d   1       6.720  -0.675  -2.296  0.00  0.00     0.026 H 
ATOM     37  C   LIG d   1       3.561  -1.995  -2.689  0.00  0.00    -0.052 C 
ATOM     38  H   LIG d   1       4.935  -1.849  -1.037  0.00  0.00     0.026 H 
ATOM     39  H   LIG d   1       4.358  -0.282  -1.654  0.00  0.00     0.026 H 
ATOM     40  C   LIG d   1       3.211  -1.201  -3.949  0.00  0.00    -0.046 C 
ATOM     41  H   LIG d   1       3.889  -2.996  -2.969  0.00  0.00     0.026 H 
ATOM     42  H   LIG d   1       2.682  -2.067  -2.049  0.00  0.00     0.026 H 
ATOM     43  H   LIG d   1       2.883  -0.201  -3.668  0.00  0.00     0.027 H 
ATOM     44  H   LIG d   1       2.409  -1.708  -4.487  0.00  0.00     0.027 H 
ATOM     45  H   LIG d   1       4.772  -2.101  -5.129  0.00  0.00     0.035 H 
ENDBRANCH  12  29
BRANCH   1  46
ATOM     46  C   LIG d   1       3.438  -2.553 -10.752  0.00  0.00     0.074 A 
ATOM     47  C   LIG d   1       2.783  -1.426 -11.222  0.00  0.00    -0.043 A 
ATOM     48  C   LIG d   1       2.442  -1.409 -12.551  0.00  0.00    -0.054 A 
ATOM     49  H   LIG d   1       2.550  -0.596 -10.570  0.00  0.00     0.063 H 
ATOM     50  C   LIG d   1       2.757  -2.476 -13.329  0.00  0.00    -0.024 A 
ATOM     51  H   LIG d   1       1.931  -0.556 -12.974  0.00  0.00     0.062 H 
ATOM     52  S   LIG d   1       3.552  -3.551 -12.226  0.00  0.00    -0.092 SA
ATOM     53  H   LIG d   1       2.562  -2.620 -14.382  0.00  0.00     0.069 H 
ENDBRANCH   1  46
TORSDOF 2
ENDMDL
MODEL 6
REMARK VINA RESULT:      -5.9      3.030      5.626
REMARK  2 active torsions:
REMARK  status: ('A' for Active; 'I' for Inactive)
REMARK    1  A    between atoms: C_3  and  C_6 
REMARK       I    between atoms: C_6  and  N_8 
REMARK    2  A    between atoms: C_17  and  C_24 
ROOT
ATOM      1  C   LIG d   1       8.026  -2.338  -6.282  0.00  0.00     0.253 C 
ATOM      2  O   LIG d   1       8.253  -1.157  -6.470  0.00  0.00    -0.269 OA
ATOM      3  N   LIG d   1       7.234  -3.016  -7.135  0.00  0.00    -0.296 N 
ATOM      4  C   LIG d   1       7.015  -4.458  -6.969  0.00  0.00     0.019 C 
ATOM      5  C   LIG d   1       5.525  -4.771  -6.998  0.00  0.00    -0.006 C 
ATOM      6  H   LIG d   1       5.408  -5.852  -7.078  0.00  0.00     0.033 H 
ATOM      7  C   LIG d   1       4.852  -4.129  -8.212  0.00  0.00    -0.037 C 
ATOM      8  C   LIG d   1       5.061  -2.614  -8.136  0.00  0.00     0.016 C 
ATOM      9  H   LIG d   1       4.510  -2.118  -8.935  0.00  0.00     0.038 H 
ATOM     10  C   LIG d   1       6.564  -2.308  -8.260  0.00  0.00     0.023 C 
ATOM     11  C   LIG d   1       4.599  -2.104  -6.791  0.00  0.00     0.030 A 
ATOM     12  C   LIG d   1       4.173  -0.814  -6.723  0.00  0.00    -0.024 A 
ATOM     13  C   LIG d   1       3.822  -0.245  -5.494  0.00  0.00    -0.051 A 
ATOM     14  C   LIG d   1       3.940  -0.996  -4.362  0.00  0.00     0.003 A 
ATOM     15  C   LIG d   1       4.378  -2.324  -4.467  0.00  0.00     0.252 A 
ATOM     16  O   LIG d   1       4.536  -2.990  -3.456  0.00  0.00    -0.268 OA
ATOM     17  N   LIG d   1       4.626  -2.876  -5.680  0.00  0.00    -0.311 N 
ATOM     18  C   LIG d   1       4.860  -4.320  -5.717  0.00  0.00     0.031 C 
ATOM     19  H   LIG d   1       7.434  -4.780  -6.016  0.00  0.00     0.047 H 
ATOM     20  H   LIG d   1       7.512  -4.994  -7.779  0.00  0.00     0.047 H 
ATOM     21  H   LIG d   1       3.786  -4.353  -8.201  0.00  0.00     0.028 H 
ATOM     22  H   LIG d   1       5.301  -4.516  -9.127  0.00  0.00     0.028 H 
ATOM     23  H   LIG d   1       6.942  -2.689  -9.209  0.00  0.00     0.047 H 
ATOM     24  H   LIG d   1       6.730  -1.233  -8.199  0.00  0.00     0.047 H 
ATOM     25  H   LIG d   1       3.467   0.774  -5.443  0.00  0.00     0.062 H 
ATOM     26  H   LIG d   1       3.696  -0.575  -3.398  0.00  0.00     0.067 H 
ATOM     27  H   LIG d   1       5.475  -4.600  -4.863  0.00  0.00     0.050 H 
ATOM     28  H   LIG d   1       3.901  -4.834  -5.644  0.00  0.00     0.050 H 
ENDROOT
BRANCH  12  29
ATOM     29  C   LIG d   1       4.073   0.007  -7.984  0.00  0.00    -0.014 C 
ATOM     30  C   LIG d   1       2.791   0.839  -7.949  0.00  0.00    -0.046 C 
ATOM     31  C   LIG d   1       2.688   1.673  -9.228  0.00  0.00    -0.052 C 
ATOM     32  H   LIG d   1       1.928   0.175  -7.879  0.00  0.00     0.027 H 
ATOM     33  H   LIG d   1       2.810   1.502  -7.084  0.00  0.00     0.027 H 
ATOM     34  C   LIG d   1       3.898   2.604  -9.327  0.00  0.00    -0.053 C 
ATOM     35  H   LIG d   1       2.669   1.010 -10.094  0.00  0.00     0.026 H 
ATOM     36  H   LIG d   1       1.775   2.265  -9.204  0.00  0.00     0.026 H 
ATOM     37  C   LIG d   1       5.182   1.772  -9.361  0.00  0.00    -0.052 C 
ATOM     38  H   LIG d   1       3.826   3.197 -10.238  0.00  0.00     0.026 H 
ATOM     39  H   LIG d   1       3.918   3.267  -8.462  0.00  0.00     0.026 H 
ATOM     40  C   LIG d   1       5.282   0.938  -8.082  0.00  0.00    -0.046 C 
ATOM     41  H   LIG d   1       5.162   1.109 -10.227  0.00  0.00     0.026 H 
ATOM     42  H   LIG d   1       6.043   2.435  -9.431  0.00  0.00     0.026 H 
ATOM     43  H   LIG d   1       5.302   1.601  -7.217  0.00  0.00     0.027 H 
ATOM     44  H   LIG d   1       6.197   0.346  -8.106  0.00  0.00     0.027 H 
ATOM     45  H   LIG d   1       4.053  -0.656  -8.848  0.00  0.00     0.035 H 
ENDBRANCH  12  29
BRANCH   1  46
ATOM     46  C   LIG d   1       8.616  -3.023  -5.128  0.00  0.00     0.074 A 
ATOM     47  C   LIG d   1       8.109  -3.171  -3.847  0.00  0.00    -0.043 A 
ATOM     48  C   LIG d   1       8.876  -3.867  -2.946  0.00  0.00    -0.054 A 
ATOM     49  H   LIG d   1       7.150  -2.756  -3.568  0.00  0.00     0.063 H 
ATOM     50  C   LIG d   1      10.073  -4.370  -3.345  0.00  0.00    -0.024 A 
ATOM     51  H   LIG d   1       8.531  -4.015  -1.933  0.00  0.00     0.062 H 
ATOM     52  S   LIG d   1      10.171  -3.890  -5.008  0.00  0.00    -0.092 SA
ATOM     53  H   LIG d   1      10.789  -4.936  -2.767  0.00  0.00     0.069 H 
ENDBRANCH   1  46
TORSDOF 2
ENDMDL
MODEL 7
REMARK VINA RESULT:      -5.8     11.627     14.814
REMARK  2 active torsions:
REMARK  status: ('A' for Active; 'I' for Inactive)
REMARK    1  A    between atoms: C_3  and  C_6 
REMARK       I    between atoms: C_6  and  N_8 
REMARK    2  A    between atoms: C_17  and  C_24 
ROOT
ATOM      1  C   LIG d   1       9.994  10.640  -4.927  0.00  0.00     0.253 C 
ATOM      2  O   LIG d   1       9.162   9.895  -5.411  0.00  0.00    -0.269 OA
ATOM      3  N   LIG d   1      11.239  10.190  -4.678  0.00  0.00    -0.296 N 
ATOM      4  C   LIG d   1      12.277  11.095  -4.170  0.00  0.00     0.019 C 
ATOM      5  C   LIG d   1      12.952  10.490  -2.947  0.00  0.00    -0.006 C 
ATOM      6  H   LIG d   1      13.839  11.082  -2.722  0.00  0.00     0.033 H 
ATOM      7  C   LIG d   1      13.395   9.053  -3.219  0.00  0.00    -0.037 C 
ATOM      8  C   LIG d   1      12.161   8.227  -3.590  0.00  0.00     0.016 C 
ATOM      9  H   LIG d   1      12.429   7.176  -3.695  0.00  0.00     0.038 H 
ATOM     10  C   LIG d   1      11.580   8.759  -4.912  0.00  0.00     0.023 C 
ATOM     11  C   LIG d   1      11.102   8.390  -2.525  0.00  0.00     0.030 A 
ATOM     12  C   LIG d   1      10.219   7.368  -2.358  0.00  0.00    -0.024 A 
ATOM     13  C   LIG d   1       9.155   7.488  -1.458  0.00  0.00    -0.051 A 
ATOM     14  C   LIG d   1       8.999   8.656  -0.773  0.00  0.00     0.003 A 
ATOM     15  C   LIG d   1       9.928   9.689  -0.965  0.00  0.00     0.252 A 
ATOM     16  O   LIG d   1       9.771  10.757  -0.396  0.00  0.00    -0.268 OA
ATOM     17  N   LIG d   1      10.999   9.512  -1.776  0.00  0.00    -0.311 N 
ATOM     18  C   LIG d   1      12.032  10.548  -1.747  0.00  0.00     0.031 C 
ATOM     19  H   LIG d   1      11.823  12.049  -3.899  0.00  0.00     0.047 H 
ATOM     20  H   LIG d   1      13.023  11.262  -4.948  0.00  0.00     0.047 H 
ATOM     21  H   LIG d   1      13.860   8.637  -2.325  0.00  0.00     0.028 H 
ATOM     22  H   LIG d   1      14.107   9.039  -4.043  0.00  0.00     0.028 H 
ATOM     23  H   LIG d   1      12.328   8.686  -5.701  0.00  0.00     0.047 H 
ATOM     24  H   LIG d   1      10.694   8.187  -5.185  0.00  0.00     0.047 H 
ATOM     25  H   LIG d   1       8.465   6.669  -1.312  0.00  0.00     0.062 H 
ATOM     26  H   LIG d   1       8.173   8.783  -0.088  0.00  0.00     0.067 H 
ATOM     27  H   LIG d   1      11.552  11.524  -1.697  0.00  0.00     0.050 H 
ATOM     28  H   LIG d   1      12.644  10.411  -0.855  0.00  0.00     0.050 H 
ENDROOT
BRANCH  12  29
ATOM     29  C   LIG d   1      10.395   6.093  -3.144  0.00  0.00    -0.014 C 
ATOM     30  C   LIG d   1      10.284   4.894  -2.201  0.00  0.00    -0.046 C 
ATOM     31  C   LIG d   1      10.462   3.600  -2.998  0.00  0.00    -0.052 C 
ATOM     32  H   LIG d   1      11.059   4.959  -1.436  0.00  0.00     0.027 H 
ATOM     33  H   LIG d   1       9.303   4.896  -1.725  0.00  0.00     0.027 H 
ATOM     34  C   LIG d   1       9.375   3.508  -4.070  0.00  0.00    -0.053 C 
ATOM     35  H   LIG d   1      11.443   3.598  -3.474  0.00  0.00     0.026 H 
ATOM     36  H   LIG d   1      10.383   2.746  -2.326  0.00  0.00     0.026 H 
ATOM     37  C   LIG d   1       9.486   4.708  -5.013  0.00  0.00    -0.052 C 
ATOM     38  H   LIG d   1       9.502   2.587  -4.638  0.00  0.00     0.026 H 
ATOM     39  H   LIG d   1       8.395   3.510  -3.594  0.00  0.00     0.026 H 
ATOM     40  C   LIG d   1       9.308   6.001  -4.215  0.00  0.00    -0.046 C 
ATOM     41  H   LIG d   1      10.467   4.706  -5.489  0.00  0.00     0.026 H 
ATOM     42  H   LIG d   1       8.711   4.643  -5.777  0.00  0.00     0.026 H 
ATOM     43  H   LIG d   1       8.328   6.002  -3.740  0.00  0.00     0.027 H 
ATOM     44  H   LIG d   1       9.387   6.856  -4.887  0.00  0.00     0.027 H 
ATOM     45  H   LIG d   1      11.376   6.092  -3.619  0.00  0.00     0.035 H 
ENDBRANCH  12  29
BRANCH   1  46
ATOM     46  C   LIG d   1       9.642  12.029  -4.616  0.00  0.00     0.074 A 
ATOM     47  C   LIG d   1       9.050  12.546  -3.475  0.00  0.00    -0.043 A 
ATOM     48  C   LIG d   1       8.828  13.900  -3.442  0.00  0.00    -0.054 A 
ATOM     49  H   LIG d   1       8.774  11.910  -2.645  0.00  0.00     0.063 H 
ATOM     50  C   LIG d   1       9.193  14.656  -4.510  0.00  0.00    -0.024 A 
ATOM     51  H   LIG d   1       8.370  14.359  -2.578  0.00  0.00     0.062 H 
ATOM     52  S   LIG d   1       9.870  13.496  -5.606  0.00  0.00    -0.092 SA
ATOM     53  H   LIG d   1       9.090  15.723  -4.642  0.00  0.00     0.069 H 
ENDBRANCH   1  46
TORSDOF 2
ENDMDL
MODEL 8
REMARK VINA RESULT:      -5.7     10.190     13.274
REMARK  2 active torsions:
REMARK  status: ('A' for Active; 'I' for Inactive)
REMARK    1  A    between atoms: C_3  and  C_6 
REMARK       I    between atoms: C_6  and  N_8 
REMARK    2  A    between atoms: C_17  and  C_24 
ROOT
ATOM      1  C   LIG d   1      11.175   7.811  -1.734  0.00  0.00     0.253 C 
ATOM      2  O   LIG d   1      10.208   8.413  -2.163  0.00  0.00    -0.269 OA
ATOM      3  N   LIG d   1      12.258   7.633  -2.514  0.00  0.00    -0.296 N 
ATOM      4  C   LIG d   1      13.463   6.981  -1.987  0.00  0.00     0.019 C 
ATOM      5  C   LIG d   1      13.913   5.869  -2.924  0.00  0.00    -0.006 C 
ATOM      6  H   LIG d   1      14.908   5.547  -2.616  0.00  0.00     0.033 H 
ATOM      7  C   LIG d   1      14.002   6.367  -4.367  0.00  0.00    -0.037 C 
ATOM      8  C   LIG d   1      12.620   6.873  -4.789  0.00  0.00     0.016 C 
ATOM      9  H   LIG d   1      12.626   7.145  -5.845  0.00  0.00     0.038 H 
ATOM     10  C   LIG d   1      12.247   8.093  -3.930  0.00  0.00     0.023 C 
ATOM     11  C   LIG d   1      11.587   5.800  -4.535  0.00  0.00     0.030 A 
ATOM     12  C   LIG d   1      10.474   5.804  -5.318  0.00  0.00    -0.024 A 
ATOM     13  C   LIG d   1       9.432   4.902  -5.077  0.00  0.00    -0.051 A 
ATOM     14  C   LIG d   1       9.538   4.037  -4.028  0.00  0.00     0.003 A 
ATOM     15  C   LIG d   1      10.700   4.056  -3.243  0.00  0.00     0.252 A 
ATOM     16  O   LIG d   1      10.785   3.322  -2.271  0.00  0.00    -0.268 OA
ATOM     17  N   LIG d   1      11.730   4.880  -3.553  0.00  0.00    -0.311 N 
ATOM     18  C   LIG d   1      12.984   4.679  -2.826  0.00  0.00     0.031 C 
ATOM     19  H   LIG d   1      13.246   6.561  -1.005  0.00  0.00     0.047 H 
ATOM     20  H   LIG d   1      14.261   7.718  -1.893  0.00  0.00     0.047 H 
ATOM     21  H   LIG d   1      14.309   5.550  -5.019  0.00  0.00     0.028 H 
ATOM     22  H   LIG d   1      14.724   7.180  -4.429  0.00  0.00     0.028 H 
ATOM     23  H   LIG d   1      12.989   8.881  -4.064  0.00  0.00     0.047 H 
ATOM     24  H   LIG d   1      11.261   8.459  -4.213  0.00  0.00     0.047 H 
ATOM     25  H   LIG d   1       8.557   4.893  -5.709  0.00  0.00     0.062 H 
ATOM     26  H   LIG d   1       8.739   3.344  -3.807  0.00  0.00     0.067 H 
ATOM     27  H   LIG d   1      12.756   4.474  -1.781  0.00  0.00     0.050 H 
ATOM     28  H   LIG d   1      13.503   3.818  -3.248  0.00  0.00     0.050 H 
ENDROOT
BRANCH  12  29
ATOM     29  C   LIG d   1      10.366   6.785  -6.457  0.00  0.00    -0.014 C 
ATOM     30  C   LIG d   1       9.879   6.057  -7.711  0.00  0.00    -0.046 C 
ATOM     31  C   LIG d   1       9.769   7.052  -8.869  0.00  0.00    -0.052 C 
ATOM     32  H   LIG d   1      10.589   5.271  -7.975  0.00  0.00     0.027 H 
ATOM     33  H   LIG d   1       8.902   5.614  -7.518  0.00  0.00     0.027 H 
ATOM     34  C   LIG d   1       8.774   8.154  -8.500  0.00  0.00    -0.053 C 
ATOM     35  H   LIG d   1      10.746   7.495  -9.062  0.00  0.00     0.026 H 
ATOM     36  H   LIG d   1       9.422   6.534  -9.762  0.00  0.00     0.026 H 
ATOM     37  C   LIG d   1       9.260   8.882  -7.245  0.00  0.00    -0.052 C 
ATOM     38  H   LIG d   1       8.696   8.863  -9.324  0.00  0.00     0.026 H 
ATOM     39  H   LIG d   1       7.797   7.711  -8.307  0.00  0.00     0.026 H 
ATOM     40  C   LIG d   1       9.370   7.886  -6.089  0.00  0.00    -0.046 C 
ATOM     41  H   LIG d   1      10.238   9.325  -7.438  0.00  0.00     0.026 H 
ATOM     42  H   LIG d   1       8.551   9.667  -6.982  0.00  0.00     0.026 H 
ATOM     43  H   LIG d   1       8.393   7.444  -5.896  0.00  0.00     0.027 H 
ATOM     44  H   LIG d   1       9.717   8.405  -5.194  0.00  0.00     0.027 H 
ATOM     45  H   LIG d   1      11.343   7.227  -6.650  0.00  0.00     0.035 H 
ENDBRANCH  12  29
BRANCH   1  46
ATOM     46  C   LIG d   1      11.161   7.281  -0.367  0.00  0.00     0.074 A 
ATOM     47  C   LIG d   1      10.929   5.985   0.065  0.00  0.00    -0.043 A 
ATOM     48  C   LIG d   1      10.976   5.758   1.418  0.00  0.00    -0.054 A 
ATOM     49  H   LIG d   1      10.720   5.186  -0.633  0.00  0.00     0.063 H 
ATOM     50  C   LIG d   1      11.244   6.795   2.255  0.00  0.00    -0.024 A 
ATOM     51  H   LIG d   1      10.804   4.768   1.813  0.00  0.00     0.062 H 
ATOM     52  S   LIG d   1      11.446   8.135   1.173  0.00  0.00    -0.092 SA
ATOM     53  H   LIG d   1      11.316   6.785   3.332  0.00  0.00     0.069 H 
ENDBRANCH   1  46
TORSDOF 2
ENDMDL
MODEL 9
REMARK VINA RESULT:      -5.7      3.377      6.116
REMARK  2 active torsions:
REMARK  status: ('A' for Active; 'I' for Inactive)
REMARK    1  A    between atoms: C_3  and  C_6 
REMARK       I    between atoms: C_6  and  N_8 
REMARK    2  A    between atoms: C_17  and  C_24 
ROOT
ATOM      1  C   LIG d   1       7.011  -3.318  -5.003  0.00  0.00     0.253 C 
ATOM      2  O   LIG d   1       6.712  -3.879  -6.041  0.00  0.00    -0.269 OA
ATOM      3  N   LIG d   1       6.094  -2.577  -4.350  0.00  0.00    -0.296 N 
ATOM      4  C   LIG d   1       6.412  -1.960  -3.057  0.00  0.00     0.019 C 
ATOM      5  C   LIG d   1       6.047  -0.483  -3.074  0.00  0.00    -0.006 C 
ATOM      6  H   LIG d   1       6.103  -0.107  -2.052  0.00  0.00     0.033 H 
ATOM      7  C   LIG d   1       4.618  -0.276  -3.579  0.00  0.00    -0.037 C 
ATOM      8  C   LIG d   1       4.517  -0.850  -4.994  0.00  0.00     0.016 C 
ATOM      9  H   LIG d   1       3.538  -0.632  -5.419  0.00  0.00     0.038 H 
ATOM     10  C   LIG d   1       4.741  -2.371  -4.935  0.00  0.00     0.023 C 
ATOM     11  C   LIG d   1       5.604  -0.260  -5.861  0.00  0.00     0.030 A 
ATOM     12  C   LIG d   1       5.365  -0.181  -7.198  0.00  0.00    -0.024 A 
ATOM     13  C   LIG d   1       6.362   0.265  -8.073  0.00  0.00    -0.051 A 
ATOM     14  C   LIG d   1       7.586   0.591  -7.568  0.00  0.00     0.003 A 
ATOM     15  C   LIG d   1       7.798   0.502  -6.185  0.00  0.00     0.252 A 
ATOM     16  O   LIG d   1       8.904   0.743  -5.727  0.00  0.00    -0.268 OA
ATOM     17  N   LIG d   1       6.788   0.152  -5.351  0.00  0.00    -0.311 N 
ATOM     18  C   LIG d   1       7.030   0.301  -3.916  0.00  0.00     0.031 C 
ATOM     19  H   LIG d   1       7.479  -2.067  -2.858  0.00  0.00     0.047 H 
ATOM     20  H   LIG d   1       5.849  -2.462  -2.269  0.00  0.00     0.047 H 
ATOM     21  H   LIG d   1       4.387   0.789  -3.597  0.00  0.00     0.028 H 
ATOM     22  H   LIG d   1       3.920  -0.793  -2.922  0.00  0.00     0.028 H 
ATOM     23  H   LIG d   1       3.990  -2.831  -4.292  0.00  0.00     0.047 H 
ATOM     24  H   LIG d   1       4.680  -2.795  -5.937  0.00  0.00     0.047 H 
ATOM     25  H   LIG d   1       6.166   0.345  -9.133  0.00  0.00     0.062 H 
ATOM     26  H   LIG d   1       8.379   0.917  -8.224  0.00  0.00     0.067 H 
ATOM     27  H   LIG d   1       8.046  -0.023  -3.694  0.00  0.00     0.050 H 
ATOM     28  H   LIG d   1       6.930   1.353  -3.648  0.00  0.00     0.050 H 
ENDROOT
BRANCH  12  29
ATOM     29  C   LIG d   1       4.013  -0.570  -7.739  0.00  0.00    -0.014 C 
ATOM     30  C   LIG d   1       3.416   0.607  -8.512  0.00  0.00    -0.046 C 
ATOM     31  C   LIG d   1       2.043   0.212  -9.062  0.00  0.00    -0.052 C 
ATOM     32  H   LIG d   1       3.307   1.463  -7.845  0.00  0.00     0.027 H 
ATOM     33  H   LIG d   1       4.076   0.872  -9.338  0.00  0.00     0.027 H 
ATOM     34  C   LIG d   1       2.195  -0.988  -9.997  0.00  0.00    -0.053 C 
ATOM     35  H   LIG d   1       1.383  -0.053  -8.236  0.00  0.00     0.026 H 
ATOM     36  H   LIG d   1       1.618   1.051  -9.612  0.00  0.00     0.026 H 
ATOM     37  C   LIG d   1       2.793  -2.165  -9.225  0.00  0.00    -0.052 C 
ATOM     38  H   LIG d   1       1.218  -1.269 -10.389  0.00  0.00     0.026 H 
ATOM     39  H   LIG d   1       2.855  -0.723 -10.824  0.00  0.00     0.026 H 
ATOM     40  C   LIG d   1       4.165  -1.770  -8.676  0.00  0.00    -0.046 C 
ATOM     41  H   LIG d   1       2.133  -2.431  -8.399  0.00  0.00     0.026 H 
ATOM     42  H   LIG d   1       2.902  -3.020  -9.892  0.00  0.00     0.026 H 
ATOM     43  H   LIG d   1       4.824  -1.505  -9.502  0.00  0.00     0.027 H 
ATOM     44  H   LIG d   1       4.592  -2.609  -8.125  0.00  0.00     0.027 H 
ATOM     45  H   LIG d   1       3.353  -0.835  -6.913  0.00  0.00     0.035 H 
ENDBRANCH  12  29
BRANCH   1  46
ATOM     46  C   LIG d   1       8.368  -3.448  -4.463  0.00  0.00     0.074 A 
ATOM     47  C   LIG d   1       8.831  -4.279  -3.455  0.00  0.00    -0.043 A 
ATOM     48  C   LIG d   1      10.164  -4.200  -3.142  0.00  0.00    -0.054 A 
ATOM     49  H   LIG d   1       8.170  -4.960  -2.938  0.00  0.00     0.063 H 
ATOM     50  C   LIG d   1      10.954  -3.328  -3.822  0.00  0.00    -0.024 A 
ATOM     51  H   LIG d   1      10.582  -4.824  -2.366  0.00  0.00     0.062 H 
ATOM     52  S   LIG d   1       9.855  -2.584  -4.937  0.00  0.00    -0.092 SA
ATOM     53  H   LIG d   1      12.011  -3.145  -3.700  0.00  0.00     0.069 H 
ENDBRANCH   1  46
TORSDOF 2
ENDMDL
MODEL 10
REMARK VINA RESULT:      -5.6      3.780      6.237
REMARK  2 active torsions:
REMARK  status: ('A' for Active; 'I' for Inactive)
REMARK    1  A    between atoms: C_3  and  C_6 
REMARK       I    between atoms: C_6  and  N_8 
REMARK    2  A    between atoms: C_17  and  C_24 
ROOT
ATOM      1  C   LIG d   1       6.456  -0.041  -4.692  0.00  0.00     0.253 C 
ATOM      2  O   LIG d   1       6.903   1.087  -4.593  0.00  0.00    -0.269 OA
ATOM      3  N   LIG d   1       7.082  -0.950  -5.464  0.00  0.00    -0.296 N 
ATOM      4  C   LIG d   1       6.603  -2.335  -5.530  0.00  0.00     0.019 C 
ATOM      5  C   LIG d   1       6.446  -2.770  -6.981  0.00  0.00    -0.006 C 
ATOM      6  H   LIG d   1       6.290  -3.849  -6.997  0.00  0.00     0.033 H 
ATOM      7  C   LIG d   1       7.708  -2.462  -7.787  0.00  0.00    -0.037 C 
ATOM      8  C   LIG d   1       7.966  -0.954  -7.723  0.00  0.00     0.016 C 
ATOM      9  H   LIG d   1       8.804  -0.688  -8.368  0.00  0.00     0.038 H 
ATOM     10  C   LIG d   1       8.273  -0.558  -6.269  0.00  0.00     0.023 C 
ATOM     11  C   LIG d   1       6.724  -0.207  -8.150  0.00  0.00     0.030 A 
ATOM     12  C   LIG d   1       6.892   1.028  -8.695  0.00  0.00    -0.024 A 
ATOM     13  C   LIG d   1       5.784   1.816  -9.025  0.00  0.00    -0.051 A 
ATOM     14  C   LIG d   1       4.534   1.338  -8.764  0.00  0.00     0.003 A 
ATOM     15  C   LIG d   1       4.395   0.059  -8.206  0.00  0.00     0.252 A 
ATOM     16  O   LIG d   1       3.284  -0.359  -7.921  0.00  0.00    -0.268 OA
ATOM     17  N   LIG d   1       5.483  -0.717  -7.979  0.00  0.00    -0.311 N 
ATOM     18  C   LIG d   1       5.237  -2.111  -7.608  0.00  0.00     0.031 C 
ATOM     19  H   LIG d   1       5.641  -2.410  -5.024  0.00  0.00     0.047 H 
ATOM     20  H   LIG d   1       7.321  -2.990  -5.034  0.00  0.00     0.047 H 
ATOM     21  H   LIG d   1       7.565  -2.766  -8.823  0.00  0.00     0.028 H 
ATOM     22  H   LIG d   1       8.556  -2.997  -7.360  0.00  0.00     0.028 H 
ATOM     23  H   LIG d   1       9.149  -1.101  -5.914  0.00  0.00     0.047 H 
ATOM     24  H   LIG d   1       8.450   0.515  -6.205  0.00  0.00     0.047 H 
ATOM     25  H   LIG d   1       5.917   2.789  -9.474  0.00  0.00     0.062 H 
ATOM     26  H   LIG d   1       3.662   1.935  -8.989  0.00  0.00     0.067 H 
ATOM     27  H   LIG d   1       4.396  -2.150  -6.917  0.00  0.00     0.050 H 
ATOM     28  H   LIG d   1       4.981  -2.676  -8.505  0.00  0.00     0.050 H 
ENDROOT
BRANCH  12  29
ATOM     29  C   LIG d   1       8.284   1.548  -8.952  0.00  0.00    -0.014 C 
ATOM     30  C   LIG d   1       8.734   1.126 -10.352  0.00  0.00    -0.046 C 
ATOM     31  C   LIG d   1      10.147   1.654 -10.614  0.00  0.00    -0.052 C 
ATOM     32  H   LIG d   1       8.735   0.037 -10.422  0.00  0.00     0.027 H 
ATOM     33  H   LIG d   1       8.049   1.537 -11.094  0.00  0.00     0.027 H 
ATOM     34  C   LIG d   1      10.146   3.180 -10.516  0.00  0.00    -0.053 C 
ATOM     35  H   LIG d   1      10.832   1.243  -9.872  0.00  0.00     0.026 H 
ATOM     36  H   LIG d   1      10.468   1.353 -11.611  0.00  0.00     0.026 H 
ATOM     37  C   LIG d   1       9.695   3.603  -9.117  0.00  0.00    -0.052 C 
ATOM     38  H   LIG d   1      11.152   3.556 -10.702  0.00  0.00     0.026 H 
ATOM     39  H   LIG d   1       9.461   3.591 -11.258  0.00  0.00     0.026 H 
ATOM     40  C   LIG d   1       8.283   3.074  -8.856  0.00  0.00    -0.046 C 
ATOM     41  H   LIG d   1      10.380   3.191  -8.375  0.00  0.00     0.026 H 
ATOM     42  H   LIG d   1       9.695   4.690  -9.047  0.00  0.00     0.026 H 
ATOM     43  H   LIG d   1       7.599   3.485  -9.597  0.00  0.00     0.027 H 
ATOM     44  H   LIG d   1       7.961   3.375  -7.858  0.00  0.00     0.027 H 
ATOM     45  H   LIG d   1       8.968   1.136  -8.211  0.00  0.00     0.035 H 
ENDBRANCH  12  29
BRANCH   1  46
ATOM     46  C   LIG d   1       5.236  -0.411  -3.967  0.00  0.00     0.074 A 
ATOM     47  C   LIG d   1       5.106  -1.010  -2.724  0.00  0.00    -0.043 A 
ATOM     48  C   LIG d   1       3.831  -1.249  -2.275  0.00  0.00    -0.054 A 
ATOM     49  H   LIG d   1       5.971  -1.278  -2.134  0.00  0.00     0.063 H 
ATOM     50  C   LIG d   1       2.777  -0.894  -3.054  0.00  0.00    -0.024 A 
ATOM     51  H   LIG d   1       3.668  -1.713  -1.313  0.00  0.00     0.062 H 
ATOM     52  S   LIG d   1       3.533  -0.202  -4.453  0.00  0.00    -0.092 SA
ATOM     53  H   LIG d   1       1.723  -1.011  -2.850  0.00  0.00     0.069 H 
ENDBRANCH   1  46
TORSDOF 2
ENDMDL
