MODEL 1
REMARK VINA RESULT:      -6.4      0.000      0.000
REMARK  3 active torsions:
REMARK  status: ('A' for Active; 'I' for Inactive)
REMARK    1  A    between atoms: C_1  and  C_2 
REMARK    2  A    between atoms: C_5  and  O_26 
REMARK    3  A    between atoms: C_18  and  C_25 
ROOT
ATOM      1  C   LIG d   1       4.776  -0.782  -5.009  0.00  0.00    -0.026 C 
ATOM      2  C   LIG d   1       6.158  -0.595  -4.369  0.00  0.00    -0.045 C 
ATOM      3  C   LIG d   1       6.083  -0.783  -2.857  0.00  0.00    -0.026 C 
ATOM      4  C   LIG d   1       5.083   0.188  -2.235  0.00  0.00     0.056 C 
ATOM      5  H   LIG d   1       5.004  -0.012  -1.163  0.00  0.00     0.059 H 
ATOM      6  C   LIG d   1       3.707   0.013  -2.878  0.00  0.00    -0.024 C 
ATOM      7  C   LIG d   1       3.818   0.244  -4.382  0.00  0.00    -0.033 C 
ATOM      8  H   LIG d   1       4.255   1.244  -4.539  0.00  0.00     0.031 H 
ATOM      9  C   LIG d   1       2.445   0.231  -5.041  0.00  0.00    -0.049 C 
ATOM     10  C   LIG d   1       2.569   0.508  -6.550  0.00  0.00    -0.049 C 
ATOM     11  C   LIG d   1       3.470  -0.568  -7.131  0.00  0.00    -0.034 C 
ATOM     12  H   LIG d   1       3.029  -1.537  -6.828  0.00  0.00     0.031 H 
ATOM     13  C   LIG d   1       4.860  -0.449  -6.493  0.00  0.00    -0.032 C 
ATOM     14  H   LIG d   1       5.180   0.601  -6.545  0.00  0.00     0.031 H 
ATOM     15  C   LIG d   1       5.848  -1.276  -7.300  0.00  0.00    -0.049 C 
ATOM     16  C   LIG d   1       6.132  -0.525  -8.618  0.00  0.00    -0.040 C 
ATOM     17  C   LIG d   1       4.859   0.091  -9.147  0.00  0.00     0.029 C 
ATOM     18  C   LIG d   1       3.604  -0.631  -8.618  0.00  0.00    -0.025 C 
ATOM     19  H   LIG d   1       3.663  -1.697  -8.918  0.00  0.00     0.031 H 
ATOM     20  C   LIG d   1       2.496   0.028  -9.454  0.00  0.00    -0.042 C 
ATOM     21  C   LIG d   1       3.162   0.167 -10.850  0.00  0.00     0.007 C 
ATOM     22  C   LIG d   1       4.658  -0.039 -10.646  0.00  0.00     0.140 C 
ATOM     23  O   LIG d   1       5.499  -0.257 -11.474  0.00  0.00    -0.297 OA
ATOM     24  H   LIG d   1       6.847  -1.330  -4.792  0.00  0.00     0.027 H 
ATOM     25  H   LIG d   1       6.523   0.407  -4.597  0.00  0.00     0.027 H 
ATOM     26  H   LIG d   1       7.074  -0.589  -2.428  0.00  0.00     0.029 H 
ATOM     27  H   LIG d   1       5.807  -1.807  -2.612  0.00  0.00     0.029 H 
ATOM     28  H   LIG d   1       3.317  -0.978  -2.663  0.00  0.00     0.029 H 
ATOM     29  H   LIG d   1       3.021   0.755  -2.454  0.00  0.00     0.029 H 
ATOM     30  H   LIG d   1       1.963  -0.733  -4.892  0.00  0.00     0.027 H 
ATOM     31  H   LIG d   1       1.824   1.010  -4.594  0.00  0.00     0.027 H 
ATOM     32  H   LIG d   1       1.583   0.462  -7.009  0.00  0.00     0.027 H 
ATOM     33  H   LIG d   1       3.006   1.493  -6.699  0.00  0.00     0.027 H 
ATOM     34  H   LIG d   1       6.779  -1.398  -6.743  0.00  0.00     0.027 H 
ATOM     35  H   LIG d   1       5.425  -2.257  -7.522  0.00  0.00     0.027 H 
ATOM     36  H   LIG d   1       6.872   0.259  -8.434  0.00  0.00     0.028 H 
ATOM     37  H   LIG d   1       6.539  -1.225  -9.352  0.00  0.00     0.028 H 
ATOM     38  H   LIG d   1       2.209   0.996  -9.056  0.00  0.00     0.027 H 
ATOM     39  H   LIG d   1       1.624  -0.630  -9.515  0.00  0.00     0.027 H 
ATOM     40  H   LIG d   1       2.971   1.076 -11.222  0.00  0.00     0.034 H 
ATOM     41  H   LIG d   1       2.770  -0.592 -11.527  0.00  0.00     0.034 H 
ENDROOT
BRANCH   1  42
ATOM     42  C   LIG d   1       4.298  -2.213  -4.790  0.00  0.00    -0.059 C 
ATOM     43  H   LIG d   1       4.642  -2.840  -5.612  0.00  0.00     0.024 H 
ATOM     44  H   LIG d   1       4.702  -2.590  -3.850  0.00  0.00     0.024 H 
ATOM     45  H   LIG d   1       3.209  -2.231  -4.750  0.00  0.00     0.024 H 
ENDBRANCH   1  42
BRANCH   4  46
ATOM     46  O   LIG d   1       5.533   1.531  -2.425  0.00  0.00    -0.392 OA
ATOM     47  H   LIG d   1       5.896   1.942  -1.628  0.00  0.00     0.210 HD
ENDBRANCH   4  46
BRANCH  17  48
ATOM     48  C   LIG d   1       4.827   1.587  -8.828  0.00  0.00    -0.053 C 
ATOM     49  H   LIG d   1       4.761   2.155  -9.756  0.00  0.00     0.024 H 
ATOM     50  H   LIG d   1       3.957   1.806  -8.206  0.00  0.00     0.024 H 
ATOM     51  H   LIG d   1       5.735   1.865  -8.294  0.00  0.00     0.024 H 
ENDBRANCH  17  48
TORSDOF 3
ENDMDL
MODEL 2
REMARK VINA RESULT:      -5.9      3.412      5.796
REMARK  3 active torsions:
REMARK  status: ('A' for Active; 'I' for Inactive)
REMARK    1  A    between atoms: C_1  and  C_2 
REMARK    2  A    between atoms: C_5  and  O_26 
REMARK    3  A    between atoms: C_18  and  C_25 
ROOT
ATOM      1  C   LIG d   1       7.628  -2.782  -4.905  0.00  0.00    -0.026 C 
ATOM      2  C   LIG d   1       8.464  -3.407  -3.781  0.00  0.00    -0.045 C 
ATOM      3  C   LIG d   1       9.545  -4.318  -4.354  0.00  0.00    -0.026 C 
ATOM      4  C   LIG d   1       8.931  -5.414  -5.223  0.00  0.00     0.056 C 
ATOM      5  H   LIG d   1       9.731  -6.010  -5.670  0.00  0.00     0.059 H 
ATOM      6  C   LIG d   1       8.087  -4.794  -6.337  0.00  0.00    -0.024 C 
ATOM      7  C   LIG d   1       6.999  -3.922  -5.721  0.00  0.00    -0.033 C 
ATOM      8  H   LIG d   1       6.417  -4.547  -5.023  0.00  0.00     0.031 H 
ATOM      9  C   LIG d   1       6.041  -3.408  -6.788  0.00  0.00    -0.049 C 
ATOM     10  C   LIG d   1       4.923  -2.566  -6.147  0.00  0.00    -0.049 C 
ATOM     11  C   LIG d   1       5.592  -1.419  -5.409  0.00  0.00    -0.034 C 
ATOM     12  H   LIG d   1       6.246  -0.917  -6.148  0.00  0.00     0.031 H 
ATOM     13  C   LIG d   1       6.475  -1.994  -4.294  0.00  0.00    -0.032 C 
ATOM     14  H   LIG d   1       5.885  -2.725  -3.724  0.00  0.00     0.031 H 
ATOM     15  C   LIG d   1       6.869  -0.875  -3.346  0.00  0.00    -0.049 C 
ATOM     16  C   LIG d   1       5.631  -0.510  -2.498  0.00  0.00    -0.040 C 
ATOM     17  C   LIG d   1       4.389  -0.543  -3.356  0.00  0.00     0.029 C 
ATOM     18  C   LIG d   1       4.713  -0.347  -4.851  0.00  0.00    -0.025 C 
ATOM     19  H   LIG d   1       5.232   0.627  -4.970  0.00  0.00     0.031 H 
ATOM     20  C   LIG d   1       3.308  -0.203  -5.454  0.00  0.00    -0.042 C 
ATOM     21  C   LIG d   1       2.565   0.642  -4.383  0.00  0.00     0.007 C 
ATOM     22  C   LIG d   1       3.416   0.597  -3.119  0.00  0.00     0.140 C 
ATOM     23  O   LIG d   1       3.344   1.299  -2.148  0.00  0.00    -0.297 OA
ATOM     24  H   LIG d   1       8.933  -2.609  -3.200  0.00  0.00     0.027 H 
ATOM     25  H   LIG d   1       7.808  -3.983  -3.127  0.00  0.00     0.027 H 
ATOM     26  H   LIG d   1      10.086  -4.790  -3.524  0.00  0.00     0.029 H 
ATOM     27  H   LIG d   1      10.261  -3.742  -4.937  0.00  0.00     0.029 H 
ATOM     28  H   LIG d   1       8.718  -4.217  -7.006  0.00  0.00     0.029 H 
ATOM     29  H   LIG d   1       7.616  -5.599  -6.912  0.00  0.00     0.029 H 
ATOM     30  H   LIG d   1       6.574  -2.801  -7.515  0.00  0.00     0.027 H 
ATOM     31  H   LIG d   1       5.585  -4.257  -7.301  0.00  0.00     0.027 H 
ATOM     32  H   LIG d   1       4.268  -2.180  -6.926  0.00  0.00     0.027 H 
ATOM     33  H   LIG d   1       4.357  -3.185  -5.456  0.00  0.00     0.027 H 
ATOM     34  H   LIG d   1       7.676  -1.204  -2.689  0.00  0.00     0.027 H 
ATOM     35  H   LIG d   1       7.195   0.000  -3.911  0.00  0.00     0.027 H 
ATOM     36  H   LIG d   1       5.532  -1.228  -1.679  0.00  0.00     0.028 H 
ATOM     37  H   LIG d   1       5.765   0.489  -2.076  0.00  0.00     0.028 H 
ATOM     38  H   LIG d   1       2.828  -1.166  -5.598  0.00  0.00     0.027 H 
ATOM     39  H   LIG d   1       3.353   0.343  -6.400  0.00  0.00     0.027 H 
ATOM     40  H   LIG d   1       1.658   0.252  -4.221  0.00  0.00     0.034 H 
ATOM     41  H   LIG d   1       2.462   1.671  -4.727  0.00  0.00     0.034 H 
ENDROOT
BRANCH   1  42
ATOM     42  C   LIG d   1       8.512  -1.888  -5.766  0.00  0.00    -0.059 C 
ATOM     43  H   LIG d   1       9.404  -1.610  -5.203  0.00  0.00     0.024 H 
ATOM     44  H   LIG d   1       8.804  -2.426  -6.667  0.00  0.00     0.024 H 
ATOM     45  H   LIG d   1       7.962  -0.988  -6.041  0.00  0.00     0.024 H 
ENDBRANCH   1  42
BRANCH   4  46
ATOM     46  O   LIG d   1       8.112  -6.264  -4.417  0.00  0.00    -0.392 OA
ATOM     47  H   LIG d   1       7.165  -6.188  -4.601  0.00  0.00     0.210 HD
ENDBRANCH   4  46
BRANCH  17  48
ATOM     48  C   LIG d   1       3.615  -1.839  -3.112  0.00  0.00    -0.053 C 
ATOM     49  H   LIG d   1       4.289  -2.594  -2.706  0.00  0.00     0.024 H 
ATOM     50  H   LIG d   1       2.810  -1.653  -2.401  0.00  0.00     0.024 H 
ATOM     51  H   LIG d   1       3.195  -2.196  -4.052  0.00  0.00     0.024 H 
ENDBRANCH  17  48
TORSDOF 3
ENDMDL
MODEL 3
REMARK VINA RESULT:      -5.8      2.919      4.271
REMARK  3 active torsions:
REMARK  status: ('A' for Active; 'I' for Inactive)
REMARK    1  A    between atoms: C_1  and  C_2 
REMARK    2  A    between atoms: C_5  and  O_26 
REMARK    3  A    between atoms: C_18  and  C_25 
ROOT
ATOM      1  C   LIG d   1       5.077  -1.201  -3.716  0.00  0.00    -0.026 C 
ATOM      2  C   LIG d   1       5.547  -0.325  -2.547  0.00  0.00    -0.045 C 
ATOM      3  C   LIG d   1       4.355   0.295  -1.823  0.00  0.00    -0.026 C 
ATOM      4  C   LIG d   1       3.501   1.118  -2.784  0.00  0.00     0.056 C 
ATOM      5  H   LIG d   1       2.623   1.496  -2.254  0.00  0.00     0.059 H 
ATOM      6  C   LIG d   1       3.041   0.252  -3.958  0.00  0.00    -0.024 C 
ATOM      7  C   LIG d   1       4.261  -0.319  -4.673  0.00  0.00    -0.033 C 
ATOM      8  H   LIG d   1       4.903   0.526  -4.975  0.00  0.00     0.031 H 
ATOM      9  C   LIG d   1       3.854  -1.063  -5.939  0.00  0.00    -0.049 C 
ATOM     10  C   LIG d   1       5.098  -1.594  -6.674  0.00  0.00    -0.049 C 
ATOM     11  C   LIG d   1       5.832  -2.509  -5.709  0.00  0.00    -0.034 C 
ATOM     12  H   LIG d   1       5.089  -3.254  -5.363  0.00  0.00     0.031 H 
ATOM     13  C   LIG d   1       6.291  -1.687  -4.498  0.00  0.00    -0.032 C 
ATOM     14  H   LIG d   1       6.793  -0.780  -4.862  0.00  0.00     0.031 H 
ATOM     15  C   LIG d   1       7.307  -2.494  -3.706  0.00  0.00    -0.049 C 
ATOM     16  C   LIG d   1       8.631  -2.501  -4.498  0.00  0.00    -0.040 C 
ATOM     17  C   LIG d   1       8.350  -2.643  -5.975  0.00  0.00     0.029 C 
ATOM     18  C   LIG d   1       6.982  -3.301  -6.243  0.00  0.00    -0.025 C 
ATOM     19  H   LIG d   1       6.974  -4.299  -5.757  0.00  0.00     0.031 H 
ATOM     20  C   LIG d   1       7.039  -3.523  -7.762  0.00  0.00    -0.042 C 
ATOM     21  C   LIG d   1       8.515  -3.954  -7.986  0.00  0.00     0.007 C 
ATOM     22  C   LIG d   1       9.276  -3.589  -6.716  0.00  0.00     0.140 C 
ATOM     23  O   LIG d   1      10.364  -3.961  -6.369  0.00  0.00    -0.297 OA
ATOM     24  H   LIG d   1       6.114  -0.942  -1.846  0.00  0.00     0.027 H 
ATOM     25  H   LIG d   1       6.194   0.464  -2.930  0.00  0.00     0.027 H 
ATOM     26  H   LIG d   1       4.728   0.955  -1.031  0.00  0.00     0.029 H 
ATOM     27  H   LIG d   1       3.747  -0.478  -1.356  0.00  0.00     0.029 H 
ATOM     28  H   LIG d   1       2.390  -0.542  -3.603  0.00  0.00     0.029 H 
ATOM     29  H   LIG d   1       2.476   0.877  -4.658  0.00  0.00     0.029 H 
ATOM     30  H   LIG d   1       3.199  -1.895  -5.694  0.00  0.00     0.027 H 
ATOM     31  H   LIG d   1       3.324  -0.378  -6.604  0.00  0.00     0.027 H 
ATOM     32  H   LIG d   1       4.787  -2.151  -7.556  0.00  0.00     0.027 H 
ATOM     33  H   LIG d   1       5.730  -0.758  -6.962  0.00  0.00     0.027 H 
ATOM     34  H   LIG d   1       7.469  -2.038  -2.728  0.00  0.00     0.027 H 
ATOM     35  H   LIG d   1       6.954  -3.519  -3.576  0.00  0.00     0.027 H 
ATOM     36  H   LIG d   1       9.166  -1.566  -4.313  0.00  0.00     0.028 H 
ATOM     37  H   LIG d   1       9.252  -3.334  -4.157  0.00  0.00     0.028 H 
ATOM     38  H   LIG d   1       6.806  -2.617  -8.313  0.00  0.00     0.027 H 
ATOM     39  H   LIG d   1       6.362  -4.329  -8.055  0.00  0.00     0.027 H 
ATOM     40  H   LIG d   1       8.886  -3.472  -8.780  0.00  0.00     0.034 H 
ATOM     41  H   LIG d   1       8.566  -5.029  -8.155  0.00  0.00     0.034 H 
ENDROOT
BRANCH   1  42
ATOM     42  C   LIG d   1       4.258  -2.371  -3.184  0.00  0.00    -0.059 C 
ATOM     43  H   LIG d   1       3.231  -2.047  -3.011  0.00  0.00     0.024 H 
ATOM     44  H   LIG d   1       4.266  -3.181  -3.914  0.00  0.00     0.024 H 
ATOM     45  H   LIG d   1       4.690  -2.722  -2.247  0.00  0.00     0.024 H 
ENDBRANCH   1  42
BRANCH   4  46
ATOM     46  O   LIG d   1       4.260   2.225  -3.275  0.00  0.00    -0.392 OA
ATOM     47  H   LIG d   1       4.707   2.054  -4.116  0.00  0.00     0.210 HD
ENDBRANCH   4  46
BRANCH  17  48
ATOM     48  C   LIG d   1       8.467  -1.283  -6.665  0.00  0.00    -0.053 C 
ATOM     49  H   LIG d   1       7.513  -0.760  -6.602  0.00  0.00     0.024 H 
ATOM     50  H   LIG d   1       9.239  -0.691  -6.172  0.00  0.00     0.024 H 
ATOM     51  H   LIG d   1       8.733  -1.428  -7.712  0.00  0.00     0.024 H 
ENDBRANCH  17  48
TORSDOF 3
ENDMDL
MODEL 4
REMARK VINA RESULT:      -5.6      3.435      5.982
REMARK  3 active torsions:
REMARK  status: ('A' for Active; 'I' for Inactive)
REMARK    1  A    between atoms: C_1  and  C_2 
REMARK    2  A    between atoms: C_5  and  O_26 
REMARK    3  A    between atoms: C_18  and  C_25 
ROOT
ATOM      1  C   LIG d   1       8.851   0.586  -5.769  0.00  0.00    -0.026 C 
ATOM      2  C   LIG d   1       9.132   0.441  -7.270  0.00  0.00    -0.045 C 
ATOM      3  C   LIG d   1      10.257   1.376  -7.702  0.00  0.00    -0.026 C 
ATOM      4  C   LIG d   1       9.920   2.828  -7.370  0.00  0.00     0.056 C 
ATOM      5  H   LIG d   1      10.768   3.465  -7.632  0.00  0.00     0.059 H 
ATOM      6  C   LIG d   1       9.627   2.974  -5.876  0.00  0.00    -0.024 C 
ATOM      7  C   LIG d   1       8.474   2.051  -5.494  0.00  0.00    -0.033 C 
ATOM      8  H   LIG d   1       7.614   2.298  -6.138  0.00  0.00     0.031 H 
ATOM      9  C   LIG d   1       8.049   2.276  -4.049  0.00  0.00    -0.049 C 
ATOM     10  C   LIG d   1       6.857   1.370  -3.691  0.00  0.00    -0.049 C 
ATOM     11  C   LIG d   1       7.302  -0.065  -3.917  0.00  0.00    -0.034 C 
ATOM     12  H   LIG d   1       8.232  -0.196  -3.332  0.00  0.00     0.031 H 
ATOM     13  C   LIG d   1       7.633  -0.253  -5.403  0.00  0.00    -0.032 C 
ATOM     14  H   LIG d   1       6.803   0.150  -6.000  0.00  0.00     0.031 H 
ATOM     15  C   LIG d   1       7.742  -1.740  -5.702  0.00  0.00    -0.049 C 
ATOM     16  C   LIG d   1       6.315  -2.330  -5.705  0.00  0.00    -0.040 C 
ATOM     17  C   LIG d   1       5.497  -1.711  -4.598  0.00  0.00     0.029 C 
ATOM     18  C   LIG d   1       6.383  -1.154  -3.466  0.00  0.00    -0.025 C 
ATOM     19  H   LIG d   1       6.998  -1.985  -3.064  0.00  0.00     0.031 H 
ATOM     20  C   LIG d   1       5.334  -0.796  -2.402  0.00  0.00    -0.042 C 
ATOM     21  C   LIG d   1       4.323  -1.970  -2.514  0.00  0.00     0.007 C 
ATOM     22  C   LIG d   1       4.621  -2.682  -3.829  0.00  0.00     0.140 C 
ATOM     23  O   LIG d   1       4.251  -3.766  -4.187  0.00  0.00    -0.297 OA
ATOM     24  H   LIG d   1       9.419  -0.592  -7.480  0.00  0.00     0.027 H 
ATOM     25  H   LIG d   1       8.224   0.678  -7.827  0.00  0.00     0.027 H 
ATOM     26  H   LIG d   1      10.394   1.287  -8.787  0.00  0.00     0.029 H 
ATOM     27  H   LIG d   1      11.193   1.095  -7.222  0.00  0.00     0.029 H 
ATOM     28  H   LIG d   1      10.517   2.747  -5.298  0.00  0.00     0.029 H 
ATOM     29  H   LIG d   1       9.335   4.010  -5.673  0.00  0.00     0.029 H 
ATOM     30  H   LIG d   1       8.875   2.066  -3.374  0.00  0.00     0.027 H 
ATOM     31  H   LIG d   1       7.745   3.317  -3.922  0.00  0.00     0.027 H 
ATOM     32  H   LIG d   1       6.589   1.520  -2.647  0.00  0.00     0.027 H 
ATOM     33  H   LIG d   1       6.014   1.614  -4.333  0.00  0.00     0.027 H 
ATOM     34  H   LIG d   1       8.201  -1.893  -6.680  0.00  0.00     0.027 H 
ATOM     35  H   LIG d   1       8.340  -2.235  -4.936  0.00  0.00     0.027 H 
ATOM     36  H   LIG d   1       5.843  -2.125  -6.671  0.00  0.00     0.028 H 
ATOM     37  H   LIG d   1       6.372  -3.412  -5.565  0.00  0.00     0.028 H 
ATOM     38  H   LIG d   1       4.855   0.156  -2.609  0.00  0.00     0.027 H 
ATOM     39  H   LIG d   1       5.788  -0.782  -1.408  0.00  0.00     0.027 H 
ATOM     40  H   LIG d   1       3.390  -1.609  -2.502  0.00  0.00     0.034 H 
ATOM     41  H   LIG d   1       4.458  -2.657  -1.679  0.00  0.00     0.034 H 
ENDROOT
BRANCH   1  42
ATOM     42  C   LIG d   1      10.078   0.156  -4.973  0.00  0.00    -0.059 C 
ATOM     43  H   LIG d   1      10.925   0.036  -5.649  0.00  0.00     0.024 H 
ATOM     44  H   LIG d   1      10.312   0.917  -4.229  0.00  0.00     0.024 H 
ATOM     45  H   LIG d   1       9.874  -0.791  -4.474  0.00  0.00     0.024 H 
ENDBRANCH   1  42
BRANCH   4  46
ATOM     46  O   LIG d   1       8.778   3.240  -8.124  0.00  0.00    -0.392 OA
ATOM     47  H   LIG d   1       7.960   3.283  -7.609  0.00  0.00     0.210 HD
ENDBRANCH   4  46
BRANCH  17  48
ATOM     48  C   LIG d   1       4.568  -0.637  -5.167  0.00  0.00    -0.053 C 
ATOM     49  H   LIG d   1       5.163   0.146  -5.638  0.00  0.00     0.024 H 
ATOM     50  H   LIG d   1       3.906  -1.085  -5.909  0.00  0.00     0.024 H 
ATOM     51  H   LIG d   1       3.973  -0.206  -4.362  0.00  0.00     0.024 H 
ENDBRANCH  17  48
TORSDOF 3
ENDMDL
MODEL 5
REMARK VINA RESULT:      -5.5      3.309      4.449
REMARK  3 active torsions:
REMARK  status: ('A' for Active; 'I' for Inactive)
REMARK    1  A    between atoms: C_1  and  C_2 
REMARK    2  A    between atoms: C_5  and  O_26 
REMARK    3  A    between atoms: C_18  and  C_25 
ROOT
ATOM      1  C   LIG d   1       6.100  -0.852  -3.800  0.00  0.00    -0.026 C 
ATOM      2  C   LIG d   1       5.241   0.114  -2.974  0.00  0.00    -0.045 C 
ATOM      3  C   LIG d   1       4.302  -0.654  -2.049  0.00  0.00    -0.026 C 
ATOM      4  C   LIG d   1       3.407  -1.602  -2.843  0.00  0.00     0.056 C 
ATOM      5  H   LIG d   1       2.792  -2.182  -2.151  0.00  0.00     0.059 H 
ATOM      6  C   LIG d   1       4.259  -2.558  -3.678  0.00  0.00    -0.024 C 
ATOM      7  C   LIG d   1       5.156  -1.753  -4.612  0.00  0.00    -0.033 C 
ATOM      8  H   LIG d   1       4.510  -1.096  -5.218  0.00  0.00     0.031 H 
ATOM      9  C   LIG d   1       5.911  -2.666  -5.569  0.00  0.00    -0.049 C 
ATOM     10  C   LIG d   1       6.777  -1.838  -6.534  0.00  0.00    -0.049 C 
ATOM     11  C   LIG d   1       7.733  -1.017  -5.687  0.00  0.00    -0.034 C 
ATOM     12  H   LIG d   1       8.255  -1.736  -5.026  0.00  0.00     0.031 H 
ATOM     13  C   LIG d   1       6.920  -0.057  -4.809  0.00  0.00    -0.032 C 
ATOM     14  H   LIG d   1       6.188   0.461  -5.444  0.00  0.00     0.031 H 
ATOM     15  C   LIG d   1       7.852   0.991  -4.223  0.00  0.00    -0.049 C 
ATOM     16  C   LIG d   1       8.233   1.973  -5.352  0.00  0.00    -0.040 C 
ATOM     17  C   LIG d   1       8.453   1.219  -6.642  0.00  0.00     0.029 C 
ATOM     18  C   LIG d   1       8.810  -0.260  -6.393  0.00  0.00    -0.025 C 
ATOM     19  H   LIG d   1       9.728  -0.297  -5.771  0.00  0.00     0.031 H 
ATOM     20  C   LIG d   1       9.188  -0.726  -7.808  0.00  0.00    -0.042 C 
ATOM     21  C   LIG d   1       9.958   0.498  -8.374  0.00  0.00     0.007 C 
ATOM     22  C   LIG d   1       9.650   1.674  -7.454  0.00  0.00     0.140 C 
ATOM     23  O   LIG d   1      10.219   2.729  -7.380  0.00  0.00    -0.297 OA
ATOM     24  H   LIG d   1       5.897   0.751  -2.376  0.00  0.00     0.027 H 
ATOM     25  H   LIG d   1       4.658   0.740  -3.651  0.00  0.00     0.027 H 
ATOM     26  H   LIG d   1       3.667   0.065  -1.516  0.00  0.00     0.029 H 
ATOM     27  H   LIG d   1       4.869  -1.214  -1.307  0.00  0.00     0.029 H 
ATOM     28  H   LIG d   1       4.848  -3.197  -3.026  0.00  0.00     0.029 H 
ATOM     29  H   LIG d   1       3.596  -3.191  -4.278  0.00  0.00     0.029 H 
ATOM     30  H   LIG d   1       6.547  -3.352  -5.014  0.00  0.00     0.027 H 
ATOM     31  H   LIG d   1       5.193  -3.245  -6.154  0.00  0.00     0.027 H 
ATOM     32  H   LIG d   1       7.333  -2.508  -7.187  0.00  0.00     0.027 H 
ATOM     33  H   LIG d   1       6.136  -1.187  -7.124  0.00  0.00     0.027 H 
ATOM     34  H   LIG d   1       7.350   1.534  -3.422  0.00  0.00     0.027 H 
ATOM     35  H   LIG d   1       8.753   0.516  -3.833  0.00  0.00     0.027 H 
ATOM     36  H   LIG d   1       7.427   2.700  -5.483  0.00  0.00     0.028 H 
ATOM     37  H   LIG d   1       9.145   2.506  -5.073  0.00  0.00     0.028 H 
ATOM     38  H   LIG d   1       8.312  -0.952  -8.408  0.00  0.00     0.027 H 
ATOM     39  H   LIG d   1       9.847  -1.597  -7.758  0.00  0.00     0.027 H 
ATOM     40  H   LIG d   1       9.652   0.682  -9.309  0.00  0.00     0.034 H 
ATOM     41  H   LIG d   1      11.029   0.296  -8.375  0.00  0.00     0.034 H 
ENDROOT
BRANCH   1  42
ATOM     42  C   LIG d   1       6.999  -1.661  -2.873  0.00  0.00    -0.059 C 
ATOM     43  H   LIG d   1       8.003  -1.712  -3.294  0.00  0.00     0.024 H 
ATOM     44  H   LIG d   1       7.039  -1.179  -1.895  0.00  0.00     0.024 H 
ATOM     45  H   LIG d   1       6.598  -2.668  -2.766  0.00  0.00     0.024 H 
ENDBRANCH   1  42
BRANCH   4  46
ATOM     46  O   LIG d   1       2.552  -0.847  -3.705  0.00  0.00    -0.392 OA
ATOM     47  H   LIG d   1       1.783  -1.338  -4.026  0.00  0.00     0.210 HD
ENDBRANCH   4  46
BRANCH  17  48
ATOM     48  C   LIG d   1       7.228   1.359  -7.547  0.00  0.00    -0.053 C 
ATOM     49  H   LIG d   1       7.505   1.899  -8.453  0.00  0.00     0.024 H 
ATOM     50  H   LIG d   1       6.860   0.367  -7.815  0.00  0.00     0.024 H 
ATOM     51  H   LIG d   1       6.447   1.907  -7.022  0.00  0.00     0.024 H 
ENDBRANCH  17  48
TORSDOF 3
ENDMDL
MODEL 6
REMARK VINA RESULT:      -5.5      2.082      5.878
REMARK  3 active torsions:
REMARK  status: ('A' for Active; 'I' for Inactive)
REMARK    1  A    between atoms: C_1  and  C_2 
REMARK    2  A    between atoms: C_5  and  O_26 
REMARK    3  A    between atoms: C_18  and  C_25 
ROOT
ATOM      1  C   LIG d   1       4.164  -0.869  -8.714  0.00  0.00    -0.026 C 
ATOM      2  C   LIG d   1       3.991  -1.898  -9.838  0.00  0.00    -0.045 C 
ATOM      3  C   LIG d   1       3.173  -1.313 -10.985  0.00  0.00    -0.026 C 
ATOM      4  C   LIG d   1       1.807  -0.837 -10.495  0.00  0.00     0.056 C 
ATOM      5  H   LIG d   1       1.271  -0.366 -11.323  0.00  0.00     0.059 H 
ATOM      6  C   LIG d   1       1.976   0.180  -9.366  0.00  0.00    -0.024 C 
ATOM      7  C   LIG d   1       2.767  -0.455  -8.227  0.00  0.00    -0.033 C 
ATOM      8  H   LIG d   1       2.238  -1.373  -7.918  0.00  0.00     0.031 H 
ATOM      9  C   LIG d   1       2.826   0.471  -7.019  0.00  0.00    -0.049 C 
ATOM     10  C   LIG d   1       3.588  -0.200  -5.863  0.00  0.00    -0.049 C 
ATOM     11  C   LIG d   1       4.980  -0.529  -6.375  0.00  0.00    -0.034 C 
ATOM     12  H   LIG d   1       5.394   0.417  -6.774  0.00  0.00     0.031 H 
ATOM     13  C   LIG d   1       4.861  -1.530  -7.531  0.00  0.00    -0.032 C 
ATOM     14  H   LIG d   1       4.199  -2.349  -7.217  0.00  0.00     0.031 H 
ATOM     15  C   LIG d   1       6.230  -2.123  -7.818  0.00  0.00    -0.049 C 
ATOM     16  C   LIG d   1       6.566  -3.116  -6.685  0.00  0.00    -0.040 C 
ATOM     17  C   LIG d   1       6.106  -2.561  -5.358  0.00  0.00     0.029 C 
ATOM     18  C   LIG d   1       5.984  -1.025  -5.384  0.00  0.00    -0.025 C 
ATOM     19  H   LIG d   1       6.975  -0.601  -5.649  0.00  0.00     0.031 H 
ATOM     20  C   LIG d   1       5.726  -0.712  -3.902  0.00  0.00    -0.042 C 
ATOM     21  C   LIG d   1       6.662  -1.716  -3.176  0.00  0.00     0.007 C 
ATOM     22  C   LIG d   1       7.079  -2.755  -4.210  0.00  0.00     0.140 C 
ATOM     23  O   LIG d   1       7.973  -3.553  -4.143  0.00  0.00    -0.297 OA
ATOM     24  H   LIG d   1       4.976  -2.190 -10.209  0.00  0.00     0.027 H 
ATOM     25  H   LIG d   1       3.486  -2.779  -9.440  0.00  0.00     0.027 H 
ATOM     26  H   LIG d   1       3.022  -2.091 -11.744  0.00  0.00     0.029 H 
ATOM     27  H   LIG d   1       3.707  -0.487 -11.453  0.00  0.00     0.029 H 
ATOM     28  H   LIG d   1       2.474   1.071  -9.738  0.00  0.00     0.029 H 
ATOM     29  H   LIG d   1       0.985   0.465  -8.996  0.00  0.00     0.029 H 
ATOM     30  H   LIG d   1       3.321   1.403  -7.281  0.00  0.00     0.027 H 
ATOM     31  H   LIG d   1       1.810   0.691  -6.685  0.00  0.00     0.027 H 
ATOM     32  H   LIG d   1       3.650   0.488  -5.021  0.00  0.00     0.027 H 
ATOM     33  H   LIG d   1       3.067  -1.108  -5.567  0.00  0.00     0.027 H 
ATOM     34  H   LIG d   1       6.219  -2.651  -8.773  0.00  0.00     0.027 H 
ATOM     35  H   LIG d   1       6.983  -1.334  -7.847  0.00  0.00     0.027 H 
ATOM     36  H   LIG d   1       6.065  -4.068  -6.880  0.00  0.00     0.028 H 
ATOM     37  H   LIG d   1       7.645  -3.286  -6.662  0.00  0.00     0.028 H 
ATOM     38  H   LIG d   1       4.688  -0.873  -3.629  0.00  0.00     0.027 H 
ATOM     39  H   LIG d   1       6.022   0.315  -3.673  0.00  0.00     0.027 H 
ATOM     40  H   LIG d   1       6.170  -2.141  -2.415  0.00  0.00     0.034 H 
ATOM     41  H   LIG d   1       7.541  -1.196  -2.795  0.00  0.00     0.034 H 
ENDROOT
BRANCH   1  42
ATOM     42  C   LIG d   1       4.962   0.324  -9.228  0.00  0.00    -0.059 C 
ATOM     43  H   LIG d   1       4.593   0.609 -10.214  0.00  0.00     0.024 H 
ATOM     44  H   LIG d   1       4.848   1.161  -8.540  0.00  0.00     0.024 H 
ATOM     45  H   LIG d   1       6.016   0.053  -9.300  0.00  0.00     0.024 H 
ENDBRANCH   1  42
BRANCH   4  46
ATOM     46  O   LIG d   1       1.050  -1.953 -10.024  0.00  0.00    -0.392 OA
ATOM     47  H   LIG d   1       1.490  -2.465  -9.332  0.00  0.00     0.210 HD
ENDBRANCH   4  46
BRANCH  17  48
ATOM     48  C   LIG d   1       4.793  -3.224  -4.938  0.00  0.00    -0.053 C 
ATOM     49  H   LIG d   1       4.366  -3.757  -5.789  0.00  0.00     0.024 H 
ATOM     50  H   LIG d   1       4.985  -3.930  -4.128  0.00  0.00     0.024 H 
ATOM     51  H   LIG d   1       4.092  -2.462  -4.598  0.00  0.00     0.024 H 
ENDBRANCH  17  48
TORSDOF 3
ENDMDL
MODEL 7
REMARK VINA RESULT:      -5.4      7.938     10.540
REMARK  3 active torsions:
REMARK  status: ('A' for Active; 'I' for Inactive)
REMARK    1  A    between atoms: C_1  and  C_2 
REMARK    2  A    between atoms: C_5  and  O_26 
REMARK    3  A    between atoms: C_18  and  C_25 
ROOT
ATOM      1  C   LIG d   1      10.420   4.258  -3.698  0.00  0.00    -0.026 C 
ATOM      2  C   LIG d   1       9.948   2.967  -3.016  0.00  0.00    -0.045 C 
ATOM      3  C   LIG d   1       9.846   1.828  -4.025  0.00  0.00    -0.026 C 
ATOM      4  C   LIG d   1       8.901   2.192  -5.167  0.00  0.00     0.056 C 
ATOM      5  H   LIG d   1       8.898   1.386  -5.904  0.00  0.00     0.059 H 
ATOM      6  C   LIG d   1       9.361   3.485  -5.842  0.00  0.00    -0.024 C 
ATOM      7  C   LIG d   1       9.415   4.605  -4.808  0.00  0.00    -0.033 C 
ATOM      8  H   LIG d   1       8.419   4.682  -4.341  0.00  0.00     0.031 H 
ATOM      9  C   LIG d   1       9.720   5.943  -5.466  0.00  0.00    -0.049 C 
ATOM     10  C   LIG d   1       9.728   7.070  -4.418  0.00  0.00    -0.049 C 
ATOM     11  C   LIG d   1      10.780   6.712  -3.382  0.00  0.00    -0.034 C 
ATOM     12  H   LIG d   1      11.718   6.535  -3.944  0.00  0.00     0.031 H 
ATOM     13  C   LIG d   1      10.374   5.403  -2.694  0.00  0.00    -0.032 C 
ATOM     14  H   LIG d   1       9.323   5.483  -2.383  0.00  0.00     0.031 H 
ATOM     15  C   LIG d   1      11.216   5.217  -1.443  0.00  0.00    -0.049 C 
ATOM     16  C   LIG d   1      10.707   6.209  -0.375  0.00  0.00    -0.040 C 
ATOM     17  C   LIG d   1      10.363   7.531  -1.019  0.00  0.00     0.029 C 
ATOM     18  C   LIG d   1      11.113   7.739  -2.349  0.00  0.00    -0.025 C 
ATOM     19  H   LIG d   1      12.203   7.688  -2.146  0.00  0.00     0.031 H 
ATOM     20  C   LIG d   1      10.768   9.201  -2.672  0.00  0.00    -0.042 C 
ATOM     21  C   LIG d   1      10.823   9.878  -1.275  0.00  0.00     0.007 C 
ATOM     22  C   LIG d   1      10.805   8.757  -0.242  0.00  0.00     0.140 C 
ATOM     23  O   LIG d   1      11.076   8.817   0.926  0.00  0.00    -0.297 OA
ATOM     24  H   LIG d   1      10.662   2.696  -2.235  0.00  0.00     0.027 H 
ATOM     25  H   LIG d   1       8.973   3.142  -2.560  0.00  0.00     0.027 H 
ATOM     26  H   LIG d   1       9.455   0.939  -3.515  0.00  0.00     0.029 H 
ATOM     27  H   LIG d   1      10.829   1.581  -4.423  0.00  0.00     0.029 H 
ATOM     28  H   LIG d   1      10.331   3.337  -6.309  0.00  0.00     0.029 H 
ATOM     29  H   LIG d   1       8.638   3.754  -6.621  0.00  0.00     0.029 H 
ATOM     30  H   LIG d   1      10.687   5.909  -5.963  0.00  0.00     0.027 H 
ATOM     31  H   LIG d   1       8.949   6.164  -6.208  0.00  0.00     0.027 H 
ATOM     32  H   LIG d   1       9.980   8.013  -4.900  0.00  0.00     0.027 H 
ATOM     33  H   LIG d   1       8.746   7.138  -3.955  0.00  0.00     0.027 H 
ATOM     34  H   LIG d   1      11.116   4.197  -1.069  0.00  0.00     0.027 H 
ATOM     35  H   LIG d   1      12.265   5.424  -1.661  0.00  0.00     0.027 H 
ATOM     36  H   LIG d   1       9.819   5.793   0.108  0.00  0.00     0.028 H 
ATOM     37  H   LIG d   1      11.482   6.355   0.381  0.00  0.00     0.028 H 
ATOM     38  H   LIG d   1       9.783   9.296  -3.116  0.00  0.00     0.027 H 
ATOM     39  H   LIG d   1      11.524   9.635  -3.331  0.00  0.00     0.027 H 
ATOM     40  H   LIG d   1      10.033  10.482  -1.166  0.00  0.00     0.034 H 
ATOM     41  H   LIG d   1      11.741  10.458  -1.179  0.00  0.00     0.034 H 
ENDROOT
BRANCH   1  42
ATOM     42  C   LIG d   1      11.828   4.062  -4.249  0.00  0.00    -0.059 C 
ATOM     43  H   LIG d   1      11.801   3.341  -5.066  0.00  0.00     0.024 H 
ATOM     44  H   LIG d   1      12.209   5.014  -4.616  0.00  0.00     0.024 H 
ATOM     45  H   LIG d   1      12.479   3.690  -3.458  0.00  0.00     0.024 H 
ENDBRANCH   1  42
BRANCH   4  46
ATOM     46  O   LIG d   1       7.576   2.364  -4.659  0.00  0.00    -0.392 OA
ATOM     47  H   LIG d   1       7.540   2.563  -3.713  0.00  0.00     0.210 HD
ENDBRANCH   4  46
BRANCH  17  48
ATOM     48  C   LIG d   1       8.849   7.648  -1.202  0.00  0.00    -0.053 C 
ATOM     49  H   LIG d   1       8.634   8.199  -2.118  0.00  0.00     0.024 H 
ATOM     50  H   LIG d   1       8.412   6.651  -1.268  0.00  0.00     0.024 H 
ATOM     51  H   LIG d   1       8.419   8.177  -0.352  0.00  0.00     0.024 H 
ENDBRANCH  17  48
TORSDOF 3
ENDMDL
MODEL 8
REMARK VINA RESULT:      -5.3      3.342      6.366
REMARK  3 active torsions:
REMARK  status: ('A' for Active; 'I' for Inactive)
REMARK    1  A    between atoms: C_1  and  C_2 
REMARK    2  A    between atoms: C_5  and  O_26 
REMARK    3  A    between atoms: C_18  and  C_25 
ROOT
ATOM      1  C   LIG d   1       8.735  -1.189  -6.020  0.00  0.00    -0.026 C 
ATOM      2  C   LIG d   1       8.760  -2.193  -7.180  0.00  0.00    -0.045 C 
ATOM      3  C   LIG d   1       9.993  -1.979  -8.053  0.00  0.00    -0.026 C 
ATOM      4  C   LIG d   1      10.038  -0.552  -8.594  0.00  0.00     0.056 C 
ATOM      5  H   LIG d   1      10.961  -0.410  -9.161  0.00  0.00     0.059 H 
ATOM      6  C   LIG d   1      10.000   0.452  -7.441  0.00  0.00    -0.024 C 
ATOM      7  C   LIG d   1       8.737   0.227  -6.616  0.00  0.00    -0.033 C 
ATOM      8  H   LIG d   1       7.871   0.303  -7.295  0.00  0.00     0.031 H 
ATOM      9  C   LIG d   1       8.582   1.303  -5.549  0.00  0.00    -0.049 C 
ATOM     10  C   LIG d   1       7.282   1.090  -4.754  0.00  0.00    -0.049 C 
ATOM     11  C   LIG d   1       7.358  -0.295  -4.134  0.00  0.00    -0.034 C 
ATOM     12  H   LIG d   1       8.309  -0.328  -3.569  0.00  0.00     0.031 H 
ATOM     13  C   LIG d   1       7.425  -1.339  -5.256  0.00  0.00    -0.032 C 
ATOM     14  H   LIG d   1       6.630  -1.121  -5.983  0.00  0.00     0.031 H 
ATOM     15  C   LIG d   1       7.155  -2.715  -4.671  0.00  0.00    -0.049 C 
ATOM     16  C   LIG d   1       5.648  -2.811  -4.354  0.00  0.00    -0.040 C 
ATOM     17  C   LIG d   1       5.154  -1.500  -3.789  0.00  0.00     0.029 C 
ATOM     18  C   LIG d   1       6.293  -0.677  -3.157  0.00  0.00    -0.025 C 
ATOM     19  H   LIG d   1       6.758  -1.284  -2.353  0.00  0.00     0.031 H 
ATOM     20  C   LIG d   1       5.512   0.463  -2.485  0.00  0.00    -0.042 C 
ATOM     21  C   LIG d   1       4.259  -0.267  -1.927  0.00  0.00     0.007 C 
ATOM     22  C   LIG d   1       4.201  -1.626  -2.615  0.00  0.00     0.140 C 
ATOM     23  O   LIG d   1       3.552  -2.588  -2.307  0.00  0.00    -0.297 OA
ATOM     24  H   LIG d   1       8.777  -3.207  -6.773  0.00  0.00     0.027 H 
ATOM     25  H   LIG d   1       7.859  -2.066  -7.781  0.00  0.00     0.027 H 
ATOM     26  H   LIG d   1       9.951  -2.674  -8.900  0.00  0.00     0.029 H 
ATOM     27  H   LIG d   1      10.901  -2.191  -7.491  0.00  0.00     0.029 H 
ATOM     28  H   LIG d   1      10.891   0.349  -6.827  0.00  0.00     0.029 H 
ATOM     29  H   LIG d   1       9.979   1.466  -7.856  0.00  0.00     0.029 H 
ATOM     30  H   LIG d   1       9.428   1.283  -4.866  0.00  0.00     0.027 H 
ATOM     31  H   LIG d   1       8.539   2.283  -6.030  0.00  0.00     0.027 H 
ATOM     32  H   LIG d   1       7.204   1.846  -3.975  0.00  0.00     0.027 H 
ATOM     33  H   LIG d   1       6.432   1.158  -5.429  0.00  0.00     0.027 H 
ATOM     34  H   LIG d   1       7.426  -3.489  -5.390  0.00  0.00     0.027 H 
ATOM     35  H   LIG d   1       7.730  -2.853  -3.754  0.00  0.00     0.027 H 
ATOM     36  H   LIG d   1       5.101  -3.046  -5.271  0.00  0.00     0.028 H 
ATOM     37  H   LIG d   1       5.481  -3.613  -3.630  0.00  0.00     0.028 H 
ATOM     38  H   LIG d   1       5.233   1.237  -3.194  0.00  0.00     0.027 H 
ATOM     39  H   LIG d   1       6.094   0.893  -1.666  0.00  0.00     0.027 H 
ATOM     40  H   LIG d   1       3.442   0.274  -2.127  0.00  0.00     0.034 H 
ATOM     41  H   LIG d   1       4.355  -0.398  -0.850  0.00  0.00     0.034 H 
ENDROOT
BRANCH   1  42
ATOM     42  C   LIG d   1       9.935  -1.425  -5.111  0.00  0.00    -0.059 C 
ATOM     43  H   LIG d   1       9.612  -1.395  -4.069  0.00  0.00     0.024 H 
ATOM     44  H   LIG d   1      10.369  -2.401  -5.329  0.00  0.00     0.024 H 
ATOM     45  H   LIG d   1      10.680  -0.649  -5.283  0.00  0.00     0.024 H 
ENDBRANCH   1  42
BRANCH   4  46
ATOM     46  O   LIG d   1       8.922  -0.330  -9.458  0.00  0.00    -0.392 OA
ATOM     47  H   LIG d   1       9.120   0.231 -10.221  0.00  0.00     0.210 HD
ENDBRANCH   4  46
BRANCH  17  48
ATOM     48  C   LIG d   1       4.417  -0.707  -4.870  0.00  0.00    -0.053 C 
ATOM     49  H   LIG d   1       3.543  -0.222  -4.433  0.00  0.00     0.024 H 
ATOM     50  H   LIG d   1       5.084   0.051  -5.282  0.00  0.00     0.024 H 
ATOM     51  H   LIG d   1       4.098  -1.382  -5.664  0.00  0.00     0.024 H 
ENDBRANCH  17  48
TORSDOF 3
ENDMDL
MODEL 9
REMARK VINA RESULT:      -5.2      8.848     10.049
REMARK  3 active torsions:
REMARK  status: ('A' for Active; 'I' for Inactive)
REMARK    1  A    between atoms: C_1  and  C_2 
REMARK    2  A    between atoms: C_5  and  O_26 
REMARK    3  A    between atoms: C_18  and  C_25 
ROOT
ATOM      1  C   LIG d   1      10.810   7.577  -3.796  0.00  0.00    -0.026 C 
ATOM      2  C   LIG d   1      10.534   8.805  -2.918  0.00  0.00    -0.045 C 
ATOM      3  C   LIG d   1      10.565   8.429  -1.440  0.00  0.00    -0.026 C 
ATOM      4  C   LIG d   1       9.551   7.328  -1.135  0.00  0.00     0.056 C 
ATOM      5  H   LIG d   1       9.640   7.036  -0.086  0.00  0.00     0.059 H 
ATOM      6  C   LIG d   1       9.815   6.108  -2.018  0.00  0.00    -0.024 C 
ATOM      7  C   LIG d   1       9.741   6.519  -3.485  0.00  0.00    -0.033 C 
ATOM      8  H   LIG d   1       8.755   6.982  -3.657  0.00  0.00     0.031 H 
ATOM      9  C   LIG d   1       9.845   5.305  -4.399  0.00  0.00    -0.049 C 
ATOM     10  C   LIG d   1       9.725   5.729  -5.873  0.00  0.00    -0.049 C 
ATOM     11  C   LIG d   1      10.841   6.723  -6.146  0.00  0.00    -0.034 C 
ATOM     12  H   LIG d   1      11.780   6.226  -5.837  0.00  0.00     0.031 H 
ATOM     13  C   LIG d   1      10.633   7.958  -5.261  0.00  0.00    -0.032 C 
ATOM     14  H   LIG d   1       9.589   8.286  -5.359  0.00  0.00     0.031 H 
ATOM     15  C   LIG d   1      11.523   9.084  -5.763  0.00  0.00    -0.049 C 
ATOM     16  C   LIG d   1      10.909   9.629  -7.070  0.00  0.00    -0.040 C 
ATOM     17  C   LIG d   1      10.373   8.490  -7.904  0.00  0.00     0.029 C 
ATOM     18  C   LIG d   1      11.056   7.151  -7.562  0.00  0.00    -0.025 C 
ATOM     19  H   LIG d   1      12.147   7.264  -7.730  0.00  0.00     0.031 H 
ATOM     20  C   LIG d   1      10.507   6.235  -8.667  0.00  0.00    -0.042 C 
ATOM     21  C   LIG d   1      10.503   7.167  -9.909  0.00  0.00     0.007 C 
ATOM     22  C   LIG d   1      10.662   8.592  -9.390  0.00  0.00     0.140 C 
ATOM     23  O   LIG d   1      10.951   9.580 -10.007  0.00  0.00    -0.297 OA
ATOM     24  H   LIG d   1      11.298   9.561  -3.115  0.00  0.00     0.027 H 
ATOM     25  H   LIG d   1       9.556   9.213  -3.173  0.00  0.00     0.027 H 
ATOM     26  H   LIG d   1      10.310   9.315  -0.845  0.00  0.00     0.029 H 
ATOM     27  H   LIG d   1      11.562   8.105  -1.148  0.00  0.00     0.029 H 
ATOM     28  H   LIG d   1      10.784   5.679  -1.781  0.00  0.00     0.029 H 
ATOM     29  H   LIG d   1       9.044   5.355  -1.819  0.00  0.00     0.029 H 
ATOM     30  H   LIG d   1      10.796   4.799  -4.248  0.00  0.00     0.027 H 
ATOM     31  H   LIG d   1       9.034   4.611  -4.169  0.00  0.00     0.027 H 
ATOM     32  H   LIG d   1       9.835   4.855  -6.512  0.00  0.00     0.027 H 
ATOM     33  H   LIG d   1       8.754   6.192  -6.036  0.00  0.00     0.027 H 
ATOM     34  H   LIG d   1      11.571   9.884  -5.022  0.00  0.00     0.027 H 
ATOM     35  H   LIG d   1      12.528   8.709  -5.960  0.00  0.00     0.027 H 
ATOM     36  H   LIG d   1      10.098  10.321  -6.826  0.00  0.00     0.028 H 
ATOM     37  H   LIG d   1      11.675  10.170  -7.630  0.00  0.00     0.028 H 
ATOM     38  H   LIG d   1       9.508   5.879  -8.439  0.00  0.00     0.027 H 
ATOM     39  H   LIG d   1      11.182   5.390  -8.831  0.00  0.00     0.027 H 
ATOM     40  H   LIG d   1       9.641   7.058 -10.405  0.00  0.00     0.034 H 
ATOM     41  H   LIG d   1      11.336   6.915 -10.566  0.00  0.00     0.034 H 
ENDROOT
BRANCH   1  42
ATOM     42  C   LIG d   1      12.218   7.059  -3.527  0.00  0.00    -0.059 C 
ATOM     43  H   LIG d   1      12.374   6.131  -4.078  0.00  0.00     0.024 H 
ATOM     44  H   LIG d   1      12.946   7.802  -3.852  0.00  0.00     0.024 H 
ATOM     45  H   LIG d   1      12.339   6.873  -2.460  0.00  0.00     0.024 H 
ENDBRANCH   1  42
BRANCH   4  46
ATOM     46  O   LIG d   1       8.228   7.814  -1.373  0.00  0.00    -0.392 OA
ATOM     47  H   LIG d   1       8.048   8.029  -2.299  0.00  0.00     0.210 HD
ENDBRANCH   4  46
BRANCH  17  48
ATOM     48  C   LIG d   1       8.853   8.401  -7.757  0.00  0.00    -0.053 C 
ATOM     49  H   LIG d   1       8.596   7.529  -7.156  0.00  0.00     0.024 H 
ATOM     50  H   LIG d   1       8.482   9.302  -7.267  0.00  0.00     0.024 H 
ATOM     51  H   LIG d   1       8.396   8.310  -8.743  0.00  0.00     0.024 H 
ENDBRANCH  17  48
TORSDOF 3
ENDMDL
MODEL 10
REMARK VINA RESULT:      -5.2      3.179      5.929
REMARK  3 active torsions:
REMARK  status: ('A' for Active; 'I' for Inactive)
REMARK    1  A    between atoms: C_1  and  C_2 
REMARK    2  A    between atoms: C_5  and  O_26 
REMARK    3  A    between atoms: C_18  and  C_25 
ROOT
ATOM      1  C   LIG d   1       7.549  -3.111  -6.161  0.00  0.00    -0.026 C 
ATOM      2  C   LIG d   1       8.022  -2.569  -7.516  0.00  0.00    -0.045 C 
ATOM      3  C   LIG d   1       9.250  -3.331  -8.003  0.00  0.00    -0.026 C 
ATOM      4  C   LIG d   1      10.383  -3.252  -6.983  0.00  0.00     0.056 C 
ATOM      5  H   LIG d   1      11.224  -3.857  -7.329  0.00  0.00     0.059 H 
ATOM      6  C   LIG d   1       9.911  -3.779  -5.627  0.00  0.00    -0.024 C 
ATOM      7  C   LIG d   1       8.707  -2.969  -5.160  0.00  0.00    -0.033 C 
ATOM      8  H   LIG d   1       9.000  -1.906  -5.141  0.00  0.00     0.031 H 
ATOM      9  C   LIG d   1       8.299  -3.360  -3.746  0.00  0.00    -0.049 C 
ATOM     10  C   LIG d   1       7.111  -2.504  -3.272  0.00  0.00    -0.049 C 
ATOM     11  C   LIG d   1       5.975  -2.730  -4.255  0.00  0.00    -0.034 C 
ATOM     12  H   LIG d   1       5.824  -3.825  -4.305  0.00  0.00     0.031 H 
ATOM     13  C   LIG d   1       6.413  -2.238  -5.640  0.00  0.00    -0.032 C 
ATOM     14  H   LIG d   1       6.837  -1.230  -5.535  0.00  0.00     0.031 H 
ATOM     15  C   LIG d   1       5.192  -2.137  -6.540  0.00  0.00    -0.049 C 
ATOM     16  C   LIG d   1       4.378  -0.901  -6.101  0.00  0.00    -0.040 C 
ATOM     17  C   LIG d   1       4.376  -0.792  -4.595  0.00  0.00     0.029 C 
ATOM     18  C   LIG d   1       4.640  -2.150  -3.916  0.00  0.00    -0.025 C 
ATOM     19  H   LIG d   1       3.856  -2.864  -4.246  0.00  0.00     0.031 H 
ATOM     20  C   LIG d   1       4.371  -1.814  -2.440  0.00  0.00    -0.042 C 
ATOM     21  C   LIG d   1       3.147  -0.862  -2.528  0.00  0.00     0.007 C 
ATOM     22  C   LIG d   1       3.039  -0.417  -3.982  0.00  0.00     0.140 C 
ATOM     23  O   LIG d   1       2.112   0.113  -4.530  0.00  0.00    -0.297 OA
ATOM     24  H   LIG d   1       7.215  -2.679  -8.244  0.00  0.00     0.027 H 
ATOM     25  H   LIG d   1       8.264  -1.511  -7.411  0.00  0.00     0.027 H 
ATOM     26  H   LIG d   1       9.593  -2.883  -8.944  0.00  0.00     0.029 H 
ATOM     27  H   LIG d   1       9.001  -4.373  -8.200  0.00  0.00     0.029 H 
ATOM     28  H   LIG d   1       9.666  -4.835  -5.703  0.00  0.00     0.029 H 
ATOM     29  H   LIG d   1      10.723  -3.662  -4.901  0.00  0.00     0.029 H 
ATOM     30  H   LIG d   1       8.022  -4.411  -3.709  0.00  0.00     0.027 H 
ATOM     31  H   LIG d   1       9.141  -3.192  -3.070  0.00  0.00     0.027 H 
ATOM     32  H   LIG d   1       6.813  -2.820  -2.273  0.00  0.00     0.027 H 
ATOM     33  H   LIG d   1       7.404  -1.457  -3.261  0.00  0.00     0.027 H 
ATOM     34  H   LIG d   1       5.500  -2.020  -7.580  0.00  0.00     0.027 H 
ATOM     35  H   LIG d   1       4.577  -3.033  -6.441  0.00  0.00     0.027 H 
ATOM     36  H   LIG d   1       4.826  -0.003  -6.535  0.00  0.00     0.028 H 
ATOM     37  H   LIG d   1       3.353  -0.995  -6.468  0.00  0.00     0.028 H 
ATOM     38  H   LIG d   1       5.220  -1.322  -1.976  0.00  0.00     0.027 H 
ATOM     39  H   LIG d   1       4.108  -2.719  -1.886  0.00  0.00     0.027 H 
ATOM     40  H   LIG d   1       3.289  -0.080  -1.920  0.00  0.00     0.034 H 
ATOM     41  H   LIG d   1       2.242  -1.393  -2.232  0.00  0.00     0.034 H 
ENDROOT
BRANCH   1  42
ATOM     42  C   LIG d   1       7.105  -4.561  -6.315  0.00  0.00    -0.059 C 
ATOM     43  H   LIG d   1       7.734  -5.056  -7.055  0.00  0.00     0.024 H 
ATOM     44  H   LIG d   1       7.200  -5.072  -5.357  0.00  0.00     0.024 H 
ATOM     45  H   LIG d   1       6.066  -4.590  -6.642  0.00  0.00     0.024 H 
ENDBRANCH   1  42
BRANCH   4  46
ATOM     46  O   LIG d   1      10.812  -1.895  -6.845  0.00  0.00    -0.392 OA
ATOM     47  H   LIG d   1      10.696  -1.534  -5.955  0.00  0.00     0.210 HD
ENDBRANCH   4  46
BRANCH  17  48
ATOM     48  C   LIG d   1       5.380   0.269  -4.143  0.00  0.00    -0.053 C 
ATOM     49  H   LIG d   1       4.845   1.119  -3.718  0.00  0.00     0.024 H 
ATOM     50  H   LIG d   1       6.043  -0.156  -3.388  0.00  0.00     0.024 H 
ATOM     51  H   LIG d   1       5.968   0.602  -4.998  0.00  0.00     0.024 H 
ENDBRANCH  17  48
TORSDOF 3
ENDMDL
