MODEL 1
REMARK VINA RESULT:      -6.6      0.000      0.000
REMARK  15 active torsions:
REMARK  status: ('A' for Active; 'I' for Inactive)
REMARK    1  A    between atoms: C_1  and  C_2 
REMARK    2  A    between atoms: C_2  and  C_4 
REMARK    3  A    between atoms: C_2  and  C_12 
REMARK    4  A    between atoms: C_5  and  C_6 
REMARK    5  A    between atoms: C_6  and  C_8 
REMARK    6  A    between atoms: C_6  and  C_9 
REMARK    7  A    between atoms: C_9  and  C_10 
REMARK    8  A    between atoms: C_9  and  C_11 
REMARK    9  A    between atoms: C_18  and  C_40 
REMARK   10  A    between atoms: C_27  and  C_39 
REMARK   11  A    between atoms: C_30  and  O_35 
REMARK   12  A    between atoms: C_32  and  C_33 
REMARK   13  A    between atoms: C_32  and  C_34 
REMARK   14  A    between atoms: O_35  and  C_36 
REMARK   15  A    between atoms: C_36  and  C_38 
ROOT
ATOM      1  C   LIG d   1       7.067  -1.511  -5.662  0.00  0.00    -0.029 C 
ATOM      2  H   LIG d   1       7.612  -0.945  -6.413  0.00  0.00     0.031 H 
ATOM      3  C   LIG d   1       5.537  -1.391  -5.902  0.00  0.00    -0.049 C 
ATOM      4  C   LIG d   1       4.973  -2.838  -5.872  0.00  0.00    -0.046 C 
ATOM      5  C   LIG d   1       6.090  -3.625  -5.166  0.00  0.00    -0.014 C 
ATOM      6  H   LIG d   1       6.066  -3.420  -4.086  0.00  0.00     0.035 H 
ATOM      7  C   LIG d   1       7.349  -3.009  -5.822  0.00  0.00    -0.022 C 
ATOM      8  C   LIG d   1       8.619  -3.560  -5.251  0.00  0.00    -0.046 C 
ATOM      9  C   LIG d   1       8.421  -4.952  -4.635  0.00  0.00    -0.045 C 
ATOM     10  C   LIG d   1       7.436  -5.769  -5.462  0.00  0.00    -0.010 C 
ATOM     11  H   LIG d   1       7.778  -5.707  -6.508  0.00  0.00     0.035 H 
ATOM     12  C   LIG d   1       6.084  -5.100  -5.406  0.00  0.00    -0.062 C 
ATOM     13  C   LIG d   1       4.987  -5.800  -5.583  0.00  0.00    -0.062 C 
ATOM     14  C   LIG d   1       5.024  -7.265  -5.654  0.00  0.00    -0.061 C 
ATOM     15  C   LIG d   1       6.124  -7.946  -5.358  0.00  0.00    -0.054 C 
ATOM     16  C   LIG d   1       7.429  -7.233  -5.160  0.00  0.00    -0.004 C 
ATOM     17  C   LIG d   1       8.064  -7.666  -3.856  0.00  0.00    -0.040 C 
ATOM     18  C   LIG d   1       8.230  -9.187  -3.858  0.00  0.00    -0.014 C 
ATOM     19  C   LIG d   1       6.920  -9.920  -4.058  0.00  0.00     0.112 C 
ATOM     20  H   LIG d   1       6.315  -9.806  -3.145  0.00  0.00     0.074 H 
ATOM     21  C   LIG d   1       6.077  -9.451  -5.248  0.00  0.00     0.024 C 
ATOM     22  H   LIG d   1       5.084  -0.799  -5.108  0.00  0.00     0.027 H 
ATOM     23  H   LIG d   1       5.347  -0.933  -6.870  0.00  0.00     0.027 H 
ATOM     24  H   LIG d   1       4.059  -2.869  -5.268  0.00  0.00     0.027 H 
ATOM     25  H   LIG d   1       4.772  -3.214  -6.867  0.00  0.00     0.027 H 
ATOM     26  H   LIG d   1       9.355  -3.654  -6.065  0.00  0.00     0.027 H 
ATOM     27  H   LIG d   1       9.051  -2.902  -4.503  0.00  0.00     0.027 H 
ATOM     28  H   LIG d   1       9.385  -5.461  -4.598  0.00  0.00     0.027 H 
ATOM     29  H   LIG d   1       8.041  -4.839  -3.617  0.00  0.00     0.027 H 
ATOM     30  H   LIG d   1       4.040  -5.286  -5.679  0.00  0.00     0.062 H 
ATOM     31  H   LIG d   1       4.134  -7.767  -6.009  0.00  0.00     0.062 H 
ATOM     32  H   LIG d   1       9.041  -7.191  -3.741  0.00  0.00     0.028 H 
ATOM     33  H   LIG d   1       7.426  -7.367  -3.020  0.00  0.00     0.028 H 
ATOM     34  H   LIG d   1       8.971  -9.513  -4.578  0.00  0.00     0.030 H 
ATOM     35  H   LIG d   1       8.627  -9.475  -2.865  0.00  0.00     0.030 H 
ENDROOT
BRANCH   1  36
ATOM     36  C   LIG d   1       7.407  -1.016  -4.258  0.00  0.00    -0.022 C 
ATOM     37  H   LIG d   1       8.302  -1.526  -3.900  0.00  0.00     0.034 H 
BRANCH  36  38
ATOM     38  C   LIG d   1       7.660   0.491  -4.296  0.00  0.00    -0.059 C 
ATOM     39  H   LIG d   1       6.973   0.993  -3.613  0.00  0.00     0.024 H 
ATOM     40  H   LIG d   1       8.687   0.696  -3.993  0.00  0.00     0.024 H 
ATOM     41  H   LIG d   1       7.499   0.862  -5.309  0.00  0.00     0.024 H 
ENDBRANCH  36  38
BRANCH  36  42
ATOM     42  C   LIG d   1       6.256  -1.310  -3.329  0.00  0.00    -0.085 C 
ATOM     43  C   LIG d   1       5.599  -0.325  -2.769  0.00  0.00    -0.085 C 
ATOM     44  H   LIG d   1       5.955   0.690  -2.874  0.00  0.00     0.057 H 
ATOM     45  H   LIG d   1       5.974  -2.331  -3.126  0.00  0.00     0.057 H 
BRANCH  43  46
ATOM     46  C   LIG d   1       4.349  -0.607  -1.979  0.00  0.00    -0.023 C 
ATOM     47  H   LIG d   1       4.532  -0.407  -0.923  0.00  0.00     0.034 H 
BRANCH  46  48
ATOM     48  C   LIG d   1       3.953  -2.074  -2.157  0.00  0.00    -0.059 C 
ATOM     49  H   LIG d   1       4.141  -2.379  -3.187  0.00  0.00     0.024 H 
ATOM     50  H   LIG d   1       4.542  -2.695  -1.481  0.00  0.00     0.024 H 
ATOM     51  H   LIG d   1       2.893  -2.195  -1.931  0.00  0.00     0.024 H 
ENDBRANCH  46  48
BRANCH  46  52
ATOM     52  C   LIG d   1       3.215   0.291  -2.479  0.00  0.00    -0.041 C 
ATOM     53  H   LIG d   1       2.463   0.394  -1.697  0.00  0.00     0.030 H 
BRANCH  52  54
ATOM     54  C   LIG d   1       3.775   1.670  -2.835  0.00  0.00    -0.062 C 
ATOM     55  H   LIG d   1       4.590   1.558  -3.550  0.00  0.00     0.023 H 
ATOM     56  H   LIG d   1       2.986   2.280  -3.274  0.00  0.00     0.023 H 
ATOM     57  H   LIG d   1       4.148   2.154  -1.931  0.00  0.00     0.023 H 
ENDBRANCH  52  54
BRANCH  52  58
ATOM     58  C   LIG d   1       2.578  -0.337  -3.721  0.00  0.00    -0.062 C 
ATOM     59  H   LIG d   1       2.062  -1.255  -3.440  0.00  0.00     0.023 H 
ATOM     60  H   LIG d   1       1.865   0.363  -4.156  0.00  0.00     0.023 H 
ATOM     61  H   LIG d   1       3.355  -0.565  -4.450  0.00  0.00     0.023 H 
ENDBRANCH  52  58
ENDBRANCH  46  52
ENDBRANCH  43  46
ENDBRANCH  36  42
ENDBRANCH   1  36
BRANCH   7  62
ATOM     62  C   LIG d   1       7.332  -3.292  -7.334  0.00  0.00    -0.059 C 
ATOM     63  H   LIG d   1       6.789  -2.498  -7.846  0.00  0.00     0.024 H 
ATOM     64  H   LIG d   1       8.355  -3.331  -7.708  0.00  0.00     0.024 H 
ATOM     65  H   LIG d   1       6.841  -4.247  -7.519  0.00  0.00     0.024 H 
ENDBRANCH   7  62
BRANCH  16  66
ATOM     66  C   LIG d   1       8.375  -7.757  -6.251  0.00  0.00    -0.055 C 
ATOM     67  H   LIG d   1       8.692  -6.929  -6.885  0.00  0.00     0.024 H 
ATOM     68  H   LIG d   1       9.249  -8.214  -5.785  0.00  0.00     0.024 H 
ATOM     69  H   LIG d   1       7.855  -8.500  -6.856  0.00  0.00     0.024 H 
ENDBRANCH  16  66
BRANCH  21  70
ATOM     70  C   LIG d   1       6.495 -10.160  -6.537  0.00  0.00    -0.053 C 
ATOM     71  H   LIG d   1       5.646 -10.203  -7.220  0.00  0.00     0.024 H 
ATOM     72  H   LIG d   1       7.310  -9.610  -7.006  0.00  0.00     0.024 H 
ATOM     73  H   LIG d   1       6.825 -11.172  -6.304  0.00  0.00     0.024 H 
ENDBRANCH  21  70
BRANCH  21  74
ATOM     74  C   LIG d   1       4.621  -9.893  -4.942  0.00  0.00    -0.053 C 
ATOM     75  H   LIG d   1       3.932  -9.338  -5.579  0.00  0.00     0.024 H 
ATOM     76  H   LIG d   1       4.517 -10.960  -5.138  0.00  0.00     0.024 H 
ATOM     77  H   LIG d   1       4.392  -9.691  -3.896  0.00  0.00     0.024 H 
ENDBRANCH  21  74
BRANCH  19  78
ATOM     78  O   LIG d   1       7.190 -11.322  -4.211  0.00  0.00    -0.461 OA
BRANCH  78  79
ATOM     79  C   LIG d   1       7.085 -12.087  -3.113  0.00  0.00     0.304 C 
ATOM     80  O   LIG d   1       7.642 -13.158  -3.069  0.00  0.00    -0.251 OA
BRANCH  79  81
ATOM     81  C   LIG d   1       6.274 -11.609  -1.937  0.00  0.00     0.033 C 
ATOM     82  H   LIG d   1       6.919 -11.059  -1.251  0.00  0.00     0.034 H 
ATOM     83  H   LIG d   1       5.476 -10.956  -2.287  0.00  0.00     0.034 H 
ATOM     84  H   LIG d   1       5.842 -12.467  -1.421  0.00  0.00     0.034 H 
ENDBRANCH  79  81
ENDBRANCH  78  79
ENDBRANCH  19  78
TORSDOF 15
ENDMDL
MODEL 2
REMARK VINA RESULT:      -6.6      9.128     14.657
REMARK  15 active torsions:
REMARK  status: ('A' for Active; 'I' for Inactive)
REMARK    1  A    between atoms: C_1  and  C_2 
REMARK    2  A    between atoms: C_2  and  C_4 
REMARK    3  A    between atoms: C_2  and  C_12 
REMARK    4  A    between atoms: C_5  and  C_6 
REMARK    5  A    between atoms: C_6  and  C_8 
REMARK    6  A    between atoms: C_6  and  C_9 
REMARK    7  A    between atoms: C_9  and  C_10 
REMARK    8  A    between atoms: C_9  and  C_11 
REMARK    9  A    between atoms: C_18  and  C_40 
REMARK   10  A    between atoms: C_27  and  C_39 
REMARK   11  A    between atoms: C_30  and  O_35 
REMARK   12  A    between atoms: C_32  and  C_33 
REMARK   13  A    between atoms: C_32  and  C_34 
REMARK   14  A    between atoms: O_35  and  C_36 
REMARK   15  A    between atoms: C_36  and  C_38 
ROOT
ATOM      1  C   LIG d   1       9.728   2.480  -4.614  0.00  0.00    -0.029 C 
ATOM      2  H   LIG d   1      10.350   1.654  -4.949  0.00  0.00     0.031 H 
ATOM      3  C   LIG d   1       9.877   2.679  -3.081  0.00  0.00    -0.049 C 
ATOM      4  C   LIG d   1      10.158   4.191  -2.859  0.00  0.00    -0.046 C 
ATOM      5  C   LIG d   1       9.695   4.822  -4.182  0.00  0.00    -0.014 C 
ATOM      6  H   LIG d   1       8.597   4.865  -4.211  0.00  0.00     0.035 H 
ATOM      7  C   LIG d   1      10.239   3.798  -5.207  0.00  0.00    -0.022 C 
ATOM      8  C   LIG d   1       9.859   4.141  -6.615  0.00  0.00    -0.046 C 
ATOM      9  C   LIG d   1       9.571   5.639  -6.789  0.00  0.00    -0.045 C 
ATOM     10  C   LIG d   1      10.526   6.470  -5.940  0.00  0.00    -0.010 C 
ATOM     11  H   LIG d   1      11.542   6.105  -6.164  0.00  0.00     0.035 H 
ATOM     12  C   LIG d   1      10.267   6.170  -4.484  0.00  0.00    -0.062 C 
ATOM     13  C   LIG d   1      10.559   7.055  -3.559  0.00  0.00    -0.062 C 
ATOM     14  C   LIG d   1      10.966   8.419  -3.916  0.00  0.00    -0.061 C 
ATOM     15  C   LIG d   1      10.876   8.866  -5.162  0.00  0.00    -0.054 C 
ATOM     16  C   LIG d   1      10.569   7.923  -6.288  0.00  0.00    -0.004 C 
ATOM     17  C   LIG d   1       9.424   8.462  -7.118  0.00  0.00    -0.040 C 
ATOM     18  C   LIG d   1       9.782   9.863  -7.619  0.00  0.00    -0.014 C 
ATOM     19  C   LIG d   1      10.095  10.826  -6.493  0.00  0.00     0.112 C 
ATOM     20  H   LIG d   1       9.158  11.058  -5.963  0.00  0.00     0.074 H 
ATOM     21  C   LIG d   1      11.113  10.327  -5.462  0.00  0.00     0.024 C 
ATOM     22  H   LIG d   1       8.951   2.396  -2.581  0.00  0.00     0.027 H 
ATOM     23  H   LIG d   1      10.706   2.083  -2.706  0.00  0.00     0.027 H 
ATOM     24  H   LIG d   1       9.544   4.567  -2.033  0.00  0.00     0.027 H 
ATOM     25  H   LIG d   1      11.205   4.381  -2.658  0.00  0.00     0.027 H 
ATOM     26  H   LIG d   1      10.699   3.880  -7.276  0.00  0.00     0.027 H 
ATOM     27  H   LIG d   1       8.996   3.575  -6.955  0.00  0.00     0.027 H 
ATOM     28  H   LIG d   1       9.689   5.899  -7.841  0.00  0.00     0.027 H 
ATOM     29  H   LIG d   1       8.542   5.841  -6.487  0.00  0.00     0.027 H 
ATOM     30  H   LIG d   1      10.498   6.773  -2.517  0.00  0.00     0.062 H 
ATOM     31  H   LIG d   1      11.392   9.030  -3.132  0.00  0.00     0.062 H 
ATOM     32  H   LIG d   1       9.240   7.804  -7.972  0.00  0.00     0.028 H 
ATOM     33  H   LIG d   1       8.518   8.509  -6.508  0.00  0.00     0.028 H 
ATOM     34  H   LIG d   1      10.585   9.841  -8.346  0.00  0.00     0.030 H 
ATOM     35  H   LIG d   1       8.898  10.254  -8.158  0.00  0.00     0.030 H 
ENDROOT
BRANCH   1  36
ATOM     36  C   LIG d   1       8.262   2.233  -4.961  0.00  0.00    -0.022 C 
ATOM     37  H   LIG d   1       7.761   3.187  -5.121  0.00  0.00     0.034 H 
BRANCH  36  38
ATOM     38  C   LIG d   1       8.175   1.390  -6.234  0.00  0.00    -0.059 C 
ATOM     39  H   LIG d   1       8.239   2.041  -7.106  0.00  0.00     0.024 H 
ATOM     40  H   LIG d   1       8.996   0.674  -6.254  0.00  0.00     0.024 H 
ATOM     41  H   LIG d   1       7.225   0.854  -6.250  0.00  0.00     0.024 H 
ENDBRANCH  36  38
BRANCH  36  42
ATOM     42  C   LIG d   1       7.595   1.499  -3.826  0.00  0.00    -0.085 C 
ATOM     43  C   LIG d   1       6.769   0.513  -4.079  0.00  0.00    -0.085 C 
ATOM     44  H   LIG d   1       6.474   0.304  -5.097  0.00  0.00     0.057 H 
ATOM     45  H   LIG d   1       7.795   1.786  -2.805  0.00  0.00     0.057 H 
BRANCH  43  46
ATOM     46  C   LIG d   1       6.234  -0.329  -2.950  0.00  0.00    -0.023 C 
ATOM     47  H   LIG d   1       6.750  -0.069  -2.026  0.00  0.00     0.034 H 
BRANCH  46  48
ATOM     48  C   LIG d   1       6.466  -1.809  -3.263  0.00  0.00    -0.059 C 
ATOM     49  H   LIG d   1       7.126  -1.898  -4.127  0.00  0.00     0.024 H 
ATOM     50  H   LIG d   1       6.927  -2.295  -2.403  0.00  0.00     0.024 H 
ATOM     51  H   LIG d   1       5.513  -2.288  -3.485  0.00  0.00     0.024 H 
ENDBRANCH  46  48
BRANCH  46  52
ATOM     52  C   LIG d   1       4.734  -0.072  -2.788  0.00  0.00    -0.041 C 
ATOM     53  H   LIG d   1       4.314   0.240  -3.744  0.00  0.00     0.030 H 
BRANCH  52  54
ATOM     54  C   LIG d   1       4.044  -1.354  -2.319  0.00  0.00    -0.062 C 
ATOM     55  H   LIG d   1       3.021  -1.374  -2.694  0.00  0.00     0.023 H 
ATOM     56  H   LIG d   1       4.588  -2.219  -2.699  0.00  0.00     0.023 H 
ATOM     57  H   LIG d   1       4.032  -1.382  -1.229  0.00  0.00     0.023 H 
ENDBRANCH  52  54
BRANCH  52  58
ATOM     58  C   LIG d   1       4.517   1.033  -1.751  0.00  0.00    -0.062 C 
ATOM     59  H   LIG d   1       4.862   1.984  -2.155  0.00  0.00     0.023 H 
ATOM     60  H   LIG d   1       3.455   1.103  -1.512  0.00  0.00     0.023 H 
ATOM     61  H   LIG d   1       5.078   0.797  -0.847  0.00  0.00     0.023 H 
ENDBRANCH  52  58
ENDBRANCH  46  52
ENDBRANCH  43  46
ENDBRANCH  36  42
ENDBRANCH   1  36
BRANCH   7  62
ATOM     62  C   LIG d   1      11.774   3.746  -5.118  0.00  0.00    -0.059 C 
ATOM     63  H   LIG d   1      12.068   3.096  -4.294  0.00  0.00     0.024 H 
ATOM     64  H   LIG d   1      12.180   3.355  -6.050  0.00  0.00     0.024 H 
ATOM     65  H   LIG d   1      12.162   4.750  -4.945  0.00  0.00     0.024 H 
ENDBRANCH   7  62
BRANCH  16  66
ATOM     66  C   LIG d   1      11.786   7.960  -7.224  0.00  0.00    -0.055 C 
ATOM     67  H   LIG d   1      11.692   8.803  -7.909  0.00  0.00     0.024 H 
ATOM     68  H   LIG d   1      12.695   8.072  -6.633  0.00  0.00     0.024 H 
ATOM     69  H   LIG d   1      11.834   7.032  -7.793  0.00  0.00     0.024 H 
ENDBRANCH  16  66
BRANCH  21  70
ATOM     70  C   LIG d   1      12.545  10.622  -5.910  0.00  0.00    -0.053 C 
ATOM     71  H   LIG d   1      13.087  11.107  -5.097  0.00  0.00     0.024 H 
ATOM     72  H   LIG d   1      13.044   9.690  -6.172  0.00  0.00     0.024 H 
ATOM     73  H   LIG d   1      12.526  11.281  -6.778  0.00  0.00     0.024 H 
ENDBRANCH  21  70
BRANCH  21  74
ATOM     74  C   LIG d   1      10.862  11.157  -4.176  0.00  0.00    -0.053 C 
ATOM     75  H   LIG d   1       9.940  10.821  -3.701  0.00  0.00     0.024 H 
ATOM     76  H   LIG d   1      11.696  11.021  -3.487  0.00  0.00     0.024 H 
ATOM     77  H   LIG d   1      10.773  12.212  -4.435  0.00  0.00     0.024 H 
ENDBRANCH  21  74
BRANCH  19  78
ATOM     78  O   LIG d   1      10.577  12.057  -7.054  0.00  0.00    -0.461 OA
BRANCH  78  79
ATOM     79  C   LIG d   1       9.699  13.068  -7.151  0.00  0.00     0.304 C 
ATOM     80  O   LIG d   1       8.986  13.157  -8.122  0.00  0.00    -0.251 OA
BRANCH  79  81
ATOM     81  C   LIG d   1       9.603  14.090  -6.048  0.00  0.00     0.033 C 
ATOM     82  H   LIG d   1      10.490  14.724  -6.062  0.00  0.00     0.034 H 
ATOM     83  H   LIG d   1       8.716  14.704  -6.198  0.00  0.00     0.034 H 
ATOM     84  H   LIG d   1       9.535  13.581  -5.086  0.00  0.00     0.034 H 
ENDBRANCH  79  81
ENDBRANCH  78  79
ENDBRANCH  19  78
TORSDOF 15
ENDMDL
MODEL 3
REMARK VINA RESULT:      -6.2      6.689     11.516
REMARK  15 active torsions:
REMARK  status: ('A' for Active; 'I' for Inactive)
REMARK    1  A    between atoms: C_1  and  C_2 
REMARK    2  A    between atoms: C_2  and  C_4 
REMARK    3  A    between atoms: C_2  and  C_12 
REMARK    4  A    between atoms: C_5  and  C_6 
REMARK    5  A    between atoms: C_6  and  C_8 
REMARK    6  A    between atoms: C_6  and  C_9 
REMARK    7  A    between atoms: C_9  and  C_10 
REMARK    8  A    between atoms: C_9  and  C_11 
REMARK    9  A    between atoms: C_18  and  C_40 
REMARK   10  A    between atoms: C_27  and  C_39 
REMARK   11  A    between atoms: C_30  and  O_35 
REMARK   12  A    between atoms: C_32  and  C_33 
REMARK   13  A    between atoms: C_32  and  C_34 
REMARK   14  A    between atoms: O_35  and  C_36 
REMARK   15  A    between atoms: C_36  and  C_38 
ROOT
ATOM      1  C   LIG d   1       7.343  -1.191  -5.292  0.00  0.00    -0.029 C 
ATOM      2  H   LIG d   1       7.842  -2.156  -5.260  0.00  0.00     0.031 H 
ATOM      3  C   LIG d   1       7.097  -0.663  -3.853  0.00  0.00    -0.049 C 
ATOM      4  C   LIG d   1       7.621   0.800  -3.825  0.00  0.00    -0.046 C 
ATOM      5  C   LIG d   1       7.690   1.165  -5.317  0.00  0.00    -0.014 C 
ATOM      6  H   LIG d   1       6.680   1.363  -5.700  0.00  0.00     0.035 H 
ATOM      7  C   LIG d   1       8.267  -0.140  -5.917  0.00  0.00    -0.022 C 
ATOM      8  C   LIG d   1       8.377  -0.083  -7.409  0.00  0.00    -0.046 C 
ATOM      9  C   LIG d   1       8.476   1.358  -7.929  0.00  0.00    -0.045 C 
ATOM     10  C   LIG d   1       9.310   2.213  -6.982  0.00  0.00    -0.010 C 
ATOM     11  H   LIG d   1      10.246   1.659  -6.803  0.00  0.00     0.035 H 
ATOM     12  C   LIG d   1       8.597   2.304  -5.656  0.00  0.00    -0.062 C 
ATOM     13  C   LIG d   1       8.801   3.327  -4.858  0.00  0.00    -0.062 C 
ATOM     14  C   LIG d   1       9.573   4.494  -5.304  0.00  0.00    -0.061 C 
ATOM     15  C   LIG d   1       9.931   4.645  -6.572  0.00  0.00    -0.054 C 
ATOM     16  C   LIG d   1       9.757   3.522  -7.551  0.00  0.00    -0.004 C 
ATOM     17  C   LIG d   1       9.031   4.015  -8.784  0.00  0.00    -0.040 C 
ATOM     18  C   LIG d   1       9.805   5.190  -9.385  0.00  0.00    -0.014 C 
ATOM     19  C   LIG d   1       9.989   6.333  -8.408  0.00  0.00     0.112 C 
ATOM     20  H   LIG d   1       9.013   6.819  -8.253  0.00  0.00     0.074 H 
ATOM     21  C   LIG d   1      10.549   5.943  -7.036  0.00  0.00     0.024 C 
ATOM     22  H   LIG d   1       6.031  -0.680  -3.630  0.00  0.00     0.027 H 
ATOM     23  H   LIG d   1       7.642  -1.271  -3.134  0.00  0.00     0.027 H 
ATOM     24  H   LIG d   1       6.895   1.445  -3.318  0.00  0.00     0.027 H 
ATOM     25  H   LIG d   1       8.585   0.873  -3.339  0.00  0.00     0.027 H 
ATOM     26  H   LIG d   1       9.293  -0.613  -7.712  0.00  0.00     0.027 H 
ATOM     27  H   LIG d   1       7.543  -0.578  -7.900  0.00  0.00     0.027 H 
ATOM     28  H   LIG d   1       8.935   1.345  -8.918  0.00  0.00     0.027 H 
ATOM     29  H   LIG d   1       7.470   1.776  -8.010  0.00  0.00     0.027 H 
ATOM     30  H   LIG d   1       8.394   3.310  -3.857  0.00  0.00     0.062 H 
ATOM     31  H   LIG d   1       9.883   5.201  -4.546  0.00  0.00     0.062 H 
ATOM     32  H   LIG d   1       8.957   3.211  -9.520  0.00  0.00     0.028 H 
ATOM     33  H   LIG d   1       8.023   4.338  -8.511  0.00  0.00     0.028 H 
ATOM     34  H   LIG d   1      10.755   4.880  -9.803  0.00  0.00     0.030 H 
ATOM     35  H   LIG d   1       9.210   5.572 -10.238  0.00  0.00     0.030 H 
ENDROOT
BRANCH   1  36
ATOM     36  C   LIG d   1       6.014  -1.292  -6.037  0.00  0.00    -0.022 C 
ATOM     37  H   LIG d   1       6.122  -0.862  -7.033  0.00  0.00     0.034 H 
BRANCH  36  38
ATOM     38  C   LIG d   1       5.608  -2.761  -6.158  0.00  0.00    -0.059 C 
ATOM     39  H   LIG d   1       6.492  -3.368  -6.351  0.00  0.00     0.024 H 
ATOM     40  H   LIG d   1       5.139  -3.087  -5.229  0.00  0.00     0.024 H 
ATOM     41  H   LIG d   1       4.902  -2.876  -6.981  0.00  0.00     0.024 H 
ENDBRANCH  36  38
BRANCH  36  42
ATOM     42  C   LIG d   1       4.953  -0.538  -5.276  0.00  0.00    -0.085 C 
ATOM     43  C   LIG d   1       3.921  -1.177  -4.785  0.00  0.00    -0.085 C 
ATOM     44  H   LIG d   1       3.767  -2.219  -5.026  0.00  0.00     0.057 H 
ATOM     45  H   LIG d   1       5.044   0.529  -5.138  0.00  0.00     0.057 H 
BRANCH  43  46
ATOM     46  C   LIG d   1       2.950  -0.460  -3.883  0.00  0.00    -0.023 C 
ATOM     47  H   LIG d   1       1.937  -0.801  -4.095  0.00  0.00     0.034 H 
BRANCH  46  48
ATOM     48  C   LIG d   1       3.042   1.047  -4.132  0.00  0.00    -0.059 C 
ATOM     49  H   LIG d   1       3.586   1.230  -5.059  0.00  0.00     0.024 H 
ATOM     50  H   LIG d   1       2.038   1.465  -4.211  0.00  0.00     0.024 H 
ATOM     51  H   LIG d   1       3.568   1.522  -3.303  0.00  0.00     0.024 H 
ENDBRANCH  46  48
BRANCH  46  52
ATOM     52  C   LIG d   1       3.294  -0.758  -2.422  0.00  0.00    -0.041 C 
ATOM     53  H   LIG d   1       2.380  -0.764  -1.829  0.00  0.00     0.030 H 
BRANCH  52  54
ATOM     54  C   LIG d   1       3.975  -2.124  -2.326  0.00  0.00    -0.062 C 
ATOM     55  H   LIG d   1       4.399  -2.250  -1.330  0.00  0.00     0.023 H 
ATOM     56  H   LIG d   1       3.243  -2.909  -2.513  0.00  0.00     0.023 H 
ATOM     57  H   LIG d   1       4.771  -2.186  -3.070  0.00  0.00     0.023 H 
ENDBRANCH  52  54
BRANCH  52  58
ATOM     58  C   LIG d   1       4.240   0.322  -1.892  0.00  0.00    -0.062 C 
ATOM     59  H   LIG d   1       4.784   0.770  -2.724  0.00  0.00     0.023 H 
ATOM     60  H   LIG d   1       3.662   1.091  -1.379  0.00  0.00     0.023 H 
ATOM     61  H   LIG d   1       4.948  -0.126  -1.194  0.00  0.00     0.023 H 
ENDBRANCH  52  58
ENDBRANCH  46  52
ENDBRANCH  43  46
ENDBRANCH  36  42
ENDBRANCH   1  36
BRANCH   7  62
ATOM     62  C   LIG d   1       9.669  -0.397  -5.336  0.00  0.00    -0.059 C 
ATOM     63  H   LIG d   1       9.866   0.315  -4.534  0.00  0.00     0.024 H 
ATOM     64  H   LIG d   1       9.718  -1.411  -4.940  0.00  0.00     0.024 H 
ATOM     65  H   LIG d   1      10.415  -0.276  -6.121  0.00  0.00     0.024 H 
ENDBRANCH   7  62
BRANCH  16  66
ATOM     66  C   LIG d   1      11.166   3.157  -8.043  0.00  0.00    -0.055 C 
ATOM     67  H   LIG d   1      11.148   3.017  -9.123  0.00  0.00     0.024 H 
ATOM     68  H   LIG d   1      11.857   3.961  -7.791  0.00  0.00     0.024 H 
ATOM     69  H   LIG d   1      11.490   2.234  -7.561  0.00  0.00     0.024 H 
ENDBRANCH  16  66
BRANCH  21  70
ATOM     70  C   LIG d   1      12.077   5.909  -7.050  0.00  0.00    -0.053 C 
ATOM     71  H   LIG d   1      12.446   5.775  -6.033  0.00  0.00     0.024 H 
ATOM     72  H   LIG d   1      12.417   5.081  -7.671  0.00  0.00     0.024 H 
ATOM     73  H   LIG d   1      12.458   6.847  -7.454  0.00  0.00     0.024 H 
ENDBRANCH  21  70
BRANCH  21  74
ATOM     74  C   LIG d   1      10.132   7.079  -6.065  0.00  0.00    -0.053 C 
ATOM     75  H   LIG d   1       9.494   7.790  -6.591  0.00  0.00     0.024 H 
ATOM     76  H   LIG d   1       9.585   6.655  -5.223  0.00  0.00     0.024 H 
ATOM     77  H   LIG d   1      11.022   7.591  -5.700  0.00  0.00     0.024 H 
ENDBRANCH  21  74
BRANCH  19  78
ATOM     78  O   LIG d   1      10.859   7.312  -8.996  0.00  0.00    -0.461 OA
BRANCH  78  79
ATOM     79  C   LIG d   1      10.278   8.312  -9.678  0.00  0.00     0.304 C 
ATOM     80  O   LIG d   1       9.516   9.062  -9.117  0.00  0.00    -0.251 OA
BRANCH  79  81
ATOM     81  C   LIG d   1      10.579   8.499 -11.143  0.00  0.00     0.033 C 
ATOM     82  H   LIG d   1      10.244   9.488 -11.458  0.00  0.00     0.034 H 
ATOM     83  H   LIG d   1      11.652   8.410 -11.308  0.00  0.00     0.034 H 
ATOM     84  H   LIG d   1      10.057   7.737 -11.721  0.00  0.00     0.034 H 
ENDBRANCH  79  81
ENDBRANCH  78  79
ENDBRANCH  19  78
TORSDOF 15
ENDMDL
MODEL 4
REMARK VINA RESULT:      -6.0      6.755      9.987
REMARK  15 active torsions:
REMARK  status: ('A' for Active; 'I' for Inactive)
REMARK    1  A    between atoms: C_1  and  C_2 
REMARK    2  A    between atoms: C_2  and  C_4 
REMARK    3  A    between atoms: C_2  and  C_12 
REMARK    4  A    between atoms: C_5  and  C_6 
REMARK    5  A    between atoms: C_6  and  C_8 
REMARK    6  A    between atoms: C_6  and  C_9 
REMARK    7  A    between atoms: C_9  and  C_10 
REMARK    8  A    between atoms: C_9  and  C_11 
REMARK    9  A    between atoms: C_18  and  C_40 
REMARK   10  A    between atoms: C_27  and  C_39 
REMARK   11  A    between atoms: C_30  and  O_35 
REMARK   12  A    between atoms: C_32  and  C_33 
REMARK   13  A    between atoms: C_32  and  C_34 
REMARK   14  A    between atoms: O_35  and  C_36 
REMARK   15  A    between atoms: C_36  and  C_38 
ROOT
ATOM      1  C   LIG d   1       1.206  -3.012 -12.747  0.00  0.00    -0.029 C 
ATOM      2  H   LIG d   1       1.452  -2.657 -13.745  0.00  0.00     0.031 H 
ATOM      3  C   LIG d   1       1.700  -4.472 -12.557  0.00  0.00    -0.049 C 
ATOM      4  C   LIG d   1       2.491  -4.498 -11.220  0.00  0.00    -0.046 C 
ATOM      5  C   LIG d   1       2.013  -3.218 -10.516  0.00  0.00    -0.014 C 
ATOM      6  H   LIG d   1       1.003  -3.370 -10.109  0.00  0.00     0.035 H 
ATOM      7  C   LIG d   1       1.991  -2.218 -11.697  0.00  0.00    -0.022 C 
ATOM      8  C   LIG d   1       1.480  -0.868 -11.296  0.00  0.00    -0.046 C 
ATOM      9  C   LIG d   1       1.664  -0.603  -9.795  0.00  0.00    -0.045 C 
ATOM     10  C   LIG d   1       2.979  -1.195  -9.303  0.00  0.00    -0.010 C 
ATOM     11  H   LIG d   1       3.761  -0.839  -9.994  0.00  0.00     0.035 H 
ATOM     12  C   LIG d   1       2.920  -2.696  -9.449  0.00  0.00    -0.062 C 
ATOM     13  C   LIG d   1       3.653  -3.470  -8.681  0.00  0.00    -0.062 C 
ATOM     14  C   LIG d   1       4.402  -2.920  -7.545  0.00  0.00    -0.061 C 
ATOM     15  C   LIG d   1       4.224  -1.670  -7.137  0.00  0.00    -0.054 C 
ATOM     16  C   LIG d   1       3.421  -0.708  -7.960  0.00  0.00    -0.004 C 
ATOM     17  C   LIG d   1       2.375  -0.035  -7.098  0.00  0.00    -0.040 C 
ATOM     18  C   LIG d   1       3.063   0.650  -5.916  0.00  0.00    -0.014 C 
ATOM     19  C   LIG d   1       3.879  -0.310  -5.075  0.00  0.00     0.112 C 
ATOM     20  H   LIG d   1       3.186  -0.966  -4.525  0.00  0.00     0.074 H 
ATOM     21  C   LIG d   1       4.859  -1.197  -5.850  0.00  0.00     0.024 C 
ATOM     22  H   LIG d   1       0.847  -5.146 -12.497  0.00  0.00     0.027 H 
ATOM     23  H   LIG d   1       2.348  -4.757 -13.383  0.00  0.00     0.027 H 
ATOM     24  H   LIG d   1       2.200  -5.376 -10.632  0.00  0.00     0.027 H 
ATOM     25  H   LIG d   1       3.561  -4.500 -11.385  0.00  0.00     0.027 H 
ATOM     26  H   LIG d   1       2.050  -0.103 -11.845  0.00  0.00     0.027 H 
ATOM     27  H   LIG d   1       0.433  -0.734 -11.551  0.00  0.00     0.027 H 
ATOM     28  H   LIG d   1       1.656   0.474  -9.624  0.00  0.00     0.027 H 
ATOM     29  H   LIG d   1       0.832  -1.054  -9.250  0.00  0.00     0.027 H 
ATOM     30  H   LIG d   1       3.704  -4.529  -8.891  0.00  0.00     0.062 H 
ATOM     31  H   LIG d   1       5.144  -3.560  -7.085  0.00  0.00     0.062 H 
ATOM     32  H   LIG d   1       1.829   0.708  -7.685  0.00  0.00     0.028 H 
ATOM     33  H   LIG d   1       1.667  -0.782  -6.729  0.00  0.00     0.028 H 
ATOM     34  H   LIG d   1       3.662   1.497  -6.229  0.00  0.00     0.030 H 
ATOM     35  H   LIG d   1       2.266   1.067  -5.269  0.00  0.00     0.030 H 
ENDROOT
BRANCH   1  36
ATOM     36  C   LIG d   1      -0.300  -2.943 -12.502  0.00  0.00    -0.022 C 
ATOM     37  H   LIG d   1      -0.491  -2.419 -11.566  0.00  0.00     0.034 H 
BRANCH  36  38
ATOM     38  C   LIG d   1      -0.970  -2.192 -13.653  0.00  0.00    -0.059 C 
ATOM     39  H   LIG d   1      -0.346  -1.349 -13.950  0.00  0.00     0.024 H 
ATOM     40  H   LIG d   1      -1.098  -2.864 -14.501  0.00  0.00     0.024 H 
ATOM     41  H   LIG d   1      -1.945  -1.825 -13.329  0.00  0.00     0.024 H 
ENDBRANCH  36  38
BRANCH  36  42
ATOM     42  C   LIG d   1      -0.860  -4.340 -12.420  0.00  0.00    -0.085 C 
ATOM     43  C   LIG d   1      -1.727  -4.644 -11.486  0.00  0.00    -0.085 C 
ATOM     44  H   LIG d   1      -1.950  -3.932 -10.704  0.00  0.00     0.057 H 
ATOM     45  H   LIG d   1      -0.545  -5.090 -13.129  0.00  0.00     0.057 H 
BRANCH  43  46
ATOM     46  C   LIG d   1      -2.414  -5.984 -11.504  0.00  0.00    -0.023 C 
ATOM     47  H   LIG d   1      -1.679  -6.768 -11.684  0.00  0.00     0.034 H 
BRANCH  46  48
ATOM     48  C   LIG d   1      -3.463  -6.005 -12.618  0.00  0.00    -0.059 C 
ATOM     49  H   LIG d   1      -4.460  -5.964 -12.178  0.00  0.00     0.024 H 
ATOM     50  H   LIG d   1      -3.319  -5.144 -13.271  0.00  0.00     0.024 H 
ATOM     51  H   LIG d   1      -3.360  -6.923 -13.197  0.00  0.00     0.024 H 
ENDBRANCH  46  48
BRANCH  46  52
ATOM     52  C   LIG d   1      -3.097  -6.226 -10.156  0.00  0.00    -0.041 C 
ATOM     53  H   LIG d   1      -3.821  -7.035 -10.256  0.00  0.00     0.030 H 
BRANCH  52  54
ATOM     54  C   LIG d   1      -2.046  -6.606  -9.112  0.00  0.00    -0.062 C 
ATOM     55  H   LIG d   1      -2.540  -6.856  -8.172  0.00  0.00     0.023 H 
ATOM     56  H   LIG d   1      -1.478  -7.466  -9.465  0.00  0.00     0.023 H 
ATOM     57  H   LIG d   1      -1.370  -5.765  -8.954  0.00  0.00     0.023 H 
ENDBRANCH  52  54
BRANCH  52  58
ATOM     58  C   LIG d   1      -3.817  -4.949  -9.714  0.00  0.00    -0.062 C 
ATOM     59  H   LIG d   1      -3.476  -4.111 -10.321  0.00  0.00     0.023 H 
ATOM     60  H   LIG d   1      -4.892  -5.077  -9.839  0.00  0.00     0.023 H 
ATOM     61  H   LIG d   1      -3.594  -4.752  -8.665  0.00  0.00     0.023 H 
ENDBRANCH  52  58
ENDBRANCH  46  52
ENDBRANCH  43  46
ENDBRANCH  36  42
ENDBRANCH   1  36
BRANCH   7  62
ATOM     62  C   LIG d   1       3.415  -2.052 -12.256  0.00  0.00    -0.059 C 
ATOM     63  H   LIG d   1       4.095  -1.791 -11.445  0.00  0.00     0.024 H 
ATOM     64  H   LIG d   1       3.737  -2.987 -12.713  0.00  0.00     0.024 H 
ATOM     65  H   LIG d   1       3.421  -1.260 -13.005  0.00  0.00     0.024 H 
ENDBRANCH   7  62
BRANCH  16  66
ATOM     66  C   LIG d   1       4.383   0.419  -8.364  0.00  0.00    -0.055 C 
ATOM     67  H   LIG d   1       3.979   0.949  -9.227  0.00  0.00     0.024 H 
ATOM     68  H   LIG d   1       4.498   1.114  -7.532  0.00  0.00     0.024 H 
ATOM     69  H   LIG d   1       5.353  -0.006  -8.620  0.00  0.00     0.024 H 
ENDBRANCH  16  66
BRANCH  21  70
ATOM     70  C   LIG d   1       6.196  -0.488  -6.066  0.00  0.00    -0.053 C 
ATOM     71  H   LIG d   1       6.801  -1.062  -6.769  0.00  0.00     0.024 H 
ATOM     72  H   LIG d   1       6.019   0.508  -6.471  0.00  0.00     0.024 H 
ATOM     73  H   LIG d   1       6.722  -0.406  -5.115  0.00  0.00     0.024 H 
ENDBRANCH  21  70
BRANCH  21  74
ATOM     74  C   LIG d   1       5.139  -2.422  -4.940  0.00  0.00    -0.053 C 
ATOM     75  H   LIG d   1       6.136  -2.810  -5.151  0.00  0.00     0.024 H 
ATOM     76  H   LIG d   1       5.081  -2.118  -3.895  0.00  0.00     0.024 H 
ATOM     77  H   LIG d   1       4.399  -3.197  -5.135  0.00  0.00     0.024 H 
ENDBRANCH  21  74
BRANCH  19  78
ATOM     78  O   LIG d   1       4.615   0.440  -4.096  0.00  0.00    -0.461 OA
BRANCH  78  79
ATOM     79  C   LIG d   1       4.110   0.482  -2.853  0.00  0.00     0.304 C 
ATOM     80  O   LIG d   1       3.509   1.461  -2.479  0.00  0.00    -0.251 OA
BRANCH  79  81
ATOM     81  C   LIG d   1       4.291  -0.692  -1.926  0.00  0.00     0.033 C 
ATOM     82  H   LIG d   1       4.931  -0.400  -1.093  0.00  0.00     0.034 H 
ATOM     83  H   LIG d   1       3.320  -1.007  -1.545  0.00  0.00     0.034 H 
ATOM     84  H   LIG d   1       4.754  -1.516  -2.469  0.00  0.00     0.034 H 
ENDBRANCH  79  81
ENDBRANCH  78  79
ENDBRANCH  19  78
TORSDOF 15
ENDMDL
MODEL 5
REMARK VINA RESULT:      -5.8      8.590     13.921
REMARK  15 active torsions:
REMARK  status: ('A' for Active; 'I' for Inactive)
REMARK    1  A    between atoms: C_1  and  C_2 
REMARK    2  A    between atoms: C_2  and  C_4 
REMARK    3  A    between atoms: C_2  and  C_12 
REMARK    4  A    between atoms: C_5  and  C_6 
REMARK    5  A    between atoms: C_6  and  C_8 
REMARK    6  A    between atoms: C_6  and  C_9 
REMARK    7  A    between atoms: C_9  and  C_10 
REMARK    8  A    between atoms: C_9  and  C_11 
REMARK    9  A    between atoms: C_18  and  C_40 
REMARK   10  A    between atoms: C_27  and  C_39 
REMARK   11  A    between atoms: C_30  and  O_35 
REMARK   12  A    between atoms: C_32  and  C_33 
REMARK   13  A    between atoms: C_32  and  C_34 
REMARK   14  A    between atoms: O_35  and  C_36 
REMARK   15  A    between atoms: C_36  and  C_38 
ROOT
ATOM      1  C   LIG d   1       9.897   1.968  -5.537  0.00  0.00    -0.029 C 
ATOM      2  H   LIG d   1      10.223   1.619  -6.513  0.00  0.00     0.031 H 
ATOM      3  C   LIG d   1      10.559   1.125  -4.413  0.00  0.00    -0.049 C 
ATOM      4  C   LIG d   1      11.159   2.138  -3.398  0.00  0.00    -0.046 C 
ATOM      5  C   LIG d   1      10.416   3.441  -3.738  0.00  0.00    -0.014 C 
ATOM      6  H   LIG d   1       9.392   3.401  -3.341  0.00  0.00     0.035 H 
ATOM      7  C   LIG d   1      10.415   3.389  -5.285  0.00  0.00    -0.022 C 
ATOM      8  C   LIG d   1       9.672   4.537  -5.895  0.00  0.00    -0.046 C 
ATOM      9  C   LIG d   1       9.612   5.752  -4.959  0.00  0.00    -0.045 C 
ATOM     10  C   LIG d   1      10.919   5.898  -4.188  0.00  0.00    -0.010 C 
ATOM     11  H   LIG d   1      11.729   5.855  -4.934  0.00  0.00     0.035 H 
ATOM     12  C   LIG d   1      11.089   4.698  -3.290  0.00  0.00    -0.062 C 
ATOM     13  C   LIG d   1      11.813   4.780  -2.197  0.00  0.00    -0.062 C 
ATOM     14  C   LIG d   1      12.318   6.072  -1.717  0.00  0.00    -0.061 C 
ATOM     15  C   LIG d   1      11.915   7.216  -2.254  0.00  0.00    -0.054 C 
ATOM     16  C   LIG d   1      11.103   7.221  -3.515  0.00  0.00    -0.004 C 
ATOM     17  C   LIG d   1       9.868   8.075  -3.334  0.00  0.00    -0.040 C 
ATOM     18  C   LIG d   1      10.288   9.484  -2.912  0.00  0.00    -0.014 C 
ATOM     19  C   LIG d   1      11.108   9.496  -1.639  0.00  0.00     0.112 C 
ATOM     20  H   LIG d   1      10.446   9.244  -0.796  0.00  0.00     0.074 H 
ATOM     21  C   LIG d   1      12.298   8.529  -1.613  0.00  0.00     0.024 C 
ATOM     22  H   LIG d   1       9.808   0.508  -3.922  0.00  0.00     0.027 H 
ATOM     23  H   LIG d   1      11.346   0.501  -4.831  0.00  0.00     0.027 H 
ATOM     24  H   LIG d   1      10.916   1.828  -2.376  0.00  0.00     0.027 H 
ATOM     25  H   LIG d   1      12.231   2.235  -3.512  0.00  0.00     0.027 H 
ATOM     26  H   LIG d   1      10.198   4.844  -6.812  0.00  0.00     0.027 H 
ATOM     27  H   LIG d   1       8.660   4.264  -6.182  0.00  0.00     0.027 H 
ATOM     28  H   LIG d   1       9.432   6.647  -5.555  0.00  0.00     0.027 H 
ATOM     29  H   LIG d   1       8.786   5.620  -4.257  0.00  0.00     0.027 H 
ATOM     30  H   LIG d   1      12.039   3.880  -1.641  0.00  0.00     0.062 H 
ATOM     31  H   LIG d   1      13.073   6.052  -0.942  0.00  0.00     0.062 H 
ATOM     32  H   LIG d   1       9.308   8.125  -4.272  0.00  0.00     0.028 H 
ATOM     33  H   LIG d   1       9.227   7.636  -2.565  0.00  0.00     0.028 H 
ATOM     34  H   LIG d   1      10.799  10.011  -3.709  0.00  0.00     0.030 H 
ATOM     35  H   LIG d   1       9.361  10.058  -2.718  0.00  0.00     0.030 H 
ENDROOT
BRANCH   1  36
ATOM     36  C   LIG d   1       8.377   1.888  -5.411  0.00  0.00    -0.022 C 
ATOM     37  H   LIG d   1       7.989   2.851  -5.080  0.00  0.00     0.034 H 
BRANCH  36  38
ATOM     38  C   LIG d   1       7.771   1.534  -6.769  0.00  0.00    -0.059 C 
ATOM     39  H   LIG d   1       7.299   2.417  -7.199  0.00  0.00     0.024 H 
ATOM     40  H   LIG d   1       8.557   1.181  -7.438  0.00  0.00     0.024 H 
ATOM     41  H   LIG d   1       7.024   0.749  -6.641  0.00  0.00     0.024 H 
ENDBRANCH  36  38
BRANCH  36  42
ATOM     42  C   LIG d   1       8.012   0.827  -4.405  0.00  0.00    -0.085 C 
ATOM     43  C   LIG d   1       6.854   0.875  -3.794  0.00  0.00    -0.085 C 
ATOM     44  H   LIG d   1       6.213   1.736  -3.919  0.00  0.00     0.057 H 
ATOM     45  H   LIG d   1       8.704   0.028  -4.187  0.00  0.00     0.057 H 
BRANCH  43  46
ATOM     46  C   LIG d   1       6.416  -0.270  -2.919  0.00  0.00    -0.023 C 
ATOM     47  H   LIG d   1       6.923  -0.207  -1.956  0.00  0.00     0.034 H 
BRANCH  46  48
ATOM     48  C   LIG d   1       6.773  -1.595  -3.595  0.00  0.00    -0.059 C 
ATOM     49  H   LIG d   1       5.867  -2.060  -3.984  0.00  0.00     0.024 H 
ATOM     50  H   LIG d   1       7.467  -1.410  -4.416  0.00  0.00     0.024 H 
ATOM     51  H   LIG d   1       7.239  -2.261  -2.868  0.00  0.00     0.024 H 
ENDBRANCH  46  48
BRANCH  46  52
ATOM     52  C   LIG d   1       4.902  -0.199  -2.704  0.00  0.00    -0.041 C 
ATOM     53  H   LIG d   1       4.408  -0.028  -3.660  0.00  0.00     0.030 H 
BRANCH  52  54
ATOM     54  C   LIG d   1       4.410  -1.517  -2.103  0.00  0.00    -0.062 C 
ATOM     55  H   LIG d   1       3.748  -2.015  -2.811  0.00  0.00     0.023 H 
ATOM     56  H   LIG d   1       5.264  -2.160  -1.888  0.00  0.00     0.023 H 
ATOM     57  H   LIG d   1       3.867  -1.314  -1.179  0.00  0.00     0.023 H 
ENDBRANCH  52  54
BRANCH  52  58
ATOM     58  C   LIG d   1       4.577   0.951  -1.748  0.00  0.00    -0.062 C 
ATOM     59  H   LIG d   1       3.572   0.817  -1.347  0.00  0.00     0.023 H 
ATOM     60  H   LIG d   1       5.298   0.957  -0.929  0.00  0.00     0.023 H 
ATOM     61  H   LIG d   1       4.631   1.897  -2.286  0.00  0.00     0.023 H 
ENDBRANCH  52  58
ENDBRANCH  46  52
ENDBRANCH  43  46
ENDBRANCH  36  42
ENDBRANCH   1  36
BRANCH   7  62
ATOM     62  C   LIG d   1      11.864   3.418  -5.801  0.00  0.00    -0.059 C 
ATOM     63  H   LIG d   1      12.325   4.370  -5.535  0.00  0.00     0.024 H 
ATOM     64  H   LIG d   1      12.428   2.603  -5.349  0.00  0.00     0.024 H 
ATOM     65  H   LIG d   1      11.866   3.304  -6.885  0.00  0.00     0.024 H 
ENDBRANCH   7  62
BRANCH  16  66
ATOM     66  C   LIG d   1      11.945   7.963  -4.565  0.00  0.00    -0.055 C 
ATOM     67  H   LIG d   1      12.792   7.342  -4.856  0.00  0.00     0.024 H 
ATOM     68  H   LIG d   1      11.330   8.173  -5.440  0.00  0.00     0.024 H 
ATOM     69  H   LIG d   1      12.307   8.900  -4.143  0.00  0.00     0.024 H 
ENDBRANCH  16  66
BRANCH  21  70
ATOM     70  C   LIG d   1      13.540   9.163  -2.240  0.00  0.00    -0.053 C 
ATOM     71  H   LIG d   1      14.396   8.502  -2.097  0.00  0.00     0.024 H 
ATOM     72  H   LIG d   1      13.373   9.314  -3.306  0.00  0.00     0.024 H 
ATOM     73  H   LIG d   1      13.738  10.123  -1.763  0.00  0.00     0.024 H 
ENDBRANCH  21  70
BRANCH  21  74
ATOM     74  C   LIG d   1      12.621   8.289  -0.115  0.00  0.00    -0.053 C 
ATOM     75  H   LIG d   1      12.760   9.248   0.385  0.00  0.00     0.024 H 
ATOM     76  H   LIG d   1      11.795   7.753   0.353  0.00  0.00     0.024 H 
ATOM     77  H   LIG d   1      13.533   7.699  -0.029  0.00  0.00     0.024 H 
ENDBRANCH  21  74
BRANCH  19  78
ATOM     78  O   LIG d   1      11.594  10.827  -1.411  0.00  0.00    -0.461 OA
BRANCH  78  79
ATOM     79  C   LIG d   1      10.775  11.673  -0.766  0.00  0.00     0.304 C 
ATOM     80  O   LIG d   1      10.441  12.707  -1.293  0.00  0.00    -0.251 OA
BRANCH  79  81
ATOM     81  C   LIG d   1      10.274  11.332   0.613  0.00  0.00     0.033 C 
ATOM     82  H   LIG d   1      10.110  10.256   0.684  0.00  0.00     0.034 H 
ATOM     83  H   LIG d   1      11.013  11.635   1.354  0.00  0.00     0.034 H 
ATOM     84  H   LIG d   1       9.337  11.855   0.799  0.00  0.00     0.034 H 
ENDBRANCH  79  81
ENDBRANCH  78  79
ENDBRANCH  19  78
TORSDOF 15
ENDMDL
MODEL 6
REMARK VINA RESULT:      -5.7      3.490      8.596
REMARK  15 active torsions:
REMARK  status: ('A' for Active; 'I' for Inactive)
REMARK    1  A    between atoms: C_1  and  C_2 
REMARK    2  A    between atoms: C_2  and  C_4 
REMARK    3  A    between atoms: C_2  and  C_12 
REMARK    4  A    between atoms: C_5  and  C_6 
REMARK    5  A    between atoms: C_6  and  C_8 
REMARK    6  A    between atoms: C_6  and  C_9 
REMARK    7  A    between atoms: C_9  and  C_10 
REMARK    8  A    between atoms: C_9  and  C_11 
REMARK    9  A    between atoms: C_18  and  C_40 
REMARK   10  A    between atoms: C_27  and  C_39 
REMARK   11  A    between atoms: C_30  and  O_35 
REMARK   12  A    between atoms: C_32  and  C_33 
REMARK   13  A    between atoms: C_32  and  C_34 
REMARK   14  A    between atoms: O_35  and  C_36 
REMARK   15  A    between atoms: C_36  and  C_38 
ROOT
ATOM      1  C   LIG d   1       9.780  -8.248  -5.240  0.00  0.00    -0.029 C 
ATOM      2  H   LIG d   1      10.443  -8.601  -6.026  0.00  0.00     0.031 H 
ATOM      3  C   LIG d   1      10.593  -7.911  -3.960  0.00  0.00    -0.049 C 
ATOM      4  C   LIG d   1      10.143  -6.492  -3.515  0.00  0.00    -0.046 C 
ATOM      5  C   LIG d   1       8.808  -6.309  -4.257  0.00  0.00    -0.014 C 
ATOM      6  H   LIG d   1       8.021  -6.892  -3.758  0.00  0.00     0.035 H 
ATOM      7  C   LIG d   1       9.152  -6.909  -5.641  0.00  0.00    -0.022 C 
ATOM      8  C   LIG d   1       7.975  -6.922  -6.568  0.00  0.00    -0.046 C 
ATOM      9  C   LIG d   1       6.934  -5.858  -6.195  0.00  0.00    -0.045 C 
ATOM     10  C   LIG d   1       7.617  -4.586  -5.708  0.00  0.00    -0.010 C 
ATOM     11  H   LIG d   1       8.377  -4.329  -6.466  0.00  0.00     0.035 H 
ATOM     12  C   LIG d   1       8.362  -4.894  -4.432  0.00  0.00    -0.062 C 
ATOM     13  C   LIG d   1       8.606  -3.945  -3.558  0.00  0.00    -0.062 C 
ATOM     14  C   LIG d   1       8.009  -2.611  -3.699  0.00  0.00    -0.061 C 
ATOM     15  C   LIG d   1       7.063  -2.366  -4.597  0.00  0.00    -0.054 C 
ATOM     16  C   LIG d   1       6.731  -3.383  -5.649  0.00  0.00    -0.004 C 
ATOM     17  C   LIG d   1       5.239  -3.630  -5.679  0.00  0.00    -0.040 C 
ATOM     18  C   LIG d   1       4.515  -2.302  -5.910  0.00  0.00    -0.014 C 
ATOM     19  C   LIG d   1       4.840  -1.265  -4.855  0.00  0.00     0.112 C 
ATOM     20  H   LIG d   1       4.364  -1.569  -3.910  0.00  0.00     0.074 H 
ATOM     21  C   LIG d   1       6.332  -1.045  -4.586  0.00  0.00     0.024 C 
ATOM     22  H   LIG d   1      10.368  -8.635  -3.178  0.00  0.00     0.027 H 
ATOM     23  H   LIG d   1      11.657  -7.915  -4.183  0.00  0.00     0.027 H 
ATOM     24  H   LIG d   1       9.971  -6.479  -2.433  0.00  0.00     0.027 H 
ATOM     25  H   LIG d   1      10.869  -5.736  -3.784  0.00  0.00     0.027 H 
ATOM     26  H   LIG d   1       8.331  -6.704  -7.586  0.00  0.00     0.027 H 
ATOM     27  H   LIG d   1       7.490  -7.893  -6.598  0.00  0.00     0.027 H 
ATOM     28  H   LIG d   1       6.326  -5.638  -7.074  0.00  0.00     0.027 H 
ATOM     29  H   LIG d   1       6.288  -6.251  -5.408  0.00  0.00     0.027 H 
ATOM     30  H   LIG d   1       9.257  -4.150  -2.720  0.00  0.00     0.062 H 
ATOM     31  H   LIG d   1       8.408  -1.821  -3.076  0.00  0.00     0.062 H 
ATOM     32  H   LIG d   1       4.992  -4.326  -6.485  0.00  0.00     0.028 H 
ATOM     33  H   LIG d   1       4.919  -4.064  -4.728  0.00  0.00     0.028 H 
ATOM     34  H   LIG d   1       4.689  -1.911  -6.905  0.00  0.00     0.030 H 
ATOM     35  H   LIG d   1       3.428  -2.507  -5.853  0.00  0.00     0.030 H 
ENDROOT
BRANCH   1  36
ATOM     36  C   LIG d   1       8.719  -9.297  -4.914  0.00  0.00    -0.022 C 
ATOM     37  H   LIG d   1       7.760  -8.984  -5.327  0.00  0.00     0.034 H 
BRANCH  36  38
ATOM     38  C   LIG d   1       9.124 -10.639  -5.523  0.00  0.00    -0.059 C 
ATOM     39  H   LIG d   1       8.453 -11.419  -5.165  0.00  0.00     0.024 H 
ATOM     40  H   LIG d   1       9.063 -10.579  -6.610  0.00  0.00     0.024 H 
ATOM     41  H   LIG d   1      10.148 -10.877  -5.230  0.00  0.00     0.024 H 
ENDBRANCH  36  38
BRANCH  36  42
ATOM     42  C   LIG d   1       8.598  -9.440  -3.418  0.00  0.00    -0.085 C 
ATOM     43  C   LIG d   1       7.418  -9.398  -2.850  0.00  0.00    -0.085 C 
ATOM     44  H   LIG d   1       6.546  -9.141  -3.434  0.00  0.00     0.057 H 
ATOM     45  H   LIG d   1       9.483  -9.576  -2.815  0.00  0.00     0.057 H 
BRANCH  43  46
ATOM     46  C   LIG d   1       7.278  -9.709  -1.383  0.00  0.00    -0.023 C 
ATOM     47  H   LIG d   1       6.962  -8.813  -0.849  0.00  0.00     0.034 H 
BRANCH  46  48
ATOM     48  C   LIG d   1       8.624 -10.182  -0.830  0.00  0.00    -0.059 C 
ATOM     49  H   LIG d   1       8.480 -10.608   0.164  0.00  0.00     0.024 H 
ATOM     50  H   LIG d   1       9.044 -10.940  -1.492  0.00  0.00     0.024 H 
ATOM     51  H   LIG d   1       9.309  -9.336  -0.765  0.00  0.00     0.024 H 
ENDBRANCH  46  48
BRANCH  46  52
ATOM     52  C   LIG d   1       6.233 -10.811  -1.192  0.00  0.00    -0.041 C 
ATOM     53  H   LIG d   1       5.586 -10.555  -0.353  0.00  0.00     0.030 H 
BRANCH  52  54
ATOM     54  C   LIG d   1       5.394 -10.945  -2.463  0.00  0.00    -0.062 C 
ATOM     55  H   LIG d   1       4.869 -10.009  -2.653  0.00  0.00     0.023 H 
ATOM     56  H   LIG d   1       6.046 -11.175  -3.306  0.00  0.00     0.023 H 
ATOM     57  H   LIG d   1       4.668 -11.749  -2.336  0.00  0.00     0.023 H 
ENDBRANCH  52  54
BRANCH  52  58
ATOM     58  C   LIG d   1       6.939 -12.138  -0.905  0.00  0.00    -0.062 C 
ATOM     59  H   LIG d   1       7.870 -11.947  -0.370  0.00  0.00     0.023 H 
ATOM     60  H   LIG d   1       6.293 -12.769  -0.295  0.00  0.00     0.023 H 
ATOM     61  H   LIG d   1       7.158 -12.643  -1.846  0.00  0.00     0.023 H 
ENDBRANCH  52  58
ENDBRANCH  46  52
ENDBRANCH  43  46
ENDBRANCH  36  42
ENDBRANCH   1  36
BRANCH   7  62
ATOM     62  C   LIG d   1      10.275  -6.084  -6.294  0.00  0.00    -0.059 C 
ATOM     63  H   LIG d   1      10.293  -6.280  -7.367  0.00  0.00     0.024 H 
ATOM     64  H   LIG d   1      10.093  -5.023  -6.124  0.00  0.00     0.024 H 
ATOM     65  H   LIG d   1      11.233  -6.364  -5.857  0.00  0.00     0.024 H 
ENDBRANCH   7  62
BRANCH  16  66
ATOM     66  C   LIG d   1       7.049  -2.723  -6.999  0.00  0.00    -0.055 C 
ATOM     67  H   LIG d   1       6.220  -2.886  -7.687  0.00  0.00     0.024 H 
ATOM     68  H   LIG d   1       7.197  -1.653  -6.854  0.00  0.00     0.024 H 
ATOM     69  H   LIG d   1       7.957  -3.163  -7.413  0.00  0.00     0.024 H 
ENDBRANCH  16  66
BRANCH  21  70
ATOM     70  C   LIG d   1       6.925  -0.023  -5.556  0.00  0.00    -0.053 C 
ATOM     71  H   LIG d   1       7.387   0.788  -4.991  0.00  0.00     0.024 H 
ATOM     72  H   LIG d   1       7.678  -0.506  -6.178  0.00  0.00     0.024 H 
ATOM     73  H   LIG d   1       6.134   0.380  -6.188  0.00  0.00     0.024 H 
ENDBRANCH  21  70
BRANCH  21  74
ATOM     74  C   LIG d   1       6.424  -0.425  -3.166  0.00  0.00    -0.053 C 
ATOM     75  H   LIG d   1       5.560  -0.736  -2.578  0.00  0.00     0.024 H 
ATOM     76  H   LIG d   1       7.336  -0.768  -2.678  0.00  0.00     0.024 H 
ATOM     77  H   LIG d   1       6.438   0.662  -3.243  0.00  0.00     0.024 H 
ENDBRANCH  21  74
BRANCH  19  78
ATOM     78  O   LIG d   1       4.253  -0.012  -5.238  0.00  0.00    -0.461 OA
BRANCH  78  79
ATOM     79  C   LIG d   1       3.142   0.366  -4.586  0.00  0.00     0.304 C 
ATOM     80  O   LIG d   1       2.566   1.376  -4.912  0.00  0.00    -0.251 OA
BRANCH  79  81
ATOM     81  C   LIG d   1       2.615  -0.470  -3.448  0.00  0.00     0.033 C 
ATOM     82  H   LIG d   1       3.442  -0.998  -2.973  0.00  0.00     0.034 H 
ATOM     83  H   LIG d   1       2.130   0.176  -2.717  0.00  0.00     0.034 H 
ATOM     84  H   LIG d   1       1.895  -1.192  -3.831  0.00  0.00     0.034 H 
ENDBRANCH  79  81
ENDBRANCH  78  79
ENDBRANCH  19  78
TORSDOF 15
ENDMDL
MODEL 7
REMARK VINA RESULT:      -5.6      3.654      4.998
REMARK  15 active torsions:
REMARK  status: ('A' for Active; 'I' for Inactive)
REMARK    1  A    between atoms: C_1  and  C_2 
REMARK    2  A    between atoms: C_2  and  C_4 
REMARK    3  A    between atoms: C_2  and  C_12 
REMARK    4  A    between atoms: C_5  and  C_6 
REMARK    5  A    between atoms: C_6  and  C_8 
REMARK    6  A    between atoms: C_6  and  C_9 
REMARK    7  A    between atoms: C_9  and  C_10 
REMARK    8  A    between atoms: C_9  and  C_11 
REMARK    9  A    between atoms: C_18  and  C_40 
REMARK   10  A    between atoms: C_27  and  C_39 
REMARK   11  A    between atoms: C_30  and  O_35 
REMARK   12  A    between atoms: C_32  and  C_33 
REMARK   13  A    between atoms: C_32  and  C_34 
REMARK   14  A    between atoms: O_35  and  C_36 
REMARK   15  A    between atoms: C_36  and  C_38 
ROOT
ATOM      1  C   LIG d   1       8.544  -4.510  -5.339  0.00  0.00    -0.029 C 
ATOM      2  H   LIG d   1       9.093  -4.103  -6.185  0.00  0.00     0.031 H 
ATOM      3  C   LIG d   1       7.363  -5.388  -5.836  0.00  0.00    -0.049 C 
ATOM      4  C   LIG d   1       7.457  -6.731  -5.062  0.00  0.00    -0.046 C 
ATOM      5  C   LIG d   1       8.361  -6.375  -3.870  0.00  0.00    -0.014 C 
ATOM      6  H   LIG d   1       7.790  -5.801  -3.127  0.00  0.00     0.035 H 
ATOM      7  C   LIG d   1       9.427  -5.489  -4.559  0.00  0.00    -0.022 C 
ATOM      8  C   LIG d   1      10.423  -4.933  -3.588  0.00  0.00    -0.046 C 
ATOM      9  C   LIG d   1      10.536  -5.791  -2.319  0.00  0.00    -0.045 C 
ATOM     10  C   LIG d   1      10.418  -7.271  -2.661  0.00  0.00    -0.010 C 
ATOM     11  H   LIG d   1      11.129  -7.460  -3.483  0.00  0.00     0.035 H 
ATOM     12  C   LIG d   1       9.038  -7.533  -3.211  0.00  0.00    -0.062 C 
ATOM     13  C   LIG d   1       8.499  -8.728  -3.118  0.00  0.00    -0.062 C 
ATOM     14  C   LIG d   1       9.133  -9.786  -2.321  0.00  0.00    -0.061 C 
ATOM     15  C   LIG d   1      10.160  -9.530  -1.522  0.00  0.00    -0.054 C 
ATOM     16  C   LIG d   1      10.853  -8.201  -1.574  0.00  0.00    -0.004 C 
ATOM     17  C   LIG d   1      10.966  -7.620  -0.181  0.00  0.00    -0.040 C 
ATOM     18  C   LIG d   1      11.696  -8.616   0.721  0.00  0.00    -0.014 C 
ATOM     19  C   LIG d   1      11.008  -9.964   0.784  0.00  0.00     0.112 C 
ATOM     20  H   LIG d   1      10.074  -9.852   1.356  0.00  0.00     0.074 H 
ATOM     21  C   LIG d   1      10.662 -10.591  -0.571  0.00  0.00     0.024 C 
ATOM     22  H   LIG d   1       6.417  -4.895  -5.612  0.00  0.00     0.027 H 
ATOM     23  H   LIG d   1       7.453  -5.563  -6.906  0.00  0.00     0.027 H 
ATOM     24  H   LIG d   1       6.465  -7.024  -4.701  0.00  0.00     0.027 H 
ATOM     25  H   LIG d   1       7.877  -7.520  -5.674  0.00  0.00     0.027 H 
ATOM     26  H   LIG d   1      11.411  -4.917  -4.072  0.00  0.00     0.027 H 
ATOM     27  H   LIG d   1      10.188  -3.912  -3.302  0.00  0.00     0.027 H 
ATOM     28  H   LIG d   1      11.500  -5.595  -1.848  0.00  0.00     0.027 H 
ATOM     29  H   LIG d   1       9.739  -5.510  -1.628  0.00  0.00     0.027 H 
ATOM     30  H   LIG d   1       7.573  -8.934  -3.637  0.00  0.00     0.062 H 
ATOM     31  H   LIG d   1       8.762 -10.794  -2.452  0.00  0.00     0.062 H 
ATOM     32  H   LIG d   1      11.523  -6.679  -0.213  0.00  0.00     0.028 H 
ATOM     33  H   LIG d   1       9.967  -7.425   0.217  0.00  0.00     0.028 H 
ATOM     34  H   LIG d   1      12.738  -8.725   0.447  0.00  0.00     0.030 H 
ATOM     35  H   LIG d   1      11.696  -8.193   1.745  0.00  0.00     0.030 H 
ENDROOT
BRANCH   1  36
ATOM     36  C   LIG d   1       8.013  -3.390  -4.448  0.00  0.00    -0.022 C 
ATOM     37  H   LIG d   1       8.237  -3.618  -3.406  0.00  0.00     0.034 H 
BRANCH  36  38
ATOM     38  C   LIG d   1       8.680  -2.070  -4.835  0.00  0.00    -0.059 C 
ATOM     39  H   LIG d   1       9.745  -2.121  -4.611  0.00  0.00     0.024 H 
ATOM     40  H   LIG d   1       8.542  -1.892  -5.902  0.00  0.00     0.024 H 
ATOM     41  H   LIG d   1       8.228  -1.255  -4.269  0.00  0.00     0.024 H 
ENDBRANCH  36  38
BRANCH  36  42
ATOM     42  C   LIG d   1       6.521  -3.271  -4.626  0.00  0.00    -0.085 C 
ATOM     43  C   LIG d   1       5.836  -2.445  -3.874  0.00  0.00    -0.085 C 
ATOM     44  H   LIG d   1       6.317  -1.941  -3.049  0.00  0.00     0.057 H 
ATOM     45  H   LIG d   1       6.017  -3.867  -5.372  0.00  0.00     0.057 H 
BRANCH  43  46
ATOM     46  C   LIG d   1       4.378  -2.199  -4.162  0.00  0.00    -0.023 C 
ATOM     47  H   LIG d   1       3.932  -3.101  -4.582  0.00  0.00     0.034 H 
BRANCH  46  48
ATOM     48  C   LIG d   1       4.242  -1.050  -5.164  0.00  0.00    -0.059 C 
ATOM     49  H   LIG d   1       3.676  -1.390  -6.031  0.00  0.00     0.024 H 
ATOM     50  H   LIG d   1       3.720  -0.217  -4.693  0.00  0.00     0.024 H 
ATOM     51  H   LIG d   1       5.233  -0.726  -5.482  0.00  0.00     0.024 H 
ENDBRANCH  46  48
BRANCH  46  52
ATOM     52  C   LIG d   1       3.656  -1.831  -2.863  0.00  0.00    -0.041 C 
ATOM     53  H   LIG d   1       3.193  -2.722  -2.441  0.00  0.00     0.030 H 
BRANCH  52  54
ATOM     54  C   LIG d   1       4.663  -1.255  -1.865  0.00  0.00    -0.062 C 
ATOM     55  H   LIG d   1       5.675  -1.420  -2.234  0.00  0.00     0.023 H 
ATOM     56  H   LIG d   1       4.487  -0.186  -1.748  0.00  0.00     0.023 H 
ATOM     57  H   LIG d   1       4.542  -1.751  -0.902  0.00  0.00     0.023 H 
ENDBRANCH  52  54
BRANCH  52  58
ATOM     58  C   LIG d   1       2.577  -0.786  -3.159  0.00  0.00    -0.062 C 
ATOM     59  H   LIG d   1       2.705  -0.409  -4.174  0.00  0.00     0.023 H 
ATOM     60  H   LIG d   1       1.593  -1.244  -3.062  0.00  0.00     0.023 H 
ATOM     61  H   LIG d   1       2.667   0.038  -2.452  0.00  0.00     0.023 H 
ENDBRANCH  52  58
ENDBRANCH  46  52
ENDBRANCH  43  46
ENDBRANCH  36  42
ENDBRANCH   1  36
BRANCH   7  62
ATOM     62  C   LIG d   1      10.185  -6.320  -5.609  0.00  0.00    -0.059 C 
ATOM     63  H   LIG d   1      10.586  -7.219  -5.141  0.00  0.00     0.024 H 
ATOM     64  H   LIG d   1       9.504  -6.602  -6.411  0.00  0.00     0.024 H 
ATOM     65  H   LIG d   1      11.003  -5.728  -6.019  0.00  0.00     0.024 H 
ENDBRANCH   7  62
BRANCH  16  66
ATOM     66  C   LIG d   1      12.301  -8.487  -2.001  0.00  0.00    -0.055 C 
ATOM     67  H   LIG d   1      12.306  -8.915  -3.003  0.00  0.00     0.024 H 
ATOM     68  H   LIG d   1      12.869  -7.557  -2.000  0.00  0.00     0.024 H 
ATOM     69  H   LIG d   1      12.753  -9.189  -1.301  0.00  0.00     0.024 H 
ENDBRANCH  16  66
BRANCH  21  70
ATOM     70  C   LIG d   1      11.841 -11.389  -1.130  0.00  0.00    -0.053 C 
ATOM     71  H   LIG d   1      12.379 -10.779  -1.856  0.00  0.00     0.024 H 
ATOM     72  H   LIG d   1      12.512 -11.663  -0.317  0.00  0.00     0.024 H 
ATOM     73  H   LIG d   1      11.471 -12.291  -1.616  0.00  0.00     0.024 H 
ENDBRANCH  21  70
BRANCH  21  74
ATOM     74  C   LIG d   1       9.521 -11.606  -0.294  0.00  0.00    -0.053 C 
ATOM     75  H   LIG d   1       9.459 -12.317  -1.118  0.00  0.00     0.024 H 
ATOM     76  H   LIG d   1       9.729 -12.142   0.632  0.00  0.00     0.024 H 
ATOM     77  H   LIG d   1       8.575 -11.074  -0.202  0.00  0.00     0.024 H 
ENDBRANCH  21  74
BRANCH  19  78
ATOM     78  O   LIG d   1      11.841 -10.878   1.512  0.00  0.00    -0.461 OA
BRANCH  78  79
ATOM     79  C   LIG d   1      11.557 -11.060   2.812  0.00  0.00     0.304 C 
ATOM     80  O   LIG d   1      10.619 -11.751   3.132  0.00  0.00    -0.251 OA
BRANCH  79  81
ATOM     81  C   LIG d   1      12.406 -10.404   3.868  0.00  0.00     0.033 C 
ATOM     82  H   LIG d   1      11.795 -10.195   4.747  0.00  0.00     0.034 H 
ATOM     83  H   LIG d   1      13.223 -11.070   4.144  0.00  0.00     0.034 H 
ATOM     84  H   LIG d   1      12.813  -9.471   3.479  0.00  0.00     0.034 H 
ENDBRANCH  79  81
ENDBRANCH  78  79
ENDBRANCH  19  78
TORSDOF 15
ENDMDL
MODEL 8
REMARK VINA RESULT:      -5.6      7.965     12.978
REMARK  15 active torsions:
REMARK  status: ('A' for Active; 'I' for Inactive)
REMARK    1  A    between atoms: C_1  and  C_2 
REMARK    2  A    between atoms: C_2  and  C_4 
REMARK    3  A    between atoms: C_2  and  C_12 
REMARK    4  A    between atoms: C_5  and  C_6 
REMARK    5  A    between atoms: C_6  and  C_8 
REMARK    6  A    between atoms: C_6  and  C_9 
REMARK    7  A    between atoms: C_9  and  C_10 
REMARK    8  A    between atoms: C_9  and  C_11 
REMARK    9  A    between atoms: C_18  and  C_40 
REMARK   10  A    between atoms: C_27  and  C_39 
REMARK   11  A    between atoms: C_30  and  O_35 
REMARK   12  A    between atoms: C_32  and  C_33 
REMARK   13  A    between atoms: C_32  and  C_34 
REMARK   14  A    between atoms: O_35  and  C_36 
REMARK   15  A    between atoms: C_36  and  C_38 
ROOT
ATOM      1  C   LIG d   1       9.107   1.360  -4.675  0.00  0.00    -0.029 C 
ATOM      2  H   LIG d   1       9.714   0.462  -4.595  0.00  0.00     0.031 H 
ATOM      3  C   LIG d   1       9.190   2.185  -3.361  0.00  0.00    -0.049 C 
ATOM      4  C   LIG d   1       9.514   3.646  -3.779  0.00  0.00    -0.046 C 
ATOM      5  C   LIG d   1       9.136   3.666  -5.269  0.00  0.00    -0.014 C 
ATOM      6  H   LIG d   1       8.043   3.706  -5.377  0.00  0.00     0.035 H 
ATOM      7  C   LIG d   1       9.691   2.299  -5.736  0.00  0.00    -0.022 C 
ATOM      8  C   LIG d   1       9.390   2.021  -7.177  0.00  0.00    -0.046 C 
ATOM      9  C   LIG d   1       9.165   3.309  -7.980  0.00  0.00    -0.045 C 
ATOM     10  C   LIG d   1      10.107   4.409  -7.505  0.00  0.00    -0.010 C 
ATOM     11  H   LIG d   1      11.119   3.971  -7.497  0.00  0.00     0.035 H 
ATOM     12  C   LIG d   1       9.769   4.753  -6.076  0.00  0.00    -0.062 C 
ATOM     13  C   LIG d   1      10.049   5.943  -5.593  0.00  0.00    -0.062 C 
ATOM     14  C   LIG d   1      10.520   7.024  -6.467  0.00  0.00    -0.061 C 
ATOM     15  C   LIG d   1      10.505   6.905  -7.788  0.00  0.00    -0.054 C 
ATOM     16  C   LIG d   1      10.218   5.580  -8.429  0.00  0.00    -0.004 C 
ATOM     17  C   LIG d   1       9.133   5.732  -9.473  0.00  0.00    -0.040 C 
ATOM     18  C   LIG d   1       9.564   6.787 -10.494  0.00  0.00    -0.014 C 
ATOM     19  C   LIG d   1       9.857   8.131  -9.861  0.00  0.00     0.112 C 
ATOM     20  H   LIG d   1       8.906   8.576  -9.532  0.00  0.00     0.074 H 
ATOM     21  C   LIG d   1      10.808   8.100  -8.660  0.00  0.00     0.024 C 
ATOM     22  H   LIG d   1       8.233   2.150  -2.842  0.00  0.00     0.027 H 
ATOM     23  H   LIG d   1       9.979   1.792  -2.723  0.00  0.00     0.027 H 
ATOM     24  H   LIG d   1       8.875   4.342  -3.224  0.00  0.00     0.027 H 
ATOM     25  H   LIG d   1      10.556   3.890  -3.616  0.00  0.00     0.027 H 
ATOM     26  H   LIG d   1      10.251   1.496  -7.617  0.00  0.00     0.027 H 
ATOM     27  H   LIG d   1       8.525   1.375  -7.297  0.00  0.00     0.027 H 
ATOM     28  H   LIG d   1       9.341   3.101  -9.036  0.00  0.00     0.027 H 
ATOM     29  H   LIG d   1       8.130   3.633  -7.851  0.00  0.00     0.027 H 
ATOM     30  H   LIG d   1       9.929   6.127  -4.534  0.00  0.00     0.062 H 
ATOM     31  H   LIG d   1      10.930   7.904  -5.988  0.00  0.00     0.062 H 
ATOM     32  H   LIG d   1       8.966   4.779  -9.980  0.00  0.00     0.028 H 
ATOM     33  H   LIG d   1       8.202   6.044  -8.992  0.00  0.00     0.028 H 
ATOM     34  H   LIG d   1      10.399   6.451 -11.098  0.00  0.00     0.030 H 
ATOM     35  H   LIG d   1       8.720   6.926 -11.198  0.00  0.00     0.030 H 
ENDROOT
BRANCH   1  36
ATOM     36  C   LIG d   1       7.651   1.007  -4.969  0.00  0.00    -0.022 C 
ATOM     37  H   LIG d   1       7.167   1.847  -5.467  0.00  0.00     0.034 H 
BRANCH  36  38
ATOM     38  C   LIG d   1       7.598  -0.223  -5.875  0.00  0.00    -0.059 C 
ATOM     39  H   LIG d   1       6.562  -0.539  -5.999  0.00  0.00     0.024 H 
ATOM     40  H   LIG d   1       8.020   0.024  -6.850  0.00  0.00     0.024 H 
ATOM     41  H   LIG d   1       8.173  -1.032  -5.424  0.00  0.00     0.024 H 
ENDBRANCH  36  38
BRANCH  36  42
ATOM     42  C   LIG d   1       6.935   0.710  -3.676  0.00  0.00    -0.085 C 
ATOM     43  C   LIG d   1       5.676   0.347  -3.693  0.00  0.00    -0.085 C 
ATOM     44  H   LIG d   1       5.118   0.378  -4.618  0.00  0.00     0.057 H 
ATOM     45  H   LIG d   1       7.459   0.797  -2.736  0.00  0.00     0.057 H 
BRANCH  43  46
ATOM     46  C   LIG d   1       5.007  -0.112  -2.424  0.00  0.00    -0.023 C 
ATOM     47  H   LIG d   1       5.568   0.255  -1.564  0.00  0.00     0.034 H 
BRANCH  46  48
ATOM     48  C   LIG d   1       4.971  -1.642  -2.392  0.00  0.00    -0.059 C 
ATOM     49  H   LIG d   1       4.268  -2.004  -3.143  0.00  0.00     0.024 H 
ATOM     50  H   LIG d   1       5.965  -2.034  -2.606  0.00  0.00     0.024 H 
ATOM     51  H   LIG d   1       4.651  -1.977  -1.405  0.00  0.00     0.024 H 
ENDBRANCH  46  48
BRANCH  46  52
ATOM     52  C   LIG d   1       3.579   0.433  -2.373  0.00  0.00    -0.041 C 
ATOM     53  H   LIG d   1       3.259   0.516  -1.334  0.00  0.00     0.030 H 
BRANCH  52  54
ATOM     54  C   LIG d   1       3.535   1.813  -3.033  0.00  0.00    -0.062 C 
ATOM     55  H   LIG d   1       4.187   2.497  -2.490  0.00  0.00     0.023 H 
ATOM     56  H   LIG d   1       3.872   1.732  -4.067  0.00  0.00     0.023 H 
ATOM     57  H   LIG d   1       2.513   2.192  -3.013  0.00  0.00     0.023 H 
ENDBRANCH  52  54
BRANCH  52  58
ATOM     58  C   LIG d   1       2.643  -0.519  -3.121  0.00  0.00    -0.062 C 
ATOM     59  H   LIG d   1       2.578  -0.219  -4.166  0.00  0.00     0.023 H 
ATOM     60  H   LIG d   1       3.033  -1.535  -3.057  0.00  0.00     0.023 H 
ATOM     61  H   LIG d   1       1.651  -0.482  -2.670  0.00  0.00     0.023 H 
ENDBRANCH  52  58
ENDBRANCH  46  52
ENDBRANCH  43  46
ENDBRANCH  36  42
ENDBRANCH   1  36
BRANCH   7  62
ATOM     62  C   LIG d   1      11.218   2.271  -5.545  0.00  0.00    -0.059 C 
ATOM     63  H   LIG d   1      11.687   2.928  -6.277  0.00  0.00     0.024 H 
ATOM     64  H   LIG d   1      11.465   2.614  -4.540  0.00  0.00     0.024 H 
ATOM     65  H   LIG d   1      11.583   1.254  -5.681  0.00  0.00     0.024 H 
ENDBRANCH   7  62
BRANCH  16  66
ATOM     66  C   LIG d   1      11.479   5.204  -9.222  0.00  0.00    -0.055 C 
ATOM     67  H   LIG d   1      12.276   4.935  -8.530  0.00  0.00     0.024 H 
ATOM     68  H   LIG d   1      11.259   4.356  -9.871  0.00  0.00     0.024 H 
ATOM     69  H   LIG d   1      11.793   6.053  -9.828  0.00  0.00     0.024 H 
ENDBRANCH  16  66
BRANCH  21  70
ATOM     70  C   LIG d   1      12.269   8.162  -9.106  0.00  0.00    -0.053 C 
ATOM     71  H   LIG d   1      12.454   9.110  -9.612  0.00  0.00     0.024 H 
ATOM     72  H   LIG d   1      12.919   8.083  -8.236  0.00  0.00     0.024 H 
ATOM     73  H   LIG d   1      12.475   7.339  -9.790  0.00  0.00     0.024 H 
ENDBRANCH  21  70
BRANCH  21  74
ATOM     74  C   LIG d   1      10.526   9.399  -7.858  0.00  0.00    -0.053 C 
ATOM     75  H   LIG d   1       9.684   9.927  -8.307  0.00  0.00     0.024 H 
ATOM     76  H   LIG d   1      10.285   9.143  -6.826  0.00  0.00     0.024 H 
ATOM     77  H   LIG d   1      11.408  10.038  -7.879  0.00  0.00     0.024 H 
ENDBRANCH  21  74
BRANCH  19  78
ATOM     78  O   LIG d   1      10.408   9.005 -10.859  0.00  0.00    -0.461 OA
BRANCH  78  79
ATOM     79  C   LIG d   1      10.472   8.533 -12.114  0.00  0.00     0.304 C 
ATOM     80  O   LIG d   1      11.395   7.829 -12.448  0.00  0.00    -0.251 OA
BRANCH  79  81
ATOM     81  C   LIG d   1       9.393   8.883 -13.106  0.00  0.00     0.033 C 
ATOM     82  H   LIG d   1       8.527   8.240 -12.941  0.00  0.00     0.034 H 
ATOM     83  H   LIG d   1       9.101   9.924 -12.974  0.00  0.00     0.034 H 
ATOM     84  H   LIG d   1       9.768   8.735 -14.118  0.00  0.00     0.034 H 
ENDBRANCH  79  81
ENDBRANCH  78  79
ENDBRANCH  19  78
TORSDOF 15
ENDMDL
MODEL 9
REMARK VINA RESULT:      -5.5      5.739      9.230
REMARK  15 active torsions:
REMARK  status: ('A' for Active; 'I' for Inactive)
REMARK    1  A    between atoms: C_1  and  C_2 
REMARK    2  A    between atoms: C_2  and  C_4 
REMARK    3  A    between atoms: C_2  and  C_12 
REMARK    4  A    between atoms: C_5  and  C_6 
REMARK    5  A    between atoms: C_6  and  C_8 
REMARK    6  A    between atoms: C_6  and  C_9 
REMARK    7  A    between atoms: C_9  and  C_10 
REMARK    8  A    between atoms: C_9  and  C_11 
REMARK    9  A    between atoms: C_18  and  C_40 
REMARK   10  A    between atoms: C_27  and  C_39 
REMARK   11  A    between atoms: C_30  and  O_35 
REMARK   12  A    between atoms: C_32  and  C_33 
REMARK   13  A    between atoms: C_32  and  C_34 
REMARK   14  A    between atoms: O_35  and  C_36 
REMARK   15  A    between atoms: C_36  and  C_38 
ROOT
ATOM      1  C   LIG d   1      11.755   4.469  -6.712  0.00  0.00    -0.029 C 
ATOM      2  H   LIG d   1      12.820   4.273  -6.801  0.00  0.00     0.031 H 
ATOM      3  C   LIG d   1      11.159   4.843  -8.097  0.00  0.00    -0.049 C 
ATOM      4  C   LIG d   1       9.901   3.952  -8.291  0.00  0.00    -0.046 C 
ATOM      5  C   LIG d   1       9.591   3.485  -6.859  0.00  0.00    -0.014 C 
ATOM      6  H   LIG d   1       9.123   4.303  -6.293  0.00  0.00     0.035 H 
ATOM      7  C   LIG d   1      11.013   3.184  -6.328  0.00  0.00    -0.022 C 
ATOM      8  C   LIG d   1      11.011   2.765  -4.890  0.00  0.00    -0.046 C 
ATOM      9  C   LIG d   1       9.662   2.169  -4.463  0.00  0.00    -0.045 C 
ATOM     10  C   LIG d   1       9.062   1.338  -5.591  0.00  0.00    -0.010 C 
ATOM     11  H   LIG d   1       9.853   0.648  -5.927  0.00  0.00     0.035 H 
ATOM     12  C   LIG d   1       8.756   2.249  -6.754  0.00  0.00    -0.062 C 
ATOM     13  C   LIG d   1       7.820   1.935  -7.620  0.00  0.00    -0.062 C 
ATOM     14  C   LIG d   1       6.922   0.797  -7.385  0.00  0.00    -0.061 C 
ATOM     15  C   LIG d   1       6.895   0.164  -6.220  0.00  0.00    -0.054 C 
ATOM     16  C   LIG d   1       7.938   0.442  -5.179  0.00  0.00    -0.004 C 
ATOM     17  C   LIG d   1       7.278   0.739  -3.850  0.00  0.00    -0.040 C 
ATOM     18  C   LIG d   1       6.375  -0.434  -3.464  0.00  0.00    -0.014 C 
ATOM     19  C   LIG d   1       5.316  -0.727  -4.506  0.00  0.00     0.112 C 
ATOM     20  H   LIG d   1       4.574   0.086  -4.487  0.00  0.00     0.074 H 
ATOM     21  C   LIG d   1       5.828  -0.869  -5.944  0.00  0.00     0.024 C 
ATOM     22  H   LIG d   1      10.874   5.895  -8.104  0.00  0.00     0.027 H 
ATOM     23  H   LIG d   1      11.886   4.644  -8.882  0.00  0.00     0.027 H 
ATOM     24  H   LIG d   1       9.072   4.557  -8.672  0.00  0.00     0.027 H 
ATOM     25  H   LIG d   1      10.094   3.123  -8.960  0.00  0.00     0.027 H 
ATOM     26  H   LIG d   1      11.780   1.990  -4.752  0.00  0.00     0.027 H 
ATOM     27  H   LIG d   1      11.259   3.586  -4.224  0.00  0.00     0.027 H 
ATOM     28  H   LIG d   1       9.817   1.542  -3.584  0.00  0.00     0.027 H 
ATOM     29  H   LIG d   1       8.980   2.981  -4.203  0.00  0.00     0.027 H 
ATOM     30  H   LIG d   1       7.709   2.524  -8.520  0.00  0.00     0.062 H 
ATOM     31  H   LIG d   1       6.320   0.462  -8.220  0.00  0.00     0.062 H 
ATOM     32  H   LIG d   1       8.040   0.884  -3.079  0.00  0.00     0.028 H 
ATOM     33  H   LIG d   1       6.682   1.652  -3.932  0.00  0.00     0.028 H 
ATOM     34  H   LIG d   1       6.945  -1.325  -3.228  0.00  0.00     0.030 H 
ATOM     35  H   LIG d   1       5.854  -0.152  -2.528  0.00  0.00     0.030 H 
ENDROOT
BRANCH   1  36
ATOM     36  C   LIG d   1      11.490   5.596  -5.717  0.00  0.00    -0.022 C 
ATOM     37  H   LIG d   1      10.857   5.226  -4.910  0.00  0.00     0.034 H 
BRANCH  36  38
ATOM     38  C   LIG d   1      12.817   6.087  -5.139  0.00  0.00    -0.059 C 
ATOM     39  H   LIG d   1      13.614   5.923  -5.865  0.00  0.00     0.024 H 
ATOM     40  H   LIG d   1      12.745   7.152  -4.914  0.00  0.00     0.024 H 
ATOM     41  H   LIG d   1      13.042   5.537  -4.224  0.00  0.00     0.024 H 
ENDBRANCH  36  38
BRANCH  36  42
ATOM     42  C   LIG d   1      10.795   6.734  -6.420  0.00  0.00    -0.085 C 
ATOM     43  C   LIG d   1       9.722   7.271  -5.894  0.00  0.00    -0.085 C 
ATOM     44  H   LIG d   1       9.265   6.822  -5.023  0.00  0.00     0.057 H 
ATOM     45  H   LIG d   1      11.181   7.106  -7.357  0.00  0.00     0.057 H 
BRANCH  43  46
ATOM     46  C   LIG d   1       9.126   8.512  -6.503  0.00  0.00    -0.023 C 
ATOM     47  H   LIG d   1       8.121   8.665  -6.108  0.00  0.00     0.034 H 
BRANCH  46  48
ATOM     48  C   LIG d   1       9.056   8.353  -8.023  0.00  0.00    -0.059 C 
ATOM     49  H   LIG d   1       8.523   7.433  -8.268  0.00  0.00     0.024 H 
ATOM     50  H   LIG d   1       8.528   9.203  -8.455  0.00  0.00     0.024 H 
ATOM     51  H   LIG d   1      10.066   8.306  -8.431  0.00  0.00     0.024 H 
ENDBRANCH  46  48
BRANCH  46  52
ATOM     52  C   LIG d   1       9.998   9.721  -6.157  0.00  0.00    -0.041 C 
ATOM     53  H   LIG d   1      10.987   9.378  -5.851  0.00  0.00     0.030 H 
BRANCH  52  54
ATOM     54  C   LIG d   1      10.128  10.625  -7.384  0.00  0.00    -0.062 C 
ATOM     55  H   LIG d   1       9.201  10.596  -7.957  0.00  0.00     0.023 H 
ATOM     56  H   LIG d   1      10.326  11.647  -7.063  0.00  0.00     0.023 H 
ATOM     57  H   LIG d   1      10.951  10.275  -8.008  0.00  0.00     0.023 H 
ENDBRANCH  52  54
BRANCH  52  58
ATOM     58  C   LIG d   1       9.352  10.505  -5.012  0.00  0.00    -0.062 C 
ATOM     59  H   LIG d   1       9.590  10.025  -4.063  0.00  0.00     0.023 H 
ATOM     60  H   LIG d   1       9.735  11.525  -5.010  0.00  0.00     0.023 H 
ATOM     61  H   LIG d   1       8.271  10.522  -5.149  0.00  0.00     0.023 H 
ENDBRANCH  52  58
ENDBRANCH  46  52
ENDBRANCH  43  46
ENDBRANCH  36  42
ENDBRANCH   1  36
BRANCH   7  62
ATOM     62  C   LIG d   1      11.644   2.055  -7.162  0.00  0.00    -0.059 C 
ATOM     63  H   LIG d   1      12.231   2.487  -7.972  0.00  0.00     0.024 H 
ATOM     64  H   LIG d   1      12.293   1.452  -6.526  0.00  0.00     0.024 H 
ATOM     65  H   LIG d   1      10.857   1.426  -7.577  0.00  0.00     0.024 H 
ENDBRANCH   7  62
BRANCH  16  66
ATOM     66  C   LIG d   1       8.690  -0.880  -4.959  0.00  0.00    -0.055 C 
ATOM     67  H   LIG d   1       7.974  -1.700  -4.904  0.00  0.00     0.024 H 
ATOM     68  H   LIG d   1       9.375  -1.050  -5.789  0.00  0.00     0.024 H 
ATOM     69  H   LIG d   1       9.253  -0.826  -4.028  0.00  0.00     0.024 H 
ENDBRANCH  16  66
BRANCH  21  70
ATOM     70  C   LIG d   1       6.289  -2.299  -6.229  0.00  0.00    -0.053 C 
ATOM     71  H   LIG d   1       7.285  -2.277  -6.673  0.00  0.00     0.024 H 
ATOM     72  H   LIG d   1       6.319  -2.864  -5.299  0.00  0.00     0.024 H 
ATOM     73  H   LIG d   1       5.593  -2.773  -6.921  0.00  0.00     0.024 H 
ENDBRANCH  21  70
BRANCH  21  74
ATOM     74  C   LIG d   1       4.607  -0.597  -6.862  0.00  0.00    -0.053 C 
ATOM     75  H   LIG d   1       4.630  -1.282  -7.709  0.00  0.00     0.024 H 
ATOM     76  H   LIG d   1       3.687  -0.748  -6.297  0.00  0.00     0.024 H 
ATOM     77  H   LIG d   1       4.646   0.430  -7.225  0.00  0.00     0.024 H 
ENDBRANCH  21  74
BRANCH  19  78
ATOM     78  O   LIG d   1       4.628  -1.934  -4.144  0.00  0.00    -0.461 OA
BRANCH  78  79
ATOM     79  C   LIG d   1       3.679  -1.834  -3.200  0.00  0.00     0.304 C 
ATOM     80  O   LIG d   1       3.628  -2.646  -2.308  0.00  0.00    -0.251 OA
BRANCH  79  81
ATOM     81  C   LIG d   1       2.678  -0.709  -3.254  0.00  0.00     0.033 C 
ATOM     82  H   LIG d   1       2.392  -0.429  -2.240  0.00  0.00     0.034 H 
ATOM     83  H   LIG d   1       3.122   0.149  -3.756  0.00  0.00     0.034 H 
ATOM     84  H   LIG d   1       1.795  -1.035  -3.803  0.00  0.00     0.034 H 
ENDBRANCH  79  81
ENDBRANCH  78  79
ENDBRANCH  19  78
TORSDOF 15
ENDMDL
