MODEL 1
REMARK VINA RESULT:      -7.4      0.000      0.000
REMARK  7 active torsions:
REMARK  status: ('A' for Active; 'I' for Inactive)
REMARK    1  A    between atoms: C_1  and  C_2 
REMARK    2  A    between atoms: C_16  and  C_19 
REMARK    3  A    between atoms: C_19  and  C_20 
REMARK    4  A    between atoms: C_20  and  C_21 
REMARK       I    between atoms: C_21  and  N_23 
REMARK    5  A    between atoms: N_26  and  C_29 
REMARK    6  A    between atoms: C_29  and  C_30 
REMARK    7  A    between atoms: C_30  and  C_31 
ROOT
ATOM      1  C   LIG d   1       7.955  -6.035  -5.752  0.00  0.00    -0.028 A 
ATOM      2  C   LIG d   1       9.010  -5.282  -5.279  0.00  0.00    -0.039 A 
ATOM      3  C   LIG d   1       8.796  -4.002  -4.801  0.00  0.00     0.042 A 
ATOM      4  C   LIG d   1       7.516  -3.473  -4.798  0.00  0.00    -0.036 A 
ATOM      5  C   LIG d   1       6.460  -4.221  -5.269  0.00  0.00     0.005 A 
ATOM      6  C   LIG d   1       6.666  -5.508  -5.756  0.00  0.00     0.042 A 
ATOM      7  N   LIG d   1       5.456  -6.062  -6.181  0.00  0.00    -0.283 N 
ATOM      8  C   LIG d   1       4.422  -5.214  -6.014  0.00  0.00     0.243 A 
ATOM      9  O   LIG d   1       3.260  -5.424  -6.292  0.00  0.00    -0.273 OA
ATOM     10  C   LIG d   1       4.987  -3.960  -5.404  0.00  0.00     0.136 A 
ATOM     11  C   LIG d   1       4.709  -2.744  -6.294  0.00  0.00     0.080 A 
ATOM     12  H   LIG d   1       3.873  -2.906  -6.974  0.00  0.00     0.043 H 
ATOM     13  C   LIG d   1       4.455  -1.578  -5.297  0.00  0.00     0.065 A 
ATOM     14  H   LIG d   1       3.483  -1.105  -5.436  0.00  0.00     0.042 H 
ATOM     15  C   LIG d   1       4.617  -2.211  -3.899  0.00  0.00     0.021 C 
ATOM     16  H   LIG d   1       5.632  -2.065  -3.530  0.00  0.00     0.047 H 
ATOM     17  N   LIG d   1       4.370  -3.658  -4.099  0.00  0.00    -0.295 N 
ATOM     18  C   LIG d   1       5.607  -0.635  -5.566  0.00  0.00     0.227 A 
ATOM     19  O   LIG d   1       5.795   0.421  -4.999  0.00  0.00    -0.275 OA
ATOM     20  N   LIG d   1       6.387  -1.146  -6.525  0.00  0.00    -0.241 N 
ATOM     21  C   LIG d   1       5.973  -2.337  -7.016  0.00  0.00     0.228 A 
ATOM     22  O   LIG d   1       6.521  -2.979  -7.886  0.00  0.00    -0.275 OA
ATOM     23 CL   LIG d   1      10.128  -3.060  -4.208  0.00  0.00    -0.084 Cl
ATOM     24  H   LIG d   1      10.008  -5.694  -5.281  0.00  0.00     0.064 H 
ATOM     25  H   LIG d   1       7.345  -2.474  -4.425  0.00  0.00     0.064 H 
ATOM     26  H   LIG d   1       5.369  -6.953  -6.553  0.00  0.00     0.155 HD
ATOM     27  H   LIG d   1       3.379  -3.846  -4.116  0.00  0.00     0.123 HD
ENDROOT
BRANCH  15  28
ATOM     28  C   LIG d   1       3.604  -1.610  -2.922  0.00  0.00    -0.029 C 
ATOM     29  H   LIG d   1       2.983  -0.882  -3.445  0.00  0.00     0.029 H 
ATOM     30  H   LIG d   1       2.973  -2.402  -2.519  0.00  0.00     0.029 H 
BRANCH  28  31
ATOM     31  C   LIG d   1       4.348  -0.918  -1.778  0.00  0.00     0.025 C 
ATOM     32  H   LIG d   1       3.892  -1.196  -0.828  0.00  0.00     0.036 H 
ATOM     33  H   LIG d   1       5.393  -1.230  -1.784  0.00  0.00     0.036 H 
BRANCH  31  34
ATOM     34  C   LIG d   1       4.268   0.576  -1.958  0.00  0.00     0.210 C 
ATOM     35  O   LIG d   1       4.901   1.311  -1.231  0.00  0.00    -0.276 OA
ATOM     36  N   LIG d   1       3.490   1.095  -2.929  0.00  0.00    -0.329 N 
ATOM     37  H   LIG d   1       2.982   0.508  -3.511  0.00  0.00     0.145 HD
ATOM     38  H   LIG d   1       3.438   2.058  -3.046  0.00  0.00     0.145 HD
ENDBRANCH  31  34
ENDBRANCH  28  31
ENDBRANCH  15  28
BRANCH   1  39
ATOM     39  C   LIG d   1       8.200  -7.428  -6.271  0.00  0.00    -0.038 C 
ATOM     40  H   LIG d   1       7.293  -7.804  -6.744  0.00  0.00     0.028 H 
ATOM     41  H   LIG d   1       9.008  -7.407  -7.002  0.00  0.00     0.028 H 
ATOM     42  H   LIG d   1       8.476  -8.081  -5.443  0.00  0.00     0.028 H 
ENDBRANCH   1  39
BRANCH  20  43
ATOM     43  C   LIG d   1       7.591  -0.468  -7.013  0.00  0.00     0.026 C 
ATOM     44  H   LIG d   1       8.297  -0.348  -6.193  0.00  0.00     0.047 H 
ATOM     45  H   LIG d   1       8.048  -1.064  -7.802  0.00  0.00     0.047 H 
BRANCH  43  46
ATOM     46  C   LIG d   1       7.213   0.907  -7.567  0.00  0.00    -0.011 C 
ATOM     47  H   LIG d   1       6.657   1.463  -6.810  0.00  0.00     0.033 H 
ATOM     48  H   LIG d   1       8.118   1.456  -7.828  0.00  0.00     0.033 H 
BRANCH  46  49
ATOM     49  C   LIG d   1       6.355   0.736  -8.793  0.00  0.00    -0.046 A 
ATOM     50  C   LIG d   1       6.780  -0.077  -9.827  0.00  0.00    -0.059 A 
ATOM     51  C   LIG d   1       5.991  -0.237 -10.950  0.00  0.00    -0.061 A 
ATOM     52  H   LIG d   1       7.728  -0.590  -9.755  0.00  0.00     0.062 H 
ATOM     53  C   LIG d   1       4.780   0.424 -11.044  0.00  0.00    -0.062 A 
ATOM     54  H   LIG d   1       6.321  -0.877 -11.756  0.00  0.00     0.062 H 
ATOM     55  C   LIG d   1       4.358   1.242 -10.013  0.00  0.00    -0.061 A 
ATOM     56  H   LIG d   1       4.165   0.301 -11.923  0.00  0.00     0.062 H 
ATOM     57  C   LIG d   1       5.144   1.398  -8.888  0.00  0.00    -0.059 A 
ATOM     58  H   LIG d   1       3.411   1.758 -10.087  0.00  0.00     0.062 H 
ATOM     59  H   LIG d   1       4.814   2.037  -8.082  0.00  0.00     0.062 H 
ENDBRANCH  46  49
ENDBRANCH  43  46
ENDBRANCH  20  43
TORSDOF 7
ENDMDL
MODEL 2
REMARK VINA RESULT:      -7.4      2.203      3.211
REMARK  7 active torsions:
REMARK  status: ('A' for Active; 'I' for Inactive)
REMARK    1  A    between atoms: C_1  and  C_2 
REMARK    2  A    between atoms: C_16  and  C_19 
REMARK    3  A    between atoms: C_19  and  C_20 
REMARK    4  A    between atoms: C_20  and  C_21 
REMARK       I    between atoms: C_21  and  N_23 
REMARK    5  A    between atoms: N_26  and  C_29 
REMARK    6  A    between atoms: C_29  and  C_30 
REMARK    7  A    between atoms: C_30  and  C_31 
ROOT
ATOM      1  C   LIG d   1       9.196  -1.780  -7.076  0.00  0.00    -0.028 A 
ATOM      2  C   LIG d   1       9.271  -0.402  -7.064  0.00  0.00    -0.039 A 
ATOM      3  C   LIG d   1       8.244   0.349  -6.521  0.00  0.00     0.042 A 
ATOM      4  C   LIG d   1       7.135  -0.286  -5.987  0.00  0.00    -0.036 A 
ATOM      5  C   LIG d   1       7.056  -1.660  -5.997  0.00  0.00     0.005 A 
ATOM      6  C   LIG d   1       8.081  -2.425  -6.545  0.00  0.00     0.042 A 
ATOM      7  N   LIG d   1       7.775  -3.784  -6.447  0.00  0.00    -0.283 N 
ATOM      8  C   LIG d   1       6.581  -3.995  -5.859  0.00  0.00     0.243 A 
ATOM      9  O   LIG d   1       6.060  -5.069  -5.642  0.00  0.00    -0.273 OA
ATOM     10  C   LIG d   1       6.024  -2.640  -5.515  0.00  0.00     0.136 A 
ATOM     11  C   LIG d   1       4.670  -2.415  -6.195  0.00  0.00     0.080 A 
ATOM     12  H   LIG d   1       4.182  -3.348  -6.476  0.00  0.00     0.043 H 
ATOM     13  C   LIG d   1       3.845  -1.593  -5.164  0.00  0.00     0.065 A 
ATOM     14  H   LIG d   1       2.909  -2.079  -4.886  0.00  0.00     0.042 H 
ATOM     15  C   LIG d   1       4.795  -1.398  -3.963  0.00  0.00     0.021 C 
ATOM     16  H   LIG d   1       5.312  -0.442  -4.039  0.00  0.00     0.047 H 
ATOM     17  N   LIG d   1       5.780  -2.500  -4.067  0.00  0.00    -0.295 N 
ATOM     18  C   LIG d   1       3.631  -0.270  -5.866  0.00  0.00     0.227 A 
ATOM     19  O   LIG d   1       3.023   0.674  -5.409  0.00  0.00    -0.275 OA
ATOM     20  N   LIG d   1       4.218  -0.303  -7.067  0.00  0.00    -0.241 N 
ATOM     21  C   LIG d   1       4.834  -1.470  -7.364  0.00  0.00     0.228 A 
ATOM     22  O   LIG d   1       5.426  -1.724  -8.392  0.00  0.00    -0.275 OA
ATOM     23 CL   LIG d   1       8.345   2.082  -6.509  0.00  0.00    -0.084 Cl
ATOM     24  H   LIG d   1      10.136   0.093  -7.480  0.00  0.00     0.064 H 
ATOM     25  H   LIG d   1       6.331   0.298  -5.562  0.00  0.00     0.064 H 
ATOM     26  H   LIG d   1       8.354  -4.494  -6.765  0.00  0.00     0.155 HD
ATOM     27  H   LIG d   1       5.399  -3.349  -3.681  0.00  0.00     0.123 HD
ENDROOT
BRANCH  15  28
ATOM     28  C   LIG d   1       4.016  -1.478  -2.649  0.00  0.00    -0.029 C 
ATOM     29  H   LIG d   1       2.974  -1.213  -2.828  0.00  0.00     0.029 H 
ATOM     30  H   LIG d   1       4.069  -2.494  -2.257  0.00  0.00     0.029 H 
BRANCH  28  31
ATOM     31  C   LIG d   1       4.624  -0.507  -1.636  0.00  0.00     0.025 C 
ATOM     32  H   LIG d   1       4.040  -0.531  -0.715  0.00  0.00     0.036 H 
ATOM     33  H   LIG d   1       5.652  -0.801  -1.423  0.00  0.00     0.036 H 
BRANCH  31  34
ATOM     34  C   LIG d   1       4.607   0.888  -2.205  0.00  0.00     0.210 C 
ATOM     35  O   LIG d   1       5.650   1.463  -2.434  0.00  0.00    -0.276 OA
ATOM     36  N   LIG d   1       3.432   1.496  -2.460  0.00  0.00    -0.329 N 
ATOM     37  H   LIG d   1       2.597   1.038  -2.277  0.00  0.00     0.145 HD
ATOM     38  H   LIG d   1       3.421   2.395  -2.828  0.00  0.00     0.145 HD
ENDBRANCH  31  34
ENDBRANCH  28  31
ENDBRANCH  15  28
BRANCH   1  39
ATOM     39  C   LIG d   1      10.320  -2.588  -7.671  0.00  0.00    -0.038 C 
ATOM     40  H   LIG d   1      10.008  -2.990  -8.634  0.00  0.00     0.028 H 
ATOM     41  H   LIG d   1      11.193  -1.951  -7.807  0.00  0.00     0.028 H 
ATOM     42  H   LIG d   1      10.571  -3.409  -6.999  0.00  0.00     0.028 H 
ENDBRANCH   1  39
BRANCH  20  43
ATOM     43  C   LIG d   1       4.191   0.831  -7.995  0.00  0.00     0.026 C 
ATOM     44  H   LIG d   1       4.495   1.736  -7.470  0.00  0.00     0.047 H 
ATOM     45  H   LIG d   1       4.876   0.641  -8.820  0.00  0.00     0.047 H 
BRANCH  43  46
ATOM     46  C   LIG d   1       2.772   1.011  -8.539  0.00  0.00    -0.011 C 
ATOM     47  H   LIG d   1       2.052   0.652  -7.802  0.00  0.00     0.033 H 
ATOM     48  H   LIG d   1       2.591   2.066  -8.740  0.00  0.00     0.033 H 
BRANCH  46  49
ATOM     49  C   LIG d   1       2.620   0.222  -9.813  0.00  0.00    -0.046 A 
ATOM     50  C   LIG d   1       1.521  -0.597  -9.994  0.00  0.00    -0.059 A 
ATOM     51  C   LIG d   1       1.380  -1.317 -11.165  0.00  0.00    -0.061 A 
ATOM     52  H   LIG d   1       0.771  -0.670  -9.221  0.00  0.00     0.062 H 
ATOM     53  C   LIG d   1       2.344  -1.226 -12.152  0.00  0.00    -0.062 A 
ATOM     54  H   LIG d   1       0.519  -1.953 -11.308  0.00  0.00     0.062 H 
ATOM     55  C   LIG d   1       3.445  -0.412 -11.970  0.00  0.00    -0.061 A 
ATOM     56  H   LIG d   1       2.235  -1.791 -13.066  0.00  0.00     0.062 H 
ATOM     57  C   LIG d   1       3.584   0.312 -10.801  0.00  0.00    -0.059 A 
ATOM     58  H   LIG d   1       4.198  -0.340 -12.742  0.00  0.00     0.062 H 
ATOM     59  H   LIG d   1       4.445   0.949 -10.659  0.00  0.00     0.062 H 
ENDBRANCH  46  49
ENDBRANCH  43  46
ENDBRANCH  20  43
TORSDOF 7
ENDMDL
MODEL 3
REMARK VINA RESULT:      -7.3      1.389      2.175
REMARK  7 active torsions:
REMARK  status: ('A' for Active; 'I' for Inactive)
REMARK    1  A    between atoms: C_1  and  C_2 
REMARK    2  A    between atoms: C_16  and  C_19 
REMARK    3  A    between atoms: C_19  and  C_20 
REMARK    4  A    between atoms: C_20  and  C_21 
REMARK       I    between atoms: C_21  and  N_23 
REMARK    5  A    between atoms: N_26  and  C_29 
REMARK    6  A    between atoms: C_29  and  C_30 
REMARK    7  A    between atoms: C_30  and  C_31 
ROOT
ATOM      1  C   LIG d   1       7.873  -6.240  -5.387  0.00  0.00    -0.028 A 
ATOM      2  C   LIG d   1       8.926  -5.534  -4.842  0.00  0.00    -0.039 A 
ATOM      3  C   LIG d   1       8.750  -4.224  -4.434  0.00  0.00     0.042 A 
ATOM      4  C   LIG d   1       7.512  -3.619  -4.574  0.00  0.00    -0.036 A 
ATOM      5  C   LIG d   1       6.459  -4.321  -5.117  0.00  0.00     0.005 A 
ATOM      6  C   LIG d   1       6.627  -5.637  -5.535  0.00  0.00     0.042 A 
ATOM      7  N   LIG d   1       5.429  -6.134  -6.055  0.00  0.00    -0.283 N 
ATOM      8  C   LIG d   1       4.441  -5.219  -6.019  0.00  0.00     0.243 A 
ATOM      9  O   LIG d   1       3.299  -5.370  -6.401  0.00  0.00    -0.273 OA
ATOM     10  C   LIG d   1       5.025  -3.976  -5.404  0.00  0.00     0.136 A 
ATOM     11  C   LIG d   1       4.911  -2.785  -6.360  0.00  0.00     0.080 A 
ATOM     12  H   LIG d   1       4.134  -2.925  -7.112  0.00  0.00     0.043 H 
ATOM     13  C   LIG d   1       4.640  -1.565  -5.436  0.00  0.00     0.065 A 
ATOM     14  H   LIG d   1       3.718  -1.040  -5.685  0.00  0.00     0.042 H 
ATOM     15  C   LIG d   1       4.628  -2.147  -4.006  0.00  0.00     0.021 C 
ATOM     16  H   LIG d   1       5.611  -2.046  -3.547  0.00  0.00     0.047 H 
ATOM     17  N   LIG d   1       4.308  -3.583  -4.177  0.00  0.00    -0.295 N 
ATOM     18  C   LIG d   1       5.870  -0.705  -5.627  0.00  0.00     0.227 A 
ATOM     19  O   LIG d   1       6.071   0.360  -5.083  0.00  0.00    -0.275 OA
ATOM     20  N   LIG d   1       6.703  -1.303  -6.486  0.00  0.00    -0.241 N 
ATOM     21  C   LIG d   1       6.262  -2.486  -6.971  0.00  0.00     0.228 A 
ATOM     22  O   LIG d   1       6.846  -3.197  -7.760  0.00  0.00    -0.275 OA
ATOM     23 CL   LIG d   1      10.078  -3.340  -3.749  0.00  0.00    -0.084 Cl
ATOM     24  H   LIG d   1       9.891  -6.005  -4.733  0.00  0.00     0.064 H 
ATOM     25  H   LIG d   1       7.372  -2.596  -4.256  0.00  0.00     0.064 H 
ATOM     26  H   LIG d   1       5.321  -7.034  -6.401  0.00  0.00     0.155 HD
ATOM     27  H   LIG d   1       3.314  -3.711  -4.282  0.00  0.00     0.123 HD
ENDROOT
BRANCH  15  28
ATOM     28  C   LIG d   1       3.569  -1.444  -3.155  0.00  0.00    -0.029 C 
ATOM     29  H   LIG d   1       3.087  -0.664  -3.745  0.00  0.00     0.029 H 
ATOM     30  H   LIG d   1       2.821  -2.170  -2.833  0.00  0.00     0.029 H 
BRANCH  28  31
ATOM     31  C   LIG d   1       4.234  -0.818  -1.927  0.00  0.00     0.025 C 
ATOM     32  H   LIG d   1       3.654  -1.059  -1.037  0.00  0.00     0.036 H 
ATOM     33  H   LIG d   1       5.245  -1.214  -1.821  0.00  0.00     0.036 H 
BRANCH  31  34
ATOM     34  C   LIG d   1       4.296   0.678  -2.099  0.00  0.00     0.210 C 
ATOM     35  O   LIG d   1       4.826   1.365  -1.251  0.00  0.00    -0.276 OA
ATOM     36  N   LIG d   1       3.762   1.252  -3.195  0.00  0.00    -0.329 N 
ATOM     37  H   LIG d   1       3.338   0.703  -3.873  0.00  0.00     0.145 HD
ATOM     38  H   LIG d   1       3.802   2.216  -3.306  0.00  0.00     0.145 HD
ENDBRANCH  31  34
ENDBRANCH  28  31
ENDBRANCH  15  28
BRANCH   1  39
ATOM     39  C   LIG d   1       8.076  -7.667  -5.829  0.00  0.00    -0.038 C 
ATOM     40  H   LIG d   1       7.896  -7.744  -6.901  0.00  0.00     0.028 H 
ATOM     41  H   LIG d   1       9.098  -7.974  -5.609  0.00  0.00     0.028 H 
ATOM     42  H   LIG d   1       7.379  -8.314  -5.296  0.00  0.00     0.028 H 
ENDBRANCH   1  39
BRANCH  20  43
ATOM     43  C   LIG d   1       7.989  -0.720  -6.880  0.00  0.00     0.026 C 
ATOM     44  H   LIG d   1       8.374  -0.107  -6.067  0.00  0.00     0.047 H 
ATOM     45  H   LIG d   1       8.696  -1.519  -7.100  0.00  0.00     0.047 H 
BRANCH  43  46
ATOM     46  C   LIG d   1       7.795   0.148  -8.125  0.00  0.00    -0.011 C 
ATOM     47  H   LIG d   1       8.276  -0.330  -8.980  0.00  0.00     0.033 H 
ATOM     48  H   LIG d   1       6.730   0.263  -8.326  0.00  0.00     0.033 H 
BRANCH  46  49
ATOM     49  C   LIG d   1       8.414   1.501  -7.894  0.00  0.00    -0.046 A 
ATOM     50  C   LIG d   1       8.943   1.819  -6.657  0.00  0.00    -0.059 A 
ATOM     51  C   LIG d   1       9.514   3.060  -6.447  0.00  0.00    -0.061 A 
ATOM     52  H   LIG d   1       8.911   1.096  -5.855  0.00  0.00     0.062 H 
ATOM     53  C   LIG d   1       9.549   3.987  -7.472  0.00  0.00    -0.062 A 
ATOM     54  H   LIG d   1       9.931   3.306  -5.481  0.00  0.00     0.062 H 
ATOM     55  C   LIG d   1       9.017   3.671  -8.708  0.00  0.00    -0.061 A 
ATOM     56  H   LIG d   1       9.994   4.957  -7.307  0.00  0.00     0.062 H 
ATOM     57  C   LIG d   1       8.449   2.429  -8.920  0.00  0.00    -0.059 A 
ATOM     58  H   LIG d   1       9.045   4.396  -9.509  0.00  0.00     0.062 H 
ATOM     59  H   LIG d   1       8.033   2.183  -9.885  0.00  0.00     0.062 H 
ENDBRANCH  46  49
ENDBRANCH  43  46
ENDBRANCH  20  43
TORSDOF 7
ENDMDL
MODEL 4
REMARK VINA RESULT:      -7.3      2.882      7.063
REMARK  7 active torsions:
REMARK  status: ('A' for Active; 'I' for Inactive)
REMARK    1  A    between atoms: C_1  and  C_2 
REMARK    2  A    between atoms: C_16  and  C_19 
REMARK    3  A    between atoms: C_19  and  C_20 
REMARK    4  A    between atoms: C_20  and  C_21 
REMARK       I    between atoms: C_21  and  N_23 
REMARK    5  A    between atoms: N_26  and  C_29 
REMARK    6  A    between atoms: C_29  and  C_30 
REMARK    7  A    between atoms: C_30  and  C_31 
ROOT
ATOM      1  C   LIG d   1       7.838   1.781  -8.768  0.00  0.00    -0.028 A 
ATOM      2  C   LIG d   1       8.677   0.698  -8.606  0.00  0.00    -0.039 A 
ATOM      3  C   LIG d   1       8.170  -0.588  -8.630  0.00  0.00     0.042 A 
ATOM      4  C   LIG d   1       6.812  -0.790  -8.818  0.00  0.00    -0.036 A 
ATOM      5  C   LIG d   1       5.972   0.288  -8.981  0.00  0.00     0.005 A 
ATOM      6  C   LIG d   1       6.472   1.587  -8.953  0.00  0.00     0.042 A 
ATOM      7  N   LIG d   1       5.435   2.506  -9.132  0.00  0.00    -0.283 N 
ATOM      8  C   LIG d   1       4.239   1.903  -9.278  0.00  0.00     0.243 A 
ATOM      9  O   LIG d   1       3.169   2.447  -9.448  0.00  0.00    -0.273 OA
ATOM     10  C   LIG d   1       4.491   0.421  -9.199  0.00  0.00     0.136 A 
ATOM     11  C   LIG d   1       3.693  -0.211  -8.054  0.00  0.00     0.080 A 
ATOM     12  H   LIG d   1       2.838   0.395  -7.756  0.00  0.00     0.043 H 
ATOM     13  C   LIG d   1       3.279  -1.610  -8.591  0.00  0.00     0.065 A 
ATOM     14  H   LIG d   1       2.201  -1.766  -8.583  0.00  0.00     0.042 H 
ATOM     15  C   LIG d   1       3.882  -1.684 -10.010  0.00  0.00     0.021 C 
ATOM     16  H   LIG d   1       4.852  -2.181  -9.986  0.00  0.00     0.047 H 
ATOM     17  N   LIG d   1       4.062  -0.274 -10.427  0.00  0.00    -0.295 N 
ATOM     18  C   LIG d   1       4.013  -2.564  -7.674  0.00  0.00     0.227 A 
ATOM     19  O   LIG d   1       3.967  -3.774  -7.741  0.00  0.00    -0.275 OA
ATOM     20  N   LIG d   1       4.723  -1.866  -6.781  0.00  0.00    -0.241 N 
ATOM     21  C   LIG d   1       4.615  -0.523  -6.897  0.00  0.00     0.228 A 
ATOM     22  O   LIG d   1       5.164   0.301  -6.198  0.00  0.00    -0.275 OA
ATOM     23 CL   LIG d   1       9.231  -1.947  -8.425  0.00  0.00    -0.084 Cl
ATOM     24  H   LIG d   1       9.736   0.855  -8.460  0.00  0.00     0.064 H 
ATOM     25  H   LIG d   1       6.413  -1.793  -8.838  0.00  0.00     0.064 H 
ATOM     26  H   LIG d   1       5.561   3.468  -9.149  0.00  0.00     0.155 HD
ATOM     27  H   LIG d   1       3.192   0.104 -10.771  0.00  0.00     0.123 HD
ENDROOT
BRANCH  15  28
ATOM     28  C   LIG d   1       2.931  -2.421 -10.955  0.00  0.00    -0.029 C 
ATOM     29  H   LIG d   1       2.900  -1.904 -11.915  0.00  0.00     0.029 H 
ATOM     30  H   LIG d   1       3.285  -3.442 -11.103  0.00  0.00     0.029 H 
BRANCH  28  31
ATOM     31  C   LIG d   1       1.528  -2.450 -10.345  0.00  0.00     0.025 C 
ATOM     32  H   LIG d   1       1.562  -2.040  -9.336  0.00  0.00     0.036 H 
ATOM     33  H   LIG d   1       0.854  -1.852 -10.959  0.00  0.00     0.036 H 
BRANCH  31  34
ATOM     34  C   LIG d   1       1.033  -3.872 -10.294  0.00  0.00     0.210 C 
ATOM     35  O   LIG d   1      -0.070  -4.147 -10.717  0.00  0.00    -0.276 OA
ATOM     36  N   LIG d   1       1.818  -4.839  -9.778  0.00  0.00    -0.329 N 
ATOM     37  H   LIG d   1       2.700  -4.620  -9.439  0.00  0.00     0.145 HD
ATOM     38  H   LIG d   1       1.499  -5.756  -9.745  0.00  0.00     0.145 HD
ENDBRANCH  31  34
ENDBRANCH  28  31
ENDBRANCH  15  28
BRANCH   1  39
ATOM     39  C   LIG d   1       8.402   3.179  -8.739  0.00  0.00    -0.038 C 
ATOM     40  H   LIG d   1       8.744   3.453  -9.736  0.00  0.00     0.028 H 
ATOM     41  H   LIG d   1       7.628   3.875  -8.415  0.00  0.00     0.028 H 
ATOM     42  H   LIG d   1       9.240   3.217  -8.043  0.00  0.00     0.028 H 
ENDBRANCH   1  39
BRANCH  20  43
ATOM     43  C   LIG d   1       5.548  -2.504  -5.751  0.00  0.00     0.026 C 
ATOM     44  H   LIG d   1       6.025  -3.391  -6.165  0.00  0.00     0.047 H 
ATOM     45  H   LIG d   1       6.311  -1.804  -5.414  0.00  0.00     0.047 H 
BRANCH  43  46
ATOM     46  C   LIG d   1       4.665  -2.906  -4.568  0.00  0.00    -0.011 C 
ATOM     47  H   LIG d   1       3.709  -3.278  -4.938  0.00  0.00     0.033 H 
ATOM     48  H   LIG d   1       5.161  -3.688  -3.993  0.00  0.00     0.033 H 
BRANCH  46  49
ATOM     49  C   LIG d   1       4.429  -1.706  -3.687  0.00  0.00    -0.046 A 
ATOM     50  C   LIG d   1       3.147  -1.223  -3.505  0.00  0.00    -0.059 A 
ATOM     51  C   LIG d   1       2.930  -0.125  -2.694  0.00  0.00    -0.061 A 
ATOM     52  H   LIG d   1       2.314  -1.706  -3.995  0.00  0.00     0.062 H 
ATOM     53  C   LIG d   1       3.998   0.496  -2.072  0.00  0.00    -0.062 A 
ATOM     54  H   LIG d   1       1.928   0.250  -2.548  0.00  0.00     0.062 H 
ATOM     55  C   LIG d   1       5.280   0.016  -2.258  0.00  0.00    -0.061 A 
ATOM     56  H   LIG d   1       3.829   1.355  -1.440  0.00  0.00     0.062 H 
ATOM     57  C   LIG d   1       5.497  -1.085  -3.065  0.00  0.00    -0.059 A 
ATOM     58  H   LIG d   1       6.115   0.501  -1.771  0.00  0.00     0.062 H 
ATOM     59  H   LIG d   1       6.499  -1.460  -3.210  0.00  0.00     0.062 H 
ENDBRANCH  46  49
ENDBRANCH  43  46
ENDBRANCH  20  43
TORSDOF 7
ENDMDL
MODEL 5
REMARK VINA RESULT:      -7.1      2.677      6.389
REMARK  7 active torsions:
REMARK  status: ('A' for Active; 'I' for Inactive)
REMARK    1  A    between atoms: C_1  and  C_2 
REMARK    2  A    between atoms: C_16  and  C_19 
REMARK    3  A    between atoms: C_19  and  C_20 
REMARK    4  A    between atoms: C_20  and  C_21 
REMARK       I    between atoms: C_21  and  N_23 
REMARK    5  A    between atoms: N_26  and  C_29 
REMARK    6  A    between atoms: C_29  and  C_30 
REMARK    7  A    between atoms: C_30  and  C_31 
ROOT
ATOM      1  C   LIG d   1       8.104   1.891  -7.952  0.00  0.00    -0.028 A 
ATOM      2  C   LIG d   1       7.116   1.238  -8.660  0.00  0.00    -0.039 A 
ATOM      3  C   LIG d   1       6.215   0.417  -8.006  0.00  0.00     0.042 A 
ATOM      4  C   LIG d   1       6.307   0.248  -6.634  0.00  0.00    -0.036 A 
ATOM      5  C   LIG d   1       7.292   0.898  -5.925  0.00  0.00     0.005 A 
ATOM      6  C   LIG d   1       8.205   1.723  -6.574  0.00  0.00     0.042 A 
ATOM      7  N   LIG d   1       9.107   2.262  -5.653  0.00  0.00    -0.283 N 
ATOM      8  C   LIG d   1       8.861   1.844  -4.396  0.00  0.00     0.243 A 
ATOM      9  O   LIG d   1       9.479   2.148  -3.397  0.00  0.00    -0.273 OA
ATOM     10  C   LIG d   1       7.664   0.935  -4.470  0.00  0.00     0.136 A 
ATOM     11  C   LIG d   1       8.003  -0.462  -3.938  0.00  0.00     0.080 A 
ATOM     12  H   LIG d   1       8.871  -0.459  -3.279  0.00  0.00     0.043 H 
ATOM     13  C   LIG d   1       6.707  -0.933  -3.221  0.00  0.00     0.065 A 
ATOM     14  H   LIG d   1       6.870  -1.188  -2.174  0.00  0.00     0.042 H 
ATOM     15  C   LIG d   1       5.709   0.231  -3.402  0.00  0.00     0.021 C 
ATOM     16  H   LIG d   1       5.075   0.056  -4.271  0.00  0.00     0.047 H 
ATOM     17  N   LIG d   1       6.549   1.427  -3.639  0.00  0.00    -0.295 N 
ATOM     18  C   LIG d   1       6.263  -2.119  -4.049  0.00  0.00     0.227 A 
ATOM     19  O   LIG d   1       5.280  -2.795  -3.833  0.00  0.00    -0.275 OA
ATOM     20  N   LIG d   1       7.123  -2.305  -5.056  0.00  0.00    -0.241 N 
ATOM     21  C   LIG d   1       8.152  -1.428  -5.091  0.00  0.00     0.228 A 
ATOM     22  O   LIG d   1       9.046  -1.408  -5.910  0.00  0.00    -0.275 OA
ATOM     23 CL   LIG d   1       4.974  -0.402  -8.902  0.00  0.00    -0.084 Cl
ATOM     24  H   LIG d   1       7.044   1.370  -9.730  0.00  0.00     0.064 H 
ATOM     25  H   LIG d   1       5.606  -0.393  -6.121  0.00  0.00     0.064 H 
ATOM     26  H   LIG d   1       9.826   2.868  -5.890  0.00  0.00     0.155 HD
ATOM     27  H   LIG d   1       6.887   1.798  -2.764  0.00  0.00     0.123 HD
ENDROOT
BRANCH  15  28
ATOM     28  C   LIG d   1       4.853   0.399  -2.145  0.00  0.00    -0.029 C 
ATOM     29  H   LIG d   1       4.679  -0.577  -1.691  0.00  0.00     0.029 H 
ATOM     30  H   LIG d   1       5.373   1.043  -1.435  0.00  0.00     0.029 H 
BRANCH  28  31
ATOM     31  C   LIG d   1       3.512   1.033  -2.522  0.00  0.00     0.025 C 
ATOM     32  H   LIG d   1       2.800   0.886  -1.710  0.00  0.00     0.036 H 
ATOM     33  H   LIG d   1       3.652   2.101  -2.695  0.00  0.00     0.036 H 
BRANCH  31  34
ATOM     34  C   LIG d   1       2.986   0.385  -3.776  0.00  0.00     0.210 C 
ATOM     35  O   LIG d   1       2.860   1.037  -4.791  0.00  0.00    -0.276 OA
ATOM     36  N   LIG d   1       2.654  -0.922  -3.770  0.00  0.00    -0.329 N 
ATOM     37  H   LIG d   1       2.754  -1.444  -2.959  0.00  0.00     0.145 HD
ATOM     38  H   LIG d   1       2.316  -1.340  -4.578  0.00  0.00     0.145 HD
ENDBRANCH  31  34
ENDBRANCH  28  31
ENDBRANCH  15  28
BRANCH   1  39
ATOM     39  C   LIG d   1       9.080   2.784  -8.675  0.00  0.00    -0.038 C 
ATOM     40  H   LIG d   1      10.089   2.587  -8.313  0.00  0.00     0.028 H 
ATOM     41  H   LIG d   1       9.032   2.583  -9.745  0.00  0.00     0.028 H 
ATOM     42  H   LIG d   1       8.824   3.827  -8.489  0.00  0.00     0.028 H 
ENDBRANCH   1  39
BRANCH  20  43
ATOM     43  C   LIG d   1       6.970  -3.379  -6.041  0.00  0.00     0.026 C 
ATOM     44  H   LIG d   1       5.923  -3.673  -6.098  0.00  0.00     0.047 H 
ATOM     45  H   LIG d   1       7.301  -3.026  -7.017  0.00  0.00     0.047 H 
BRANCH  43  46
ATOM     46  C   LIG d   1       7.815  -4.582  -5.620  0.00  0.00    -0.011 C 
ATOM     47  H   LIG d   1       8.587  -4.765  -6.369  0.00  0.00     0.033 H 
ATOM     48  H   LIG d   1       8.285  -4.377  -4.658  0.00  0.00     0.033 H 
BRANCH  46  49
ATOM     49  C   LIG d   1       6.934  -5.798  -5.501  0.00  0.00    -0.046 A 
ATOM     50  C   LIG d   1       7.480  -7.017  -5.144  0.00  0.00    -0.059 A 
ATOM     51  C   LIG d   1       6.670  -8.131  -5.031  0.00  0.00    -0.061 A 
ATOM     52  H   LIG d   1       8.539  -7.097  -4.949  0.00  0.00     0.062 H 
ATOM     53  C   LIG d   1       5.314  -8.028  -5.285  0.00  0.00    -0.062 A 
ATOM     54  H   LIG d   1       7.096  -9.082  -4.747  0.00  0.00     0.062 H 
ATOM     55  C   LIG d   1       4.769  -6.811  -5.648  0.00  0.00    -0.061 A 
ATOM     56  H   LIG d   1       4.682  -8.900  -5.199  0.00  0.00     0.062 H 
ATOM     57  C   LIG d   1       5.578  -5.696  -5.756  0.00  0.00    -0.059 A 
ATOM     58  H   LIG d   1       3.710  -6.731  -5.845  0.00  0.00     0.062 H 
ATOM     59  H   LIG d   1       5.152  -4.745  -6.039  0.00  0.00     0.062 H 
ENDBRANCH  46  49
ENDBRANCH  43  46
ENDBRANCH  20  43
TORSDOF 7
ENDMDL
MODEL 6
REMARK VINA RESULT:      -7.0      2.746      5.153
REMARK  7 active torsions:
REMARK  status: ('A' for Active; 'I' for Inactive)
REMARK    1  A    between atoms: C_1  and  C_2 
REMARK    2  A    between atoms: C_16  and  C_19 
REMARK    3  A    between atoms: C_19  and  C_20 
REMARK    4  A    between atoms: C_20  and  C_21 
REMARK       I    between atoms: C_21  and  N_23 
REMARK    5  A    between atoms: N_26  and  C_29 
REMARK    6  A    between atoms: C_29  and  C_30 
REMARK    7  A    between atoms: C_30  and  C_31 
ROOT
ATOM      1  C   LIG d   1       4.634  -2.182  -3.341  0.00  0.00    -0.028 A 
ATOM      2  C   LIG d   1       4.740  -3.353  -4.063  0.00  0.00    -0.039 A 
ATOM      3  C   LIG d   1       5.737  -3.501  -5.010  0.00  0.00     0.042 A 
ATOM      4  C   LIG d   1       6.632  -2.468  -5.235  0.00  0.00    -0.036 A 
ATOM      5  C   LIG d   1       6.529  -1.298  -4.517  0.00  0.00     0.005 A 
ATOM      6  C   LIG d   1       5.527  -1.137  -3.566  0.00  0.00     0.042 A 
ATOM      7  N   LIG d   1       5.619   0.126  -2.976  0.00  0.00    -0.283 N 
ATOM      8  C   LIG d   1       6.638   0.849  -3.481  0.00  0.00     0.243 A 
ATOM      9  O   LIG d   1       6.956   1.975  -3.161  0.00  0.00    -0.273 OA
ATOM     10  C   LIG d   1       7.312  -0.016  -4.512  0.00  0.00     0.136 A 
ATOM     11  C   LIG d   1       7.300   0.659  -5.887  0.00  0.00     0.080 A 
ATOM     12  H   LIG d   1       7.168   1.739  -5.822  0.00  0.00     0.043 H 
ATOM     13  C   LIG d   1       8.656   0.258  -6.533  0.00  0.00     0.065 A 
ATOM     14  H   LIG d   1       9.260   1.118  -6.820  0.00  0.00     0.042 H 
ATOM     15  C   LIG d   1       9.348  -0.632  -5.479  0.00  0.00     0.021 C 
ATOM     16  H   LIG d   1       9.148  -1.684  -5.679  0.00  0.00     0.047 H 
ATOM     17  N   LIG d   1       8.731  -0.251  -4.187  0.00  0.00    -0.295 N 
ATOM     18  C   LIG d   1       8.239  -0.585  -7.718  0.00  0.00     0.227 A 
ATOM     19  O   LIG d   1       8.998  -1.106  -8.508  0.00  0.00    -0.275 OA
ATOM     20  N   LIG d   1       6.905  -0.669  -7.758  0.00  0.00    -0.241 N 
ATOM     21  C   LIG d   1       6.266   0.001  -6.772  0.00  0.00     0.228 A 
ATOM     22  O   LIG d   1       5.066   0.065  -6.614  0.00  0.00    -0.275 OA
ATOM     23 CL   LIG d   1       5.866  -4.977  -5.915  0.00  0.00    -0.084 Cl
ATOM     24  H   LIG d   1       4.043  -4.159  -3.887  0.00  0.00     0.064 H 
ATOM     25  H   LIG d   1       7.412  -2.581  -5.974  0.00  0.00     0.064 H 
ATOM     26  H   LIG d   1       5.020   0.446  -2.284  0.00  0.00     0.155 HD
ATOM     27  H   LIG d   1       9.163   0.585  -3.825  0.00  0.00     0.123 HD
ENDROOT
BRANCH  15  28
ATOM     28  C   LIG d   1      10.855  -0.370  -5.468  0.00  0.00    -0.029 C 
ATOM     29  H   LIG d   1      11.295  -0.815  -4.575  0.00  0.00     0.029 H 
ATOM     30  H   LIG d   1      11.308  -0.814  -6.355  0.00  0.00     0.029 H 
BRANCH  28  31
ATOM     31  C   LIG d   1      11.111   1.139  -5.466  0.00  0.00     0.025 C 
ATOM     32  H   LIG d   1      12.002   1.357  -6.054  0.00  0.00     0.036 H 
ATOM     33  H   LIG d   1      10.253   1.652  -5.901  0.00  0.00     0.036 H 
BRANCH  31  34
ATOM     34  C   LIG d   1      11.314   1.611  -4.049  0.00  0.00     0.210 C 
ATOM     35  O   LIG d   1      10.412   2.165  -3.458  0.00  0.00    -0.276 OA
ATOM     36  N   LIG d   1      12.500   1.416  -3.439  0.00  0.00    -0.329 N 
ATOM     37  H   LIG d   1      13.223   0.973  -3.912  0.00  0.00     0.145 HD
ATOM     38  H   LIG d   1      12.632   1.720  -2.527  0.00  0.00     0.145 HD
ENDBRANCH  31  34
ENDBRANCH  28  31
ENDBRANCH  15  28
BRANCH   1  39
ATOM     39  C   LIG d   1       3.543  -2.031  -2.312  0.00  0.00    -0.038 C 
ATOM     40  H   LIG d   1       3.955  -2.203  -1.318  0.00  0.00     0.028 H 
ATOM     41  H   LIG d   1       3.130  -1.024  -2.365  0.00  0.00     0.028 H 
ATOM     42  H   LIG d   1       2.755  -2.758  -2.510  0.00  0.00     0.028 H 
ENDBRANCH   1  39
BRANCH  20  43
ATOM     43  C   LIG d   1       6.188  -1.421  -8.792  0.00  0.00     0.026 C 
ATOM     44  H   LIG d   1       6.778  -2.289  -9.084  0.00  0.00     0.047 H 
ATOM     45  H   LIG d   1       5.226  -1.749  -8.401  0.00  0.00     0.047 H 
BRANCH  43  46
ATOM     46  C   LIG d   1       5.964  -0.524 -10.011  0.00  0.00    -0.011 C 
ATOM     47  H   LIG d   1       6.849   0.092 -10.177  0.00  0.00     0.033 H 
ATOM     48  H   LIG d   1       5.783  -1.143 -10.890  0.00  0.00     0.033 H 
BRANCH  46  49
ATOM     49  C   LIG d   1       4.773   0.366  -9.767  0.00  0.00    -0.046 A 
ATOM     50  C   LIG d   1       4.942   1.734  -9.657  0.00  0.00    -0.059 A 
ATOM     51  C   LIG d   1       3.848   2.549  -9.437  0.00  0.00    -0.061 A 
ATOM     52  H   LIG d   1       5.928   2.164  -9.745  0.00  0.00     0.062 H 
ATOM     53  C   LIG d   1       2.586   1.997  -9.319  0.00  0.00    -0.062 A 
ATOM     54  H   LIG d   1       3.979   3.619  -9.356  0.00  0.00     0.062 H 
ATOM     55  C   LIG d   1       2.418   0.629  -9.424  0.00  0.00    -0.061 A 
ATOM     56  H   LIG d   1       1.732   2.634  -9.145  0.00  0.00     0.062 H 
ATOM     57  C   LIG d   1       3.511  -0.187  -9.648  0.00  0.00    -0.059 A 
ATOM     58  H   LIG d   1       1.431   0.197  -9.332  0.00  0.00     0.062 H 
ATOM     59  H   LIG d   1       3.379  -1.255  -9.731  0.00  0.00     0.062 H 
ENDBRANCH  46  49
ENDBRANCH  43  46
ENDBRANCH  20  43
TORSDOF 7
ENDMDL
MODEL 7
REMARK VINA RESULT:      -7.0      2.609      5.573
REMARK  7 active torsions:
REMARK  status: ('A' for Active; 'I' for Inactive)
REMARK    1  A    between atoms: C_1  and  C_2 
REMARK    2  A    between atoms: C_16  and  C_19 
REMARK    3  A    between atoms: C_19  and  C_20 
REMARK    4  A    between atoms: C_20  and  C_21 
REMARK       I    between atoms: C_21  and  N_23 
REMARK    5  A    between atoms: N_26  and  C_29 
REMARK    6  A    between atoms: C_29  and  C_30 
REMARK    7  A    between atoms: C_30  and  C_31 
ROOT
ATOM      1  C   LIG d   1       3.855  -3.906  -8.575  0.00  0.00    -0.028 A 
ATOM      2  C   LIG d   1       4.379  -5.102  -8.127  0.00  0.00    -0.039 A 
ATOM      3  C   LIG d   1       4.977  -5.180  -6.882  0.00  0.00     0.042 A 
ATOM      4  C   LIG d   1       5.051  -4.051  -6.082  0.00  0.00    -0.036 A 
ATOM      5  C   LIG d   1       4.530  -2.857  -6.525  0.00  0.00     0.005 A 
ATOM      6  C   LIG d   1       3.931  -2.767  -7.778  0.00  0.00     0.042 A 
ATOM      7  N   LIG d   1       3.487  -1.462  -8.007  0.00  0.00    -0.283 N 
ATOM      8  C   LIG d   1       3.756  -0.644  -6.971  0.00  0.00     0.243 A 
ATOM      9  O   LIG d   1       3.488   0.536  -6.892  0.00  0.00    -0.273 OA
ATOM     10  C   LIG d   1       4.445  -1.481  -5.928  0.00  0.00     0.136 A 
ATOM     11  C   LIG d   1       5.834  -0.919  -5.604  0.00  0.00     0.080 A 
ATOM     12  H   LIG d   1       5.931   0.133  -5.869  0.00  0.00     0.043 H 
ATOM     13  C   LIG d   1       6.014  -1.175  -4.081  0.00  0.00     0.065 A 
ATOM     14  H   LIG d   1       6.211  -0.262  -3.518  0.00  0.00     0.042 H 
ATOM     15  C   LIG d   1       4.712  -1.877  -3.641  0.00  0.00     0.021 C 
ATOM     16  H   LIG d   1       4.841  -2.959  -3.653  0.00  0.00     0.047 H 
ATOM     17  N   LIG d   1       3.702  -1.490  -4.654  0.00  0.00    -0.295 N 
ATOM     18  C   LIG d   1       7.165  -2.154  -4.027  0.00  0.00     0.227 A 
ATOM     19  O   LIG d   1       7.640  -2.621  -3.013  0.00  0.00    -0.275 OA
ATOM     20  N   LIG d   1       7.577  -2.427  -5.270  0.00  0.00    -0.241 N 
ATOM     21  C   LIG d   1       6.898  -1.781  -6.245  0.00  0.00     0.228 A 
ATOM     22  O   LIG d   1       7.099  -1.874  -7.437  0.00  0.00    -0.275 OA
ATOM     23 CL   LIG d   1       5.634  -6.687  -6.325  0.00  0.00    -0.084 Cl
ATOM     24  H   LIG d   1       4.320  -5.982  -8.751  0.00  0.00     0.064 H 
ATOM     25  H   LIG d   1       5.518  -4.109  -5.110  0.00  0.00     0.064 H 
ATOM     26  H   LIG d   1       3.036  -1.178  -8.818  0.00  0.00     0.155 HD
ATOM     27  H   LIG d   1       3.329  -0.576  -4.447  0.00  0.00     0.123 HD
ENDROOT
BRANCH  15  28
ATOM     28  C   LIG d   1       4.299  -1.406  -2.245  0.00  0.00    -0.029 C 
ATOM     29  H   LIG d   1       3.834  -2.232  -1.706  0.00  0.00     0.029 H 
ATOM     30  H   LIG d   1       5.180  -1.067  -1.700  0.00  0.00     0.029 H 
BRANCH  28  31
ATOM     31  C   LIG d   1       3.301  -0.252  -2.370  0.00  0.00     0.025 C 
ATOM     32  H   LIG d   1       2.788  -0.319  -3.329  0.00  0.00     0.036 H 
ATOM     33  H   LIG d   1       2.572  -0.314  -1.561  0.00  0.00     0.036 H 
BRANCH  31  34
ATOM     34  C   LIG d   1       4.038   1.059  -2.283  0.00  0.00     0.210 C 
ATOM     35  O   LIG d   1       4.774   1.282  -1.345  0.00  0.00    -0.276 OA
ATOM     36  N   LIG d   1       3.879   1.985  -3.250  0.00  0.00    -0.329 N 
ATOM     37  H   LIG d   1       3.290   1.808  -4.000  0.00  0.00     0.145 HD
ATOM     38  H   LIG d   1       4.354   2.830  -3.195  0.00  0.00     0.145 HD
ENDBRANCH  31  34
ENDBRANCH  28  31
ENDBRANCH  15  28
BRANCH   1  39
ATOM     39  C   LIG d   1       3.206  -3.833  -9.933  0.00  0.00    -0.038 C 
ATOM     40  H   LIG d   1       2.143  -4.051  -9.840  0.00  0.00     0.028 H 
ATOM     41  H   LIG d   1       3.337  -2.832 -10.344  0.00  0.00     0.028 H 
ATOM     42  H   LIG d   1       3.671  -4.562 -10.597  0.00  0.00     0.028 H 
ENDBRANCH   1  39
BRANCH  20  43
ATOM     43  C   LIG d   1       8.681  -3.347  -5.556  0.00  0.00     0.026 C 
ATOM     44  H   LIG d   1       9.058  -3.160  -6.561  0.00  0.00     0.047 H 
ATOM     45  H   LIG d   1       9.480  -3.190  -4.833  0.00  0.00     0.047 H 
BRANCH  43  46
ATOM     46  C   LIG d   1       8.180  -4.790  -5.459  0.00  0.00    -0.011 C 
ATOM     47  H   LIG d   1       7.118  -4.790  -5.211  0.00  0.00     0.033 H 
ATOM     48  H   LIG d   1       8.330  -5.291  -6.415  0.00  0.00     0.033 H 
BRANCH  46  49
ATOM     49  C   LIG d   1       8.946  -5.515  -4.383  0.00  0.00    -0.046 A 
ATOM     50  C   LIG d   1       8.618  -6.819  -4.060  0.00  0.00    -0.059 A 
ATOM     51  C   LIG d   1       9.324  -7.485  -3.076  0.00  0.00    -0.061 A 
ATOM     52  H   LIG d   1       7.813  -7.317  -4.579  0.00  0.00     0.062 H 
ATOM     53  C   LIG d   1      10.352  -6.845  -2.409  0.00  0.00    -0.062 A 
ATOM     54  H   LIG d   1       9.071  -8.505  -2.827  0.00  0.00     0.062 H 
ATOM     55  C   LIG d   1      10.675  -5.540  -2.728  0.00  0.00    -0.061 A 
ATOM     56  H   LIG d   1      10.901  -7.365  -1.638  0.00  0.00     0.062 H 
ATOM     57  C   LIG d   1       9.973  -4.874  -3.715  0.00  0.00    -0.059 A 
ATOM     58  H   LIG d   1      11.479  -5.039  -2.206  0.00  0.00     0.062 H 
ATOM     59  H   LIG d   1      10.227  -3.855  -3.965  0.00  0.00     0.062 H 
ENDBRANCH  46  49
ENDBRANCH  43  46
ENDBRANCH  20  43
TORSDOF 7
ENDMDL
MODEL 8
REMARK VINA RESULT:      -6.8      2.750      6.559
REMARK  7 active torsions:
REMARK  status: ('A' for Active; 'I' for Inactive)
REMARK    1  A    between atoms: C_1  and  C_2 
REMARK    2  A    between atoms: C_16  and  C_19 
REMARK    3  A    between atoms: C_19  and  C_20 
REMARK    4  A    between atoms: C_20  and  C_21 
REMARK       I    between atoms: C_21  and  N_23 
REMARK    5  A    between atoms: N_26  and  C_29 
REMARK    6  A    between atoms: C_29  and  C_30 
REMARK    7  A    between atoms: C_30  and  C_31 
ROOT
ATOM      1  C   LIG d   1       8.189   1.911  -7.941  0.00  0.00    -0.028 A 
ATOM      2  C   LIG d   1       7.255   1.191  -8.658  0.00  0.00    -0.039 A 
ATOM      3  C   LIG d   1       6.360   0.363  -8.004  0.00  0.00     0.042 A 
ATOM      4  C   LIG d   1       6.403   0.255  -6.624  0.00  0.00    -0.036 A 
ATOM      5  C   LIG d   1       7.334   0.972  -5.906  0.00  0.00     0.005 A 
ATOM      6  C   LIG d   1       8.242   1.804  -6.554  0.00  0.00     0.042 A 
ATOM      7  N   LIG d   1       9.085   2.415  -5.623  0.00  0.00    -0.283 N 
ATOM      8  C   LIG d   1       8.804   2.040  -4.359  0.00  0.00     0.243 A 
ATOM      9  O   LIG d   1       9.370   2.409  -3.352  0.00  0.00    -0.273 OA
ATOM     10  C   LIG d   1       7.646   1.083  -4.440  0.00  0.00     0.136 A 
ATOM     11  C   LIG d   1       8.015  -0.276  -3.836  0.00  0.00     0.080 A 
ATOM     12  H   LIG d   1       8.855  -0.213  -3.145  0.00  0.00     0.043 H 
ATOM     13  C   LIG d   1       6.709  -0.767  -3.150  0.00  0.00     0.065 A 
ATOM     14  H   LIG d   1       6.839  -0.972  -2.087  0.00  0.00     0.042 H 
ATOM     15  C   LIG d   1       5.677   0.349  -3.420  0.00  0.00     0.021 C 
ATOM     16  H   LIG d   1       5.085   0.113  -4.304  0.00  0.00     0.047 H 
ATOM     17  N   LIG d   1       6.481   1.566  -3.675  0.00  0.00    -0.295 N 
ATOM     18  C   LIG d   1       6.344  -2.003  -3.943  0.00  0.00     0.227 A 
ATOM     19  O   LIG d   1       5.378  -2.707  -3.736  0.00  0.00    -0.275 OA
ATOM     20  N   LIG d   1       7.249  -2.197  -4.907  0.00  0.00    -0.241 N 
ATOM     21  C   LIG d   1       8.245  -1.282  -4.941  0.00  0.00     0.228 A 
ATOM     22  O   LIG d   1       9.171  -1.262  -5.724  0.00  0.00    -0.275 OA
ATOM     23 CL   LIG d   1       5.188  -0.540  -8.912  0.00  0.00    -0.084 Cl
ATOM     24  H   LIG d   1       7.221   1.276  -9.734  0.00  0.00     0.064 H 
ATOM     25  H   LIG d   1       5.706  -0.391  -6.111  0.00  0.00     0.064 H 
ATOM     26  H   LIG d   1       9.790   3.038  -5.858  0.00  0.00     0.155 HD
ATOM     27  H   LIG d   1       6.770   1.986  -2.805  0.00  0.00     0.123 HD
ENDROOT
BRANCH  15  28
ATOM     28  C   LIG d   1       4.766   0.536  -2.205  0.00  0.00    -0.029 C 
ATOM     29  H   LIG d   1       4.612  -0.426  -1.714  0.00  0.00     0.029 H 
ATOM     30  H   LIG d   1       5.231   1.230  -1.505  0.00  0.00     0.029 H 
BRANCH  28  31
ATOM     31  C   LIG d   1       3.417   1.097  -2.661  0.00  0.00     0.025 C 
ATOM     32  H   LIG d   1       2.688   0.987  -1.858  0.00  0.00     0.036 H 
ATOM     33  H   LIG d   1       3.529   2.154  -2.907  0.00  0.00     0.036 H 
BRANCH  31  34
ATOM     34  C   LIG d   1       2.945   0.344  -3.877  0.00  0.00     0.210 C 
ATOM     35  O   LIG d   1       2.803   0.923  -4.933  0.00  0.00    -0.276 OA
ATOM     36  N   LIG d   1       2.680  -0.975  -3.790  0.00  0.00    -0.329 N 
ATOM     37  H   LIG d   1       2.793  -1.439  -2.946  0.00  0.00     0.145 HD
ATOM     38  H   LIG d   1       2.376  -1.461  -4.574  0.00  0.00     0.145 HD
ENDBRANCH  31  34
ENDBRANCH  28  31
ENDBRANCH  15  28
BRANCH   1  39
ATOM     39  C   LIG d   1       9.160   2.809  -8.663  0.00  0.00    -0.038 C 
ATOM     40  H   LIG d   1       9.117   3.810  -8.234  0.00  0.00     0.028 H 
ATOM     41  H   LIG d   1      10.169   2.412  -8.560  0.00  0.00     0.028 H 
ATOM     42  H   LIG d   1       8.894   2.856  -9.720  0.00  0.00     0.028 H 
ENDBRANCH   1  39
BRANCH  20  43
ATOM     43  C   LIG d   1       7.176  -3.316  -5.851  0.00  0.00     0.026 C 
ATOM     44  H   LIG d   1       6.171  -3.373  -6.269  0.00  0.00     0.047 H 
ATOM     45  H   LIG d   1       7.896  -3.161  -6.654  0.00  0.00     0.047 H 
BRANCH  43  46
ATOM     46  C   LIG d   1       7.498  -4.621  -5.120  0.00  0.00    -0.011 C 
ATOM     47  H   LIG d   1       6.800  -4.757  -4.294  0.00  0.00     0.033 H 
ATOM     48  H   LIG d   1       7.408  -5.457  -5.813  0.00  0.00     0.033 H 
BRANCH  46  49
ATOM     49  C   LIG d   1       8.904  -4.561  -4.583  0.00  0.00    -0.046 A 
ATOM     50  C   LIG d   1       9.121  -4.428  -3.224  0.00  0.00    -0.059 A 
ATOM     51  C   LIG d   1      10.411  -4.377  -2.732  0.00  0.00    -0.061 A 
ATOM     52  H   LIG d   1       8.282  -4.367  -2.548  0.00  0.00     0.062 H 
ATOM     53  C   LIG d   1      11.486  -4.450  -3.599  0.00  0.00    -0.062 A 
ATOM     54  H   LIG d   1      10.580  -4.278  -1.669  0.00  0.00     0.062 H 
ATOM     55  C   LIG d   1      11.269  -4.578  -4.958  0.00  0.00    -0.061 A 
ATOM     56  H   LIG d   1      12.494  -4.408  -3.214  0.00  0.00     0.062 H 
ATOM     57  C   LIG d   1       9.979  -4.633  -5.451  0.00  0.00    -0.059 A 
ATOM     58  H   LIG d   1      12.109  -4.635  -5.636  0.00  0.00     0.062 H 
ATOM     59  H   LIG d   1       9.810  -4.734  -6.513  0.00  0.00     0.062 H 
ENDBRANCH  46  49
ENDBRANCH  43  46
ENDBRANCH  20  43
TORSDOF 7
ENDMDL
MODEL 9
REMARK VINA RESULT:      -6.8      3.005      6.499
REMARK  7 active torsions:
REMARK  status: ('A' for Active; 'I' for Inactive)
REMARK    1  A    between atoms: C_1  and  C_2 
REMARK    2  A    between atoms: C_16  and  C_19 
REMARK    3  A    between atoms: C_19  and  C_20 
REMARK    4  A    between atoms: C_20  and  C_21 
REMARK       I    between atoms: C_21  and  N_23 
REMARK    5  A    between atoms: N_26  and  C_29 
REMARK    6  A    between atoms: C_29  and  C_30 
REMARK    7  A    between atoms: C_30  and  C_31 
ROOT
ATOM      1  C   LIG d   1       3.706  -1.044 -11.605  0.00  0.00    -0.028 A 
ATOM      2  C   LIG d   1       3.105  -2.271 -11.413  0.00  0.00    -0.039 A 
ATOM      3  C   LIG d   1       2.827  -2.719 -10.134  0.00  0.00     0.042 A 
ATOM      4  C   LIG d   1       3.155  -1.932  -9.042  0.00  0.00    -0.036 A 
ATOM      5  C   LIG d   1       3.754  -0.707  -9.230  0.00  0.00     0.005 A 
ATOM      6  C   LIG d   1       4.043  -0.250 -10.512  0.00  0.00     0.042 A 
ATOM      7  N   LIG d   1       4.652   1.006 -10.450  0.00  0.00    -0.283 N 
ATOM      8  C   LIG d   1       4.803   1.436  -9.182  0.00  0.00     0.243 A 
ATOM      9  O   LIG d   1       5.298   2.485  -8.826  0.00  0.00    -0.273 OA
ATOM     10  C   LIG d   1       4.228   0.366  -8.292  0.00  0.00     0.136 A 
ATOM     11  C   LIG d   1       5.285  -0.162  -7.317  0.00  0.00     0.080 A 
ATOM     12  H   LIG d   1       6.106   0.540  -7.168  0.00  0.00     0.043 H 
ATOM     13  C   LIG d   1       4.499  -0.453  -6.007  0.00  0.00     0.065 A 
ATOM     14  H   LIG d   1       4.893   0.090  -5.147  0.00  0.00     0.042 H 
ATOM     15  C   LIG d   1       3.038  -0.076  -6.331  0.00  0.00     0.021 C 
ATOM     16  H   LIG d   1       2.480  -0.958  -6.647  0.00  0.00     0.047 H 
ATOM     17  N   LIG d   1       3.126   0.881  -7.459  0.00  0.00    -0.295 N 
ATOM     18  C   LIG d   1       4.619  -1.953  -5.856  0.00  0.00     0.227 A 
ATOM     19  O   LIG d   1       4.144  -2.606  -4.951  0.00  0.00    -0.275 OA
ATOM     20  N   LIG d   1       5.328  -2.448  -6.877  0.00  0.00    -0.241 N 
ATOM     21  C   LIG d   1       5.761  -1.525  -7.765  0.00  0.00     0.228 A 
ATOM     22  O   LIG d   1       6.419  -1.745  -8.760  0.00  0.00    -0.275 OA
ATOM     23 CL   LIG d   1       2.071  -4.263  -9.898  0.00  0.00    -0.084 Cl
ATOM     24  H   LIG d   1       2.849  -2.884 -12.264  0.00  0.00     0.064 H 
ATOM     25  H   LIG d   1       2.939  -2.280  -8.042  0.00  0.00     0.064 H 
ATOM     26  H   LIG d   1       4.934   1.510 -11.229  0.00  0.00     0.155 HD
ATOM     27  H   LIG d   1       3.333   1.807  -7.118  0.00  0.00     0.123 HD
ENDROOT
BRANCH  15  28
ATOM     28  C   LIG d   1       2.371   0.567  -5.114  0.00  0.00    -0.029 C 
ATOM     29  H   LIG d   1       1.765   1.414  -5.437  0.00  0.00     0.029 H 
ATOM     30  H   LIG d   1       1.735  -0.167  -4.617  0.00  0.00     0.029 H 
BRANCH  28  31
ATOM     31  C   LIG d   1       3.447   1.051  -4.140  0.00  0.00     0.025 C 
ATOM     32  H   LIG d   1       4.433   0.842  -4.555  0.00  0.00     0.036 H 
ATOM     33  H   LIG d   1       3.338   2.125  -3.984  0.00  0.00     0.036 H 
BRANCH  31  34
ATOM     34  C   LIG d   1       3.292   0.333  -2.824  0.00  0.00     0.210 C 
ATOM     35  O   LIG d   1       3.677   0.854  -1.799  0.00  0.00    -0.276 OA
ATOM     36  N   LIG d   1       2.726  -0.889  -2.787  0.00  0.00    -0.329 N 
ATOM     37  H   LIG d   1       2.418  -1.306  -3.607  0.00  0.00     0.145 HD
ATOM     38  H   LIG d   1       2.625  -1.352  -1.940  0.00  0.00     0.145 HD
ENDBRANCH  31  34
ENDBRANCH  28  31
ENDBRANCH  15  28
BRANCH   1  39
ATOM     39  C   LIG d   1       4.005  -0.565 -13.003  0.00  0.00    -0.038 C 
ATOM     40  H   LIG d   1       4.048  -1.419 -13.678  0.00  0.00     0.028 H 
ATOM     41  H   LIG d   1       3.221   0.118 -13.329  0.00  0.00     0.028 H 
ATOM     42  H   LIG d   1       4.965  -0.047 -13.011  0.00  0.00     0.028 H 
ENDBRANCH   1  39
BRANCH  20  43
ATOM     43  C   LIG d   1       5.620  -3.877  -7.020  0.00  0.00     0.026 C 
ATOM     44  H   LIG d   1       6.310  -4.025  -7.850  0.00  0.00     0.047 H 
ATOM     45  H   LIG d   1       6.071  -4.249  -6.101  0.00  0.00     0.047 H 
BRANCH  43  46
ATOM     46  C   LIG d   1       4.321  -4.637  -7.296  0.00  0.00    -0.011 C 
ATOM     47  H   LIG d   1       3.511  -4.197  -6.712  0.00  0.00     0.033 H 
ATOM     48  H   LIG d   1       4.080  -4.573  -8.356  0.00  0.00     0.033 H 
BRANCH  46  49
ATOM     49  C   LIG d   1       4.493  -6.082  -6.905  0.00  0.00    -0.046 A 
ATOM     50  C   LIG d   1       4.884  -6.410  -5.620  0.00  0.00    -0.059 A 
ATOM     51  C   LIG d   1       5.038  -7.736  -5.261  0.00  0.00    -0.061 A 
ATOM     52  H   LIG d   1       5.068  -5.629  -4.897  0.00  0.00     0.062 H 
ATOM     53  C   LIG d   1       4.807  -8.734  -6.189  0.00  0.00    -0.062 A 
ATOM     54  H   LIG d   1       5.339  -7.992  -4.256  0.00  0.00     0.062 H 
ATOM     55  C   LIG d   1       4.421  -8.406  -7.475  0.00  0.00    -0.061 A 
ATOM     56  H   LIG d   1       4.930  -9.770  -5.909  0.00  0.00     0.062 H 
ATOM     57  C   LIG d   1       4.263  -7.081  -7.833  0.00  0.00    -0.059 A 
ATOM     58  H   LIG d   1       4.241  -9.187  -8.200  0.00  0.00     0.062 H 
ATOM     59  H   LIG d   1       3.960  -6.825  -8.838  0.00  0.00     0.062 H 
ENDBRANCH  46  49
ENDBRANCH  43  46
ENDBRANCH  20  43
TORSDOF 7
ENDMDL
