MODEL 1
REMARK VINA RESULT:      -5.6      0.000      0.000
REMARK  11 active torsions:
REMARK  status: ('A' for Active; 'I' for Inactive)
REMARK    1  A    between atoms: C_1  and  C_2 
REMARK    2  A    between atoms: C_5  and  C_8 
REMARK    3  A    between atoms: C_8  and  C_16 
REMARK    4  A    between atoms: C_12  and  C_14 
REMARK    5  A    between atoms: C_12  and  C_15 
REMARK    6  A    between atoms: C_16  and  C_17 
REMARK    7  A    between atoms: C_17  and  N_59 
REMARK    8  A    between atoms: C_18  and  C_19 
REMARK    9  A    between atoms: C_18  and  N_59 
REMARK   10  A    between atoms: C_22  and  O_25 
REMARK   11  A    between atoms: O_25  and  C_26 
ROOT
ATOM      1  C   LIG d   1       5.124  -0.777  -5.337  0.00  0.00     0.005 C 
ATOM      2  C   LIG d   1       5.559  -2.160  -4.845  0.00  0.00    -0.019 C 
ATOM      3  C   LIG d   1       6.406  -2.000  -3.579  0.00  0.00     0.049 C 
ATOM      4  O   LIG d   1       5.651  -1.301  -2.587  0.00  0.00    -0.374 OA
ATOM      5  C   LIG d   1       5.259   0.017  -2.974  0.00  0.00     0.065 C 
ATOM      6  C   LIG d   1       4.365  -0.062  -4.214  0.00  0.00    -0.014 C 
ATOM      7  H   LIG d   1       6.148  -2.654  -5.617  0.00  0.00     0.030 H 
ATOM      8  H   LIG d   1       4.677  -2.760  -4.619  0.00  0.00     0.030 H 
ATOM      9  H   LIG d   1       6.682  -2.985  -3.199  0.00  0.00     0.056 H 
ATOM     10  H   LIG d   1       7.308  -1.436  -3.815  0.00  0.00     0.056 H 
ATOM     11  H   LIG d   1       3.459  -0.618  -3.976  0.00  0.00     0.030 H 
ATOM     12  H   LIG d   1       4.100   0.945  -4.537  0.00  0.00     0.030 H 
ENDROOT
BRANCH   1  13
ATOM     13  C   LIG d   1       4.224  -0.929  -6.537  0.00  0.00    -0.041 A 
ATOM     14  C   LIG d   1       4.379  -2.011  -7.383  0.00  0.00    -0.058 A 
ATOM     15  C   LIG d   1       3.555  -2.151  -8.485  0.00  0.00    -0.059 A 
ATOM     16  H   LIG d   1       5.145  -2.747  -7.186  0.00  0.00     0.062 H 
ATOM     17  C   LIG d   1       2.574  -1.208  -8.738  0.00  0.00    -0.050 A 
ATOM     18  H   LIG d   1       3.676  -2.995  -9.147  0.00  0.00     0.062 H 
ATOM     19  C   LIG d   1       2.419  -0.128  -7.891  0.00  0.00    -0.059 A 
ATOM     20  C   LIG d   1       3.241   0.010  -6.788  0.00  0.00    -0.058 A 
ATOM     21  H   LIG d   1       1.654   0.609  -8.089  0.00  0.00     0.062 H 
ATOM     22  H   LIG d   1       3.118   0.853  -6.123  0.00  0.00     0.062 H 
BRANCH  17  23
ATOM     23  C   LIG d   1       1.676  -1.360  -9.938  0.00  0.00    -0.040 C 
ATOM     24  H   LIG d   1       0.690  -0.958  -9.706  0.00  0.00     0.028 H 
ATOM     25  H   LIG d   1       2.101  -0.817 -10.781  0.00  0.00     0.028 H 
ATOM     26  H   LIG d   1       1.587  -2.417 -10.194  0.00  0.00     0.028 H 
ENDBRANCH  17  23
ENDBRANCH   1  13
BRANCH   1  27
ATOM     27  C   LIG d   1       6.358   0.041  -5.721  0.00  0.00    -0.003 C 
ATOM     28  H   LIG d   1       6.047   0.942  -6.251  0.00  0.00     0.033 H 
ATOM     29  H   LIG d   1       6.905   0.319  -4.821  0.00  0.00     0.033 H 
BRANCH  27  30
ATOM     30  C   LIG d   1       7.262  -0.795  -6.629  0.00  0.00    -0.033 C 
ATOM     31  H   LIG d   1       8.068  -1.231  -6.039  0.00  0.00     0.081 H 
ATOM     32  H   LIG d   1       6.678  -1.592  -7.090  0.00  0.00     0.081 H 
BRANCH  30  33
ATOM     33  N   LIG d   1       7.830   0.072  -7.678  0.00  0.00     0.230 N 
ATOM     34  H   LIG d   1       7.933  -0.468  -8.546  0.00  0.00     0.202 HD
ATOM     35  H   LIG d   1       8.752   0.411  -7.375  0.00  0.00     0.202 HD
BRANCH  33  36
ATOM     36  C   LIG d   1       6.945   1.226  -7.924  0.00  0.00    -0.008 C 
ATOM     37  H   LIG d   1       6.302   1.385  -7.059  0.00  0.00     0.087 H 
ATOM     38  H   LIG d   1       7.546   2.118  -8.100  0.00  0.00     0.087 H 
BRANCH  36  39
ATOM     39  C   LIG d   1       6.094   0.945  -9.137  0.00  0.00    -0.003 A 
ATOM     40  C   LIG d   1       6.399  -0.121  -9.962  0.00  0.00    -0.050 A 
ATOM     41  C   LIG d   1       5.621  -0.380 -11.074  0.00  0.00    -0.019 A 
ATOM     42  H   LIG d   1       7.247  -0.751  -9.738  0.00  0.00     0.062 H 
ATOM     43  C   LIG d   1       4.532   0.431 -11.361  0.00  0.00     0.120 A 
ATOM     44  H   LIG d   1       5.859  -1.213 -11.718  0.00  0.00     0.065 H 
ATOM     45  C   LIG d   1       4.228   1.500 -10.531  0.00  0.00    -0.019 A 
ATOM     46  C   LIG d   1       5.006   1.752  -9.418  0.00  0.00    -0.050 A 
ATOM     47  H   LIG d   1       3.381   2.133 -10.753  0.00  0.00     0.065 H 
ATOM     48  H   LIG d   1       4.767   2.581  -8.768  0.00  0.00     0.062 H 
BRANCH  43  49
ATOM     49  O   LIG d   1       3.764   0.178 -12.454  0.00  0.00    -0.495 OA
BRANCH  49  50
ATOM     50  C   LIG d   1       4.250  -0.798 -13.377  0.00  0.00     0.079 C 
ATOM     51  H   LIG d   1       3.570  -1.649 -13.397  0.00  0.00     0.066 H 
ATOM     52  H   LIG d   1       4.309  -0.357 -14.373  0.00  0.00     0.066 H 
ATOM     53  H   LIG d   1       5.240  -1.131 -13.067  0.00  0.00     0.066 H 
ENDBRANCH  49  50
ENDBRANCH  43  49
ENDBRANCH  36  39
ENDBRANCH  33  36
ENDBRANCH  30  33
ENDBRANCH  27  30
ENDBRANCH   1  27
BRANCH   5  54
ATOM     54  C   LIG d   1       6.504   0.847  -3.293  0.00  0.00    -0.036 C 
ATOM     55  H   LIG d   1       7.051   1.050  -2.372  0.00  0.00     0.026 H 
ATOM     56  H   LIG d   1       7.143   0.292  -3.980  0.00  0.00     0.026 H 
ATOM     57  H   LIG d   1       6.204   1.788  -3.754  0.00  0.00     0.026 H 
ENDBRANCH   5  54
BRANCH   5  58
ATOM     58  C   LIG d   1       4.485   0.676  -1.829  0.00  0.00    -0.036 C 
ATOM     59  H   LIG d   1       3.856   1.471  -2.227  0.00  0.00     0.026 H 
ATOM     60  H   LIG d   1       3.860  -0.069  -1.338  0.00  0.00     0.026 H 
ATOM     61  H   LIG d   1       5.188   1.093  -1.108  0.00  0.00     0.026 H 
ENDBRANCH   5  58
TORSDOF 11
ENDMDL
MODEL 2
REMARK VINA RESULT:      -5.1      2.324      4.735
REMARK  11 active torsions:
REMARK  status: ('A' for Active; 'I' for Inactive)
REMARK    1  A    between atoms: C_1  and  C_2 
REMARK    2  A    between atoms: C_5  and  C_8 
REMARK    3  A    between atoms: C_8  and  C_16 
REMARK    4  A    between atoms: C_12  and  C_14 
REMARK    5  A    between atoms: C_12  and  C_15 
REMARK    6  A    between atoms: C_16  and  C_17 
REMARK    7  A    between atoms: C_17  and  N_59 
REMARK    8  A    between atoms: C_18  and  C_19 
REMARK    9  A    between atoms: C_18  and  N_59 
REMARK   10  A    between atoms: C_22  and  O_25 
REMARK   11  A    between atoms: O_25  and  C_26 
ROOT
ATOM      1  C   LIG d   1       5.835  -1.722  -4.400  0.00  0.00     0.005 C 
ATOM      2  C   LIG d   1       5.350  -0.905  -5.601  0.00  0.00    -0.019 C 
ATOM      3  C   LIG d   1       3.973  -0.313  -5.285  0.00  0.00     0.049 C 
ATOM      4  O   LIG d   1       4.060   0.487  -4.104  0.00  0.00    -0.374 OA
ATOM      5  C   LIG d   1       4.461  -0.234  -2.939  0.00  0.00     0.065 C 
ATOM      6  C   LIG d   1       5.858  -0.822  -3.160  0.00  0.00    -0.014 C 
ATOM      7  H   LIG d   1       5.277  -1.551  -6.476  0.00  0.00     0.030 H 
ATOM      8  H   LIG d   1       6.055  -0.098  -5.801  0.00  0.00     0.030 H 
ATOM      9  H   LIG d   1       3.643   0.306  -6.120  0.00  0.00     0.056 H 
ATOM     10  H   LIG d   1       3.259  -1.120  -5.125  0.00  0.00     0.056 H 
ATOM     11  H   LIG d   1       6.574  -0.015  -3.310  0.00  0.00     0.030 H 
ATOM     12  H   LIG d   1       6.148  -1.409  -2.288  0.00  0.00     0.030 H 
ENDROOT
BRANCH   1  13
ATOM     13  C   LIG d   1       7.223  -2.243  -4.672  0.00  0.00    -0.041 A 
ATOM     14  C   LIG d   1       7.893  -2.962  -3.700  0.00  0.00    -0.058 A 
ATOM     15  C   LIG d   1       9.166  -3.441  -3.949  0.00  0.00    -0.059 A 
ATOM     16  H   LIG d   1       7.423  -3.150  -2.745  0.00  0.00     0.062 H 
ATOM     17  C   LIG d   1       9.768  -3.201  -5.170  0.00  0.00    -0.050 A 
ATOM     18  H   LIG d   1       9.691  -4.001  -3.189  0.00  0.00     0.062 H 
ATOM     19  C   LIG d   1       9.097  -2.483  -6.142  0.00  0.00    -0.059 A 
ATOM     20  C   LIG d   1       7.822  -2.008  -5.895  0.00  0.00    -0.058 A 
ATOM     21  H   LIG d   1       9.567  -2.296  -7.097  0.00  0.00     0.062 H 
ATOM     22  H   LIG d   1       7.296  -1.451  -6.656  0.00  0.00     0.062 H 
BRANCH  17  23
ATOM     23  C   LIG d   1      11.155  -3.721  -5.442  0.00  0.00    -0.040 C 
ATOM     24  H   LIG d   1      11.884  -2.937  -5.238  0.00  0.00     0.028 H 
ATOM     25  H   LIG d   1      11.354  -4.579  -4.800  0.00  0.00     0.028 H 
ATOM     26  H   LIG d   1      11.232  -4.025  -6.487  0.00  0.00     0.028 H 
ENDBRANCH  17  23
ENDBRANCH   1  13
BRANCH   1  27
ATOM     27  C   LIG d   1       4.883  -2.896  -4.162  0.00  0.00    -0.003 C 
ATOM     28  H   LIG d   1       5.106  -3.355  -3.199  0.00  0.00     0.033 H 
ATOM     29  H   LIG d   1       3.854  -2.537  -4.163  0.00  0.00     0.033 H 
BRANCH  27  30
ATOM     30  C   LIG d   1       5.063  -3.932  -5.273  0.00  0.00    -0.033 C 
ATOM     31  H   LIG d   1       5.892  -3.635  -5.916  0.00  0.00     0.081 H 
ATOM     32  H   LIG d   1       5.276  -4.905  -4.832  0.00  0.00     0.081 H 
BRANCH  30  33
ATOM     33  N   LIG d   1       3.823  -4.008  -6.069  0.00  0.00     0.230 N 
ATOM     34  H   LIG d   1       3.357  -3.093  -6.057  0.00  0.00     0.202 HD
ATOM     35  H   LIG d   1       3.200  -4.714  -5.658  0.00  0.00     0.202 HD
BRANCH  33  36
ATOM     36  C   LIG d   1       4.131  -4.381  -7.462  0.00  0.00    -0.008 C 
ATOM     37  H   LIG d   1       5.002  -5.035  -7.483  0.00  0.00     0.087 H 
ATOM     38  H   LIG d   1       3.277  -4.898  -7.900  0.00  0.00     0.087 H 
BRANCH  36  39
ATOM     39  C   LIG d   1       4.423  -3.131  -8.254  0.00  0.00    -0.003 A 
ATOM     40  C   LIG d   1       3.422  -2.203  -8.472  0.00  0.00    -0.050 A 
ATOM     41  C   LIG d   1       3.687  -1.058  -9.197  0.00  0.00    -0.019 A 
ATOM     42  H   LIG d   1       2.432  -2.374  -8.076  0.00  0.00     0.062 H 
ATOM     43  C   LIG d   1       4.959  -0.839  -9.706  0.00  0.00     0.120 A 
ATOM     44  H   LIG d   1       2.906  -0.332  -9.367  0.00  0.00     0.065 H 
ATOM     45  C   LIG d   1       5.962  -1.772  -9.486  0.00  0.00    -0.019 A 
ATOM     46  C   LIG d   1       5.693  -2.914  -8.756  0.00  0.00    -0.050 A 
ATOM     47  H   LIG d   1       6.953  -1.605  -9.882  0.00  0.00     0.065 H 
ATOM     48  H   LIG d   1       6.474  -3.638  -8.579  0.00  0.00     0.062 H 
BRANCH  43  49
ATOM     49  O   LIG d   1       5.223   0.287 -10.419  0.00  0.00    -0.495 OA
BRANCH  49  50
ATOM     50  C   LIG d   1       4.131   0.884 -11.120  0.00  0.00     0.079 C 
ATOM     51  H   LIG d   1       4.514   1.508 -11.927  0.00  0.00     0.066 H 
ATOM     52  H   LIG d   1       3.496   0.101 -11.536  0.00  0.00     0.066 H 
ATOM     53  H   LIG d   1       3.549   1.497 -10.432  0.00  0.00     0.066 H 
ENDBRANCH  49  50
ENDBRANCH  43  49
ENDBRANCH  36  39
ENDBRANCH  33  36
ENDBRANCH  30  33
ENDBRANCH  27  30
ENDBRANCH   1  27
BRANCH   5  54
ATOM     54  C   LIG d   1       3.467  -1.366  -2.671  0.00  0.00    -0.036 C 
ATOM     55  H   LIG d   1       3.937  -2.323  -2.898  0.00  0.00     0.026 H 
ATOM     56  H   LIG d   1       3.170  -1.347  -1.622  0.00  0.00     0.026 H 
ATOM     57  H   LIG d   1       2.587  -1.233  -3.300  0.00  0.00     0.026 H 
ENDBRANCH   5  54
BRANCH   5  58
ATOM     58  C   LIG d   1       4.492   0.714  -1.737  0.00  0.00    -0.036 C 
ATOM     59  H   LIG d   1       3.677   0.465  -1.058  0.00  0.00     0.026 H 
ATOM     60  H   LIG d   1       5.443   0.608  -1.216  0.00  0.00     0.026 H 
ATOM     61  H   LIG d   1       4.378   1.741  -2.082  0.00  0.00     0.026 H 
ENDBRANCH   5  58
TORSDOF 11
ENDMDL
MODEL 3
REMARK VINA RESULT:      -5.1      4.193      7.604
REMARK  11 active torsions:
REMARK  status: ('A' for Active; 'I' for Inactive)
REMARK    1  A    between atoms: C_1  and  C_2 
REMARK    2  A    between atoms: C_5  and  C_8 
REMARK    3  A    between atoms: C_8  and  C_16 
REMARK    4  A    between atoms: C_12  and  C_14 
REMARK    5  A    between atoms: C_12  and  C_15 
REMARK    6  A    between atoms: C_16  and  C_17 
REMARK    7  A    between atoms: C_17  and  N_59 
REMARK    8  A    between atoms: C_18  and  C_19 
REMARK    9  A    between atoms: C_18  and  N_59 
REMARK   10  A    between atoms: C_22  and  O_25 
REMARK   11  A    between atoms: O_25  and  C_26 
ROOT
ATOM      1  C   LIG d   1       5.874  -1.929  -4.397  0.00  0.00     0.005 C 
ATOM      2  C   LIG d   1       5.509  -1.052  -5.598  0.00  0.00    -0.019 C 
ATOM      3  C   LIG d   1       4.158  -0.378  -5.337  0.00  0.00     0.049 C 
ATOM      4  O   LIG d   1       4.233   0.385  -4.131  0.00  0.00    -0.374 OA
ATOM      5  C   LIG d   1       4.523  -0.392  -2.967  0.00  0.00     0.065 C 
ATOM      6  C   LIG d   1       5.888  -1.064  -3.132  0.00  0.00    -0.014 C 
ATOM      7  H   LIG d   1       5.441  -1.668  -6.493  0.00  0.00     0.030 H 
ATOM      8  H   LIG d   1       6.275  -0.288  -5.738  0.00  0.00     0.030 H 
ATOM      9  H   LIG d   1       3.915   0.283  -6.170  0.00  0.00     0.056 H 
ATOM     10  H   LIG d   1       3.386  -1.140  -5.238  0.00  0.00     0.056 H 
ATOM     11  H   LIG d   1       6.663  -0.303  -3.221  0.00  0.00     0.030 H 
ATOM     12  H   LIG d   1       6.093  -1.692  -2.264  0.00  0.00     0.030 H 
ENDROOT
BRANCH   1  13
ATOM     13  C   LIG d   1       7.238  -2.534  -4.611  0.00  0.00    -0.041 A 
ATOM     14  C   LIG d   1       7.913  -3.108  -3.551  0.00  0.00    -0.058 A 
ATOM     15  C   LIG d   1       9.164  -3.663  -3.747  0.00  0.00    -0.059 A 
ATOM     16  H   LIG d   1       7.464  -3.122  -2.568  0.00  0.00     0.062 H 
ATOM     17  C   LIG d   1       9.739  -3.645  -5.004  0.00  0.00    -0.050 A 
ATOM     18  H   LIG d   1       9.693  -4.110  -2.918  0.00  0.00     0.062 H 
ATOM     19  C   LIG d   1       9.063  -3.073  -6.065  0.00  0.00    -0.059 A 
ATOM     20  C   LIG d   1       7.810  -2.521  -5.870  0.00  0.00    -0.058 A 
ATOM     21  H   LIG d   1       9.512  -3.058  -7.048  0.00  0.00     0.062 H 
ATOM     22  H   LIG d   1       7.280  -2.076  -6.699  0.00  0.00     0.062 H 
BRANCH  17  23
ATOM     23  C   LIG d   1      11.102  -4.249  -5.218  0.00  0.00    -0.040 C 
ATOM     24  H   LIG d   1      11.297  -4.337  -6.287  0.00  0.00     0.028 H 
ATOM     25  H   LIG d   1      11.858  -3.611  -4.762  0.00  0.00     0.028 H 
ATOM     26  H   LIG d   1      11.137  -5.239  -4.760  0.00  0.00     0.028 H 
ENDBRANCH  17  23
ENDBRANCH   1  13
BRANCH   1  27
ATOM     27  C   LIG d   1       4.837  -3.043  -4.243  0.00  0.00    -0.003 C 
ATOM     28  H   LIG d   1       5.208  -3.792  -3.544  0.00  0.00     0.033 H 
ATOM     29  H   LIG d   1       3.905  -2.623  -3.866  0.00  0.00     0.033 H 
BRANCH  27  30
ATOM     30  C   LIG d   1       4.586  -3.698  -5.603  0.00  0.00    -0.033 C 
ATOM     31  H   LIG d   1       3.810  -3.147  -6.135  0.00  0.00     0.081 H 
ATOM     32  H   LIG d   1       5.506  -3.685  -6.188  0.00  0.00     0.081 H 
BRANCH  30  33
ATOM     33  N   LIG d   1       4.150  -5.092  -5.396  0.00  0.00     0.230 N 
ATOM     34  H   LIG d   1       3.132  -5.151  -5.522  0.00  0.00     0.202 HD
ATOM     35  H   LIG d   1       4.393  -5.384  -4.442  0.00  0.00     0.202 HD
BRANCH  33  36
ATOM     36  C   LIG d   1       4.814  -5.986  -6.364  0.00  0.00    -0.008 C 
ATOM     37  H   LIG d   1       4.076  -6.647  -6.816  0.00  0.00     0.087 H 
ATOM     38  H   LIG d   1       5.296  -5.392  -7.140  0.00  0.00     0.087 H 
BRANCH  36  39
ATOM     39  C   LIG d   1       5.851  -6.809  -5.644  0.00  0.00    -0.003 A 
ATOM     40  C   LIG d   1       5.520  -8.055  -5.146  0.00  0.00    -0.050 A 
ATOM     41  C   LIG d   1       6.469  -8.812  -4.486  0.00  0.00    -0.019 A 
ATOM     42  H   LIG d   1       4.517  -8.438  -5.273  0.00  0.00     0.062 H 
ATOM     43  C   LIG d   1       7.755  -8.320  -4.324  0.00  0.00     0.120 A 
ATOM     44  H   LIG d   1       6.210  -9.786  -4.099  0.00  0.00     0.065 H 
ATOM     45  C   LIG d   1       8.086  -7.069  -4.824  0.00  0.00    -0.019 A 
ATOM     46  C   LIG d   1       7.135  -6.318  -5.487  0.00  0.00    -0.050 A 
ATOM     47  H   LIG d   1       9.088  -6.683  -4.699  0.00  0.00     0.065 H 
ATOM     48  H   LIG d   1       7.393  -5.347  -5.882  0.00  0.00     0.062 H 
BRANCH  43  49
ATOM     49  O   LIG d   1       8.692  -9.062  -3.676  0.00  0.00    -0.495 OA
BRANCH  49  50
ATOM     50  C   LIG d   1       9.154  -8.569  -2.417  0.00  0.00     0.079 C 
ATOM     51  H   LIG d   1       9.784  -9.321  -1.942  0.00  0.00     0.066 H 
ATOM     52  H   LIG d   1       9.731  -7.657  -2.575  0.00  0.00     0.066 H 
ATOM     53  H   LIG d   1       8.300  -8.353  -1.776  0.00  0.00     0.066 H 
ENDBRANCH  49  50
ENDBRANCH  43  49
ENDBRANCH  36  39
ENDBRANCH  33  36
ENDBRANCH  30  33
ENDBRANCH  27  30
ENDBRANCH   1  27
BRANCH   5  54
ATOM     54  C   LIG d   1       3.445  -1.461  -2.785  0.00  0.00    -0.036 C 
ATOM     55  H   LIG d   1       3.669  -2.316  -3.423  0.00  0.00     0.026 H 
ATOM     56  H   LIG d   1       3.424  -1.781  -1.743  0.00  0.00     0.026 H 
ATOM     57  H   LIG d   1       2.474  -1.048  -3.057  0.00  0.00     0.026 H 
ENDBRANCH   5  54
BRANCH   5  58
ATOM     58  C   LIG d   1       4.551   0.521  -1.739  0.00  0.00    -0.036 C 
ATOM     59  H   LIG d   1       4.572   1.562  -2.061  0.00  0.00     0.026 H 
ATOM     60  H   LIG d   1       3.660   0.346  -1.136  0.00  0.00     0.026 H 
ATOM     61  H   LIG d   1       5.439   0.305  -1.145  0.00  0.00     0.026 H 
ENDBRANCH   5  58
TORSDOF 11
ENDMDL
MODEL 4
REMARK VINA RESULT:      -4.9      2.348      7.514
REMARK  11 active torsions:
REMARK  status: ('A' for Active; 'I' for Inactive)
REMARK    1  A    between atoms: C_1  and  C_2 
REMARK    2  A    between atoms: C_5  and  C_8 
REMARK    3  A    between atoms: C_8  and  C_16 
REMARK    4  A    between atoms: C_12  and  C_14 
REMARK    5  A    between atoms: C_12  and  C_15 
REMARK    6  A    between atoms: C_16  and  C_17 
REMARK    7  A    between atoms: C_17  and  N_59 
REMARK    8  A    between atoms: C_18  and  C_19 
REMARK    9  A    between atoms: C_18  and  N_59 
REMARK   10  A    between atoms: C_22  and  O_25 
REMARK   11  A    between atoms: O_25  and  C_26 
ROOT
ATOM      1  C   LIG d   1       2.148  -1.925 -11.300  0.00  0.00     0.005 C 
ATOM      2  C   LIG d   1       3.083  -2.405 -12.414  0.00  0.00    -0.019 C 
ATOM      3  C   LIG d   1       2.521  -3.691 -13.025  0.00  0.00     0.049 C 
ATOM      4  O   LIG d   1       1.201  -3.447 -13.515  0.00  0.00    -0.374 OA
ATOM      5  C   LIG d   1       0.271  -3.044 -12.508  0.00  0.00     0.065 C 
ATOM      6  C   LIG d   1       0.742  -1.731 -11.878  0.00  0.00    -0.014 C 
ATOM      7  H   LIG d   1       4.072  -2.599 -12.001  0.00  0.00     0.030 H 
ATOM      8  H   LIG d   1       3.155  -1.637 -13.185  0.00  0.00     0.030 H 
ATOM      9  H   LIG d   1       3.160  -4.012 -13.848  0.00  0.00     0.056 H 
ATOM     10  H   LIG d   1       2.488  -4.471 -12.264  0.00  0.00     0.056 H 
ATOM     11  H   LIG d   1       0.765  -0.949 -12.636  0.00  0.00     0.030 H 
ATOM     12  H   LIG d   1       0.056  -1.444 -11.080  0.00  0.00     0.030 H 
ENDROOT
BRANCH   1  13
ATOM     13  C   LIG d   1       2.652  -0.617 -10.746  0.00  0.00    -0.041 A 
ATOM     14  C   LIG d   1       3.733   0.011 -11.334  0.00  0.00    -0.058 A 
ATOM     15  C   LIG d   1       4.197   1.210 -10.826  0.00  0.00    -0.059 A 
ATOM     16  H   LIG d   1       4.218  -0.436 -12.190  0.00  0.00     0.062 H 
ATOM     17  C   LIG d   1       3.576   1.782  -9.731  0.00  0.00    -0.050 A 
ATOM     18  H   LIG d   1       5.043   1.701 -11.284  0.00  0.00     0.062 H 
ATOM     19  C   LIG d   1       2.494   1.154  -9.144  0.00  0.00    -0.059 A 
ATOM     20  C   LIG d   1       2.028  -0.043  -9.654  0.00  0.00    -0.058 A 
ATOM     21  H   LIG d   1       2.009   1.601  -8.288  0.00  0.00     0.062 H 
ATOM     22  H   LIG d   1       1.180  -0.532  -9.198  0.00  0.00     0.062 H 
BRANCH  17  23
ATOM     23  C   LIG d   1       4.080   3.089  -9.176  0.00  0.00    -0.040 C 
ATOM     24  H   LIG d   1       3.689   3.912  -9.773  0.00  0.00     0.028 H 
ATOM     25  H   LIG d   1       3.749   3.198  -8.144  0.00  0.00     0.028 H 
ATOM     26  H   LIG d   1       5.171   3.102  -9.211  0.00  0.00     0.028 H 
ENDBRANCH  17  23
ENDBRANCH   1  13
BRANCH   1  27
ATOM     27  C   LIG d   1       2.102  -2.972 -10.185  0.00  0.00    -0.003 C 
ATOM     28  H   LIG d   1       1.461  -2.616  -9.379  0.00  0.00     0.033 H 
ATOM     29  H   LIG d   1       1.705  -3.907 -10.580  0.00  0.00     0.033 H 
BRANCH  27  30
ATOM     30  C   LIG d   1       3.515  -3.205  -9.646  0.00  0.00    -0.033 C 
ATOM     31  H   LIG d   1       3.839  -4.214  -9.900  0.00  0.00     0.081 H 
ATOM     32  H   LIG d   1       4.198  -2.482 -10.093  0.00  0.00     0.081 H 
BRANCH  30  33
ATOM     33  N   LIG d   1       3.507  -3.040  -8.181  0.00  0.00     0.230 N 
ATOM     34  H   LIG d   1       3.668  -3.953  -7.737  0.00  0.00     0.202 HD
ATOM     35  H   LIG d   1       2.594  -2.673  -7.886  0.00  0.00     0.202 HD
BRANCH  33  36
ATOM     36  C   LIG d   1       4.567  -2.103  -7.764  0.00  0.00    -0.008 C 
ATOM     37  H   LIG d   1       5.526  -2.618  -7.748  0.00  0.00     0.087 H 
ATOM     38  H   LIG d   1       4.613  -1.268  -8.465  0.00  0.00     0.087 H 
BRANCH  36  39
ATOM     39  C   LIG d   1       4.252  -1.583  -6.384  0.00  0.00    -0.003 A 
ATOM     40  C   LIG d   1       4.659  -2.294  -5.271  0.00  0.00    -0.050 A 
ATOM     41  C   LIG d   1       4.373  -1.821  -4.005  0.00  0.00    -0.019 A 
ATOM     42  H   LIG d   1       5.201  -3.221  -5.390  0.00  0.00     0.062 H 
ATOM     43  C   LIG d   1       3.676  -0.631  -3.853  0.00  0.00     0.120 A 
ATOM     44  H   LIG d   1       4.691  -2.375  -3.135  0.00  0.00     0.065 H 
ATOM     45  C   LIG d   1       3.269   0.081  -4.972  0.00  0.00    -0.019 A 
ATOM     46  C   LIG d   1       3.562  -0.394  -6.235  0.00  0.00    -0.050 A 
ATOM     47  H   LIG d   1       2.726   1.008  -4.856  0.00  0.00     0.065 H 
ATOM     48  H   LIG d   1       3.251   0.162  -7.107  0.00  0.00     0.062 H 
BRANCH  43  49
ATOM     49  O   LIG d   1       3.393  -0.161  -2.609  0.00  0.00    -0.495 OA
BRANCH  49  50
ATOM     50  C   LIG d   1       3.732   1.199  -2.335  0.00  0.00     0.079 C 
ATOM     51  H   LIG d   1       3.346   1.479  -1.355  0.00  0.00     0.066 H 
ATOM     52  H   LIG d   1       4.817   1.312  -2.344  0.00  0.00     0.066 H 
ATOM     53  H   LIG d   1       3.294   1.843  -3.097  0.00  0.00     0.066 H 
ENDBRANCH  49  50
ENDBRANCH  43  49
ENDBRANCH  36  39
ENDBRANCH  33  36
ENDBRANCH  30  33
ENDBRANCH  27  30
ENDBRANCH   1  27
BRANCH   5  54
ATOM     54  C   LIG d   1       0.183  -4.126 -11.431  0.00  0.00    -0.036 C 
ATOM     55  H   LIG d   1       0.353  -3.678 -10.452  0.00  0.00     0.026 H 
ATOM     56  H   LIG d   1      -0.807  -4.582 -11.455  0.00  0.00     0.026 H 
ATOM     57  H   LIG d   1       0.939  -4.888 -11.619  0.00  0.00     0.026 H 
ENDBRANCH   5  54
BRANCH   5  58
ATOM     58  C   LIG d   1      -1.108  -2.839 -13.141  0.00  0.00    -0.036 C 
ATOM     59  H   LIG d   1      -1.085  -3.174 -14.177  0.00  0.00     0.026 H 
ATOM     60  H   LIG d   1      -1.850  -3.417 -12.589  0.00  0.00     0.026 H 
ATOM     61  H   LIG d   1      -1.371  -1.782 -13.105  0.00  0.00     0.026 H 
ENDBRANCH   5  58
TORSDOF 11
ENDMDL
MODEL 5
REMARK VINA RESULT:      -4.9      2.379      4.551
REMARK  11 active torsions:
REMARK  status: ('A' for Active; 'I' for Inactive)
REMARK    1  A    between atoms: C_1  and  C_2 
REMARK    2  A    between atoms: C_5  and  C_8 
REMARK    3  A    between atoms: C_8  and  C_16 
REMARK    4  A    between atoms: C_12  and  C_14 
REMARK    5  A    between atoms: C_12  and  C_15 
REMARK    6  A    between atoms: C_16  and  C_17 
REMARK    7  A    between atoms: C_17  and  N_59 
REMARK    8  A    between atoms: C_18  and  C_19 
REMARK    9  A    between atoms: C_18  and  N_59 
REMARK   10  A    between atoms: C_22  and  O_25 
REMARK   11  A    between atoms: O_25  and  C_26 
ROOT
ATOM      1  C   LIG d   1       7.490  -2.722  -4.263  0.00  0.00     0.005 C 
ATOM      2  C   LIG d   1       6.737  -3.925  -4.838  0.00  0.00    -0.019 C 
ATOM      3  C   LIG d   1       7.747  -4.978  -5.300  0.00  0.00     0.049 C 
ATOM      4  O   LIG d   1       8.578  -5.354  -4.200  0.00  0.00    -0.374 OA
ATOM      5  C   LIG d   1       9.345  -4.279  -3.654  0.00  0.00     0.065 C 
ATOM      6  C   LIG d   1       8.398  -3.199  -3.125  0.00  0.00    -0.014 C 
ATOM      7  H   LIG d   1       6.130  -3.605  -5.685  0.00  0.00     0.030 H 
ATOM      8  H   LIG d   1       6.092  -4.352  -4.069  0.00  0.00     0.030 H 
ATOM      9  H   LIG d   1       7.215  -5.856  -5.670  0.00  0.00     0.056 H 
ATOM     10  H   LIG d   1       8.364  -4.565  -6.098  0.00  0.00     0.056 H 
ATOM     11  H   LIG d   1       7.788  -3.609  -2.321  0.00  0.00     0.030 H 
ATOM     12  H   LIG d   1       8.981  -2.358  -2.747  0.00  0.00     0.030 H 
ENDROOT
BRANCH   1  13
ATOM     13  C   LIG d   1       6.502  -1.714  -3.734  0.00  0.00    -0.041 A 
ATOM     14  C   LIG d   1       5.201  -2.096  -3.469  0.00  0.00    -0.058 A 
ATOM     15  C   LIG d   1       4.295  -1.172  -2.983  0.00  0.00    -0.059 A 
ATOM     16  H   LIG d   1       4.891  -3.116  -3.641  0.00  0.00     0.062 H 
ATOM     17  C   LIG d   1       4.691   0.135  -2.762  0.00  0.00    -0.050 A 
ATOM     18  H   LIG d   1       3.277  -1.469  -2.777  0.00  0.00     0.062 H 
ATOM     19  C   LIG d   1       5.993   0.516  -3.027  0.00  0.00    -0.059 A 
ATOM     20  C   LIG d   1       6.900  -0.409  -3.509  0.00  0.00    -0.058 A 
ATOM     21  H   LIG d   1       6.303   1.536  -2.854  0.00  0.00     0.062 H 
ATOM     22  H   LIG d   1       7.919  -0.113  -3.712  0.00  0.00     0.062 H 
BRANCH  17  23
ATOM     23  C   LIG d   1       3.704   1.143  -2.234  0.00  0.00    -0.040 C 
ATOM     24  H   LIG d   1       4.162   2.132  -2.229  0.00  0.00     0.028 H 
ATOM     25  H   LIG d   1       2.820   1.154  -2.872  0.00  0.00     0.028 H 
ATOM     26  H   LIG d   1       3.415   0.871  -1.218  0.00  0.00     0.028 H 
ENDBRANCH  17  23
ENDBRANCH   1  13
BRANCH   1  27
ATOM     27  C   LIG d   1       8.341  -2.080  -5.361  0.00  0.00    -0.003 C 
ATOM     28  H   LIG d   1       8.605  -1.063  -5.068  0.00  0.00     0.033 H 
ATOM     29  H   LIG d   1       9.249  -2.664  -5.506  0.00  0.00     0.033 H 
BRANCH  27  30
ATOM     30  C   LIG d   1       7.545  -2.043  -6.667  0.00  0.00    -0.033 C 
ATOM     31  H   LIG d   1       7.791  -2.919  -7.268  0.00  0.00     0.081 H 
ATOM     32  H   LIG d   1       6.479  -2.044  -6.443  0.00  0.00     0.081 H 
BRANCH  30  33
ATOM     33  N   LIG d   1       7.894  -0.818  -7.412  0.00  0.00     0.230 N 
ATOM     34  H   LIG d   1       7.765  -0.985  -8.417  0.00  0.00     0.202 HD
ATOM     35  H   LIG d   1       8.876  -0.579  -7.228  0.00  0.00     0.202 HD
BRANCH  33  36
ATOM     36  C   LIG d   1       7.032   0.302  -6.989  0.00  0.00    -0.008 C 
ATOM     37  H   LIG d   1       7.023   0.366  -5.901  0.00  0.00     0.087 H 
ATOM     38  H   LIG d   1       7.413   1.235  -7.406  0.00  0.00     0.087 H 
BRANCH  36  39
ATOM     39  C   LIG d   1       5.630   0.062  -7.489  0.00  0.00    -0.003 A 
ATOM     40  C   LIG d   1       4.602  -0.144  -6.589  0.00  0.00    -0.050 A 
ATOM     41  C   LIG d   1       3.317  -0.364  -7.045  0.00  0.00    -0.019 A 
ATOM     42  H   LIG d   1       4.804  -0.133  -5.528  0.00  0.00     0.062 H 
ATOM     43  C   LIG d   1       3.059  -0.377  -8.408  0.00  0.00     0.120 A 
ATOM     44  H   LIG d   1       2.514  -0.523  -6.341  0.00  0.00     0.065 H 
ATOM     45  C   LIG d   1       4.093  -0.171  -9.309  0.00  0.00    -0.019 A 
ATOM     46  C   LIG d   1       5.375   0.054  -8.849  0.00  0.00    -0.050 A 
ATOM     47  H   LIG d   1       3.894  -0.181 -10.372  0.00  0.00     0.065 H 
ATOM     48  H   LIG d   1       6.180   0.220  -9.549  0.00  0.00     0.062 H 
BRANCH  43  49
ATOM     49  O   LIG d   1       1.795  -0.593  -8.860  0.00  0.00    -0.495 OA
BRANCH  49  50
ATOM     50  C   LIG d   1       1.633  -0.792 -10.265  0.00  0.00     0.079 C 
ATOM     51  H   LIG d   1       1.166   0.090 -10.705  0.00  0.00     0.066 H 
ATOM     52  H   LIG d   1       2.610  -0.953 -10.724  0.00  0.00     0.066 H 
ATOM     53  H   LIG d   1       1.002  -1.663 -10.438  0.00  0.00     0.066 H 
ENDBRANCH  49  50
ENDBRANCH  43  49
ENDBRANCH  36  39
ENDBRANCH  33  36
ENDBRANCH  30  33
ENDBRANCH  27  30
ENDBRANCH   1  27
BRANCH   5  54
ATOM     54  C   LIG d   1      10.240  -3.686  -4.743  0.00  0.00    -0.036 C 
ATOM     55  H   LIG d   1      10.270  -4.362  -5.597  0.00  0.00     0.026 H 
ATOM     56  H   LIG d   1       9.839  -2.721  -5.056  0.00  0.00     0.026 H 
ATOM     57  H   LIG d   1      11.248  -3.550  -4.350  0.00  0.00     0.026 H 
ENDBRANCH   5  54
BRANCH   5  58
ATOM     58  C   LIG d   1      10.213  -4.803  -2.507  0.00  0.00    -0.036 C 
ATOM     59  H   LIG d   1      10.480  -5.842  -2.699  0.00  0.00     0.026 H 
ATOM     60  H   LIG d   1      11.119  -4.202  -2.435  0.00  0.00     0.026 H 
ATOM     61  H   LIG d   1       9.657  -4.737  -1.572  0.00  0.00     0.026 H 
ENDBRANCH   5  58
TORSDOF 11
ENDMDL
MODEL 6
REMARK VINA RESULT:      -4.8      4.542      6.470
REMARK  11 active torsions:
REMARK  status: ('A' for Active; 'I' for Inactive)
REMARK    1  A    between atoms: C_1  and  C_2 
REMARK    2  A    between atoms: C_5  and  C_8 
REMARK    3  A    between atoms: C_8  and  C_16 
REMARK    4  A    between atoms: C_12  and  C_14 
REMARK    5  A    between atoms: C_12  and  C_15 
REMARK    6  A    between atoms: C_16  and  C_17 
REMARK    7  A    between atoms: C_17  and  N_59 
REMARK    8  A    between atoms: C_18  and  C_19 
REMARK    9  A    between atoms: C_18  and  N_59 
REMARK   10  A    between atoms: C_22  and  O_25 
REMARK   11  A    between atoms: O_25  and  C_26 
ROOT
ATOM      1  C   LIG d   1       7.488  -2.635  -4.209  0.00  0.00     0.005 C 
ATOM      2  C   LIG d   1       6.729  -3.796  -4.858  0.00  0.00    -0.019 C 
ATOM      3  C   LIG d   1       7.733  -4.854  -5.326  0.00  0.00     0.049 C 
ATOM      4  O   LIG d   1       8.514  -5.293  -4.213  0.00  0.00    -0.374 OA
ATOM      5  C   LIG d   1       9.284  -4.258  -3.598  0.00  0.00     0.065 C 
ATOM      6  C   LIG d   1       8.343  -3.177  -3.059  0.00  0.00    -0.014 C 
ATOM      7  H   LIG d   1       6.162  -3.429  -5.712  0.00  0.00     0.030 H 
ATOM      8  H   LIG d   1       6.048  -4.237  -4.130  0.00  0.00     0.030 H 
ATOM      9  H   LIG d   1       7.194  -5.703  -5.749  0.00  0.00     0.056 H 
ATOM     10  H   LIG d   1       8.387  -4.425  -6.084  0.00  0.00     0.056 H 
ATOM     11  H   LIG d   1       7.695  -3.604  -2.295  0.00  0.00     0.030 H 
ATOM     12  H   LIG d   1       8.930  -2.365  -2.627  0.00  0.00     0.030 H 
ENDROOT
BRANCH   1  13
ATOM     13  C   LIG d   1       6.505  -1.625  -3.676  0.00  0.00    -0.041 A 
ATOM     14  C   LIG d   1       5.199  -2.000  -3.422  0.00  0.00    -0.058 A 
ATOM     15  C   LIG d   1       4.296  -1.074  -2.933  0.00  0.00    -0.059 A 
ATOM     16  H   LIG d   1       4.883  -3.016  -3.607  0.00  0.00     0.062 H 
ATOM     17  C   LIG d   1       4.702   0.227  -2.696  0.00  0.00    -0.050 A 
ATOM     18  H   LIG d   1       3.276  -1.366  -2.736  0.00  0.00     0.062 H 
ATOM     19  C   LIG d   1       6.008   0.601  -2.948  0.00  0.00    -0.059 A 
ATOM     20  C   LIG d   1       6.911  -0.326  -3.434  0.00  0.00    -0.058 A 
ATOM     21  H   LIG d   1       6.324   1.617  -2.763  0.00  0.00     0.062 H 
ATOM     22  H   LIG d   1       7.933  -0.035  -3.627  0.00  0.00     0.062 H 
BRANCH  17  23
ATOM     23  C   LIG d   1       3.718   1.237  -2.163  0.00  0.00    -0.040 C 
ATOM     24  H   LIG d   1       3.454   0.980  -1.137  0.00  0.00     0.028 H 
ATOM     25  H   LIG d   1       4.168   2.229  -2.186  0.00  0.00     0.028 H 
ATOM     26  H   LIG d   1       2.820   1.231  -2.781  0.00  0.00     0.028 H 
ENDBRANCH  17  23
ENDBRANCH   1  13
BRANCH   1  27
ATOM     27  C   LIG d   1       8.393  -1.970  -5.250  0.00  0.00    -0.003 C 
ATOM     28  H   LIG d   1       8.836  -1.070  -4.824  0.00  0.00     0.033 H 
ATOM     29  H   LIG d   1       9.183  -2.662  -5.540  0.00  0.00     0.033 H 
BRANCH  27  30
ATOM     30  C   LIG d   1       7.565  -1.597  -6.481  0.00  0.00    -0.033 C 
ATOM     31  H   LIG d   1       7.851  -2.233  -7.318  0.00  0.00     0.081 H 
ATOM     32  H   LIG d   1       6.506  -1.738  -6.264  0.00  0.00     0.081 H 
BRANCH  30  33
ATOM     33  N   LIG d   1       7.818  -0.184  -6.823  0.00  0.00     0.230 N 
ATOM     34  H   LIG d   1       7.278   0.419  -6.191  0.00  0.00     0.202 HD
ATOM     35  H   LIG d   1       7.524  -0.014  -7.792  0.00  0.00     0.202 HD
BRANCH  33  36
ATOM     36  C   LIG d   1       9.253   0.127  -6.686  0.00  0.00    -0.008 C 
ATOM     37  H   LIG d   1       9.798  -0.775  -6.410  0.00  0.00     0.087 H 
ATOM     38  H   LIG d   1       9.637   0.510  -7.632  0.00  0.00     0.087 H 
BRANCH  36  39
ATOM     39  C   LIG d   1       9.431   1.170  -5.612  0.00  0.00    -0.003 A 
ATOM     40  C   LIG d   1      10.480   1.067  -4.718  0.00  0.00    -0.050 A 
ATOM     41  C   LIG d   1      10.646   2.022  -3.733  0.00  0.00    -0.019 A 
ATOM     42  H   LIG d   1      11.170   0.240  -4.788  0.00  0.00     0.062 H 
ATOM     43  C   LIG d   1       9.759   3.084  -3.643  0.00  0.00     0.120 A 
ATOM     44  H   LIG d   1      11.465   1.942  -3.035  0.00  0.00     0.065 H 
ATOM     45  C   LIG d   1       8.707   3.185  -4.542  0.00  0.00    -0.019 A 
ATOM     46  C   LIG d   1       8.548   2.231  -5.528  0.00  0.00    -0.050 A 
ATOM     47  H   LIG d   1       8.014   4.012  -4.473  0.00  0.00     0.065 H 
ATOM     48  H   LIG d   1       7.733   2.312  -6.231  0.00  0.00     0.062 H 
BRANCH  43  49
ATOM     49  O   LIG d   1       9.919   4.026  -2.675  0.00  0.00    -0.495 OA
BRANCH  49  50
ATOM     50  C   LIG d   1       9.817   5.393  -3.076  0.00  0.00     0.079 C 
ATOM     51  H   LIG d   1       9.079   5.900  -2.454  0.00  0.00     0.066 H 
ATOM     52  H   LIG d   1      10.786   5.879  -2.959  0.00  0.00     0.066 H 
ATOM     53  H   LIG d   1       9.509   5.444  -4.120  0.00  0.00     0.066 H 
ENDBRANCH  49  50
ENDBRANCH  43  49
ENDBRANCH  36  39
ENDBRANCH  33  36
ENDBRANCH  30  33
ENDBRANCH  27  30
ENDBRANCH   1  27
BRANCH   5  54
ATOM     54  C   LIG d   1      10.232  -3.644  -4.629  0.00  0.00    -0.036 C 
ATOM     55  H   LIG d   1      11.261  -3.893  -4.370  0.00  0.00     0.026 H 
ATOM     56  H   LIG d   1       9.999  -4.042  -5.617  0.00  0.00     0.026 H 
ATOM     57  H   LIG d   1      10.109  -2.561  -4.636  0.00  0.00     0.026 H 
ENDBRANCH   5  54
BRANCH   5  58
ATOM     58  C   LIG d   1      10.098  -4.847  -2.442  0.00  0.00    -0.036 C 
ATOM     59  H   LIG d   1      11.048  -5.221  -2.822  0.00  0.00     0.026 H 
ATOM     60  H   LIG d   1      10.284  -4.072  -1.699  0.00  0.00     0.026 H 
ATOM     61  H   LIG d   1       9.541  -5.664  -1.985  0.00  0.00     0.026 H 
ENDBRANCH   5  58
TORSDOF 11
ENDMDL
MODEL 7
REMARK VINA RESULT:      -4.7      2.976      5.498
REMARK  11 active torsions:
REMARK  status: ('A' for Active; 'I' for Inactive)
REMARK    1  A    between atoms: C_1  and  C_2 
REMARK    2  A    between atoms: C_5  and  C_8 
REMARK    3  A    between atoms: C_8  and  C_16 
REMARK    4  A    between atoms: C_12  and  C_14 
REMARK    5  A    between atoms: C_12  and  C_15 
REMARK    6  A    between atoms: C_16  and  C_17 
REMARK    7  A    between atoms: C_17  and  N_59 
REMARK    8  A    between atoms: C_18  and  C_19 
REMARK    9  A    between atoms: C_18  and  N_59 
REMARK   10  A    between atoms: C_22  and  O_25 
REMARK   11  A    between atoms: O_25  and  C_26 
ROOT
ATOM      1  C   LIG d   1       8.737   1.432  -4.510  0.00  0.00     0.005 C 
ATOM      2  C   LIG d   1       9.879   0.503  -4.929  0.00  0.00    -0.019 C 
ATOM      3  C   LIG d   1      11.053   1.345  -5.437  0.00  0.00     0.049 C 
ATOM      4  O   LIG d   1      11.463   2.254  -4.413  0.00  0.00    -0.374 OA
ATOM      5  C   LIG d   1      10.450   3.180  -4.016  0.00  0.00     0.065 C 
ATOM      6  C   LIG d   1       9.253   2.412  -3.450  0.00  0.00    -0.014 C 
ATOM      7  H   LIG d   1       9.537  -0.161  -5.723  0.00  0.00     0.030 H 
ATOM      8  H   LIG d   1      10.201  -0.090  -4.072  0.00  0.00     0.030 H 
ATOM      9  H   LIG d   1      11.886   0.690  -5.696  0.00  0.00     0.056 H 
ATOM     10  H   LIG d   1      10.744   1.905  -6.319  0.00  0.00     0.056 H 
ATOM     11  H   LIG d   1       9.560   1.859  -2.563  0.00  0.00     0.030 H 
ATOM     12  H   LIG d   1       8.461   3.113  -3.187  0.00  0.00     0.030 H 
ENDROOT
BRANCH   1  13
ATOM     13  C   LIG d   1       7.607   0.615  -3.936  0.00  0.00    -0.041 A 
ATOM     14  C   LIG d   1       7.687  -0.764  -3.928  0.00  0.00    -0.058 A 
ATOM     15  C   LIG d   1       6.652  -1.514  -3.401  0.00  0.00    -0.059 A 
ATOM     16  H   LIG d   1       8.559  -1.258  -4.333  0.00  0.00     0.062 H 
ATOM     17  C   LIG d   1       5.536  -0.882  -2.882  0.00  0.00    -0.050 A 
ATOM     18  H   LIG d   1       6.713  -2.592  -3.396  0.00  0.00     0.062 H 
ATOM     19  C   LIG d   1       5.458   0.497  -2.889  0.00  0.00    -0.059 A 
ATOM     20  C   LIG d   1       6.495   1.247  -3.412  0.00  0.00    -0.058 A 
ATOM     21  H   LIG d   1       4.586   0.991  -2.483  0.00  0.00     0.062 H 
ATOM     22  H   LIG d   1       6.435   2.325  -3.414  0.00  0.00     0.062 H 
BRANCH  17  23
ATOM     23  C   LIG d   1       4.407  -1.698  -2.309  0.00  0.00    -0.040 C 
ATOM     24  H   LIG d   1       4.671  -2.029  -1.305  0.00  0.00     0.028 H 
ATOM     25  H   LIG d   1       3.504  -1.090  -2.266  0.00  0.00     0.028 H 
ATOM     26  H   LIG d   1       4.229  -2.568  -2.943  0.00  0.00     0.028 H 
ENDBRANCH  17  23
ENDBRANCH   1  13
BRANCH   1  27
ATOM     27  C   LIG d   1       8.239   2.212  -5.728  0.00  0.00    -0.003 C 
ATOM     28  H   LIG d   1       7.264   2.647  -5.507  0.00  0.00     0.033 H 
ATOM     29  H   LIG d   1       8.946   3.006  -5.966  0.00  0.00     0.033 H 
BRANCH  27  30
ATOM     30  C   LIG d   1       8.114   1.266  -6.924  0.00  0.00    -0.033 C 
ATOM     31  H   LIG d   1       8.895   1.493  -7.650  0.00  0.00     0.081 H 
ATOM     32  H   LIG d   1       8.223   0.236  -6.585  0.00  0.00     0.081 H 
BRANCH  30  33
ATOM     33  N   LIG d   1       6.790   1.446  -7.548  0.00  0.00     0.230 N 
ATOM     34  H   LIG d   1       6.792   2.310  -8.103  0.00  0.00     0.202 HD
ATOM     35  H   LIG d   1       6.076   1.514  -6.812  0.00  0.00     0.202 HD
BRANCH  33  36
ATOM     36  C   LIG d   1       6.477   0.302  -8.426  0.00  0.00    -0.008 C 
ATOM     37  H   LIG d   1       5.760   0.610  -9.186  0.00  0.00     0.087 H 
ATOM     38  H   LIG d   1       7.390  -0.050  -8.907  0.00  0.00     0.087 H 
BRANCH  36  39
ATOM     39  C   LIG d   1       5.884  -0.809  -7.597  0.00  0.00    -0.003 A 
ATOM     40  C   LIG d   1       6.469  -2.061  -7.602  0.00  0.00    -0.050 A 
ATOM     41  C   LIG d   1       5.927  -3.080  -6.843  0.00  0.00    -0.019 A 
ATOM     42  H   LIG d   1       7.349  -2.243  -8.200  0.00  0.00     0.062 H 
ATOM     43  C   LIG d   1       4.796  -2.846  -6.075  0.00  0.00     0.120 A 
ATOM     44  H   LIG d   1       6.384  -4.058  -6.846  0.00  0.00     0.065 H 
ATOM     45  C   LIG d   1       4.211  -1.588  -6.072  0.00  0.00    -0.019 A 
ATOM     46  C   LIG d   1       4.759  -0.571  -6.828  0.00  0.00    -0.050 A 
ATOM     47  H   LIG d   1       3.329  -1.403  -5.475  0.00  0.00     0.065 H 
ATOM     48  H   LIG d   1       4.308   0.411  -6.822  0.00  0.00     0.062 H 
BRANCH  43  49
ATOM     49  O   LIG d   1       4.261  -3.847  -5.327  0.00  0.00    -0.495 OA
BRANCH  49  50
ATOM     50  C   LIG d   1       4.864  -5.136  -5.441  0.00  0.00     0.079 C 
ATOM     51  H   LIG d   1       4.873  -5.442  -6.487  0.00  0.00     0.066 H 
ATOM     52  H   LIG d   1       5.887  -5.093  -5.066  0.00  0.00     0.066 H 
ATOM     53  H   LIG d   1       4.293  -5.858  -4.856  0.00  0.00     0.066 H 
ENDBRANCH  49  50
ENDBRANCH  43  49
ENDBRANCH  36  39
ENDBRANCH  33  36
ENDBRANCH  30  33
ENDBRANCH  27  30
ENDBRANCH   1  27
BRANCH   5  54
ATOM     54  C   LIG d   1      10.005   4.001  -5.228  0.00  0.00    -0.036 C 
ATOM     55  H   LIG d   1       9.856   3.338  -6.081  0.00  0.00     0.026 H 
ATOM     56  H   LIG d   1       9.069   4.510  -4.996  0.00  0.00     0.026 H 
ATOM     57  H   LIG d   1      10.770   4.738  -5.468  0.00  0.00     0.026 H 
ENDBRANCH   5  54
BRANCH   5  58
ATOM     58  C   LIG d   1      11.008   4.117  -2.942  0.00  0.00    -0.036 C 
ATOM     59  H   LIG d   1      11.357   5.037  -3.409  0.00  0.00     0.026 H 
ATOM     60  H   LIG d   1      10.225   4.349  -2.221  0.00  0.00     0.026 H 
ATOM     61  H   LIG d   1      11.839   3.630  -2.431  0.00  0.00     0.026 H 
ENDBRANCH   5  58
TORSDOF 11
ENDMDL
MODEL 8
REMARK VINA RESULT:      -4.7      2.650      5.314
REMARK  11 active torsions:
REMARK  status: ('A' for Active; 'I' for Inactive)
REMARK    1  A    between atoms: C_1  and  C_2 
REMARK    2  A    between atoms: C_5  and  C_8 
REMARK    3  A    between atoms: C_8  and  C_16 
REMARK    4  A    between atoms: C_12  and  C_14 
REMARK    5  A    between atoms: C_12  and  C_15 
REMARK    6  A    between atoms: C_16  and  C_17 
REMARK    7  A    between atoms: C_17  and  N_59 
REMARK    8  A    between atoms: C_18  and  C_19 
REMARK    9  A    between atoms: C_18  and  N_59 
REMARK   10  A    between atoms: C_22  and  O_25 
REMARK   11  A    between atoms: O_25  and  C_26 
ROOT
ATOM      1  C   LIG d   1       4.794  -0.899  -5.341  0.00  0.00     0.005 C 
ATOM      2  C   LIG d   1       4.768  -2.307  -4.739  0.00  0.00    -0.019 C 
ATOM      3  C   LIG d   1       5.504  -2.294  -3.396  0.00  0.00     0.049 C 
ATOM      4  O   LIG d   1       4.892  -1.339  -2.528  0.00  0.00    -0.374 OA
ATOM      5  C   LIG d   1       4.931   0.003  -3.017  0.00  0.00     0.065 C 
ATOM      6  C   LIG d   1       4.171   0.083  -4.343  0.00  0.00    -0.014 C 
ATOM      7  H   LIG d   1       5.259  -3.003  -5.417  0.00  0.00     0.030 H 
ATOM      8  H   LIG d   1       3.734  -2.618  -4.584  0.00  0.00     0.030 H 
ATOM      9  H   LIG d   1       5.450  -3.285  -2.943  0.00  0.00     0.056 H 
ATOM     10  H   LIG d   1       6.547  -2.024  -3.557  0.00  0.00     0.056 H 
ATOM     11  H   LIG d   1       3.125  -0.178  -4.182  0.00  0.00     0.030 H 
ATOM     12  H   LIG d   1       4.236   1.096  -4.740  0.00  0.00     0.030 H 
ENDROOT
BRANCH   1  13
ATOM     13  C   LIG d   1       4.004  -0.885  -6.625  0.00  0.00    -0.041 A 
ATOM     14  C   LIG d   1       4.097  -1.947  -7.504  0.00  0.00    -0.058 A 
ATOM     15  C   LIG d   1       3.373  -1.934  -8.682  0.00  0.00    -0.059 A 
ATOM     16  H   LIG d   1       4.735  -2.787  -7.272  0.00  0.00     0.062 H 
ATOM     17  C   LIG d   1       2.555  -0.859  -8.979  0.00  0.00    -0.050 A 
ATOM     18  H   LIG d   1       3.446  -2.763  -9.370  0.00  0.00     0.062 H 
ATOM     19  C   LIG d   1       2.462   0.202  -8.099  0.00  0.00    -0.059 A 
ATOM     20  C   LIG d   1       3.183   0.188  -6.919  0.00  0.00    -0.058 A 
ATOM     21  H   LIG d   1       1.824   1.042  -8.331  0.00  0.00     0.062 H 
ATOM     22  H   LIG d   1       3.108   1.015  -6.229  0.00  0.00     0.062 H 
BRANCH  17  23
ATOM     23  C   LIG d   1       1.767  -0.844 -10.263  0.00  0.00    -0.040 C 
ATOM     24  H   LIG d   1       1.559  -1.868 -10.573  0.00  0.00     0.028 H 
ATOM     25  H   LIG d   1       0.828  -0.314 -10.107  0.00  0.00     0.028 H 
ATOM     26  H   LIG d   1       2.344  -0.340 -11.038  0.00  0.00     0.028 H 
ENDBRANCH  17  23
ENDBRANCH   1  13
BRANCH   1  27
ATOM     27  C   LIG d   1       6.241  -0.491  -5.624  0.00  0.00    -0.003 C 
ATOM     28  H   LIG d   1       6.588   0.185  -4.842  0.00  0.00     0.033 H 
ATOM     29  H   LIG d   1       6.873  -1.379  -5.643  0.00  0.00     0.033 H 
BRANCH  27  30
ATOM     30  C   LIG d   1       6.316   0.218  -6.978  0.00  0.00    -0.033 C 
ATOM     31  H   LIG d   1       6.684  -0.478  -7.732  0.00  0.00     0.081 H 
ATOM     32  H   LIG d   1       5.323   0.567  -7.261  0.00  0.00     0.081 H 
BRANCH  30  33
ATOM     33  N   LIG d   1       7.235   1.367  -6.873  0.00  0.00     0.230 N 
ATOM     34  H   LIG d   1       6.952   1.954  -6.079  0.00  0.00     0.202 HD
ATOM     35  H   LIG d   1       7.189   1.916  -7.739  0.00  0.00     0.202 HD
BRANCH  33  36
ATOM     36  C   LIG d   1       8.618   0.899  -6.665  0.00  0.00    -0.008 C 
ATOM     37  H   LIG d   1       8.617  -0.173  -6.470  0.00  0.00     0.087 H 
ATOM     38  H   LIG d   1       9.213   1.107  -7.554  0.00  0.00     0.087 H 
BRANCH  36  39
ATOM     39  C   LIG d   1       9.211   1.623  -5.482  0.00  0.00    -0.003 A 
ATOM     40  C   LIG d   1       8.600   2.762  -4.994  0.00  0.00    -0.050 A 
ATOM     41  C   LIG d   1       9.141   3.427  -3.911  0.00  0.00    -0.019 A 
ATOM     42  H   LIG d   1       7.699   3.134  -5.460  0.00  0.00     0.062 H 
ATOM     43  C   LIG d   1      10.298   2.949  -3.313  0.00  0.00     0.120 A 
ATOM     44  H   LIG d   1       8.664   4.317  -3.528  0.00  0.00     0.065 H 
ATOM     45  C   LIG d   1      10.909   1.805  -3.805  0.00  0.00    -0.019 A 
ATOM     46  C   LIG d   1      10.362   1.141  -4.885  0.00  0.00    -0.050 A 
ATOM     47  H   LIG d   1      11.811   1.431  -3.341  0.00  0.00     0.065 H 
ATOM     48  H   LIG d   1      10.833   0.247  -5.265  0.00  0.00     0.062 H 
BRANCH  43  49
ATOM     49  O   LIG d   1      10.833   3.601  -2.246  0.00  0.00    -0.495 OA
BRANCH  49  50
ATOM     50  C   LIG d   1      10.462   4.968  -2.067  0.00  0.00     0.079 C 
ATOM     51  H   LIG d   1       9.480   5.139  -2.510  0.00  0.00     0.066 H 
ATOM     52  H   LIG d   1      10.425   5.198  -1.002  0.00  0.00     0.066 H 
ATOM     53  H   LIG d   1      11.196   5.611  -2.553  0.00  0.00     0.066 H 
ENDBRANCH  49  50
ENDBRANCH  43  49
ENDBRANCH  36  39
ENDBRANCH  33  36
ENDBRANCH  30  33
ENDBRANCH  27  30
ENDBRANCH   1  27
BRANCH   5  54
ATOM     54  C   LIG d   1       6.385   0.425  -3.235  0.00  0.00    -0.036 C 
ATOM     55  H   LIG d   1       6.442   1.511  -3.300  0.00  0.00     0.026 H 
ATOM     56  H   LIG d   1       6.992   0.079  -2.398  0.00  0.00     0.026 H 
ATOM     57  H   LIG d   1       6.756  -0.016  -4.160  0.00  0.00     0.026 H 
ENDBRANCH   5  54
BRANCH   5  58
ATOM     58  C   LIG d   1       4.275   0.937  -1.997  0.00  0.00    -0.036 C 
ATOM     59  H   LIG d   1       4.089   1.906  -2.460  0.00  0.00     0.026 H 
ATOM     60  H   LIG d   1       3.331   0.506  -1.665  0.00  0.00     0.026 H 
ATOM     61  H   LIG d   1       4.938   1.064  -1.141  0.00  0.00     0.026 H 
ENDBRANCH   5  58
TORSDOF 11
ENDMDL
MODEL 9
REMARK VINA RESULT:      -4.7      2.332      6.476
REMARK  11 active torsions:
REMARK  status: ('A' for Active; 'I' for Inactive)
REMARK    1  A    between atoms: C_1  and  C_2 
REMARK    2  A    between atoms: C_5  and  C_8 
REMARK    3  A    between atoms: C_8  and  C_16 
REMARK    4  A    between atoms: C_12  and  C_14 
REMARK    5  A    between atoms: C_12  and  C_15 
REMARK    6  A    between atoms: C_16  and  C_17 
REMARK    7  A    between atoms: C_17  and  N_59 
REMARK    8  A    between atoms: C_18  and  C_19 
REMARK    9  A    between atoms: C_18  and  N_59 
REMARK   10  A    between atoms: C_22  and  O_25 
REMARK   11  A    between atoms: O_25  and  C_26 
ROOT
ATOM      1  C   LIG d   1       3.797  -0.797  -7.676  0.00  0.00     0.005 C 
ATOM      2  C   LIG d   1       2.616   0.053  -8.153  0.00  0.00    -0.019 C 
ATOM      3  C   LIG d   1       2.434  -0.138  -9.662  0.00  0.00     0.049 C 
ATOM      4  O   LIG d   1       2.233  -1.525  -9.944  0.00  0.00    -0.374 OA
ATOM      5  C   LIG d   1       3.326  -2.362  -9.564  0.00  0.00     0.065 C 
ATOM      6  C   LIG d   1       3.543  -2.261  -8.052  0.00  0.00    -0.014 C 
ATOM      7  H   LIG d   1       2.813   1.103  -7.941  0.00  0.00     0.030 H 
ATOM      8  H   LIG d   1       1.709  -0.260  -7.635  0.00  0.00     0.030 H 
ATOM      9  H   LIG d   1       1.567   0.431  -9.998  0.00  0.00     0.056 H 
ATOM     10  H   LIG d   1       3.324   0.213 -10.182  0.00  0.00     0.056 H 
ATOM     11  H   LIG d   1       2.657  -2.621  -7.531  0.00  0.00     0.030 H 
ATOM     12  H   LIG d   1       4.405  -2.865  -7.766  0.00  0.00     0.030 H 
ENDROOT
BRANCH   1  13
ATOM     13  C   LIG d   1       3.934  -0.676  -6.180  0.00  0.00    -0.041 A 
ATOM     14  C   LIG d   1       3.144   0.220  -5.485  0.00  0.00    -0.058 A 
ATOM     15  C   LIG d   1       3.270   0.332  -4.112  0.00  0.00    -0.059 A 
ATOM     16  H   LIG d   1       2.429   0.833  -6.013  0.00  0.00     0.062 H 
ATOM     17  C   LIG d   1       4.185  -0.454  -3.436  0.00  0.00    -0.050 A 
ATOM     18  H   LIG d   1       2.653   1.032  -3.568  0.00  0.00     0.062 H 
ATOM     19  C   LIG d   1       4.974  -1.350  -4.132  0.00  0.00    -0.059 A 
ATOM     20  C   LIG d   1       4.846  -1.464  -5.504  0.00  0.00    -0.058 A 
ATOM     21  H   LIG d   1       5.690  -1.963  -3.604  0.00  0.00     0.062 H 
ATOM     22  H   LIG d   1       5.460  -2.167  -6.048  0.00  0.00     0.062 H 
BRANCH  17  23
ATOM     23  C   LIG d   1       4.323  -0.332  -1.941  0.00  0.00    -0.040 C 
ATOM     24  H   LIG d   1       3.442  -0.755  -1.459  0.00  0.00     0.028 H 
ATOM     25  H   LIG d   1       5.212  -0.870  -1.612  0.00  0.00     0.028 H 
ATOM     26  H   LIG d   1       4.415   0.721  -1.669  0.00  0.00     0.028 H 
ENDBRANCH  17  23
ENDBRANCH   1  13
BRANCH   1  27
ATOM     27  C   LIG d   1       5.082  -0.312  -8.351  0.00  0.00    -0.003 C 
ATOM     28  H   LIG d   1       5.945  -0.719  -7.825  0.00  0.00     0.033 H 
ATOM     29  H   LIG d   1       5.097  -0.646  -9.388  0.00  0.00     0.033 H 
BRANCH  27  30
ATOM     30  C   LIG d   1       5.135   1.217  -8.307  0.00  0.00    -0.033 C 
ATOM     31  H   LIG d   1       4.706   1.622  -9.223  0.00  0.00     0.081 H 
ATOM     32  H   LIG d   1       4.565   1.576  -7.450  0.00  0.00     0.081 H 
BRANCH  30  33
ATOM     33  N   LIG d   1       6.540   1.649  -8.184  0.00  0.00     0.230 N 
ATOM     34  H   LIG d   1       6.574   2.564  -7.720  0.00  0.00     0.202 HD
ATOM     35  H   LIG d   1       6.954   1.725  -9.121  0.00  0.00     0.202 HD
BRANCH  33  36
ATOM     36  C   LIG d   1       7.309   0.672  -7.391  0.00  0.00    -0.008 C 
ATOM     37  H   LIG d   1       6.653  -0.137  -7.070  0.00  0.00     0.087 H 
ATOM     38  H   LIG d   1       8.119   0.265  -7.996  0.00  0.00     0.087 H 
BRANCH  36  39
ATOM     39  C   LIG d   1       7.884   1.362  -6.180  0.00  0.00    -0.003 A 
ATOM     40  C   LIG d   1       8.784   2.399  -6.339  0.00  0.00    -0.050 A 
ATOM     41  C   LIG d   1       9.311   3.033  -5.231  0.00  0.00    -0.019 A 
ATOM     42  H   LIG d   1       9.076   2.712  -7.330  0.00  0.00     0.062 H 
ATOM     43  C   LIG d   1       8.936   2.629  -3.958  0.00  0.00     0.120 A 
ATOM     44  H   LIG d   1      10.014   3.843  -5.355  0.00  0.00     0.065 H 
ATOM     45  C   LIG d   1       8.032   1.589  -3.801  0.00  0.00    -0.019 A 
ATOM     46  C   LIG d   1       7.504   0.961  -4.912  0.00  0.00    -0.050 A 
ATOM     47  H   LIG d   1       7.738   1.272  -2.810  0.00  0.00     0.065 H 
ATOM     48  H   LIG d   1       6.796   0.154  -4.791  0.00  0.00     0.062 H 
BRANCH  43  49
ATOM     49  O   LIG d   1       9.453   3.252  -2.866  0.00  0.00    -0.495 OA
BRANCH  49  50
ATOM     50  C   LIG d   1       9.912   4.593  -3.039  0.00  0.00     0.079 C 
ATOM     51  H   LIG d   1       9.228   5.279  -2.540  0.00  0.00     0.066 H 
ATOM     52  H   LIG d   1      10.909   4.694  -2.607  0.00  0.00     0.066 H 
ATOM     53  H   LIG d   1       9.952   4.829  -4.102  0.00  0.00     0.066 H 
ENDBRANCH  49  50
ENDBRANCH  43  49
ENDBRANCH  36  39
ENDBRANCH  33  36
ENDBRANCH  30  33
ENDBRANCH  27  30
ENDBRANCH   1  27
BRANCH   5  54
ATOM     54  C   LIG d   1       4.593  -1.910 -10.294  0.00  0.00    -0.036 C 
ATOM     55  H   LIG d   1       4.481  -2.091 -11.363  0.00  0.00     0.026 H 
ATOM     56  H   LIG d   1       4.750  -0.845 -10.120  0.00  0.00     0.026 H 
ATOM     57  H   LIG d   1       5.448  -2.470  -9.917  0.00  0.00     0.026 H 
ENDBRANCH   5  54
BRANCH   5  58
ATOM     58  C   LIG d   1       3.012  -3.813  -9.938  0.00  0.00    -0.036 C 
ATOM     59  H   LIG d   1       2.323  -3.829 -10.782  0.00  0.00     0.026 H 
ATOM     60  H   LIG d   1       3.934  -4.324 -10.212  0.00  0.00     0.026 H 
ATOM     61  H   LIG d   1       2.556  -4.316  -9.086  0.00  0.00     0.026 H 
ENDBRANCH   5  58
TORSDOF 11
ENDMDL
