MODEL 1
REMARK VINA RESULT:      -6.1      0.000      0.000
REMARK  9 active torsions:
REMARK  status: ('A' for Active; 'I' for Inactive)
REMARK    1  A    between atoms: C_1  and  C_2 
REMARK    2  A    between atoms: C_6  and  O_8 
REMARK    3  A    between atoms: O_8  and  C_9 
REMARK    4  A    between atoms: C_9  and  C_10 
REMARK       I    between atoms: C_10  and  N_12 
REMARK    5  A    between atoms: N_12  and  C_14 
REMARK    6  A    between atoms: C_14  and  C_16 
REMARK    7  A    between atoms: C_14  and  C_19 
REMARK    8  A    between atoms: C_16  and  S_17 
REMARK    9  A    between atoms: S_17  and  C_18 
ROOT
ATOM      1  C   UNK d   0       5.084  -0.500  -2.638  0.00  0.00    -0.043 A 
ATOM      2  C   UNK d   0       4.385  -1.659  -2.915  0.00  0.00    -0.015 A 
ATOM      3  C   UNK d   0       4.923  -2.610  -3.769  0.00  0.00     0.143 A 
ATOM      4  C   UNK d   0       6.183  -2.383  -4.350  0.00  0.00     0.063 A 
ATOM      5  C   UNK d   0       6.885  -1.203  -4.062  0.00  0.00     0.132 A 
ATOM      6  C   UNK d   0       6.325  -0.270  -3.206  0.00  0.00    -0.016 A 
ATOM      7  C   UNK d   0       6.742  -3.392  -5.252  0.00  0.00    -0.023 A 
ATOM      8  C   UNK d   0       6.019  -4.515  -5.492  0.00  0.00     0.041 A 
ATOM      9  C   UNK d   0       4.759  -4.676  -4.872  0.00  0.00     0.341 A 
ATOM     10  O   UNK d   0       4.116  -5.687  -5.093  0.00  0.00    -0.245 OA
ATOM     11  O   UNK d   0       4.252  -3.748  -4.049  0.00  0.00    -0.422 OA
ATOM     12  C   UNK d   0       6.772  -5.422  -6.442  0.00  0.00    -0.020 C 
ATOM     13  C   UNK d   0       7.846  -4.523  -7.091  0.00  0.00    -0.045 C 
ATOM     14  C   UNK d   0       8.047  -3.433  -6.016  0.00  0.00    -0.026 C 
ATOM     15  H   UNK d   0       3.417  -1.825  -2.465  0.00  0.00     0.066 H 
ATOM     16  H   UNK d   0       6.860   0.641  -2.980  0.00  0.00     0.066 H 
ATOM     17  H   UNK d   0       7.242  -6.238  -5.893  0.00  0.00     0.032 H 
ATOM     18  H   UNK d   0       6.097  -5.815  -7.203  0.00  0.00     0.032 H 
ATOM     19  H   UNK d   0       8.769  -5.078  -7.259  0.00  0.00     0.027 H 
ATOM     20  H   UNK d   0       7.479  -4.089  -8.022  0.00  0.00     0.027 H 
ATOM     21  H   UNK d   0       8.241  -2.469  -6.485  0.00  0.00     0.031 H 
ATOM     22  H   UNK d   0       8.866  -3.704  -5.350  0.00  0.00     0.031 H 
ENDROOT
BRANCH   5  23
ATOM     23  O   UNK d   0       8.102  -0.977  -4.618  0.00  0.00    -0.482 OA
BRANCH  23  24
ATOM     24  C   UNK d   0       8.292   0.276  -5.278  0.00  0.00     0.165 C 
ATOM     25  H   UNK d   0       7.785   1.062  -4.718  0.00  0.00     0.080 H 
ATOM     26  H   UNK d   0       9.357   0.500  -5.335  0.00  0.00     0.080 H 
BRANCH  24  27
ATOM     27  C   UNK d   0       7.717   0.202  -6.669  0.00  0.00     0.251 C 
ATOM     28  O   UNK d   0       8.311  -0.399  -7.540  0.00  0.00    -0.272 OA
ATOM     29  N   UNK d   1       6.544   0.805  -6.947  0.00  0.00    -0.304 N 
ATOM     30  H   UNK d   1       6.070   1.286  -6.251  0.00  0.00     0.149 HD
BRANCH  29  31
ATOM     31  C   UNK d   1       5.986   0.734  -8.300  0.00  0.00     0.072 C 
ATOM     32  H   UNK d   1       6.450  -0.090  -8.842  0.00  0.00     0.057 H 
BRANCH  31  33
ATOM     33  C   UNK d   1       4.476   0.503  -8.217  0.00  0.00     0.017 C 
ATOM     34  H   UNK d   1       3.975   1.448  -8.012  0.00  0.00     0.040 H 
ATOM     35  H   UNK d   1       4.117   0.100  -9.164  0.00  0.00     0.040 H 
BRANCH  33  36
ATOM     36  S   UNK d   1       4.117  -0.675  -6.884  0.00  0.00    -0.162 SA
BRANCH  36  37
ATOM     37  C   UNK d   1       2.951   0.213  -5.816  0.00  0.00    -0.018 C 
ATOM     38  H   UNK d   1       2.694  -0.411  -4.960  0.00  0.00     0.034 H 
ATOM     39  H   UNK d   1       3.411   1.138  -5.466  0.00  0.00     0.034 H 
ATOM     40  H   UNK d   1       2.048   0.447  -6.379  0.00  0.00     0.034 H 
ENDBRANCH  36  37
ENDBRANCH  33  36
ENDBRANCH  31  33
BRANCH  31  41
ATOM     41  C   UNK d   1       6.257   2.027  -9.024  0.00  0.00     0.063 C 
ATOM     42  O   UNK d   1       5.345   2.775  -9.287  0.00  0.00    -0.548 OA
ATOM     43  O   UNK d   1       7.512   2.350  -9.376  0.00  0.00    -0.548 OA
ENDBRANCH  31  41
ENDBRANCH  29  31
ENDBRANCH  24  27
ENDBRANCH  23  24
ENDBRANCH   5  23
BRANCH   1  44
ATOM     44  C   UNK d   0       4.488   0.525  -1.709  0.00  0.00    -0.040 C 
ATOM     45  H   UNK d   0       5.148   1.391  -1.651  0.00  0.00     0.028 H 
ATOM     46  H   UNK d   0       3.514   0.836  -2.087  0.00  0.00     0.028 H 
ATOM     47  H   UNK d   0       4.370   0.091  -0.716  0.00  0.00     0.028 H 
ENDBRANCH   1  44
TORSDOF 9
ENDMDL
MODEL 2
REMARK VINA RESULT:      -6.0      4.928      6.945
REMARK  9 active torsions:
REMARK  status: ('A' for Active; 'I' for Inactive)
REMARK    1  A    between atoms: C_1  and  C_2 
REMARK    2  A    between atoms: C_6  and  O_8 
REMARK    3  A    between atoms: O_8  and  C_9 
REMARK    4  A    between atoms: C_9  and  C_10 
REMARK       I    between atoms: C_10  and  N_12 
REMARK    5  A    between atoms: N_12  and  C_14 
REMARK    6  A    between atoms: C_14  and  C_16 
REMARK    7  A    between atoms: C_14  and  C_19 
REMARK    8  A    between atoms: C_16  and  S_17 
REMARK    9  A    between atoms: S_17  and  C_18 
ROOT
ATOM      1  C   UNK d   0       9.370  -0.979  -5.494  0.00  0.00    -0.043 A 
ATOM      2  C   UNK d   0       8.377  -1.921  -5.316  0.00  0.00    -0.015 A 
ATOM      3  C   UNK d   0       7.233  -1.600  -4.599  0.00  0.00     0.143 A 
ATOM      4  C   UNK d   0       7.095  -0.310  -4.058  0.00  0.00     0.063 A 
ATOM      5  C   UNK d   0       8.111   0.641  -4.246  0.00  0.00     0.132 A 
ATOM      6  C   UNK d   0       9.242   0.294  -4.965  0.00  0.00    -0.016 A 
ATOM      7  C   UNK d   0       5.886   0.019  -3.302  0.00  0.00    -0.023 A 
ATOM      8  C   UNK d   0       4.937  -0.939  -3.154  0.00  0.00     0.041 A 
ATOM      9  C   UNK d   0       5.142  -2.215  -3.726  0.00  0.00     0.341 A 
ATOM     10  O   UNK d   0       4.286  -3.071  -3.589  0.00  0.00    -0.245 OA
ATOM     11  O   UNK d   0       6.253  -2.510  -4.416  0.00  0.00    -0.422 OA
ATOM     12  C   UNK d   0       3.776  -0.398  -2.348  0.00  0.00    -0.020 C 
ATOM     13  C   UNK d   0       4.322   0.869  -1.655  0.00  0.00    -0.045 C 
ATOM     14  C   UNK d   0       5.457   1.294  -2.611  0.00  0.00    -0.026 C 
ATOM     15  H   UNK d   0       8.491  -2.910  -5.734  0.00  0.00     0.066 H 
ATOM     16  H   UNK d   0      10.027   1.021  -5.114  0.00  0.00     0.066 H 
ATOM     17  H   UNK d   0       2.945  -0.141  -3.006  0.00  0.00     0.032 H 
ATOM     18  H   UNK d   0       3.458  -1.129  -1.604  0.00  0.00     0.032 H 
ATOM     19  H   UNK d   0       3.554   1.641  -1.595  0.00  0.00     0.027 H 
ATOM     20  H   UNK d   0       4.714   0.633  -0.666  0.00  0.00     0.027 H 
ATOM     21  H   UNK d   0       6.289   1.717  -2.048  0.00  0.00     0.031 H 
ATOM     22  H   UNK d   0       5.088   2.014  -3.341  0.00  0.00     0.031 H 
ENDROOT
BRANCH   5  23
ATOM     23  O   UNK d   0       7.985   1.888  -3.728  0.00  0.00    -0.482 OA
BRANCH  23  24
ATOM     24  C   UNK d   0       8.783   2.918  -4.316  0.00  0.00     0.165 C 
ATOM     25  H   UNK d   0       9.329   2.513  -5.168  0.00  0.00     0.080 H 
ATOM     26  H   UNK d   0       8.139   3.731  -4.650  0.00  0.00     0.080 H 
BRANCH  24  27
ATOM     27  C   UNK d   0       9.762   3.439  -3.295  0.00  0.00     0.251 C 
ATOM     28  O   UNK d   0      10.518   2.675  -2.734  0.00  0.00    -0.272 OA
ATOM     29  N   UNK d   1       9.795   4.755  -3.004  0.00  0.00    -0.304 N 
ATOM     30  H   UNK d   1       9.191   5.366  -3.453  0.00  0.00     0.149 HD
BRANCH  29  31
ATOM     31  C   UNK d   1      10.746   5.261  -2.011  0.00  0.00     0.072 C 
ATOM     32  H   UNK d   1      11.159   4.427  -1.444  0.00  0.00     0.057 H 
BRANCH  31  33
ATOM     33  C   UNK d   1      11.878   6.005  -2.722  0.00  0.00     0.017 C 
ATOM     34  H   UNK d   1      11.692   6.010  -3.795  0.00  0.00     0.040 H 
ATOM     35  H   UNK d   1      11.925   7.032  -2.357  0.00  0.00     0.040 H 
BRANCH  33  36
ATOM     36  S   UNK d   1      13.455   5.172  -2.384  0.00  0.00    -0.162 SA
BRANCH  36  37
ATOM     37  C   UNK d   1      13.932   5.785  -0.745  0.00  0.00    -0.018 C 
ATOM     38  H   UNK d   1      13.051   5.838  -0.106  0.00  0.00     0.034 H 
ATOM     39  H   UNK d   1      14.662   5.106  -0.302  0.00  0.00     0.034 H 
ATOM     40  H   UNK d   1      14.371   6.777  -0.843  0.00  0.00     0.034 H 
ENDBRANCH  36  37
ENDBRANCH  33  36
ENDBRANCH  31  33
BRANCH  31  41
ATOM     41  C   UNK d   1      10.038   6.204  -1.073  0.00  0.00     0.063 C 
ATOM     42  O   UNK d   1       9.173   6.936  -1.491  0.00  0.00    -0.548 OA
ATOM     43  O   UNK d   1      10.369   6.231   0.228  0.00  0.00    -0.548 OA
ENDBRANCH  31  41
ENDBRANCH  29  31
ENDBRANCH  24  27
ENDBRANCH  23  24
ENDBRANCH   5  23
BRANCH   1  44
ATOM     44  C   UNK d   0      10.608  -1.340  -6.274  0.00  0.00    -0.040 C 
ATOM     45  H   UNK d   0      10.534  -0.931  -7.283  0.00  0.00     0.028 H 
ATOM     46  H   UNK d   0      11.484  -0.925  -5.777  0.00  0.00     0.028 H 
ATOM     47  H   UNK d   0      10.700  -2.425  -6.328  0.00  0.00     0.028 H 
ENDBRANCH   1  44
TORSDOF 9
ENDMDL
MODEL 3
REMARK VINA RESULT:      -5.9      2.384      4.214
REMARK  9 active torsions:
REMARK  status: ('A' for Active; 'I' for Inactive)
REMARK    1  A    between atoms: C_1  and  C_2 
REMARK    2  A    between atoms: C_6  and  O_8 
REMARK    3  A    between atoms: O_8  and  C_9 
REMARK    4  A    between atoms: C_9  and  C_10 
REMARK       I    between atoms: C_10  and  N_12 
REMARK    5  A    between atoms: N_12  and  C_14 
REMARK    6  A    between atoms: C_14  and  C_16 
REMARK    7  A    between atoms: C_14  and  C_19 
REMARK    8  A    between atoms: C_16  and  S_17 
REMARK    9  A    between atoms: S_17  and  C_18 
ROOT
ATOM      1  C   UNK d   0       8.907   1.698  -4.757  0.00  0.00    -0.043 A 
ATOM      2  C   UNK d   0       7.895   2.105  -3.910  0.00  0.00    -0.015 A 
ATOM      3  C   UNK d   0       6.925   1.202  -3.499  0.00  0.00     0.143 A 
ATOM      4  C   UNK d   0       6.983  -0.128  -3.951  0.00  0.00     0.063 A 
ATOM      5  C   UNK d   0       8.018  -0.532  -4.810  0.00  0.00     0.132 A 
ATOM      6  C   UNK d   0       8.972   0.390  -5.206  0.00  0.00    -0.016 A 
ATOM      7  C   UNK d   0       5.955  -1.074  -3.513  0.00  0.00    -0.023 A 
ATOM      8  C   UNK d   0       4.981  -0.628  -2.680  0.00  0.00     0.041 A 
ATOM      9  C   UNK d   0       4.986   0.723  -2.265  0.00  0.00     0.341 A 
ATOM     10  O   UNK d   0       4.108   1.116  -1.518  0.00  0.00    -0.245 OA
ATOM     11  O   UNK d   0       5.929   1.584  -2.672  0.00  0.00    -0.422 OA
ATOM     12  C   UNK d   0       4.028  -1.755  -2.349  0.00  0.00    -0.020 C 
ATOM     13  C   UNK d   0       4.290  -2.834  -3.422  0.00  0.00    -0.045 C 
ATOM     14  C   UNK d   0       5.752  -2.540  -3.823  0.00  0.00    -0.026 C 
ATOM     15  H   UNK d   0       7.857   3.129  -3.568  0.00  0.00     0.066 H 
ATOM     16  H   UNK d   0       9.771   0.087  -5.867  0.00  0.00     0.066 H 
ATOM     17  H   UNK d   0       4.239  -2.151  -1.355  0.00  0.00     0.032 H 
ATOM     18  H   UNK d   0       2.996  -1.407  -2.406  0.00  0.00     0.032 H 
ATOM     19  H   UNK d   0       4.196  -3.834  -2.999  0.00  0.00     0.027 H 
ATOM     20  H   UNK d   0       3.620  -2.707  -4.272  0.00  0.00     0.027 H 
ATOM     21  H   UNK d   0       5.898  -2.725  -4.887  0.00  0.00     0.031 H 
ATOM     22  H   UNK d   0       6.436  -3.150  -3.233  0.00  0.00     0.031 H 
ENDROOT
BRANCH   5  23
ATOM     23  O   UNK d   0       8.081  -1.814  -5.250  0.00  0.00    -0.482 OA
BRANCH  23  24
ATOM     24  C   UNK d   0       8.386  -2.011  -6.632  0.00  0.00     0.165 C 
ATOM     25  H   UNK d   0       9.334  -1.528  -6.868  0.00  0.00     0.080 H 
ATOM     26  H   UNK d   0       8.461  -3.078  -6.839  0.00  0.00     0.080 H 
BRANCH  24  27
ATOM     27  C   UNK d   0       7.293  -1.410  -7.478  0.00  0.00     0.251 C 
ATOM     28  O   UNK d   0       7.572  -0.644  -8.376  0.00  0.00    -0.272 OA
ATOM     29  N   UNK d   1       6.004  -1.722  -7.235  0.00  0.00    -0.304 N 
ATOM     30  H   UNK d   1       5.781  -2.335  -6.517  0.00  0.00     0.149 HD
BRANCH  29  31
ATOM     31  C   UNK d   1       4.942  -1.137  -8.057  0.00  0.00     0.072 C 
ATOM     32  H   UNK d   1       5.344  -0.865  -9.033  0.00  0.00     0.057 H 
BRANCH  31  33
ATOM     33  C   UNK d   1       3.816  -2.158  -8.236  0.00  0.00     0.017 C 
ATOM     34  H   UNK d   1       4.209  -3.163  -8.088  0.00  0.00     0.040 H 
ATOM     35  H   UNK d   1       3.030  -1.965  -7.505  0.00  0.00     0.040 H 
BRANCH  33  36
ATOM     36  S   UNK d   1       3.132  -2.016  -9.911  0.00  0.00    -0.162 SA
BRANCH  36  37
ATOM     37  C   UNK d   1       1.659  -0.979  -9.697  0.00  0.00    -0.018 C 
ATOM     38  H   UNK d   1       1.548  -0.322 -10.560  0.00  0.00     0.034 H 
ATOM     39  H   UNK d   1       0.777  -1.615  -9.609  0.00  0.00     0.034 H 
ATOM     40  H   UNK d   1       1.766  -0.379  -8.794  0.00  0.00     0.034 H 
ENDBRANCH  36  37
ENDBRANCH  33  36
ENDBRANCH  31  33
BRANCH  31  41
ATOM     41  C   UNK d   1       4.400   0.092  -7.376  0.00  0.00     0.063 C 
ATOM     42  O   UNK d   1       4.185   0.080  -6.187  0.00  0.00    -0.548 OA
ATOM     43  O   UNK d   1       4.156   1.203  -8.091  0.00  0.00    -0.548 OA
ENDBRANCH  31  41
ENDBRANCH  29  31
ENDBRANCH  24  27
ENDBRANCH  23  24
ENDBRANCH   5  23
BRANCH   1  44
ATOM     44  C   UNK d   0       9.954   2.689  -5.196  0.00  0.00    -0.040 C 
ATOM     45  H   UNK d   0       9.816   2.918  -6.254  0.00  0.00     0.028 H 
ATOM     46  H   UNK d   0       9.856   3.603  -4.611  0.00  0.00     0.028 H 
ATOM     47  H   UNK d   0      10.945   2.263  -5.043  0.00  0.00     0.028 H 
ENDBRANCH   1  44
TORSDOF 9
ENDMDL
MODEL 4
REMARK VINA RESULT:      -5.9      2.632      5.229
REMARK  9 active torsions:
REMARK  status: ('A' for Active; 'I' for Inactive)
REMARK    1  A    between atoms: C_1  and  C_2 
REMARK    2  A    between atoms: C_6  and  O_8 
REMARK    3  A    between atoms: O_8  and  C_9 
REMARK    4  A    between atoms: C_9  and  C_10 
REMARK       I    between atoms: C_10  and  N_12 
REMARK    5  A    between atoms: N_12  and  C_14 
REMARK    6  A    between atoms: C_14  and  C_16 
REMARK    7  A    between atoms: C_14  and  C_19 
REMARK    8  A    between atoms: C_16  and  S_17 
REMARK    9  A    between atoms: S_17  and  C_18 
ROOT
ATOM      1  C   UNK d   0       8.896   1.417  -4.914  0.00  0.00    -0.043 A 
ATOM      2  C   UNK d   0       7.941   1.915  -4.051  0.00  0.00    -0.015 A 
ATOM      3  C   UNK d   0       6.943   1.085  -3.562  0.00  0.00     0.143 A 
ATOM      4  C   UNK d   0       6.913  -0.265  -3.953  0.00  0.00     0.063 A 
ATOM      5  C   UNK d   0       7.890  -0.762  -4.831  0.00  0.00     0.132 A 
ATOM      6  C   UNK d   0       8.875   0.089  -5.304  0.00  0.00    -0.016 A 
ATOM      7  C   UNK d   0       5.856  -1.134  -3.434  0.00  0.00    -0.023 A 
ATOM      8  C   UNK d   0       4.940  -0.599  -2.586  0.00  0.00     0.041 A 
ATOM      9  C   UNK d   0       5.032   0.767  -2.235  0.00  0.00     0.341 A 
ATOM     10  O   UNK d   0       4.206   1.239  -1.475  0.00  0.00    -0.245 OA
ATOM     11  O   UNK d   0       6.002   1.557  -2.717  0.00  0.00    -0.422 OA
ATOM     12  C   UNK d   0       3.943  -1.658  -2.168  0.00  0.00    -0.020 C 
ATOM     13  C   UNK d   0       4.105  -2.795  -3.199  0.00  0.00    -0.045 C 
ATOM     14  C   UNK d   0       5.564  -2.599  -3.667  0.00  0.00    -0.026 C 
ATOM     15  H   UNK d   0       7.970   2.954  -3.756  0.00  0.00     0.066 H 
ATOM     16  H   UNK d   0       9.629  -0.287  -5.980  0.00  0.00     0.066 H 
ATOM     17  H   UNK d   0       4.173  -2.019  -1.165  0.00  0.00     0.032 H 
ATOM     18  H   UNK d   0       2.929  -1.257  -2.203  0.00  0.00     0.032 H 
ATOM     19  H   UNK d   0       3.976  -3.770  -2.727  0.00  0.00     0.027 H 
ATOM     20  H   UNK d   0       3.410  -2.670  -4.028  0.00  0.00     0.027 H 
ATOM     21  H   UNK d   0       5.657  -2.839  -4.726  0.00  0.00     0.031 H 
ATOM     22  H   UNK d   0       6.238  -3.218  -3.076  0.00  0.00     0.031 H 
ENDROOT
BRANCH   5  23
ATOM     23  O   UNK d   0       7.869  -2.064  -5.213  0.00  0.00    -0.482 OA
BRANCH  23  24
ATOM     24  C   UNK d   0       7.771  -2.327  -6.614  0.00  0.00     0.165 C 
ATOM     25  H   UNK d   0       8.228  -1.509  -7.170  0.00  0.00     0.080 H 
ATOM     26  H   UNK d   0       8.289  -3.258  -6.846  0.00  0.00     0.080 H 
BRANCH  24  27
ATOM     27  C   UNK d   0       6.319  -2.449  -7.001  0.00  0.00     0.251 C 
ATOM     28  O   UNK d   0       5.653  -1.451  -7.178  0.00  0.00    -0.272 OA
ATOM     29  N   UNK d   1       5.762  -3.667  -7.151  0.00  0.00    -0.304 N 
ATOM     30  H   UNK d   1       6.295  -4.465  -7.010  0.00  0.00     0.149 HD
BRANCH  29  31
ATOM     31  C   UNK d   1       4.351  -3.785  -7.527  0.00  0.00     0.072 C 
ATOM     32  H   UNK d   1       3.794  -2.940  -7.122  0.00  0.00     0.057 H 
BRANCH  31  33
ATOM     33  C   UNK d   1       4.228  -3.792  -9.052  0.00  0.00     0.017 C 
ATOM     34  H   UNK d   1       5.174  -3.480  -9.494  0.00  0.00     0.040 H 
ATOM     35  H   UNK d   1       3.983  -4.799  -9.392  0.00  0.00     0.040 H 
BRANCH  33  36
ATOM     36  S   UNK d   1       2.915  -2.647  -9.559  0.00  0.00    -0.162 SA
BRANCH  36  37
ATOM     37  C   UNK d   1       3.813  -1.208 -10.203  0.00  0.00    -0.018 C 
ATOM     38  H   UNK d   1       4.867  -1.458 -10.317  0.00  0.00     0.034 H 
ATOM     39  H   UNK d   1       3.400  -0.927 -11.172  0.00  0.00     0.034 H 
ATOM     40  H   UNK d   1       3.709  -0.375  -9.508  0.00  0.00     0.034 H 
ENDBRANCH  36  37
ENDBRANCH  33  36
ENDBRANCH  31  33
BRANCH  31  41
ATOM     41  C   UNK d   1       3.789  -5.068  -6.972  0.00  0.00     0.063 C 
ATOM     42  O   UNK d   1       3.664  -5.207  -5.779  0.00  0.00    -0.548 OA
ATOM     43  O   UNK d   1       3.426  -6.057  -7.805  0.00  0.00    -0.548 OA
ENDBRANCH  31  41
ENDBRANCH  29  31
ENDBRANCH  24  27
ENDBRANCH  23  24
ENDBRANCH   5  23
BRANCH   1  44
ATOM     44  C   UNK d   0       9.975   2.329  -5.439  0.00  0.00    -0.040 C 
ATOM     45  H   UNK d   0      10.665   2.578  -4.632  0.00  0.00     0.028 H 
ATOM     46  H   UNK d   0      10.518   1.827  -6.239  0.00  0.00     0.028 H 
ATOM     47  H   UNK d   0       9.522   3.243  -5.824  0.00  0.00     0.028 H 
ENDBRANCH   1  44
TORSDOF 9
ENDMDL
MODEL 5
REMARK VINA RESULT:      -5.6      3.538      7.482
REMARK  9 active torsions:
REMARK  status: ('A' for Active; 'I' for Inactive)
REMARK    1  A    between atoms: C_1  and  C_2 
REMARK    2  A    between atoms: C_6  and  O_8 
REMARK    3  A    between atoms: O_8  and  C_9 
REMARK    4  A    between atoms: C_9  and  C_10 
REMARK       I    between atoms: C_10  and  N_12 
REMARK    5  A    between atoms: N_12  and  C_14 
REMARK    6  A    between atoms: C_14  and  C_16 
REMARK    7  A    between atoms: C_14  and  C_19 
REMARK    8  A    between atoms: C_16  and  S_17 
REMARK    9  A    between atoms: S_17  and  C_18 
ROOT
ATOM      1  C   UNK d   0       3.566  -1.186  -8.387  0.00  0.00    -0.043 A 
ATOM      2  C   UNK d   0       3.209  -0.068  -7.659  0.00  0.00    -0.015 A 
ATOM      3  C   UNK d   0       3.425  -0.031  -6.289  0.00  0.00     0.143 A 
ATOM      4  C   UNK d   0       4.010  -1.139  -5.651  0.00  0.00     0.063 A 
ATOM      5  C   UNK d   0       4.370  -2.270  -6.401  0.00  0.00     0.132 A 
ATOM      6  C   UNK d   0       4.142  -2.281  -7.766  0.00  0.00    -0.016 A 
ATOM      7  C   UNK d   0       4.233  -1.091  -4.205  0.00  0.00    -0.023 A 
ATOM      8  C   UNK d   0       3.867   0.029  -3.532  0.00  0.00     0.041 A 
ATOM      9  C   UNK d   0       3.285   1.106  -4.240  0.00  0.00     0.341 A 
ATOM     10  O   UNK d   0       2.959   2.108  -3.629  0.00  0.00    -0.245 OA
ATOM     11  O   UNK d   0       3.082   1.055  -5.564  0.00  0.00    -0.422 OA
ATOM     12  C   UNK d   0       4.183  -0.124  -2.061  0.00  0.00    -0.020 C 
ATOM     13  C   UNK d   0       4.389  -1.640  -1.848  0.00  0.00    -0.045 C 
ATOM     14  C   UNK d   0       4.828  -2.105  -3.254  0.00  0.00    -0.026 C 
ATOM     15  H   UNK d   0       2.760   0.778  -8.157  0.00  0.00     0.066 H 
ATOM     16  H   UNK d   0       4.417  -3.148  -8.350  0.00  0.00     0.066 H 
ATOM     17  H   UNK d   0       5.094   0.420  -1.810  0.00  0.00     0.032 H 
ATOM     18  H   UNK d   0       3.349   0.233  -1.455  0.00  0.00     0.032 H 
ATOM     19  H   UNK d   0       5.172  -1.827  -1.114  0.00  0.00     0.027 H 
ATOM     20  H   UNK d   0       3.456  -2.121  -1.553  0.00  0.00     0.027 H 
ATOM     21  H   UNK d   0       4.433  -3.098  -3.465  0.00  0.00     0.031 H 
ATOM     22  H   UNK d   0       5.915  -2.103  -3.331  0.00  0.00     0.031 H 
ENDROOT
BRANCH   5  23
ATOM     23  O   UNK d   0       4.935  -3.343  -5.792  0.00  0.00    -0.482 OA
BRANCH  23  24
ATOM     24  C   UNK d   0       5.474  -4.360  -6.640  0.00  0.00     0.165 C 
ATOM     25  H   UNK d   0       5.373  -4.055  -7.682  0.00  0.00     0.080 H 
ATOM     26  H   UNK d   0       6.528  -4.508  -6.405  0.00  0.00     0.080 H 
BRANCH  24  27
ATOM     27  C   UNK d   0       4.722  -5.647  -6.419  0.00  0.00     0.251 C 
ATOM     28  O   UNK d   0       3.566  -5.620  -6.054  0.00  0.00    -0.272 OA
ATOM     29  N   UNK d   1       5.336  -6.829  -6.627  0.00  0.00    -0.304 N 
ATOM     30  H   UNK d   1       6.261  -6.851  -6.919  0.00  0.00     0.149 HD
BRANCH  29  31
ATOM     31  C   UNK d   1       4.606  -8.081  -6.411  0.00  0.00     0.072 C 
ATOM     32  H   UNK d   1       3.534  -7.892  -6.471  0.00  0.00     0.057 H 
BRANCH  31  33
ATOM     33  C   UNK d   1       5.006  -9.095  -7.485  0.00  0.00     0.017 C 
ATOM     34  H   UNK d   1       5.240 -10.049  -7.014  0.00  0.00     0.040 H 
ATOM     35  H   UNK d   1       4.180  -9.229  -8.184  0.00  0.00     0.040 H 
BRANCH  33  36
ATOM     36  S   UNK d   1       6.462  -8.487  -8.379  0.00  0.00    -0.162 SA
BRANCH  36  37
ATOM     37  C   UNK d   1       7.838  -9.437  -7.676  0.00  0.00    -0.018 C 
ATOM     38  H   UNK d   1       8.347  -8.836  -6.922  0.00  0.00     0.034 H 
ATOM     39  H   UNK d   1       7.453 -10.347  -7.215  0.00  0.00     0.034 H 
ATOM     40  H   UNK d   1       8.540  -9.699  -8.467  0.00  0.00     0.034 H 
ENDBRANCH  36  37
ENDBRANCH  33  36
ENDBRANCH  31  33
BRANCH  31  41
ATOM     41  C   UNK d   1       4.944  -8.632  -5.050  0.00  0.00     0.063 C 
ATOM     42  O   UNK d   1       6.085  -8.604  -4.653  0.00  0.00    -0.548 OA
ATOM     43  O   UNK d   1       3.977  -9.152  -4.278  0.00  0.00    -0.548 OA
ENDBRANCH  31  41
ENDBRANCH  29  31
ENDBRANCH  24  27
ENDBRANCH  23  24
ENDBRANCH   5  23
BRANCH   1  44
ATOM     44  C   UNK d   0       3.325  -1.215  -9.874  0.00  0.00    -0.040 C 
ATOM     45  H   UNK d   0       3.881  -0.405 -10.348  0.00  0.00     0.028 H 
ATOM     46  H   UNK d   0       3.660  -2.170 -10.278  0.00  0.00     0.028 H 
ATOM     47  H   UNK d   0       2.260  -1.089 -10.073  0.00  0.00     0.028 H 
ENDBRANCH   1  44
TORSDOF 9
ENDMDL
MODEL 6
REMARK VINA RESULT:      -5.5     10.085     12.380
REMARK  9 active torsions:
REMARK  status: ('A' for Active; 'I' for Inactive)
REMARK    1  A    between atoms: C_1  and  C_2 
REMARK    2  A    between atoms: C_6  and  O_8 
REMARK    3  A    between atoms: O_8  and  C_9 
REMARK    4  A    between atoms: C_9  and  C_10 
REMARK       I    between atoms: C_10  and  N_12 
REMARK    5  A    between atoms: N_12  and  C_14 
REMARK    6  A    between atoms: C_14  and  C_16 
REMARK    7  A    between atoms: C_14  and  C_19 
REMARK    8  A    between atoms: C_16  and  S_17 
REMARK    9  A    between atoms: S_17  and  C_18 
ROOT
ATOM      1  C   UNK d   0       9.762   5.192  -3.625  0.00  0.00    -0.043 A 
ATOM      2  C   UNK d   0      10.112   4.868  -2.328  0.00  0.00    -0.015 A 
ATOM      3  C   UNK d   0      10.411   5.870  -1.417  0.00  0.00     0.143 A 
ATOM      4  C   UNK d   0      10.354   7.215  -1.824  0.00  0.00     0.063 A 
ATOM      5  C   UNK d   0       9.997   7.533  -3.143  0.00  0.00     0.132 A 
ATOM      6  C   UNK d   0       9.704   6.513  -4.033  0.00  0.00    -0.016 A 
ATOM      7  C   UNK d   0      10.672   8.265  -0.855  0.00  0.00    -0.023 A 
ATOM      8  C   UNK d   0      11.009   7.898   0.407  0.00  0.00     0.041 A 
ATOM      9  C   UNK d   0      11.044   6.527   0.747  0.00  0.00     0.341 A 
ATOM     10  O   UNK d   0      11.347   6.205   1.882  0.00  0.00    -0.245 OA
ATOM     11  O   UNK d   0      10.753   5.570  -0.146  0.00  0.00    -0.422 OA
ATOM     12  C   UNK d   0      11.296   9.126   1.244  0.00  0.00    -0.020 C 
ATOM     13  C   UNK d   0      11.514  10.266   0.226  0.00  0.00    -0.045 C 
ATOM     14  C   UNK d   0      10.701   9.771  -0.990  0.00  0.00    -0.026 C 
ATOM     15  H   UNK d   0      10.154   3.833  -2.024  0.00  0.00     0.066 H 
ATOM     16  H   UNK d   0       9.428   6.751  -5.050  0.00  0.00     0.066 H 
ATOM     17  H   UNK d   0      10.446   9.352   1.889  0.00  0.00     0.032 H 
ATOM     18  H   UNK d   0      12.195   8.975   1.842  0.00  0.00     0.032 H 
ATOM     19  H   UNK d   0      11.115  11.207   0.603  0.00  0.00     0.027 H 
ATOM     20  H   UNK d   0      12.570  10.365  -0.026  0.00  0.00     0.027 H 
ATOM     21  H   UNK d   0      11.195  10.058  -1.918  0.00  0.00     0.031 H 
ATOM     22  H   UNK d   0       9.689  10.173  -0.958  0.00  0.00     0.031 H 
ENDROOT
BRANCH   5  23
ATOM     23  O   UNK d   0       9.939   8.828  -3.544  0.00  0.00    -0.482 OA
BRANCH  23  24
ATOM     24  C   UNK d   0       9.726   9.067  -4.936  0.00  0.00     0.165 C 
ATOM     25  H   UNK d   0      10.586   8.711  -5.502  0.00  0.00     0.080 H 
ATOM     26  H   UNK d   0       8.831   8.537  -5.263  0.00  0.00     0.080 H 
BRANCH  24  27
ATOM     27  C   UNK d   0       9.548  10.545  -5.170  0.00  0.00     0.251 C 
ATOM     28  O   UNK d   0       8.749  11.173  -4.508  0.00  0.00    -0.272 OA
ATOM     29  N   UNK d   1      10.278  11.170  -6.116  0.00  0.00    -0.304 N 
ATOM     30  H   UNK d   1      10.917  10.669  -6.646  0.00  0.00     0.149 HD
BRANCH  29  31
ATOM     31  C   UNK d   1      10.105  12.607  -6.344  0.00  0.00     0.072 C 
ATOM     32  H   UNK d   1       9.218  12.955  -5.814  0.00  0.00     0.057 H 
BRANCH  31  33
ATOM     33  C   UNK d   1      11.334  13.357  -5.828  0.00  0.00     0.017 C 
ATOM     34  H   UNK d   1      12.104  12.640  -5.544  0.00  0.00     0.040 H 
ATOM     35  H   UNK d   1      11.718  14.010  -6.613  0.00  0.00     0.040 H 
BRANCH  33  36
ATOM     36  S   UNK d   1      10.873  14.355  -4.385  0.00  0.00    -0.162 SA
BRANCH  36  37
ATOM     37  C   UNK d   1       9.135  14.780  -4.683  0.00  0.00    -0.018 C 
ATOM     38  H   UNK d   1       8.705  14.076  -5.395  0.00  0.00     0.034 H 
ATOM     39  H   UNK d   1       8.583  14.730  -3.744  0.00  0.00     0.034 H 
ATOM     40  H   UNK d   1       9.073  15.790  -5.088  0.00  0.00     0.034 H 
ENDBRANCH  36  37
ENDBRANCH  33  36
ENDBRANCH  31  33
BRANCH  31  41
ATOM     41  C   UNK d   1       9.942  12.866  -7.819  0.00  0.00     0.063 C 
ATOM     42  O   UNK d   1       9.015  13.531  -8.218  0.00  0.00    -0.548 OA
ATOM     43  O   UNK d   1      10.827  12.358  -8.691  0.00  0.00    -0.548 OA
ENDBRANCH  31  41
ENDBRANCH  29  31
ENDBRANCH  24  27
ENDBRANCH  23  24
ENDBRANCH   5  23
BRANCH   1  44
ATOM     44  C   UNK d   0       9.441   4.094  -4.605  0.00  0.00    -0.040 C 
ATOM     45  H   UNK d   0       8.359   4.009  -4.714  0.00  0.00     0.028 H 
ATOM     46  H   UNK d   0       9.886   4.330  -5.572  0.00  0.00     0.028 H 
ATOM     47  H   UNK d   0       9.845   3.150  -4.240  0.00  0.00     0.028 H 
ENDBRANCH   1  44
TORSDOF 9
ENDMDL
MODEL 7
REMARK VINA RESULT:      -5.5      5.082      8.617
REMARK  9 active torsions:
REMARK  status: ('A' for Active; 'I' for Inactive)
REMARK    1  A    between atoms: C_1  and  C_2 
REMARK    2  A    between atoms: C_6  and  O_8 
REMARK    3  A    between atoms: O_8  and  C_9 
REMARK    4  A    between atoms: C_9  and  C_10 
REMARK       I    between atoms: C_10  and  N_12 
REMARK    5  A    between atoms: N_12  and  C_14 
REMARK    6  A    between atoms: C_14  and  C_16 
REMARK    7  A    between atoms: C_14  and  C_19 
REMARK    8  A    between atoms: C_16  and  S_17 
REMARK    9  A    between atoms: S_17  and  C_18 
ROOT
ATOM      1  C   UNK d   0       9.911   6.256  -2.805  0.00  0.00    -0.043 A 
ATOM      2  C   UNK d   0       9.922   7.342  -3.657  0.00  0.00    -0.015 A 
ATOM      3  C   UNK d   0       9.832   7.152  -5.029  0.00  0.00     0.143 A 
ATOM      4  C   UNK d   0       9.728   5.847  -5.540  0.00  0.00     0.063 A 
ATOM      5  C   UNK d   0       9.717   4.750  -4.665  0.00  0.00     0.132 A 
ATOM      6  C   UNK d   0       9.809   4.967  -3.301  0.00  0.00    -0.016 A 
ATOM      7  C   UNK d   0       9.635   5.655  -6.989  0.00  0.00    -0.023 A 
ATOM      8  C   UNK d   0       9.649   6.753  -7.787  0.00  0.00     0.041 A 
ATOM      9  C   UNK d   0       9.754   8.036  -7.202  0.00  0.00     0.341 A 
ATOM     10  O   UNK d   0       9.766   9.017  -7.925  0.00  0.00    -0.245 OA
ATOM     11  O   UNK d   0       9.841   8.204  -5.875  0.00  0.00    -0.422 OA
ATOM     12  C   UNK d   0       9.541   6.340  -9.238  0.00  0.00    -0.020 C 
ATOM     13  C   UNK d   0       9.894   4.836  -9.256  0.00  0.00    -0.045 C 
ATOM     14  C   UNK d   0       9.518   4.401  -7.824  0.00  0.00    -0.026 C 
ATOM     15  H   UNK d   0      10.003   8.342  -3.256  0.00  0.00     0.066 H 
ATOM     16  H   UNK d   0       9.800   4.128  -2.621  0.00  0.00     0.066 H 
ATOM     17  H   UNK d   0       8.525   6.494  -9.602  0.00  0.00     0.032 H 
ATOM     18  H   UNK d   0      10.250   6.903  -9.846  0.00  0.00     0.032 H 
ATOM     19  H   UNK d   0       9.294   4.305  -9.995  0.00  0.00     0.027 H 
ATOM     20  H   UNK d   0      10.958   4.690  -9.441  0.00  0.00     0.027 H 
ATOM     21  H   UNK d   0      10.211   3.641  -7.464  0.00  0.00     0.031 H 
ATOM     22  H   UNK d   0       8.495   4.024  -7.799  0.00  0.00     0.031 H 
ENDROOT
BRANCH   5  23
ATOM     23  O   UNK d   0       9.616   3.487  -5.151  0.00  0.00    -0.482 OA
BRANCH  23  24
ATOM     24  C   UNK d   0       9.419   2.439  -4.199  0.00  0.00     0.165 C 
ATOM     25  H   UNK d   0      10.206   1.694  -4.310  0.00  0.00     0.080 H 
ATOM     26  H   UNK d   0       9.451   2.853  -3.191  0.00  0.00     0.080 H 
BRANCH  24  27
ATOM     27  C   UNK d   0       8.079   1.792  -4.435  0.00  0.00     0.251 C 
ATOM     28  O   UNK d   0       7.614   1.749  -5.554  0.00  0.00    -0.272 OA
ATOM     29  N   UNK d   1       7.395   1.262  -3.401  0.00  0.00    -0.304 N 
ATOM     30  H   UNK d   1       7.766   1.297  -2.505  0.00  0.00     0.149 HD
BRANCH  29  31
ATOM     31  C   UNK d   1       6.091   0.634  -3.630  0.00  0.00     0.072 C 
ATOM     32  H   UNK d   1       5.820   0.733  -4.681  0.00  0.00     0.057 H 
BRANCH  31  33
ATOM     33  C   UNK d   1       6.169  -0.849  -3.261  0.00  0.00     0.017 C 
ATOM     34  H   UNK d   1       7.065  -1.286  -3.698  0.00  0.00     0.040 H 
ATOM     35  H   UNK d   1       6.207  -0.952  -2.175  0.00  0.00     0.040 H 
BRANCH  33  36
ATOM     36  S   UNK d   1       4.703  -1.708  -3.897  0.00  0.00    -0.162 SA
BRANCH  36  37
ATOM     37  C   UNK d   1       3.780  -2.166  -2.404  0.00  0.00    -0.018 C 
ATOM     38  H   UNK d   1       3.752  -1.319  -1.719  0.00  0.00     0.034 H 
ATOM     39  H   UNK d   1       2.762  -2.445  -2.678  0.00  0.00     0.034 H 
ATOM     40  H   UNK d   1       4.270  -3.010  -1.919  0.00  0.00     0.034 H 
ENDBRANCH  36  37
ENDBRANCH  33  36
ENDBRANCH  31  33
BRANCH  31  41
ATOM     41  C   UNK d   1       5.051   1.310  -2.776  0.00  0.00     0.063 C 
ATOM     42  O   UNK d   1       5.056   1.152  -1.578  0.00  0.00    -0.548 OA
ATOM     43  O   UNK d   1       4.118   2.089  -3.346  0.00  0.00    -0.548 OA
ENDBRANCH  31  41
ENDBRANCH  29  31
ENDBRANCH  24  27
ENDBRANCH  23  24
ENDBRANCH   5  23
BRANCH   1  44
ATOM     44  C   UNK d   0      10.010   6.476  -1.317  0.00  0.00    -0.040 C 
ATOM     45  H   UNK d   0       9.014   6.438  -0.876  0.00  0.00     0.028 H 
ATOM     46  H   UNK d   0      10.632   5.697  -0.876  0.00  0.00     0.028 H 
ATOM     47  H   UNK d   0      10.456   7.451  -1.123  0.00  0.00     0.028 H 
ENDBRANCH   1  44
TORSDOF 9
ENDMDL
MODEL 8
REMARK VINA RESULT:      -5.5      1.586      2.128
REMARK  9 active torsions:
REMARK  status: ('A' for Active; 'I' for Inactive)
REMARK    1  A    between atoms: C_1  and  C_2 
REMARK    2  A    between atoms: C_6  and  O_8 
REMARK    3  A    between atoms: O_8  and  C_9 
REMARK    4  A    between atoms: C_9  and  C_10 
REMARK       I    between atoms: C_10  and  N_12 
REMARK    5  A    between atoms: N_12  and  C_14 
REMARK    6  A    between atoms: C_14  and  C_16 
REMARK    7  A    between atoms: C_14  and  C_19 
REMARK    8  A    between atoms: C_16  and  S_17 
REMARK    9  A    between atoms: S_17  and  C_18 
ROOT
ATOM      1  C   UNK d   0       4.425   0.346  -2.738  0.00  0.00    -0.043 A 
ATOM      2  C   UNK d   0       3.877  -0.866  -3.108  0.00  0.00    -0.015 A 
ATOM      3  C   UNK d   0       4.663  -1.823  -3.735  0.00  0.00     0.143 A 
ATOM      4  C   UNK d   0       6.018  -1.547  -3.988  0.00  0.00     0.063 A 
ATOM      5  C   UNK d   0       6.565  -0.311  -3.606  0.00  0.00     0.132 A 
ATOM      6  C   UNK d   0       5.758   0.625  -2.983  0.00  0.00    -0.016 A 
ATOM      7  C   UNK d   0       6.839  -2.562  -4.651  0.00  0.00    -0.023 A 
ATOM      8  C   UNK d   0       6.257  -3.738  -4.995  0.00  0.00     0.041 A 
ATOM      9  C   UNK d   0       4.889  -3.947  -4.708  0.00  0.00     0.341 A 
ATOM     10  O   UNK d   0       4.373  -5.006  -5.021  0.00  0.00    -0.245 OA
ATOM     11  O   UNK d   0       4.142  -3.013  -4.103  0.00  0.00    -0.422 OA
ATOM     12  C   UNK d   0       7.271  -4.642  -5.661  0.00  0.00    -0.020 C 
ATOM     13  C   UNK d   0       8.433  -3.711  -6.071  0.00  0.00    -0.045 C 
ATOM     14  C   UNK d   0       8.296  -2.559  -5.052  0.00  0.00    -0.026 C 
ATOM     15  H   UNK d   0       2.835  -1.070  -2.911  0.00  0.00     0.066 H 
ATOM     16  H   UNK d   0       6.172   1.578  -2.686  0.00  0.00     0.066 H 
ATOM     17  H   UNK d   0       7.623  -5.399  -4.960  0.00  0.00     0.032 H 
ATOM     18  H   UNK d   0       6.836  -5.115  -6.542  0.00  0.00     0.032 H 
ATOM     19  H   UNK d   0       9.393  -4.216  -5.962  0.00  0.00     0.027 H 
ATOM     20  H   UNK d   0       8.299  -3.348  -7.090  0.00  0.00     0.027 H 
ATOM     21  H   UNK d   0       8.559  -1.609  -5.516  0.00  0.00     0.031 H 
ATOM     22  H   UNK d   0       8.928  -2.745  -4.183  0.00  0.00     0.031 H 
ENDROOT
BRANCH   5  23
ATOM     23  O   UNK d   0       7.872  -0.038  -3.846  0.00  0.00    -0.482 OA
BRANCH  23  24
ATOM     24  C   UNK d   0       8.174   1.240  -4.409  0.00  0.00     0.165 C 
ATOM     25  H   UNK d   0       7.426   1.965  -4.088  0.00  0.00     0.080 H 
ATOM     26  H   UNK d   0       9.159   1.562  -4.072  0.00  0.00     0.080 H 
BRANCH  24  27
ATOM     27  C   UNK d   0       8.164   1.141  -5.913  0.00  0.00     0.251 C 
ATOM     28  O   UNK d   0       9.194   1.282  -6.537  0.00  0.00    -0.272 OA
ATOM     29  N   UNK d   1       7.010   0.897  -6.564  0.00  0.00    -0.304 N 
ATOM     30  H   UNK d   1       6.186   0.783  -6.065  0.00  0.00     0.149 HD
BRANCH  29  31
ATOM     31  C   UNK d   1       7.000   0.801  -8.026  0.00  0.00     0.072 C 
ATOM     32  H   UNK d   1       7.906   1.255  -8.427  0.00  0.00     0.057 H 
BRANCH  31  33
ATOM     33  C   UNK d   1       6.940  -0.670  -8.441  0.00  0.00     0.017 C 
ATOM     34  H   UNK d   1       6.781  -1.290  -7.559  0.00  0.00     0.040 H 
ATOM     35  H   UNK d   1       6.117  -0.818  -9.141  0.00  0.00     0.040 H 
BRANCH  33  36
ATOM     36  S   UNK d   1       8.501  -1.138  -9.237  0.00  0.00    -0.162 SA
BRANCH  36  37
ATOM     37  C   UNK d   1       9.088   0.403  -9.992  0.00  0.00    -0.018 C 
ATOM     38  H   UNK d   1       8.845   1.243  -9.341  0.00  0.00     0.034 H 
ATOM     39  H   UNK d   1      10.169   0.351 -10.129  0.00  0.00     0.034 H 
ATOM     40  H   UNK d   1       8.605   0.540 -10.959  0.00  0.00     0.034 H 
ENDBRANCH  36  37
ENDBRANCH  33  36
ENDBRANCH  31  33
BRANCH  31  41
ATOM     41  C   UNK d   1       5.794   1.525  -8.569  0.00  0.00     0.063 C 
ATOM     42  O   UNK d   1       4.688   1.229  -8.184  0.00  0.00    -0.548 OA
ATOM     43  O   UNK d   1       5.950   2.499  -9.479  0.00  0.00    -0.548 OA
ENDBRANCH  31  41
ENDBRANCH  29  31
ENDBRANCH  24  27
ENDBRANCH  23  24
ENDBRANCH   5  23
BRANCH   1  44
ATOM     44  C   UNK d   0       3.561   1.377  -2.059  0.00  0.00    -0.040 C 
ATOM     45  H   UNK d   0       3.563   2.297  -2.645  0.00  0.00     0.028 H 
ATOM     46  H   UNK d   0       2.541   1.000  -1.979  0.00  0.00     0.028 H 
ATOM     47  H   UNK d   0       3.952   1.581  -1.062  0.00  0.00     0.028 H 
ENDBRANCH   1  44
TORSDOF 9
ENDMDL
MODEL 9
REMARK VINA RESULT:      -5.4      3.347      7.045
REMARK  9 active torsions:
REMARK  status: ('A' for Active; 'I' for Inactive)
REMARK    1  A    between atoms: C_1  and  C_2 
REMARK    2  A    between atoms: C_6  and  O_8 
REMARK    3  A    between atoms: O_8  and  C_9 
REMARK    4  A    between atoms: C_9  and  C_10 
REMARK       I    between atoms: C_10  and  N_12 
REMARK    5  A    between atoms: N_12  and  C_14 
REMARK    6  A    between atoms: C_14  and  C_16 
REMARK    7  A    between atoms: C_14  and  C_19 
REMARK    8  A    between atoms: C_16  and  S_17 
REMARK    9  A    between atoms: S_17  and  C_18 
ROOT
ATOM      1  C   UNK d   0       4.222  -1.150  -3.458  0.00  0.00    -0.043 A 
ATOM      2  C   UNK d   0       3.700  -0.091  -4.174  0.00  0.00    -0.015 A 
ATOM      3  C   UNK d   0       3.658  -0.140  -5.560  0.00  0.00     0.143 A 
ATOM      4  C   UNK d   0       4.150  -1.275  -6.227  0.00  0.00     0.063 A 
ATOM      5  C   UNK d   0       4.677  -2.347  -5.490  0.00  0.00     0.132 A 
ATOM      6  C   UNK d   0       4.708  -2.272  -4.108  0.00  0.00    -0.016 A 
ATOM      7  C   UNK d   0       4.102  -1.317  -7.690  0.00  0.00    -0.023 A 
ATOM      8  C   UNK d   0       3.579  -0.252  -8.349  0.00  0.00     0.041 A 
ATOM      9  C   UNK d   0       3.102   0.856  -7.612  0.00  0.00     0.341 A 
ATOM     10  O   UNK d   0       2.634   1.808  -8.211  0.00  0.00    -0.245 OA
ATOM     11  O   UNK d   0       3.150   0.888  -6.273  0.00  0.00    -0.422 OA
ATOM     12  C   UNK d   0       3.621  -0.496  -9.842  0.00  0.00    -0.020 C 
ATOM     13  C   UNK d   0       4.627  -1.652 -10.033  0.00  0.00    -0.045 C 
ATOM     14  C   UNK d   0       4.547  -2.376  -8.672  0.00  0.00    -0.026 C 
ATOM     15  H   UNK d   0       3.325   0.778  -3.653  0.00  0.00     0.066 H 
ATOM     16  H   UNK d   0       5.112  -3.093  -3.534  0.00  0.00     0.066 H 
ATOM     17  H   UNK d   0       2.636  -0.788 -10.206  0.00  0.00     0.032 H 
ATOM     18  H   UNK d   0       3.968   0.398 -10.361  0.00  0.00     0.032 H 
ATOM     19  H   UNK d   0       4.314  -2.310 -10.843  0.00  0.00     0.027 H 
ATOM     20  H   UNK d   0       5.632  -1.267 -10.211  0.00  0.00     0.027 H 
ATOM     21  H   UNK d   0       5.525  -2.765  -8.391  0.00  0.00     0.031 H 
ATOM     22  H   UNK d   0       3.815  -3.183  -8.715  0.00  0.00     0.031 H 
ENDROOT
BRANCH   5  23
ATOM     23  O   UNK d   0       5.153  -3.446  -6.127  0.00  0.00    -0.482 OA
BRANCH  23  24
ATOM     24  C   UNK d   0       5.596  -4.529  -5.307  0.00  0.00     0.165 C 
ATOM     25  H   UNK d   0       6.658  -4.705  -5.479  0.00  0.00     0.080 H 
ATOM     26  H   UNK d   0       5.434  -4.281  -4.258  0.00  0.00     0.080 H 
BRANCH  24  27
ATOM     27  C   UNK d   0       4.820  -5.773  -5.655  0.00  0.00     0.251 C 
ATOM     28  O   UNK d   0       3.651  -5.691  -5.968  0.00  0.00    -0.272 OA
ATOM     29  N   UNK d   1       5.425  -6.977  -5.618  0.00  0.00    -0.304 N 
ATOM     30  H   UNK d   1       6.360  -7.043  -5.367  0.00  0.00     0.149 HD
BRANCH  29  31
ATOM     31  C   UNK d   1       4.670  -8.187  -5.956  0.00  0.00     0.072 C 
ATOM     32  H   UNK d   1       3.617  -7.935  -6.081  0.00  0.00     0.057 H 
BRANCH  31  33
ATOM     33  C   UNK d   1       5.212  -8.778  -7.258  0.00  0.00     0.017 C 
ATOM     34  H   UNK d   1       6.219  -8.405  -7.436  0.00  0.00     0.040 H 
ATOM     35  H   UNK d   1       5.237  -9.866  -7.181  0.00  0.00     0.040 H 
BRANCH  33  36
ATOM     36  S   UNK d   1       4.135  -8.295  -8.636  0.00  0.00    -0.162 SA
BRANCH  36  37
ATOM     37  C   UNK d   1       4.943  -6.827  -9.331  0.00  0.00    -0.018 C 
ATOM     38  H   UNK d   1       4.972  -6.908 -10.418  0.00  0.00     0.034 H 
ATOM     39  H   UNK d   1       4.381  -5.936  -9.049  0.00  0.00     0.034 H 
ATOM     40  H   UNK d   1       5.959  -6.755  -8.945  0.00  0.00     0.034 H 
ENDBRANCH  36  37
ENDBRANCH  33  36
ENDBRANCH  31  33
BRANCH  31  41
ATOM     41  C   UNK d   1       4.816  -9.197  -4.847  0.00  0.00     0.063 C 
ATOM     42  O   UNK d   1       5.821  -9.217  -4.177  0.00  0.00    -0.548 OA
ATOM     43  O   UNK d   1       3.830 -10.074  -4.604  0.00  0.00    -0.548 OA
ENDBRANCH  31  41
ENDBRANCH  29  31
ENDBRANCH  24  27
ENDBRANCH  23  24
ENDBRANCH   5  23
BRANCH   1  44
ATOM     44  C   UNK d   0       4.263  -1.085  -1.954  0.00  0.00    -0.040 C 
ATOM     45  H   UNK d   0       5.230  -1.442  -1.600  0.00  0.00     0.028 H 
ATOM     46  H   UNK d   0       4.116  -0.054  -1.631  0.00  0.00     0.028 H 
ATOM     47  H   UNK d   0       3.471  -1.711  -1.541  0.00  0.00     0.028 H 
ENDBRANCH   1  44
TORSDOF 9
ENDMDL
