MODEL 1
REMARK VINA RESULT:      -6.0      0.000      0.000
REMARK  8 active torsions:
REMARK  status: ('A' for Active; 'I' for Inactive)
REMARK    1  A    between atoms: C_1  and  C_2 
REMARK    2  A    between atoms: C_2  and  C_3 
REMARK    3  A    between atoms: C_2  and  C_4 
REMARK    4  A    between atoms: C_4  and  C_5 
REMARK    5  A    between atoms: C_5  and  O_6 
REMARK    6  A    between atoms: O_6  and  C_7 
REMARK    7  A    between atoms: C_7  and  C_9 
REMARK    8  A    between atoms: C_14  and  O_15 
ROOT
ATOM      1  C   LIG d   1       3.318   0.239  -7.190  0.00  0.00     0.093 C 
ATOM      2  H   LIG d   1       4.400   0.123  -7.260  0.00  0.00     0.070 H 
ATOM      3  H   LIG d   1       2.854  -0.741  -7.077  0.00  0.00     0.070 H 
ENDROOT
BRANCH   1   4
ATOM      4  C   LIG d   1       2.793   0.908  -8.462  0.00  0.00    -0.016 C 
ATOM      5  H   LIG d   1       2.167   0.205  -9.010  0.00  0.00     0.030 H 
ATOM      6  H   LIG d   1       2.206   1.787  -8.195  0.00  0.00     0.030 H 
BRANCH   4   7
ATOM      7  C   LIG d   1       3.974   1.332  -9.339  0.00  0.00    -0.044 C 
ATOM      8  H   LIG d   1       4.877   0.821  -9.005  0.00  0.00     0.030 H 
BRANCH   7   9
ATOM      9  C   LIG d   1       3.686   0.961 -10.795  0.00  0.00    -0.063 C 
ATOM     10  H   LIG d   1       4.623   0.909 -11.349  0.00  0.00     0.023 H 
ATOM     11  H   LIG d   1       3.189  -0.008 -10.832  0.00  0.00     0.023 H 
ATOM     12  H   LIG d   1       3.041   1.718 -11.242  0.00  0.00     0.023 H 
ENDBRANCH   7   9
BRANCH   7  13
ATOM     13  C   LIG d   1       4.173   2.846  -9.229  0.00  0.00    -0.063 C 
ATOM     14  H   LIG d   1       5.015   3.053  -8.569  0.00  0.00     0.023 H 
ATOM     15  H   LIG d   1       4.375   3.258 -10.216  0.00  0.00     0.023 H 
ATOM     16  H   LIG d   1       3.271   3.302  -8.821  0.00  0.00     0.023 H 
ENDBRANCH   7  13
ENDBRANCH   4   7
ENDBRANCH   1   4
BRANCH   1  17
ATOM     17  O   LIG d   1       2.993   1.064  -6.040  0.00  0.00    -0.461 OA
BRANCH  17  18
ATOM     18  C   LIG d   1       2.445   0.443  -4.977  0.00  0.00     0.343 C 
ATOM     19  O   LIG d   1       1.292   0.063  -5.024  0.00  0.00    -0.245 OA
BRANCH  18  20
ATOM     20  C   LIG d   1       3.244   0.225  -3.758  0.00  0.00     0.100 A 
ATOM     21  C   LIG d   1       3.658  -1.067  -3.408  0.00  0.00     0.131 A 
ATOM     22  C   LIG d   1       4.404  -1.261  -2.255  0.00  0.00    -0.019 A 
ATOM     23  C   LIG d   1       4.746  -0.183  -1.463  0.00  0.00    -0.058 A 
ATOM     24  H   LIG d   1       4.722  -2.255  -1.979  0.00  0.00     0.065 H 
ATOM     25  C   LIG d   1       4.340   1.097  -1.806  0.00  0.00    -0.061 A 
ATOM     26  H   LIG d   1       5.331  -0.339  -0.568  0.00  0.00     0.062 H 
ATOM     27  C   LIG d   1       3.593   1.307  -2.945  0.00  0.00    -0.044 A 
ATOM     28  H   LIG d   1       4.609   1.933  -1.178  0.00  0.00     0.062 H 
ATOM     29  H   LIG d   1       3.278   2.306  -3.208  0.00  0.00     0.063 H 
BRANCH  21  30
ATOM     30  O   LIG d   1       3.326  -2.125  -4.189  0.00  0.00    -0.506 OA
ATOM     31  H   LIG d   1       3.756  -2.125  -5.056  0.00  0.00     0.292 HD
ENDBRANCH  21  30
ENDBRANCH  18  20
ENDBRANCH  17  18
ENDBRANCH   1  17
TORSDOF 8
ENDMDL
MODEL 2
REMARK VINA RESULT:      -5.9      0.956      1.982
REMARK  8 active torsions:
REMARK  status: ('A' for Active; 'I' for Inactive)
REMARK    1  A    between atoms: C_1  and  C_2 
REMARK    2  A    between atoms: C_2  and  C_3 
REMARK    3  A    between atoms: C_2  and  C_4 
REMARK    4  A    between atoms: C_4  and  C_5 
REMARK    5  A    between atoms: C_5  and  O_6 
REMARK    6  A    between atoms: O_6  and  C_7 
REMARK    7  A    between atoms: C_7  and  C_9 
REMARK    8  A    between atoms: C_14  and  O_15 
ROOT
ATOM      1  C   LIG d   1       3.078   0.014  -7.278  0.00  0.00     0.093 C 
ATOM      2  H   LIG d   1       3.316  -1.025  -7.051  0.00  0.00     0.070 H 
ATOM      3  H   LIG d   1       2.087   0.070  -7.729  0.00  0.00     0.070 H 
ENDROOT
BRANCH   1   4
ATOM      4  C   LIG d   1       4.115   0.575  -8.252  0.00  0.00    -0.016 C 
ATOM      5  H   LIG d   1       4.841   1.176  -7.705  0.00  0.00     0.030 H 
ATOM      6  H   LIG d   1       4.628  -0.248  -8.752  0.00  0.00     0.030 H 
BRANCH   4   7
ATOM      7  C   LIG d   1       3.414   1.446  -9.297  0.00  0.00    -0.044 C 
ATOM      8  H   LIG d   1       2.352   1.516  -9.059  0.00  0.00     0.030 H 
BRANCH   7   9
ATOM      9  C   LIG d   1       4.032   2.846  -9.291  0.00  0.00    -0.063 C 
ATOM     10  H   LIG d   1       4.393   3.079  -8.289  0.00  0.00     0.023 H 
ATOM     11  H   LIG d   1       4.864   2.879  -9.994  0.00  0.00     0.023 H 
ATOM     12  H   LIG d   1       3.278   3.577  -9.584  0.00  0.00     0.023 H 
ENDBRANCH   7   9
BRANCH   7  13
ATOM     13  C   LIG d   1       3.585   0.819 -10.683  0.00  0.00    -0.063 C 
ATOM     14  H   LIG d   1       3.204   1.503 -11.440  0.00  0.00     0.023 H 
ATOM     15  H   LIG d   1       4.642   0.626 -10.865  0.00  0.00     0.023 H 
ATOM     16  H   LIG d   1       3.032  -0.119 -10.728  0.00  0.00     0.023 H 
ENDBRANCH   7  13
ENDBRANCH   4   7
ENDBRANCH   1   4
BRANCH   1  17
ATOM     17  O   LIG d   1       3.095   0.793  -6.052  0.00  0.00    -0.461 OA
BRANCH  17  18
ATOM     18  C   LIG d   1       2.450   0.275  -4.989  0.00  0.00     0.343 C 
ATOM     19  O   LIG d   1       1.247   0.111  -5.029  0.00  0.00    -0.245 OA
BRANCH  18  20
ATOM     20  C   LIG d   1       3.204  -0.092  -3.777  0.00  0.00     0.100 A 
ATOM     21  C   LIG d   1       3.801   0.902  -2.989  0.00  0.00     0.131 A 
ATOM     22  C   LIG d   1       4.513   0.544  -1.854  0.00  0.00    -0.019 A 
ATOM     23  C   LIG d   1       4.622  -0.785  -1.496  0.00  0.00    -0.058 A 
ATOM     24  H   LIG d   1       4.977   1.306  -1.247  0.00  0.00     0.065 H 
ATOM     25  C   LIG d   1       4.032  -1.771  -2.271  0.00  0.00    -0.061 A 
ATOM     26  H   LIG d   1       5.174  -1.058  -0.609  0.00  0.00     0.062 H 
ATOM     27  C   LIG d   1       3.327  -1.434  -3.405  0.00  0.00    -0.044 A 
ATOM     28  H   LIG d   1       4.128  -2.808  -1.986  0.00  0.00     0.062 H 
ATOM     29  H   LIG d   1       2.870  -2.206  -4.007  0.00  0.00     0.063 H 
BRANCH  21  30
ATOM     30  O   LIG d   1       3.688   2.208  -3.339  0.00  0.00    -0.506 OA
ATOM     31  H   LIG d   1       4.230   2.807  -2.806  0.00  0.00     0.292 HD
ENDBRANCH  21  30
ENDBRANCH  18  20
ENDBRANCH  17  18
ENDBRANCH   1  17
TORSDOF 8
ENDMDL
MODEL 3
REMARK VINA RESULT:      -5.8      1.212      1.733
REMARK  8 active torsions:
REMARK  status: ('A' for Active; 'I' for Inactive)
REMARK    1  A    between atoms: C_1  and  C_2 
REMARK    2  A    between atoms: C_2  and  C_3 
REMARK    3  A    between atoms: C_2  and  C_4 
REMARK    4  A    between atoms: C_4  and  C_5 
REMARK    5  A    between atoms: C_5  and  O_6 
REMARK    6  A    between atoms: O_6  and  C_7 
REMARK    7  A    between atoms: C_7  and  C_9 
REMARK    8  A    between atoms: C_14  and  O_15 
ROOT
ATOM      1  C   LIG d   1       2.953   0.648  -7.908  0.00  0.00     0.093 C 
ATOM      2  H   LIG d   1       3.779   0.112  -8.376  0.00  0.00     0.070 H 
ATOM      3  H   LIG d   1       2.008   0.195  -8.209  0.00  0.00     0.070 H 
ENDROOT
BRANCH   1   4
ATOM      4  C   LIG d   1       2.980   2.113  -8.349  0.00  0.00    -0.016 C 
ATOM      5  H   LIG d   1       1.978   2.422  -8.645  0.00  0.00     0.030 H 
ATOM      6  H   LIG d   1       3.323   2.736  -7.522  0.00  0.00     0.030 H 
BRANCH   4   7
ATOM      7  C   LIG d   1       3.935   2.270  -9.535  0.00  0.00    -0.044 C 
ATOM      8  H   LIG d   1       3.800   3.255  -9.982  0.00  0.00     0.030 H 
BRANCH   7   9
ATOM      9  C   LIG d   1       5.378   2.123  -9.051  0.00  0.00    -0.063 C 
ATOM     10  H   LIG d   1       5.503   2.661  -8.111  0.00  0.00     0.023 H 
ATOM     11  H   LIG d   1       5.604   1.068  -8.898  0.00  0.00     0.023 H 
ATOM     12  H   LIG d   1       6.056   2.536  -9.798  0.00  0.00     0.023 H 
ENDBRANCH   7   9
BRANCH   7  13
ATOM     13  C   LIG d   1       3.634   1.191 -10.579  0.00  0.00    -0.063 C 
ATOM     14  H   LIG d   1       3.474   0.237 -10.077  0.00  0.00     0.023 H 
ATOM     15  H   LIG d   1       2.739   1.464 -11.135  0.00  0.00     0.023 H 
ATOM     16  H   LIG d   1       4.477   1.104 -11.265  0.00  0.00     0.023 H 
ENDBRANCH   7  13
ENDBRANCH   4   7
ENDBRANCH   1   4
BRANCH   1  17
ATOM     17  O   LIG d   1       3.085   0.576  -6.464  0.00  0.00    -0.461 OA
BRANCH  17  18
ATOM     18  C   LIG d   1       4.033  -0.248  -5.976  0.00  0.00     0.343 C 
ATOM     19  O   LIG d   1       4.837  -0.761  -6.729  0.00  0.00    -0.245 OA
BRANCH  18  20
ATOM     20  C   LIG d   1       4.094  -0.528  -4.530  0.00  0.00     0.100 A 
ATOM     21  C   LIG d   1       4.052  -1.850  -4.066  0.00  0.00     0.131 A 
ATOM     22  C   LIG d   1       4.104  -2.102  -2.703  0.00  0.00    -0.019 A 
ATOM     23  C   LIG d   1       4.208  -1.054  -1.810  0.00  0.00    -0.058 A 
ATOM     24  H   LIG d   1       4.068  -3.118  -2.340  0.00  0.00     0.065 H 
ATOM     25  C   LIG d   1       4.252   0.254  -2.265  0.00  0.00    -0.061 A 
ATOM     26  H   LIG d   1       4.253  -1.255  -0.750  0.00  0.00     0.062 H 
ATOM     27  C   LIG d   1       4.195   0.522  -3.615  0.00  0.00    -0.044 A 
ATOM     28  H   LIG d   1       4.329   1.067  -1.558  0.00  0.00     0.062 H 
ATOM     29  H   LIG d   1       4.228   1.544  -3.965  0.00  0.00     0.063 H 
BRANCH  21  30
ATOM     30  O   LIG d   1       3.955  -2.879  -4.945  0.00  0.00    -0.506 OA
ATOM     31  H   LIG d   1       3.944  -2.605  -5.872  0.00  0.00     0.292 HD
ENDBRANCH  21  30
ENDBRANCH  18  20
ENDBRANCH  17  18
ENDBRANCH   1  17
TORSDOF 8
ENDMDL
MODEL 4
REMARK VINA RESULT:      -5.3      1.569      2.384
REMARK  8 active torsions:
REMARK  status: ('A' for Active; 'I' for Inactive)
REMARK    1  A    between atoms: C_1  and  C_2 
REMARK    2  A    between atoms: C_2  and  C_3 
REMARK    3  A    between atoms: C_2  and  C_4 
REMARK    4  A    between atoms: C_4  and  C_5 
REMARK    5  A    between atoms: C_5  and  O_6 
REMARK    6  A    between atoms: O_6  and  C_7 
REMARK    7  A    between atoms: C_7  and  C_9 
REMARK    8  A    between atoms: C_14  and  O_15 
ROOT
ATOM      1  C   LIG d   1       3.857  -0.497  -8.489  0.00  0.00     0.093 C 
ATOM      2  H   LIG d   1       4.665   0.232  -8.550  0.00  0.00     0.070 H 
ATOM      3  H   LIG d   1       4.160  -1.417  -8.989  0.00  0.00     0.070 H 
ENDROOT
BRANCH   1   4
ATOM      4  C   LIG d   1       2.609   0.066  -9.170  0.00  0.00    -0.016 C 
ATOM      5  H   LIG d   1       2.237  -0.652  -9.901  0.00  0.00     0.030 H 
ATOM      6  H   LIG d   1       1.839   0.254  -8.421  0.00  0.00     0.030 H 
BRANCH   4   7
ATOM      7  C   LIG d   1       2.961   1.378  -9.877  0.00  0.00    -0.044 C 
ATOM      8  H   LIG d   1       2.063   1.802 -10.325  0.00  0.00     0.030 H 
BRANCH   7   9
ATOM      9  C   LIG d   1       3.540   2.364  -8.861  0.00  0.00    -0.063 C 
ATOM     10  H   LIG d   1       4.383   1.903  -8.346  0.00  0.00     0.023 H 
ATOM     11  H   LIG d   1       3.878   3.262  -9.378  0.00  0.00     0.023 H 
ATOM     12  H   LIG d   1       2.772   2.630  -8.135  0.00  0.00     0.023 H 
ENDBRANCH   7   9
BRANCH   7  13
ATOM     13  C   LIG d   1       3.997   1.105 -10.970  0.00  0.00    -0.063 C 
ATOM     14  H   LIG d   1       3.655   0.282 -11.597  0.00  0.00     0.023 H 
ATOM     15  H   LIG d   1       4.125   1.998 -11.580  0.00  0.00     0.023 H 
ATOM     16  H   LIG d   1       4.949   0.839 -10.511  0.00  0.00     0.023 H 
ENDBRANCH   7  13
ENDBRANCH   4   7
ENDBRANCH   1   4
BRANCH   1  17
ATOM     17  O   LIG d   1       3.562  -0.779  -7.095  0.00  0.00    -0.461 OA
BRANCH  17  18
ATOM     18  C   LIG d   1       4.487  -0.411  -6.188  0.00  0.00     0.343 C 
ATOM     19  O   LIG d   1       5.436   0.268  -6.528  0.00  0.00    -0.245 OA
BRANCH  18  20
ATOM     20  C   LIG d   1       4.350  -0.833  -4.782  0.00  0.00     0.100 A 
ATOM     21  C   LIG d   1       3.126  -0.677  -4.116  0.00  0.00     0.131 A 
ATOM     22  C   LIG d   1       3.010  -1.072  -2.792  0.00  0.00    -0.019 A 
ATOM     23  C   LIG d   1       4.093  -1.626  -2.137  0.00  0.00    -0.058 A 
ATOM     24  H   LIG d   1       2.071  -0.951  -2.273  0.00  0.00     0.065 H 
ATOM     25  C   LIG d   1       5.304  -1.783  -2.793  0.00  0.00    -0.061 A 
ATOM     26  H   LIG d   1       3.996  -1.936  -1.107  0.00  0.00     0.062 H 
ATOM     27  C   LIG d   1       5.438  -1.391  -4.106  0.00  0.00    -0.044 A 
ATOM     28  H   LIG d   1       6.146  -2.213  -2.271  0.00  0.00     0.062 H 
ATOM     29  H   LIG d   1       6.385  -1.514  -4.613  0.00  0.00     0.063 H 
BRANCH  21  30
ATOM     30  O   LIG d   1       2.062  -0.138  -4.761  0.00  0.00    -0.506 OA
ATOM     31  H   LIG d   1       2.077   0.828  -4.807  0.00  0.00     0.292 HD
ENDBRANCH  21  30
ENDBRANCH  18  20
ENDBRANCH  17  18
ENDBRANCH   1  17
TORSDOF 8
ENDMDL
MODEL 5
REMARK VINA RESULT:      -5.3      1.506      1.952
REMARK  8 active torsions:
REMARK  status: ('A' for Active; 'I' for Inactive)
REMARK    1  A    between atoms: C_1  and  C_2 
REMARK    2  A    between atoms: C_2  and  C_3 
REMARK    3  A    between atoms: C_2  and  C_4 
REMARK    4  A    between atoms: C_4  and  C_5 
REMARK    5  A    between atoms: C_5  and  O_6 
REMARK    6  A    between atoms: O_6  and  C_7 
REMARK    7  A    between atoms: C_7  and  C_9 
REMARK    8  A    between atoms: C_14  and  O_15 
ROOT
ATOM      1  C   LIG d   1       3.559  -1.044  -8.028  0.00  0.00     0.093 C 
ATOM      2  H   LIG d   1       4.614  -1.101  -8.296  0.00  0.00     0.070 H 
ATOM      3  H   LIG d   1       3.116  -2.039  -8.080  0.00  0.00     0.070 H 
ENDROOT
BRANCH   1   4
ATOM      4  C   LIG d   1       2.835  -0.111  -9.001  0.00  0.00    -0.016 C 
ATOM      5  H   LIG d   1       2.703  -0.616  -9.958  0.00  0.00     0.030 H 
ATOM      6  H   LIG d   1       1.860   0.155  -8.592  0.00  0.00     0.030 H 
BRANCH   4   7
ATOM      7  C   LIG d   1       3.666   1.158  -9.204  0.00  0.00    -0.044 C 
ATOM      8  H   LIG d   1       4.630   1.045  -8.707  0.00  0.00     0.030 H 
BRANCH   7   9
ATOM      9  C   LIG d   1       3.886   1.389 -10.700  0.00  0.00    -0.063 C 
ATOM     10  H   LIG d   1       3.061   0.951 -11.261  0.00  0.00     0.023 H 
ATOM     11  H   LIG d   1       3.933   2.460 -10.899  0.00  0.00     0.023 H 
ATOM     12  H   LIG d   1       4.822   0.921 -11.005  0.00  0.00     0.023 H 
ENDBRANCH   7   9
BRANCH   7  13
ATOM     13  C   LIG d   1       2.922   2.355  -8.607  0.00  0.00    -0.063 C 
ATOM     14  H   LIG d   1       3.635   3.022  -8.124  0.00  0.00     0.023 H 
ATOM     15  H   LIG d   1       2.402   2.892  -9.400  0.00  0.00     0.023 H 
ATOM     16  H   LIG d   1       2.197   2.004  -7.872  0.00  0.00     0.023 H 
ENDBRANCH   7  13
ENDBRANCH   4   7
ENDBRANCH   1   4
BRANCH   1  17
ATOM     17  O   LIG d   1       3.430  -0.527  -6.677  0.00  0.00    -0.461 OA
BRANCH  17  18
ATOM     18  C   LIG d   1       4.358  -0.918  -5.781  0.00  0.00     0.343 C 
ATOM     19  O   LIG d   1       5.154  -1.789  -6.072  0.00  0.00    -0.245 OA
BRANCH  18  20
ATOM     20  C   LIG d   1       4.407  -0.291  -4.449  0.00  0.00     0.100 A 
ATOM     21  C   LIG d   1       3.232  -0.131  -3.701  0.00  0.00     0.131 A 
ATOM     22  C   LIG d   1       3.289   0.467  -2.451  0.00  0.00    -0.019 A 
ATOM     23  C   LIG d   1       4.500   0.892  -1.942  0.00  0.00    -0.058 A 
ATOM     24  H   LIG d   1       2.386   0.595  -1.873  0.00  0.00     0.065 H 
ATOM     25  C   LIG d   1       5.664   0.735  -2.677  0.00  0.00    -0.061 A 
ATOM     26  H   LIG d   1       4.540   1.353  -0.966  0.00  0.00     0.062 H 
ATOM     27  C   LIG d   1       5.625   0.149  -3.923  0.00  0.00    -0.044 A 
ATOM     28  H   LIG d   1       6.606   1.075  -2.272  0.00  0.00     0.062 H 
ATOM     29  H   LIG d   1       6.535   0.030  -4.494  0.00  0.00     0.063 H 
BRANCH  21  30
ATOM     30  O   LIG d   1       2.044  -0.554  -4.199  0.00  0.00    -0.506 OA
ATOM     31  H   LIG d   1       1.886  -0.294  -5.118  0.00  0.00     0.292 HD
ENDBRANCH  21  30
ENDBRANCH  18  20
ENDBRANCH  17  18
ENDBRANCH   1  17
TORSDOF 8
ENDMDL
MODEL 6
REMARK VINA RESULT:      -5.3      1.834      6.668
REMARK  8 active torsions:
REMARK  status: ('A' for Active; 'I' for Inactive)
REMARK    1  A    between atoms: C_1  and  C_2 
REMARK    2  A    between atoms: C_2  and  C_3 
REMARK    3  A    between atoms: C_2  and  C_4 
REMARK    4  A    between atoms: C_4  and  C_5 
REMARK    5  A    between atoms: C_5  and  O_6 
REMARK    6  A    between atoms: O_6  and  C_7 
REMARK    7  A    between atoms: C_7  and  C_9 
REMARK    8  A    between atoms: C_14  and  O_15 
ROOT
ATOM      1  C   LIG d   1       3.097  -0.081  -6.119  0.00  0.00     0.093 C 
ATOM      2  H   LIG d   1       2.215  -0.469  -6.629  0.00  0.00     0.070 H 
ATOM      3  H   LIG d   1       3.726  -0.911  -5.798  0.00  0.00     0.070 H 
ENDROOT
BRANCH   1   4
ATOM      4  C   LIG d   1       2.663   0.734  -4.899  0.00  0.00    -0.016 C 
ATOM      5  H   LIG d   1       2.851   1.791  -5.082  0.00  0.00     0.030 H 
ATOM      6  H   LIG d   1       1.599   0.580  -4.719  0.00  0.00     0.030 H 
BRANCH   4   7
ATOM      7  C   LIG d   1       3.458   0.277  -3.673  0.00  0.00    -0.044 C 
ATOM      8  H   LIG d   1       4.455  -0.038  -3.983  0.00  0.00     0.030 H 
BRANCH   7   9
ATOM      9  C   LIG d   1       3.575   1.436  -2.681  0.00  0.00    -0.063 C 
ATOM     10  H   LIG d   1       2.857   1.295  -1.873  0.00  0.00     0.023 H 
ATOM     11  H   LIG d   1       4.584   1.462  -2.270  0.00  0.00     0.023 H 
ATOM     12  H   LIG d   1       3.366   2.375  -3.193  0.00  0.00     0.023 H 
ENDBRANCH   7   9
BRANCH   7  13
ATOM     13  C   LIG d   1       2.737  -0.896  -3.005  0.00  0.00    -0.063 C 
ATOM     14  H   LIG d   1       2.294  -0.563  -2.067  0.00  0.00     0.023 H 
ATOM     15  H   LIG d   1       1.954  -1.264  -3.667  0.00  0.00     0.023 H 
ATOM     16  H   LIG d   1       3.450  -1.696  -2.806  0.00  0.00     0.023 H 
ENDBRANCH   7  13
ENDBRANCH   4   7
ENDBRANCH   1   4
BRANCH   1  17
ATOM     17  O   LIG d   1       3.846   0.770  -7.027  0.00  0.00    -0.461 OA
BRANCH  17  18
ATOM     18  C   LIG d   1       3.159   1.349  -8.031  0.00  0.00     0.343 C 
ATOM     19  O   LIG d   1       2.721   2.475  -7.898  0.00  0.00    -0.245 OA
BRANCH  18  20
ATOM     20  C   LIG d   1       2.937   0.616  -9.290  0.00  0.00     0.100 A 
ATOM     21  C   LIG d   1       3.821   0.779 -10.366  0.00  0.00     0.131 A 
ATOM     22  C   LIG d   1       3.598   0.089 -11.548  0.00  0.00    -0.019 A 
ATOM     23  C   LIG d   1       2.517  -0.762 -11.660  0.00  0.00    -0.058 A 
ATOM     24  H   LIG d   1       4.274   0.214 -12.381  0.00  0.00     0.065 H 
ATOM     25  C   LIG d   1       1.641  -0.927 -10.599  0.00  0.00    -0.061 A 
ATOM     26  H   LIG d   1       2.351  -1.300 -12.582  0.00  0.00     0.062 H 
ATOM     27  C   LIG d   1       1.843  -0.245  -9.419  0.00  0.00    -0.044 A 
ATOM     28  H   LIG d   1       0.795  -1.591 -10.697  0.00  0.00     0.062 H 
ATOM     29  H   LIG d   1       1.157  -0.375  -8.595  0.00  0.00     0.063 H 
BRANCH  21  30
ATOM     30  O   LIG d   1       4.886   1.611 -10.253  0.00  0.00    -0.506 OA
ATOM     31  H   LIG d   1       4.967   2.032  -9.386  0.00  0.00     0.292 HD
ENDBRANCH  21  30
ENDBRANCH  18  20
ENDBRANCH  17  18
ENDBRANCH   1  17
TORSDOF 8
ENDMDL
MODEL 7
REMARK VINA RESULT:      -4.9      1.708      2.043
REMARK  8 active torsions:
REMARK  status: ('A' for Active; 'I' for Inactive)
REMARK    1  A    between atoms: C_1  and  C_2 
REMARK    2  A    between atoms: C_2  and  C_3 
REMARK    3  A    between atoms: C_2  and  C_4 
REMARK    4  A    between atoms: C_4  and  C_5 
REMARK    5  A    between atoms: C_5  and  O_6 
REMARK    6  A    between atoms: O_6  and  C_7 
REMARK    7  A    between atoms: C_7  and  C_9 
REMARK    8  A    between atoms: C_14  and  O_15 
ROOT
ATOM      1  C   LIG d   1       3.129  -0.099  -6.920  0.00  0.00     0.093 C 
ATOM      2  H   LIG d   1       3.632  -1.056  -6.786  0.00  0.00     0.070 H 
ATOM      3  H   LIG d   1       2.103  -0.270  -7.247  0.00  0.00     0.070 H 
ENDROOT
BRANCH   1   4
ATOM      4  C   LIG d   1       3.870   0.724  -7.975  0.00  0.00    -0.016 C 
ATOM      5  H   LIG d   1       4.443   1.511  -7.486  0.00  0.00     0.030 H 
ATOM      6  H   LIG d   1       4.547   0.075  -8.533  0.00  0.00     0.030 H 
BRANCH   4   7
ATOM      7  C   LIG d   1       2.858   1.351  -8.937  0.00  0.00    -0.044 C 
ATOM      8  H   LIG d   1       2.113   1.907  -8.369  0.00  0.00     0.030 H 
BRANCH   7   9
ATOM      9  C   LIG d   1       3.583   2.299  -9.894  0.00  0.00    -0.063 C 
ATOM     10  H   LIG d   1       3.780   3.244  -9.389  0.00  0.00     0.023 H 
ATOM     11  H   LIG d   1       4.526   1.850 -10.205  0.00  0.00     0.023 H 
ATOM     12  H   LIG d   1       2.959   2.478 -10.769  0.00  0.00     0.023 H 
ENDBRANCH   7   9
BRANCH   7  13
ATOM     13  C   LIG d   1       2.166   0.246  -9.740  0.00  0.00    -0.063 C 
ATOM     14  H   LIG d   1       1.350   0.676 -10.320  0.00  0.00     0.023 H 
ATOM     15  H   LIG d   1       2.886  -0.218 -10.414  0.00  0.00     0.023 H 
ATOM     16  H   LIG d   1       1.770  -0.506  -9.058  0.00  0.00     0.023 H 
ENDBRANCH   7  13
ENDBRANCH   4   7
ENDBRANCH   1   4
BRANCH   1  17
ATOM     17  O   LIG d   1       3.120   0.625  -5.661  0.00  0.00    -0.461 OA
BRANCH  17  18
ATOM     18  C   LIG d   1       3.255  -0.104  -4.536  0.00  0.00     0.343 C 
ATOM     19  O   LIG d   1       2.291  -0.310  -3.826  0.00  0.00    -0.245 OA
BRANCH  18  20
ATOM     20  C   LIG d   1       4.573  -0.650  -4.165  0.00  0.00     0.100 A 
ATOM     21  C   LIG d   1       4.824  -2.025  -4.279  0.00  0.00     0.131 A 
ATOM     22  C   LIG d   1       6.065  -2.528  -3.921  0.00  0.00    -0.019 A 
ATOM     23  C   LIG d   1       7.053  -1.676  -3.466  0.00  0.00    -0.058 A 
ATOM     24  H   LIG d   1       6.262  -3.587  -4.003  0.00  0.00     0.065 H 
ATOM     25  C   LIG d   1       6.809  -0.317  -3.354  0.00  0.00    -0.061 A 
ATOM     26  H   LIG d   1       8.019  -2.074  -3.193  0.00  0.00     0.062 H 
ATOM     27  C   LIG d   1       5.580   0.199  -3.699  0.00  0.00    -0.044 A 
ATOM     28  H   LIG d   1       7.586   0.340  -2.993  0.00  0.00     0.062 H 
ATOM     29  H   LIG d   1       5.394   1.260  -3.608  0.00  0.00     0.063 H 
BRANCH  21  30
ATOM     30  O   LIG d   1       3.855  -2.859  -4.731  0.00  0.00    -0.506 OA
ATOM     31  H   LIG d   1       3.360  -2.516  -5.488  0.00  0.00     0.292 HD
ENDBRANCH  21  30
ENDBRANCH  18  20
ENDBRANCH  17  18
ENDBRANCH   1  17
TORSDOF 8
ENDMDL
MODEL 8
REMARK VINA RESULT:      -4.8      3.295      5.611
REMARK  8 active torsions:
REMARK  status: ('A' for Active; 'I' for Inactive)
REMARK    1  A    between atoms: C_1  and  C_2 
REMARK    2  A    between atoms: C_2  and  C_3 
REMARK    3  A    between atoms: C_2  and  C_4 
REMARK    4  A    between atoms: C_4  and  C_5 
REMARK    5  A    between atoms: C_5  and  O_6 
REMARK    6  A    between atoms: O_6  and  C_7 
REMARK    7  A    between atoms: C_7  and  C_9 
REMARK    8  A    between atoms: C_14  and  O_15 
ROOT
ATOM      1  C   LIG d   1       3.765  -0.291  -5.029  0.00  0.00     0.093 C 
ATOM      2  H   LIG d   1       3.080   0.206  -5.716  0.00  0.00     0.070 H 
ATOM      3  H   LIG d   1       3.781  -1.360  -5.242  0.00  0.00     0.070 H 
ENDROOT
BRANCH   1   4
ATOM      4  C   LIG d   1       3.297  -0.065  -3.590  0.00  0.00    -0.016 C 
ATOM      5  H   LIG d   1       2.899   0.945  -3.492  0.00  0.00     0.030 H 
ATOM      6  H   LIG d   1       2.520  -0.788  -3.343  0.00  0.00     0.030 H 
BRANCH   4   7
ATOM      7  C   LIG d   1       4.481  -0.243  -2.636  0.00  0.00    -0.044 C 
ATOM      8  H   LIG d   1       5.412  -0.220  -3.203  0.00  0.00     0.030 H 
BRANCH   7   9
ATOM      9  C   LIG d   1       4.481   0.890  -1.608  0.00  0.00    -0.063 C 
ATOM     10  H   LIG d   1       5.261   1.609  -1.860  0.00  0.00     0.023 H 
ATOM     11  H   LIG d   1       3.512   1.388  -1.616  0.00  0.00     0.023 H 
ATOM     12  H   LIG d   1       4.672   0.480  -0.616  0.00  0.00     0.023 H 
ENDBRANCH   7   9
BRANCH   7  13
ATOM     13  C   LIG d   1       4.356  -1.587  -1.914  0.00  0.00    -0.063 C 
ATOM     14  H   LIG d   1       4.583  -2.395  -2.609  0.00  0.00     0.023 H 
ATOM     15  H   LIG d   1       5.055  -1.617  -1.080  0.00  0.00     0.023 H 
ATOM     16  H   LIG d   1       3.339  -1.705  -1.540  0.00  0.00     0.023 H 
ENDBRANCH   7  13
ENDBRANCH   4   7
ENDBRANCH   1   4
BRANCH   1  17
ATOM     17  O   LIG d   1       5.100   0.255  -5.195  0.00  0.00    -0.461 OA
BRANCH  17  18
ATOM     18  C   LIG d   1       5.957  -0.445  -5.964  0.00  0.00     0.343 C 
ATOM     19  O   LIG d   1       6.232  -0.052  -7.081  0.00  0.00    -0.245 OA
BRANCH  18  20
ATOM     20  C   LIG d   1       6.558  -1.690  -5.452  0.00  0.00     0.100 A 
ATOM     21  C   LIG d   1       7.434  -1.651  -4.358  0.00  0.00     0.131 A 
ATOM     22  C   LIG d   1       7.999  -2.827  -3.888  0.00  0.00    -0.019 A 
ATOM     23  C   LIG d   1       7.691  -4.031  -4.490  0.00  0.00    -0.058 A 
ATOM     24  H   LIG d   1       8.677  -2.801  -3.048  0.00  0.00     0.065 H 
ATOM     25  C   LIG d   1       6.826  -4.074  -5.571  0.00  0.00    -0.061 A 
ATOM     26  H   LIG d   1       8.131  -4.944  -4.117  0.00  0.00     0.062 H 
ATOM     27  C   LIG d   1       6.260  -2.914  -6.055  0.00  0.00    -0.044 A 
ATOM     28  H   LIG d   1       6.595  -5.020  -6.038  0.00  0.00     0.062 H 
ATOM     29  H   LIG d   1       5.587  -2.953  -6.899  0.00  0.00     0.063 H 
BRANCH  21  30
ATOM     30  O   LIG d   1       7.731  -0.468  -3.764  0.00  0.00    -0.506 OA
ATOM     31  H   LIG d   1       7.019   0.185  -3.808  0.00  0.00     0.292 HD
ENDBRANCH  21  30
ENDBRANCH  18  20
ENDBRANCH  17  18
ENDBRANCH   1  17
TORSDOF 8
ENDMDL
MODEL 9
REMARK VINA RESULT:      -4.8      1.822      2.144
REMARK  8 active torsions:
REMARK  status: ('A' for Active; 'I' for Inactive)
REMARK    1  A    between atoms: C_1  and  C_2 
REMARK    2  A    between atoms: C_2  and  C_3 
REMARK    3  A    between atoms: C_2  and  C_4 
REMARK    4  A    between atoms: C_4  and  C_5 
REMARK    5  A    between atoms: C_5  and  O_6 
REMARK    6  A    between atoms: O_6  and  C_7 
REMARK    7  A    between atoms: C_7  and  C_9 
REMARK    8  A    between atoms: C_14  and  O_15 
ROOT
ATOM      1  C   LIG d   1       5.875  -0.902  -6.870  0.00  0.00     0.093 C 
ATOM      2  H   LIG d   1       6.274  -1.036  -5.865  0.00  0.00     0.070 H 
ATOM      3  H   LIG d   1       6.259  -1.688  -7.521  0.00  0.00     0.070 H 
ENDROOT
BRANCH   1   4
ATOM      4  C   LIG d   1       6.305   0.463  -7.412  0.00  0.00    -0.016 C 
ATOM      5  H   LIG d   1       5.825   1.251  -6.832  0.00  0.00     0.030 H 
ATOM      6  H   LIG d   1       7.388   0.561  -7.333  0.00  0.00     0.030 H 
BRANCH   4   7
ATOM      7  C   LIG d   1       5.888   0.583  -8.880  0.00  0.00    -0.044 C 
ATOM      8  H   LIG d   1       5.275  -0.275  -9.155  0.00  0.00     0.030 H 
BRANCH   7   9
ATOM      9  C   LIG d   1       5.085   1.869  -9.078  0.00  0.00    -0.063 C 
ATOM     10  H   LIG d   1       4.713   1.912 -10.102  0.00  0.00     0.023 H 
ATOM     11  H   LIG d   1       4.243   1.882  -8.386  0.00  0.00     0.023 H 
ATOM     12  H   LIG d   1       5.725   2.730  -8.888  0.00  0.00     0.023 H 
ENDBRANCH   7   9
BRANCH   7  13
ATOM     13  C   LIG d   1       7.138   0.621  -9.763  0.00  0.00    -0.063 C 
ATOM     14  H   LIG d   1       7.904  -0.026  -9.336  0.00  0.00     0.023 H 
ATOM     15  H   LIG d   1       6.886   0.274 -10.764  0.00  0.00     0.023 H 
ATOM     16  H   LIG d   1       7.514   1.643  -9.817  0.00  0.00     0.023 H 
ENDBRANCH   7  13
ENDBRANCH   4   7
ENDBRANCH   1   4
BRANCH   1  17
ATOM     17  O   LIG d   1       4.425  -0.972  -6.831  0.00  0.00    -0.461 OA
BRANCH  17  18
ATOM     18  C   LIG d   1       3.802  -0.224  -5.900  0.00  0.00     0.343 C 
ATOM     19  O   LIG d   1       3.078   0.691  -6.240  0.00  0.00    -0.245 OA
BRANCH  18  20
ATOM     20  C   LIG d   1       3.998  -0.515  -4.468  0.00  0.00     0.100 A 
ATOM     21  C   LIG d   1       3.999  -1.841  -4.012  0.00  0.00     0.131 A 
ATOM     22  C   LIG d   1       4.178  -2.102  -2.662  0.00  0.00    -0.019 A 
ATOM     23  C   LIG d   1       4.365  -1.061  -1.774  0.00  0.00    -0.058 A 
ATOM     24  H   LIG d   1       4.176  -3.121  -2.305  0.00  0.00     0.065 H 
ATOM     25  C   LIG d   1       4.365   0.250  -2.221  0.00  0.00    -0.061 A 
ATOM     26  H   LIG d   1       4.508  -1.271  -0.724  0.00  0.00     0.062 H 
ATOM     27  C   LIG d   1       4.183   0.529  -3.558  0.00  0.00    -0.044 A 
ATOM     28  H   LIG d   1       4.508   1.058  -1.518  0.00  0.00     0.062 H 
ATOM     29  H   LIG d   1       4.183   1.553  -3.902  0.00  0.00     0.063 H 
BRANCH  21  30
ATOM     30  O   LIG d   1       3.821  -2.863  -4.885  0.00  0.00    -0.506 OA
ATOM     31  H   LIG d   1       3.039  -3.403  -4.706  0.00  0.00     0.292 HD
ENDBRANCH  21  30
ENDBRANCH  18  20
ENDBRANCH  17  18
ENDBRANCH   1  17
TORSDOF 8
ENDMDL
MODEL 10
REMARK VINA RESULT:      -4.7      2.047      2.705
REMARK  8 active torsions:
REMARK  status: ('A' for Active; 'I' for Inactive)
REMARK    1  A    between atoms: C_1  and  C_2 
REMARK    2  A    between atoms: C_2  and  C_3 
REMARK    3  A    between atoms: C_2  and  C_4 
REMARK    4  A    between atoms: C_4  and  C_5 
REMARK    5  A    between atoms: C_5  and  O_6 
REMARK    6  A    between atoms: O_6  and  C_7 
REMARK    7  A    between atoms: C_7  and  C_9 
REMARK    8  A    between atoms: C_14  and  O_15 
ROOT
ATOM      1  C   LIG d   1       3.967  -1.647  -7.850  0.00  0.00     0.093 C 
ATOM      2  H   LIG d   1       4.970  -2.074  -7.865  0.00  0.00     0.070 H 
ATOM      3  H   LIG d   1       3.231  -2.447  -7.941  0.00  0.00     0.070 H 
ENDROOT
BRANCH   1   4
ATOM      4  C   LIG d   1       3.809  -0.672  -9.018  0.00  0.00    -0.016 C 
ATOM      5  H   LIG d   1       4.627   0.049  -9.003  0.00  0.00     0.030 H 
ATOM      6  H   LIG d   1       3.830  -1.225  -9.958  0.00  0.00     0.030 H 
BRANCH   4   7
ATOM      7  C   LIG d   1       2.475   0.065  -8.889  0.00  0.00    -0.044 C 
ATOM      8  H   LIG d   1       2.067  -0.091  -7.891  0.00  0.00     0.030 H 
BRANCH   7   9
ATOM      9  C   LIG d   1       2.695   1.561  -9.122  0.00  0.00    -0.063 C 
ATOM     10  H   LIG d   1       3.749   1.746  -9.325  0.00  0.00     0.023 H 
ATOM     11  H   LIG d   1       2.098   1.888  -9.973  0.00  0.00     0.023 H 
ATOM     12  H   LIG d   1       2.394   2.115  -8.232  0.00  0.00     0.023 H 
ENDBRANCH   7   9
BRANCH   7  13
ATOM     13  C   LIG d   1       1.492  -0.474  -9.932  0.00  0.00    -0.063 C 
ATOM     14  H   LIG d   1       0.822   0.327 -10.247  0.00  0.00     0.023 H 
ATOM     15  H   LIG d   1       2.045  -0.846 -10.793  0.00  0.00     0.023 H 
ATOM     16  H   LIG d   1       0.908  -1.285  -9.496  0.00  0.00     0.023 H 
ENDBRANCH   7  13
ENDBRANCH   4   7
ENDBRANCH   1   4
BRANCH   1  17
ATOM     17  O   LIG d   1       3.760  -0.940  -6.598  0.00  0.00    -0.461 OA
BRANCH  17  18
ATOM     18  C   LIG d   1       4.611  -1.216  -5.591  0.00  0.00     0.343 C 
ATOM     19  O   LIG d   1       5.448  -2.087  -5.725  0.00  0.00    -0.245 OA
BRANCH  18  20
ATOM     20  C   LIG d   1       4.527  -0.463  -4.327  0.00  0.00     0.100 A 
ATOM     21  C   LIG d   1       5.653   0.210  -3.832  0.00  0.00     0.131 A 
ATOM     22  C   LIG d   1       5.564   0.910  -2.638  0.00  0.00    -0.019 A 
ATOM     23  C   LIG d   1       4.368   0.954  -1.948  0.00  0.00    -0.058 A 
ATOM     24  H   LIG d   1       6.429   1.427  -2.250  0.00  0.00     0.065 H 
ATOM     25  C   LIG d   1       3.253   0.291  -2.436  0.00  0.00    -0.061 A 
ATOM     26  H   LIG d   1       4.303   1.504  -1.021  0.00  0.00     0.062 H 
ATOM     27  C   LIG d   1       3.325  -0.415  -3.617  0.00  0.00    -0.044 A 
ATOM     28  H   LIG d   1       2.323   0.327  -1.887  0.00  0.00     0.062 H 
ATOM     29  H   LIG d   1       2.453  -0.931  -3.992  0.00  0.00     0.063 H 
BRANCH  21  30
ATOM     30  O   LIG d   1       6.825   0.171  -4.512  0.00  0.00    -0.506 OA
ATOM     31  H   LIG d   1       7.504   0.765  -4.163  0.00  0.00     0.292 HD
ENDBRANCH  21  30
ENDBRANCH  18  20
ENDBRANCH  17  18
ENDBRANCH   1  17
TORSDOF 8
ENDMDL
