MODEL 1
REMARK VINA RESULT:      -6.6      0.000      0.000
REMARK  8 active torsions:
REMARK  status: ('A' for Active; 'I' for Inactive)
REMARK    1  A    between atoms: C_1  and  O_2 
REMARK    2  A    between atoms: O_2  and  C_3 
REMARK    3  A    between atoms: C_8  and  C_9 
REMARK       I    between atoms: C_9  and  N_11 
REMARK    4  A    between atoms: N_17  and  C_18 
REMARK    5  A    between atoms: C_18  and  C_19 
REMARK    6  A    between atoms: C_27  and  C_29 
REMARK    7  A    between atoms: C_29  and  O_31 
REMARK    8  A    between atoms: O_31  and  C_32 
ROOT
ATOM      1  C   LIG d   1       7.396  -0.123  -4.818  0.00  0.00     0.251 C 
ATOM      2  O   LIG d   1       8.560  -0.081  -4.470  0.00  0.00    -0.270 OA
ATOM      3  N   LIG d   1       7.084  -0.177  -6.128  0.00  0.00    -0.278 N 
ATOM      4  C   LIG d   1       5.690  -0.366  -6.567  0.00  0.00     0.058 C 
ATOM      5  C   LIG d   1       5.447   0.604  -7.700  0.00  0.00     0.059 A 
ATOM      6  C   LIG d   1       6.420   1.300  -8.325  0.00  0.00     0.066 A 
ATOM      7  N   LIG d   1       5.846   2.043  -9.277  0.00  0.00    -0.240 NA
ATOM      8  C   LIG d   1       4.556   1.836  -9.264  0.00  0.00     0.097 A 
ATOM      9  N   LIG d   1       4.268   0.942  -8.289  0.00  0.00    -0.328 N 
ATOM     10  C   LIG d   1       7.885   1.220  -7.974  0.00  0.00     0.020 C 
ATOM     11  C   LIG d   1       8.129  -0.055  -7.156  0.00  0.00     0.129 C 
ATOM     12  H   LIG d   1       8.092  -0.923  -7.816  0.00  0.00     0.062 H 
ATOM     13  H   LIG d   1       5.546  -1.390  -6.913  0.00  0.00     0.053 H 
ATOM     14  H   LIG d   1       5.009  -0.153  -5.742  0.00  0.00     0.053 H 
ATOM     15  H   LIG d   1       3.837   2.301  -9.923  0.00  0.00     0.103 H 
ATOM     16  H   LIG d   1       8.167   2.091  -7.383  0.00  0.00     0.035 H 
ATOM     17  H   LIG d   1       8.481   1.188  -8.886  0.00  0.00     0.035 H 
ENDROOT
BRANCH   1  18
ATOM     18  C   LIG d   1       6.323  -0.121  -3.804  0.00  0.00     0.079 A 
ATOM     19  C   LIG d   1       5.754  -1.328  -3.378  0.00  0.00     0.132 A 
ATOM     20  C   LIG d   1       4.747  -1.314  -2.424  0.00  0.00    -0.019 A 
ATOM     21  C   LIG d   1       4.309  -0.115  -1.898  0.00  0.00    -0.058 A 
ATOM     22  H   LIG d   1       4.305  -2.242  -2.093  0.00  0.00     0.065 H 
ATOM     23  C   LIG d   1       4.869   1.081  -2.317  0.00  0.00    -0.061 A 
ATOM     24  H   LIG d   1       3.524  -0.109  -1.155  0.00  0.00     0.062 H 
ATOM     25  C   LIG d   1       5.874   1.085  -3.261  0.00  0.00    -0.046 A 
ATOM     26  H   LIG d   1       4.520   2.013  -1.899  0.00  0.00     0.062 H 
ATOM     27  H   LIG d   1       6.311   2.019  -3.581  0.00  0.00     0.063 H 
BRANCH  19  28
ATOM     28  O   LIG d   1       6.185  -2.505  -3.895  0.00  0.00    -0.494 OA
BRANCH  28  29
ATOM     29  C   LIG d   1       5.202  -3.346  -4.503  0.00  0.00     0.079 C 
ATOM     30  H   LIG d   1       4.261  -3.254  -3.963  0.00  0.00     0.066 H 
ATOM     31  H   LIG d   1       5.058  -3.044  -5.541  0.00  0.00     0.066 H 
ATOM     32  H   LIG d   1       5.539  -4.382  -4.470  0.00  0.00     0.066 H 
ENDBRANCH  28  29
ENDBRANCH  19  28
ENDBRANCH   1  18
BRANCH  11  33
ATOM     33  C   LIG d   1       9.480   0.021  -6.495  0.00  0.00     0.328 C 
ATOM     34  O   LIG d   1       9.960   1.096  -6.223  0.00  0.00    -0.249 OA
BRANCH  33  35
ATOM     35  O   LIG d   1      10.152  -1.106  -6.210  0.00  0.00    -0.467 OA
BRANCH  35  36
ATOM     36  C   LIG d   1       9.940  -2.241  -7.091  0.00  0.00     0.082 C 
ATOM     37  H   LIG d   1       8.949  -2.174  -7.539  0.00  0.00     0.066 H 
ATOM     38  H   LIG d   1      10.696  -2.236  -7.877  0.00  0.00     0.066 H 
ATOM     39  H   LIG d   1      10.019  -3.165  -6.517  0.00  0.00     0.066 H 
ENDBRANCH  35  36
ENDBRANCH  33  35
ENDBRANCH  11  33
BRANCH   9  40
ATOM     40  C   LIG d   1       2.940   0.434  -7.936  0.00  0.00     0.050 C 
ATOM     41  H   LIG d   1       2.965   0.020  -6.929  0.00  0.00     0.054 H 
ATOM     42  H   LIG d   1       2.217   1.249  -7.975  0.00  0.00     0.054 H 
BRANCH  40  43
ATOM     43  C   LIG d   1       2.537  -0.641  -8.912  0.00  0.00    -0.028 A 
ATOM     44  C   LIG d   1       1.643  -0.355  -9.926  0.00  0.00    -0.056 A 
ATOM     45  C   LIG d   1       1.273  -1.340 -10.822  0.00  0.00    -0.043 A 
ATOM     46  H   LIG d   1       1.233   0.641 -10.019  0.00  0.00     0.062 H 
ATOM     47  C   LIG d   1       1.799  -2.614 -10.703  0.00  0.00     0.041 A 
ATOM     48  H   LIG d   1       0.575  -1.115 -11.614  0.00  0.00     0.063 H 
ATOM     49  C   LIG d   1       2.694  -2.902  -9.687  0.00  0.00    -0.043 A 
ATOM     50 CL   LIG d   1       1.335  -3.854 -11.827  0.00  0.00    -0.084 Cl
ATOM     51  C   LIG d   1       3.066  -1.913  -8.796  0.00  0.00    -0.056 A 
ATOM     52  H   LIG d   1       3.104  -3.895  -9.594  0.00  0.00     0.063 H 
ATOM     53  H   LIG d   1       3.769  -2.135  -8.006  0.00  0.00     0.062 H 
ENDBRANCH  40  43
ENDBRANCH   9  40
TORSDOF 8
ENDMDL
MODEL 2
REMARK VINA RESULT:      -6.4      4.375      7.767
REMARK  8 active torsions:
REMARK  status: ('A' for Active; 'I' for Inactive)
REMARK    1  A    between atoms: C_1  and  O_2 
REMARK    2  A    between atoms: O_2  and  C_3 
REMARK    3  A    between atoms: C_8  and  C_9 
REMARK       I    between atoms: C_9  and  N_11 
REMARK    4  A    between atoms: N_17  and  C_18 
REMARK    5  A    between atoms: C_18  and  C_19 
REMARK    6  A    between atoms: C_27  and  C_29 
REMARK    7  A    between atoms: C_29  and  O_31 
REMARK    8  A    between atoms: O_31  and  C_32 
ROOT
ATOM      1  C   LIG d   1       2.744  -1.754 -10.417  0.00  0.00     0.251 C 
ATOM      2  O   LIG d   1       1.906  -1.924 -11.282  0.00  0.00    -0.270 OA
ATOM      3  N   LIG d   1       3.438  -2.804  -9.936  0.00  0.00    -0.278 N 
ATOM      4  C   LIG d   1       4.549  -2.605  -8.988  0.00  0.00     0.058 C 
ATOM      5  C   LIG d   1       4.396  -3.645  -7.901  0.00  0.00     0.059 A 
ATOM      6  C   LIG d   1       3.546  -4.692  -7.966  0.00  0.00     0.066 A 
ATOM      7  N   LIG d   1       3.686  -5.404  -6.843  0.00  0.00    -0.240 NA
ATOM      8  C   LIG d   1       4.588  -4.836  -6.085  0.00  0.00     0.097 A 
ATOM      9  N   LIG d   1       5.053  -3.732  -6.713  0.00  0.00    -0.328 N 
ATOM     10  C   LIG d   1       2.621  -4.966  -9.125  0.00  0.00     0.020 C 
ATOM     11  C   LIG d   1       3.109  -4.178 -10.347  0.00  0.00     0.129 C 
ATOM     12  H   LIG d   1       3.998  -4.657 -10.757  0.00  0.00     0.062 H 
ATOM     13  H   LIG d   1       5.502  -2.739  -9.502  0.00  0.00     0.053 H 
ATOM     14  H   LIG d   1       4.496  -1.605  -8.558  0.00  0.00     0.053 H 
ATOM     15  H   LIG d   1       4.907  -5.192  -5.116  0.00  0.00     0.103 H 
ATOM     16  H   LIG d   1       1.610  -4.652  -8.867  0.00  0.00     0.035 H 
ATOM     17  H   LIG d   1       2.624  -6.032  -9.353  0.00  0.00     0.035 H 
ENDROOT
BRANCH   1  18
ATOM     18  C   LIG d   1       3.004  -0.398  -9.899  0.00  0.00     0.079 A 
ATOM     19  C   LIG d   1       3.746   0.516 -10.658  0.00  0.00     0.132 A 
ATOM     20  C   LIG d   1       3.984   1.789 -10.162  0.00  0.00    -0.019 A 
ATOM     21  C   LIG d   1       3.491   2.152  -8.924  0.00  0.00    -0.058 A 
ATOM     22  H   LIG d   1       4.555   2.497 -10.743  0.00  0.00     0.065 H 
ATOM     23  C   LIG d   1       2.758   1.251  -8.170  0.00  0.00    -0.061 A 
ATOM     24  H   LIG d   1       3.679   3.145  -8.541  0.00  0.00     0.062 H 
ATOM     25  C   LIG d   1       2.507  -0.016  -8.651  0.00  0.00    -0.046 A 
ATOM     26  H   LIG d   1       2.376   1.545  -7.203  0.00  0.00     0.062 H 
ATOM     27  H   LIG d   1       1.931  -0.713  -8.061  0.00  0.00     0.063 H 
BRANCH  19  28
ATOM     28  O   LIG d   1       4.229   0.159 -11.875  0.00  0.00    -0.494 OA
BRANCH  28  29
ATOM     29  C   LIG d   1       5.528  -0.438 -11.908  0.00  0.00     0.079 C 
ATOM     30  H   LIG d   1       6.216   0.156 -11.306  0.00  0.00     0.066 H 
ATOM     31  H   LIG d   1       5.473  -1.449 -11.504  0.00  0.00     0.066 H 
ATOM     32  H   LIG d   1       5.884  -0.475 -12.936  0.00  0.00     0.066 H 
ENDBRANCH  28  29
ENDBRANCH  19  28
ENDBRANCH   1  18
BRANCH  11  33
ATOM     33  C   LIG d   1       2.024  -4.145 -11.392  0.00  0.00     0.328 C 
ATOM     34  O   LIG d   1       2.316  -4.079 -12.563  0.00  0.00    -0.249 OA
BRANCH  33  35
ATOM     35  O   LIG d   1       0.735  -4.187 -11.022  0.00  0.00    -0.467 OA
BRANCH  35  36
ATOM     36  C   LIG d   1      -0.168  -4.954 -11.863  0.00  0.00     0.082 C 
ATOM     37  H   LIG d   1       0.352  -5.259 -12.771  0.00  0.00     0.066 H 
ATOM     38  H   LIG d   1      -0.504  -5.838 -11.322  0.00  0.00     0.066 H 
ATOM     39  H   LIG d   1      -1.029  -4.339 -12.126  0.00  0.00     0.066 H 
ENDBRANCH  35  36
ENDBRANCH  33  35
ENDBRANCH  11  33
BRANCH   9  40
ATOM     40  C   LIG d   1       6.072  -2.807  -6.210  0.00  0.00     0.050 C 
ATOM     41  H   LIG d   1       6.875  -3.373  -5.738  0.00  0.00     0.054 H 
ATOM     42  H   LIG d   1       6.476  -2.226  -7.039  0.00  0.00     0.054 H 
BRANCH  40  43
ATOM     43  C   LIG d   1       5.451  -1.877  -5.200  0.00  0.00    -0.028 A 
ATOM     44  C   LIG d   1       5.879  -1.900  -3.886  0.00  0.00    -0.056 A 
ATOM     45  C   LIG d   1       5.311  -1.047  -2.958  0.00  0.00    -0.043 A 
ATOM     46  H   LIG d   1       6.659  -2.585  -3.583  0.00  0.00     0.062 H 
ATOM     47  C   LIG d   1       4.313  -0.171  -3.346  0.00  0.00     0.041 A 
ATOM     48  H   LIG d   1       5.645  -1.065  -1.932  0.00  0.00     0.063 H 
ATOM     49  C   LIG d   1       3.884  -0.148  -4.662  0.00  0.00    -0.043 A 
ATOM     50 CL   LIG d   1       3.598   0.901  -2.182  0.00  0.00    -0.084 Cl
ATOM     51  C   LIG d   1       4.458  -0.998  -5.588  0.00  0.00    -0.056 A 
ATOM     52  H   LIG d   1       3.106   0.535  -4.965  0.00  0.00     0.063 H 
ATOM     53  H   LIG d   1       4.128  -0.978  -6.617  0.00  0.00     0.062 H 
ENDBRANCH  40  43
ENDBRANCH   9  40
TORSDOF 8
ENDMDL
MODEL 3
REMARK VINA RESULT:      -6.4      1.723      2.789
REMARK  8 active torsions:
REMARK  status: ('A' for Active; 'I' for Inactive)
REMARK    1  A    between atoms: C_1  and  O_2 
REMARK    2  A    between atoms: O_2  and  C_3 
REMARK    3  A    between atoms: C_8  and  C_9 
REMARK       I    between atoms: C_9  and  N_11 
REMARK    4  A    between atoms: N_17  and  C_18 
REMARK    5  A    between atoms: C_18  and  C_19 
REMARK    6  A    between atoms: C_27  and  C_29 
REMARK    7  A    between atoms: C_29  and  O_31 
REMARK    8  A    between atoms: O_31  and  C_32 
ROOT
ATOM      1  C   LIG d   1       6.241  -1.653  -4.185  0.00  0.00     0.251 C 
ATOM      2  O   LIG d   1       6.941  -2.389  -3.517  0.00  0.00    -0.270 OA
ATOM      3  N   LIG d   1       6.304  -1.700  -5.530  0.00  0.00    -0.278 N 
ATOM      4  C   LIG d   1       5.370  -0.916  -6.359  0.00  0.00     0.058 C 
ATOM      5  C   LIG d   1       6.183  -0.282  -7.464  0.00  0.00     0.059 A 
ATOM      6  C   LIG d   1       7.462  -0.608  -7.748  0.00  0.00     0.066 A 
ATOM      7  N   LIG d   1       7.854   0.138  -8.786  0.00  0.00    -0.240 NA
ATOM      8  C   LIG d   1       6.869   0.915  -9.153  0.00  0.00     0.097 A 
ATOM      9  N   LIG d   1       5.807   0.682  -8.348  0.00  0.00    -0.328 N 
ATOM     10  C   LIG d   1       8.265  -1.640  -6.997  0.00  0.00     0.020 C 
ATOM     11  C   LIG d   1       7.303  -2.539  -6.209  0.00  0.00     0.129 C 
ATOM     12  H   LIG d   1       6.799  -3.221  -6.894  0.00  0.00     0.062 H 
ATOM     13  H   LIG d   1       4.610  -1.573  -6.783  0.00  0.00     0.053 H 
ATOM     14  H   LIG d   1       4.897  -0.143  -5.754  0.00  0.00     0.053 H 
ATOM     15  H   LIG d   1       6.899   1.626  -9.965  0.00  0.00     0.103 H 
ATOM     16  H   LIG d   1       8.946  -1.142  -6.307  0.00  0.00     0.035 H 
ATOM     17  H   LIG d   1       8.836  -2.246  -7.701  0.00  0.00     0.035 H 
ENDROOT
BRANCH   1  18
ATOM     18  C   LIG d   1       5.318  -0.711  -3.522  0.00  0.00     0.079 A 
ATOM     19  C   LIG d   1       5.796   0.503  -3.013  0.00  0.00     0.132 A 
ATOM     20  C   LIG d   1       4.920   1.381  -2.392  0.00  0.00    -0.019 A 
ATOM     21  C   LIG d   1       3.582   1.057  -2.277  0.00  0.00    -0.058 A 
ATOM     22  H   LIG d   1       5.284   2.318  -1.999  0.00  0.00     0.065 H 
ATOM     23  C   LIG d   1       3.106  -0.143  -2.778  0.00  0.00    -0.061 A 
ATOM     24  H   LIG d   1       2.904   1.744  -1.793  0.00  0.00     0.062 H 
ATOM     25  C   LIG d   1       3.963  -1.024  -3.403  0.00  0.00    -0.046 A 
ATOM     26  H   LIG d   1       2.059  -0.387  -2.684  0.00  0.00     0.062 H 
ATOM     27  H   LIG d   1       3.586  -1.956  -3.796  0.00  0.00     0.063 H 
BRANCH  19  28
ATOM     28  O   LIG d   1       7.110   0.821  -3.128  0.00  0.00    -0.494 OA
BRANCH  28  29
ATOM     29  C   LIG d   1       7.470   1.730  -4.170  0.00  0.00     0.079 C 
ATOM     30  H   LIG d   1       8.049   2.553  -3.751  0.00  0.00     0.066 H 
ATOM     31  H   LIG d   1       8.069   1.208  -4.917  0.00  0.00     0.066 H 
ATOM     32  H   LIG d   1       6.568   2.123  -4.638  0.00  0.00     0.066 H 
ENDBRANCH  28  29
ENDBRANCH  19  28
ENDBRANCH   1  18
BRANCH  11  33
ATOM     33  C   LIG d   1       8.076  -3.330  -5.186  0.00  0.00     0.328 C 
ATOM     34  O   LIG d   1       9.099  -2.883  -4.724  0.00  0.00    -0.249 OA
BRANCH  33  35
ATOM     35  O   LIG d   1       7.628  -4.531  -4.788  0.00  0.00    -0.467 OA
BRANCH  35  36
ATOM     36  C   LIG d   1       6.821  -5.281  -5.735  0.00  0.00     0.082 C 
ATOM     37  H   LIG d   1       6.553  -6.244  -5.301  0.00  0.00     0.066 H 
ATOM     38  H   LIG d   1       5.915  -4.719  -5.964  0.00  0.00     0.066 H 
ATOM     39  H   LIG d   1       7.391  -5.441  -6.651  0.00  0.00     0.066 H 
ENDBRANCH  35  36
ENDBRANCH  33  35
ENDBRANCH  11  33
BRANCH   9  40
ATOM     40  C   LIG d   1       4.500   1.340  -8.416  0.00  0.00     0.050 C 
ATOM     41  H   LIG d   1       4.056   1.370  -7.421  0.00  0.00     0.054 H 
ATOM     42  H   LIG d   1       4.624   2.357  -8.788  0.00  0.00     0.054 H 
BRANCH  40  43
ATOM     43  C   LIG d   1       3.598   0.571  -9.346  0.00  0.00    -0.028 A 
ATOM     44  C   LIG d   1       2.475  -0.065  -8.851  0.00  0.00    -0.056 A 
ATOM     45  C   LIG d   1       1.647  -0.770  -9.704  0.00  0.00    -0.043 A 
ATOM     46  H   LIG d   1       2.245  -0.010  -7.797  0.00  0.00     0.062 H 
ATOM     47  C   LIG d   1       1.942  -0.840 -11.053  0.00  0.00     0.041 A 
ATOM     48  H   LIG d   1       0.770  -1.267  -9.316  0.00  0.00     0.063 H 
ATOM     49  C   LIG d   1       3.067  -0.203 -11.549  0.00  0.00    -0.043 A 
ATOM     50 CL   LIG d   1       0.903  -1.726 -12.125  0.00  0.00    -0.084 Cl
ATOM     51  C   LIG d   1       3.890   0.506 -10.696  0.00  0.00    -0.056 A 
ATOM     52  H   LIG d   1       3.297  -0.257 -12.602  0.00  0.00     0.063 H 
ATOM     53  H   LIG d   1       4.765   1.008 -11.083  0.00  0.00     0.062 H 
ENDBRANCH  40  43
ENDBRANCH   9  40
TORSDOF 8
ENDMDL
MODEL 4
REMARK VINA RESULT:      -6.3      3.705      6.466
REMARK  8 active torsions:
REMARK  status: ('A' for Active; 'I' for Inactive)
REMARK    1  A    between atoms: C_1  and  O_2 
REMARK    2  A    between atoms: O_2  and  C_3 
REMARK    3  A    between atoms: C_8  and  C_9 
REMARK       I    between atoms: C_9  and  N_11 
REMARK    4  A    between atoms: N_17  and  C_18 
REMARK    5  A    between atoms: C_18  and  C_19 
REMARK    6  A    between atoms: C_27  and  C_29 
REMARK    7  A    between atoms: C_29  and  O_31 
REMARK    8  A    between atoms: O_31  and  C_32 
ROOT
ATOM      1  C   LIG d   1       3.851  -0.200  -5.711  0.00  0.00     0.251 C 
ATOM      2  O   LIG d   1       2.730  -0.118  -6.172  0.00  0.00    -0.270 OA
ATOM      3  N   LIG d   1       4.921  -0.172  -6.530  0.00  0.00    -0.278 N 
ATOM      4  C   LIG d   1       6.290  -0.134  -5.985  0.00  0.00     0.058 C 
ATOM      5  C   LIG d   1       7.113  -1.117  -6.785  0.00  0.00     0.059 A 
ATOM      6  C   LIG d   1       6.699  -1.699  -7.931  0.00  0.00     0.066 A 
ATOM      7  N   LIG d   1       7.681  -2.494  -8.366  0.00  0.00    -0.240 NA
ATOM      8  C   LIG d   1       8.687  -2.429  -7.533  0.00  0.00     0.097 A 
ATOM      9  N   LIG d   1       8.368  -1.578  -6.531  0.00  0.00    -0.328 N 
ATOM     10  C   LIG d   1       5.352  -1.462  -8.567  0.00  0.00     0.020 C 
ATOM     11  C   LIG d   1       4.752  -0.173  -7.991  0.00  0.00     0.129 C 
ATOM     12  H   LIG d   1       5.265   0.689  -8.417  0.00  0.00     0.062 H 
ATOM     13  H   LIG d   1       6.702   0.871  -6.089  0.00  0.00     0.053 H 
ATOM     14  H   LIG d   1       6.280  -0.425  -4.935  0.00  0.00     0.053 H 
ATOM     15  H   LIG d   1       9.619  -2.966  -7.630  0.00  0.00     0.103 H 
ATOM     16  H   LIG d   1       4.692  -2.301  -8.349  0.00  0.00     0.035 H 
ATOM     17  H   LIG d   1       5.468  -1.360  -9.646  0.00  0.00     0.035 H 
ENDROOT
BRANCH   1  18
ATOM     18  C   LIG d   1       4.042  -0.326  -4.253  0.00  0.00     0.079 A 
ATOM     19  C   LIG d   1       4.119  -1.592  -3.659  0.00  0.00     0.132 A 
ATOM     20  C   LIG d   1       4.299  -1.699  -2.288  0.00  0.00    -0.019 A 
ATOM     21  C   LIG d   1       4.401  -0.560  -1.513  0.00  0.00    -0.058 A 
ATOM     22  H   LIG d   1       4.359  -2.672  -1.826  0.00  0.00     0.065 H 
ATOM     23  C   LIG d   1       4.325   0.694  -2.097  0.00  0.00    -0.061 A 
ATOM     24  H   LIG d   1       4.541  -0.648  -0.446  0.00  0.00     0.062 H 
ATOM     25  C   LIG d   1       4.151   0.818  -3.459  0.00  0.00    -0.046 A 
ATOM     26  H   LIG d   1       4.406   1.578  -1.483  0.00  0.00     0.062 H 
ATOM     27  H   LIG d   1       4.097   1.797  -3.910  0.00  0.00     0.063 H 
BRANCH  19  28
ATOM     28  O   LIG d   1       4.019  -2.710  -4.421  0.00  0.00    -0.494 OA
BRANCH  28  29
ATOM     29  C   LIG d   1       5.207  -3.487  -4.593  0.00  0.00     0.079 C 
ATOM     30  H   LIG d   1       5.370  -3.672  -5.654  0.00  0.00     0.066 H 
ATOM     31  H   LIG d   1       6.059  -2.944  -4.183  0.00  0.00     0.066 H 
ATOM     32  H   LIG d   1       5.098  -4.438  -4.072  0.00  0.00     0.066 H 
ENDBRANCH  28  29
ENDBRANCH  19  28
ENDBRANCH   1  18
BRANCH  11  33
ATOM     33  C   LIG d   1       3.285  -0.105  -8.328  0.00  0.00     0.328 C 
ATOM     34  O   LIG d   1       2.665  -1.122  -8.532  0.00  0.00    -0.249 OA
BRANCH  33  35
ATOM     35  O   LIG d   1       2.668   1.084  -8.403  0.00  0.00    -0.467 OA
BRANCH  35  36
ATOM     36  C   LIG d   1       3.451   2.204  -8.896  0.00  0.00     0.082 C 
ATOM     37  H   LIG d   1       2.798   3.063  -9.053  0.00  0.00     0.066 H 
ATOM     38  H   LIG d   1       4.218   2.459  -8.164  0.00  0.00     0.066 H 
ATOM     39  H   LIG d   1       3.924   1.929  -9.838  0.00  0.00     0.066 H 
ENDBRANCH  35  36
ENDBRANCH  33  35
ENDBRANCH  11  33
BRANCH   9  40
ATOM     40  C   LIG d   1       9.213  -1.220  -5.388  0.00  0.00     0.050 C 
ATOM     41  H   LIG d   1      10.087  -0.673  -5.741  0.00  0.00     0.054 H 
ATOM     42  H   LIG d   1       8.646  -0.593  -4.700  0.00  0.00     0.054 H 
BRANCH  40  43
ATOM     43  C   LIG d   1       9.656  -2.474  -4.679  0.00  0.00    -0.028 A 
ATOM     44  C   LIG d   1      10.986  -2.846  -4.701  0.00  0.00    -0.056 A 
ATOM     45  C   LIG d   1      11.394  -3.996  -4.050  0.00  0.00    -0.043 A 
ATOM     46  H   LIG d   1      11.709  -2.239  -5.227  0.00  0.00     0.062 H 
ATOM     47  C   LIG d   1      10.469  -4.773  -3.377  0.00  0.00     0.041 A 
ATOM     48  H   LIG d   1      12.434  -4.287  -4.068  0.00  0.00     0.063 H 
ATOM     49  C   LIG d   1       9.136  -4.400  -3.355  0.00  0.00    -0.043 A 
ATOM     50 CL   LIG d   1      10.979  -6.217  -2.559  0.00  0.00    -0.084 Cl
ATOM     51  C   LIG d   1       8.732  -3.248  -4.002  0.00  0.00    -0.056 A 
ATOM     52  H   LIG d   1       8.415  -5.006  -2.830  0.00  0.00     0.063 H 
ATOM     53  H   LIG d   1       7.693  -2.953  -3.981  0.00  0.00     0.062 H 
ENDBRANCH  40  43
ENDBRANCH   9  40
TORSDOF 8
ENDMDL
MODEL 5
REMARK VINA RESULT:      -6.3      3.871      6.106
REMARK  8 active torsions:
REMARK  status: ('A' for Active; 'I' for Inactive)
REMARK    1  A    between atoms: C_1  and  O_2 
REMARK    2  A    between atoms: O_2  and  C_3 
REMARK    3  A    between atoms: C_8  and  C_9 
REMARK       I    between atoms: C_9  and  N_11 
REMARK    4  A    between atoms: N_17  and  C_18 
REMARK    5  A    between atoms: C_18  and  C_19 
REMARK    6  A    between atoms: C_27  and  C_29 
REMARK    7  A    between atoms: C_29  and  O_31 
REMARK    8  A    between atoms: O_31  and  C_32 
ROOT
ATOM      1  C   LIG d   1       4.051  -0.223  -5.803  0.00  0.00     0.251 C 
ATOM      2  O   LIG d   1       3.291   0.669  -6.126  0.00  0.00    -0.270 OA
ATOM      3  N   LIG d   1       4.767  -0.873  -6.743  0.00  0.00    -0.278 N 
ATOM      4  C   LIG d   1       5.791  -1.862  -6.363  0.00  0.00     0.058 C 
ATOM      5  C   LIG d   1       5.618  -3.053  -7.278  0.00  0.00     0.059 A 
ATOM      6  C   LIG d   1       4.837  -3.057  -8.379  0.00  0.00     0.066 A 
ATOM      7  N   LIG d   1       4.933  -4.263  -8.946  0.00  0.00    -0.240 NA
ATOM      8  C   LIG d   1       5.741  -5.007  -8.237  0.00  0.00     0.097 A 
ATOM      9  N   LIG d   1       6.188  -4.285  -7.185  0.00  0.00    -0.328 N 
ATOM     10  C   LIG d   1       4.017  -1.880  -8.846  0.00  0.00     0.020 C 
ATOM     11  C   LIG d   1       4.549  -0.608  -8.173  0.00  0.00     0.129 C 
ATOM     12  H   LIG d   1       5.492  -0.318  -8.637  0.00  0.00     0.062 H 
ATOM     13  H   LIG d   1       6.786  -1.433  -6.492  0.00  0.00     0.053 H 
ATOM     14  H   LIG d   1       5.648  -2.165  -5.326  0.00  0.00     0.053 H 
ATOM     15  H   LIG d   1       6.008  -6.031  -8.456  0.00  0.00     0.103 H 
ATOM     16  H   LIG d   1       2.973  -2.029  -8.571  0.00  0.00     0.035 H 
ATOM     17  H   LIG d   1       4.099  -1.781  -9.929  0.00  0.00     0.035 H 
ENDROOT
BRANCH   1  18
ATOM     18  C   LIG d   1       4.194  -0.592  -4.382  0.00  0.00     0.079 A 
ATOM     19  C   LIG d   1       5.088   0.105  -3.559  0.00  0.00     0.132 A 
ATOM     20  C   LIG d   1       5.214  -0.249  -2.224  0.00  0.00    -0.019 A 
ATOM     21  C   LIG d   1       4.460  -1.285  -1.709  0.00  0.00    -0.058 A 
ATOM     22  H   LIG d   1       5.902   0.285  -1.587  0.00  0.00     0.065 H 
ATOM     23  C   LIG d   1       3.575  -1.977  -2.520  0.00  0.00    -0.061 A 
ATOM     24  H   LIG d   1       4.561  -1.557  -0.669  0.00  0.00     0.062 H 
ATOM     25  C   LIG d   1       3.434  -1.635  -3.847  0.00  0.00    -0.046 A 
ATOM     26  H   LIG d   1       2.989  -2.785  -2.108  0.00  0.00     0.062 H 
ATOM     27  H   LIG d   1       2.739  -2.174  -4.474  0.00  0.00     0.063 H 
BRANCH  19  28
ATOM     28  O   LIG d   1       5.828   1.123  -4.066  0.00  0.00    -0.494 OA
BRANCH  28  29
ATOM     29  C   LIG d   1       7.247   1.031  -3.918  0.00  0.00     0.079 C 
ATOM     30  H   LIG d   1       7.485   0.673  -2.917  0.00  0.00     0.066 H 
ATOM     31  H   LIG d   1       7.645   0.335  -4.657  0.00  0.00     0.066 H 
ATOM     32  H   LIG d   1       7.693   2.014  -4.067  0.00  0.00     0.066 H 
ENDBRANCH  28  29
ENDBRANCH  19  28
ENDBRANCH   1  18
BRANCH  11  33
ATOM     33  C   LIG d   1       3.545   0.504  -8.332  0.00  0.00     0.328 C 
ATOM     34  O   LIG d   1       2.375   0.244  -8.488  0.00  0.00    -0.249 OA
BRANCH  33  35
ATOM     35  O   LIG d   1       3.949   1.783  -8.301  0.00  0.00    -0.467 OA
BRANCH  35  36
ATOM     36  C   LIG d   1       3.816   2.547  -9.530  0.00  0.00     0.082 C 
ATOM     37  H   LIG d   1       3.905   1.877 -10.386  0.00  0.00     0.066 H 
ATOM     38  H   LIG d   1       2.841   3.035  -9.550  0.00  0.00     0.066 H 
ATOM     39  H   LIG d   1       4.602   3.302  -9.575  0.00  0.00     0.066 H 
ENDBRANCH  35  36
ENDBRANCH  33  35
ENDBRANCH  11  33
BRANCH   9  40
ATOM     40  C   LIG d   1       7.112  -4.741  -6.143  0.00  0.00     0.050 C 
ATOM     41  H   LIG d   1       8.124  -4.776  -6.545  0.00  0.00     0.054 H 
ATOM     42  H   LIG d   1       7.080  -4.049  -5.301  0.00  0.00     0.054 H 
BRANCH  40  43
ATOM     43  C   LIG d   1       6.707  -6.116  -5.679  0.00  0.00    -0.028 A 
ATOM     44  C   LIG d   1       7.673  -7.033  -5.309  0.00  0.00    -0.056 A 
ATOM     45  C   LIG d   1       7.303  -8.294  -4.883  0.00  0.00    -0.043 A 
ATOM     46  H   LIG d   1       8.719  -6.762  -5.352  0.00  0.00     0.062 H 
ATOM     47  C   LIG d   1       5.965  -8.640  -4.828  0.00  0.00     0.041 A 
ATOM     48  H   LIG d   1       8.058  -9.010  -4.594  0.00  0.00     0.063 H 
ATOM     49  C   LIG d   1       4.997  -7.722  -5.199  0.00  0.00    -0.043 A 
ATOM     50 CL   LIG d   1       5.497 -10.224  -4.294  0.00  0.00    -0.084 Cl
ATOM     51  C   LIG d   1       5.369  -6.459  -5.619  0.00  0.00    -0.056 A 
ATOM     52  H   LIG d   1       3.953  -7.991  -5.156  0.00  0.00     0.063 H 
ATOM     53  H   LIG d   1       4.615  -5.741  -5.904  0.00  0.00     0.062 H 
ENDBRANCH  40  43
ENDBRANCH   9  40
TORSDOF 8
ENDMDL
MODEL 6
REMARK VINA RESULT:      -6.3      4.117      6.494
REMARK  8 active torsions:
REMARK  status: ('A' for Active; 'I' for Inactive)
REMARK    1  A    between atoms: C_1  and  O_2 
REMARK    2  A    between atoms: O_2  and  C_3 
REMARK    3  A    between atoms: C_8  and  C_9 
REMARK       I    between atoms: C_9  and  N_11 
REMARK    4  A    between atoms: N_17  and  C_18 
REMARK    5  A    between atoms: C_18  and  C_19 
REMARK    6  A    between atoms: C_27  and  C_29 
REMARK    7  A    between atoms: C_29  and  O_31 
REMARK    8  A    between atoms: O_31  and  C_32 
ROOT
ATOM      1  C   LIG d   1       4.717  -2.084  -4.620  0.00  0.00     0.251 C 
ATOM      2  O   LIG d   1       4.279  -3.154  -4.242  0.00  0.00    -0.270 OA
ATOM      3  N   LIG d   1       5.426  -2.011  -5.763  0.00  0.00    -0.278 N 
ATOM      4  C   LIG d   1       5.849  -0.708  -6.309  0.00  0.00     0.058 C 
ATOM      5  C   LIG d   1       7.289  -0.857  -6.744  0.00  0.00     0.059 A 
ATOM      6  C   LIG d   1       7.936  -2.038  -6.836  0.00  0.00     0.066 A 
ATOM      7  N   LIG d   1       9.180  -1.792  -7.260  0.00  0.00    -0.240 NA
ATOM      8  C   LIG d   1       9.328  -0.504  -7.432  0.00  0.00     0.097 A 
ATOM      9  N   LIG d   1       8.166   0.114  -7.117  0.00  0.00    -0.328 N 
ATOM     10  C   LIG d   1       7.321  -3.374  -6.506  0.00  0.00     0.020 C 
ATOM     11  C   LIG d   1       5.793  -3.229  -6.502  0.00  0.00     0.129 C 
ATOM     12  H   LIG d   1       5.432  -3.155  -7.527  0.00  0.00     0.062 H 
ATOM     13  H   LIG d   1       5.225  -0.445  -7.163  0.00  0.00     0.053 H 
ATOM     14  H   LIG d   1       5.769   0.060  -5.539  0.00  0.00     0.053 H 
ATOM     15  H   LIG d   1      10.230  -0.015  -7.769  0.00  0.00     0.103 H 
ATOM     16  H   LIG d   1       7.659  -3.700  -5.522  0.00  0.00     0.035 H 
ATOM     17  H   LIG d   1       7.615  -4.110  -7.255  0.00  0.00     0.035 H 
ENDROOT
BRANCH   1  18
ATOM     18  C   LIG d   1       4.466  -0.864  -3.828  0.00  0.00     0.079 A 
ATOM     19  C   LIG d   1       3.388  -0.027  -4.145  0.00  0.00     0.132 A 
ATOM     20  C   LIG d   1       3.161   1.116  -3.394  0.00  0.00    -0.019 A 
ATOM     21  C   LIG d   1       3.996   1.427  -2.337  0.00  0.00    -0.058 A 
ATOM     22  H   LIG d   1       2.332   1.764  -3.634  0.00  0.00     0.065 H 
ATOM     23  C   LIG d   1       5.063   0.602  -2.021  0.00  0.00    -0.061 A 
ATOM     24  H   LIG d   1       3.815   2.318  -1.755  0.00  0.00     0.062 H 
ATOM     25  C   LIG d   1       5.299  -0.541  -2.754  0.00  0.00    -0.046 A 
ATOM     26  H   LIG d   1       5.709   0.853  -1.193  0.00  0.00     0.062 H 
ATOM     27  H   LIG d   1       6.129  -1.183  -2.501  0.00  0.00     0.063 H 
BRANCH  19  28
ATOM     28  O   LIG d   1       2.569  -0.334  -5.182  0.00  0.00    -0.494 OA
BRANCH  28  29
ATOM     29  C   LIG d   1       2.622   0.522  -6.326  0.00  0.00     0.079 C 
ATOM     30  H   LIG d   1       1.609   0.732  -6.669  0.00  0.00     0.066 H 
ATOM     31  H   LIG d   1       3.115   1.456  -6.057  0.00  0.00     0.066 H 
ATOM     32  H   LIG d   1       3.180   0.031  -7.122  0.00  0.00     0.066 H 
ENDBRANCH  28  29
ENDBRANCH  19  28
ENDBRANCH   1  18
BRANCH  11  33
ATOM     33  C   LIG d   1       5.174  -4.429  -5.833  0.00  0.00     0.328 C 
ATOM     34  O   LIG d   1       5.817  -5.076  -5.040  0.00  0.00    -0.249 OA
BRANCH  33  35
ATOM     35  O   LIG d   1       3.911  -4.779  -6.119  0.00  0.00    -0.467 OA
BRANCH  35  36
ATOM     36  C   LIG d   1       3.591  -5.011  -7.517  0.00  0.00     0.082 C 
ATOM     37  H   LIG d   1       4.172  -5.856  -7.888  0.00  0.00     0.066 H 
ATOM     38  H   LIG d   1       2.527  -5.229  -7.614  0.00  0.00     0.066 H 
ATOM     39  H   LIG d   1       3.834  -4.120  -8.097  0.00  0.00     0.066 H 
ENDBRANCH  35  36
ENDBRANCH  33  35
ENDBRANCH  11  33
BRANCH   9  40
ATOM     40  C   LIG d   1       7.903   1.554  -7.170  0.00  0.00     0.050 C 
ATOM     41  H   LIG d   1       8.332   1.969  -8.082  0.00  0.00     0.054 H 
ATOM     42  H   LIG d   1       6.826   1.727  -7.164  0.00  0.00     0.054 H 
BRANCH  40  43
ATOM     43  C   LIG d   1       8.525   2.223  -5.972  0.00  0.00    -0.028 A 
ATOM     44  C   LIG d   1       8.150   1.845  -4.697  0.00  0.00    -0.056 A 
ATOM     45  C   LIG d   1       8.720   2.457  -3.597  0.00  0.00    -0.043 A 
ATOM     46  H   LIG d   1       7.410   1.069  -4.560  0.00  0.00     0.062 H 
ATOM     47  C   LIG d   1       9.667   3.450  -3.773  0.00  0.00     0.041 A 
ATOM     48  H   LIG d   1       8.427   2.161  -2.601  0.00  0.00     0.063 H 
ATOM     49  C   LIG d   1      10.043   3.830  -5.050  0.00  0.00    -0.043 A 
ATOM     50 CL   LIG d   1      10.385   4.221  -2.393  0.00  0.00    -0.084 Cl
ATOM     51  C   LIG d   1       9.475   3.212  -6.148  0.00  0.00    -0.056 A 
ATOM     52  H   LIG d   1      10.782   4.604  -5.188  0.00  0.00     0.063 H 
ATOM     53  H   LIG d   1       9.772   3.503  -7.145  0.00  0.00     0.062 H 
ENDBRANCH  40  43
ENDBRANCH   9  40
TORSDOF 8
ENDMDL
MODEL 7
REMARK VINA RESULT:      -6.3      1.876      2.798
REMARK  8 active torsions:
REMARK  status: ('A' for Active; 'I' for Inactive)
REMARK    1  A    between atoms: C_1  and  O_2 
REMARK    2  A    between atoms: O_2  and  C_3 
REMARK    3  A    between atoms: C_8  and  C_9 
REMARK       I    between atoms: C_9  and  N_11 
REMARK    4  A    between atoms: N_17  and  C_18 
REMARK    5  A    between atoms: C_18  and  C_19 
REMARK    6  A    between atoms: C_27  and  C_29 
REMARK    7  A    between atoms: C_29  and  O_31 
REMARK    8  A    between atoms: O_31  and  C_32 
ROOT
ATOM      1  C   LIG d   1       6.880  -2.020  -3.907  0.00  0.00     0.251 C 
ATOM      2  O   LIG d   1       7.792  -2.541  -3.294  0.00  0.00    -0.270 OA
ATOM      3  N   LIG d   1       6.651  -2.360  -5.191  0.00  0.00    -0.278 N 
ATOM      4  C   LIG d   1       5.473  -1.844  -5.911  0.00  0.00     0.058 C 
ATOM      5  C   LIG d   1       5.943  -1.417  -7.282  0.00  0.00     0.059 A 
ATOM      6  C   LIG d   1       7.157  -1.710  -7.794  0.00  0.00     0.066 A 
ATOM      7  N   LIG d   1       7.222  -1.188  -9.023  0.00  0.00    -0.240 NA
ATOM      8  C   LIG d   1       6.096  -0.580  -9.290  0.00  0.00     0.097 A 
ATOM      9  N   LIG d   1       5.271  -0.701  -8.224  0.00  0.00    -0.328 N 
ATOM     10  C   LIG d   1       8.221  -2.493  -7.066  0.00  0.00     0.020 C 
ATOM     11  C   LIG d   1       7.568  -3.259  -5.908  0.00  0.00     0.129 C 
ATOM     12  H   LIG d   1       7.010  -4.108  -6.302  0.00  0.00     0.062 H 
ATOM     13  H   LIG d   1       4.721  -2.629  -6.000  0.00  0.00     0.053 H 
ATOM     14  H   LIG d   1       5.056  -0.990  -5.377  0.00  0.00     0.053 H 
ATOM     15  H   LIG d   1       5.862  -0.065 -10.211  0.00  0.00     0.103 H 
ATOM     16  H   LIG d   1       8.974  -1.810  -6.674  0.00  0.00     0.035 H 
ATOM     17  H   LIG d   1       8.691  -3.200  -7.751  0.00  0.00     0.035 H 
ENDROOT
BRANCH   1  18
ATOM     18  C   LIG d   1       6.022  -1.020  -3.244  0.00  0.00     0.079 A 
ATOM     19  C   LIG d   1       6.243   0.347  -3.452  0.00  0.00     0.132 A 
ATOM     20  C   LIG d   1       5.430   1.279  -2.824  0.00  0.00    -0.019 A 
ATOM     21  C   LIG d   1       4.406   0.858  -1.997  0.00  0.00    -0.058 A 
ATOM     22  H   LIG d   1       5.596   2.334  -2.981  0.00  0.00     0.065 H 
ATOM     23  C   LIG d   1       4.184  -0.493  -1.789  0.00  0.00    -0.061 A 
ATOM     24  H   LIG d   1       3.775   1.587  -1.511  0.00  0.00     0.062 H 
ATOM     25  C   LIG d   1       4.980  -1.432  -2.409  0.00  0.00    -0.046 A 
ATOM     26  H   LIG d   1       3.381  -0.812  -1.142  0.00  0.00     0.062 H 
ATOM     27  H   LIG d   1       4.801  -2.484  -2.248  0.00  0.00     0.063 H 
BRANCH  19  28
ATOM     28  O   LIG d   1       7.248   0.760  -4.264  0.00  0.00    -0.494 OA
BRANCH  28  29
ATOM     29  C   LIG d   1       8.147   1.739  -3.739  0.00  0.00     0.079 C 
ATOM     30  H   LIG d   1       8.057   2.660  -4.315  0.00  0.00     0.066 H 
ATOM     31  H   LIG d   1       7.899   1.937  -2.696  0.00  0.00     0.066 H 
ATOM     32  H   LIG d   1       9.169   1.368  -3.806  0.00  0.00     0.066 H 
ENDBRANCH  28  29
ENDBRANCH  19  28
ENDBRANCH   1  18
BRANCH  11  33
ATOM     33  C   LIG d   1       8.634  -3.749  -4.963  0.00  0.00     0.328 C 
ATOM     34  O   LIG d   1       9.672  -3.139  -4.855  0.00  0.00    -0.249 OA
BRANCH  33  35
ATOM     35  O   LIG d   1       8.432  -4.864  -4.244  0.00  0.00    -0.467 OA
BRANCH  35  36
ATOM     36  C   LIG d   1       9.607  -5.512  -3.688  0.00  0.00     0.082 C 
ATOM     37  H   LIG d   1      10.501  -4.967  -3.992  0.00  0.00     0.066 H 
ATOM     38  H   LIG d   1       9.537  -5.519  -2.600  0.00  0.00     0.066 H 
ATOM     39  H   LIG d   1       9.664  -6.537  -4.055  0.00  0.00     0.066 H 
ENDBRANCH  35  36
ENDBRANCH  33  35
ENDBRANCH  11  33
BRANCH   9  40
ATOM     40  C   LIG d   1       3.913  -0.164  -8.107  0.00  0.00     0.050 C 
ATOM     41  H   LIG d   1       3.561  -0.288  -7.083  0.00  0.00     0.054 H 
ATOM     42  H   LIG d   1       3.918   0.896  -8.363  0.00  0.00     0.054 H 
BRANCH  40  43
ATOM     43  C   LIG d   1       2.997  -0.904  -9.047  0.00  0.00    -0.028 A 
ATOM     44  C   LIG d   1       2.139  -0.201  -9.872  0.00  0.00    -0.056 A 
ATOM     45  C   LIG d   1       1.299  -0.878 -10.735  0.00  0.00    -0.043 A 
ATOM     46  H   LIG d   1       2.126   0.880  -9.842  0.00  0.00     0.062 H 
ATOM     47  C   LIG d   1       1.317  -2.260 -10.773  0.00  0.00     0.041 A 
ATOM     48  H   LIG d   1       0.629  -0.328 -11.379  0.00  0.00     0.063 H 
ATOM     49  C   LIG d   1       2.175  -2.965  -9.947  0.00  0.00    -0.043 A 
ATOM     50 CL   LIG d   1       0.261  -3.113 -11.857  0.00  0.00    -0.084 Cl
ATOM     51  C   LIG d   1       3.019  -2.285  -9.089  0.00  0.00    -0.056 A 
ATOM     52  H   LIG d   1       2.190  -4.043  -9.977  0.00  0.00     0.063 H 
ATOM     53  H   LIG d   1       3.693  -2.833  -8.448  0.00  0.00     0.062 H 
ENDBRANCH  40  43
ENDBRANCH   9  40
TORSDOF 8
ENDMDL
MODEL 8
REMARK VINA RESULT:      -6.2      3.764      6.164
REMARK  8 active torsions:
REMARK  status: ('A' for Active; 'I' for Inactive)
REMARK    1  A    between atoms: C_1  and  O_2 
REMARK    2  A    between atoms: O_2  and  C_3 
REMARK    3  A    between atoms: C_8  and  C_9 
REMARK       I    between atoms: C_9  and  N_11 
REMARK    4  A    between atoms: N_17  and  C_18 
REMARK    5  A    between atoms: C_18  and  C_19 
REMARK    6  A    between atoms: C_27  and  C_29 
REMARK    7  A    between atoms: C_29  and  O_31 
REMARK    8  A    between atoms: O_31  and  C_32 
ROOT
ATOM      1  C   LIG d   1       4.004  -0.327  -6.064  0.00  0.00     0.251 C 
ATOM      2  O   LIG d   1       3.531   0.692  -6.527  0.00  0.00    -0.270 OA
ATOM      3  N   LIG d   1       4.435  -1.304  -6.886  0.00  0.00    -0.278 N 
ATOM      4  C   LIG d   1       5.134  -2.488  -6.353  0.00  0.00     0.058 C 
ATOM      5  C   LIG d   1       4.556  -3.696  -7.054  0.00  0.00     0.059 A 
ATOM      6  C   LIG d   1       3.748  -3.634  -8.133  0.00  0.00     0.066 A 
ATOM      7  N   LIG d   1       3.444  -4.886  -8.491  0.00  0.00    -0.240 NA
ATOM      8  C   LIG d   1       4.030  -5.720  -7.672  0.00  0.00     0.097 A 
ATOM      9  N   LIG d   1       4.734  -5.013  -6.759  0.00  0.00    -0.328 N 
ATOM     10  C   LIG d   1       3.296  -2.351  -8.785  0.00  0.00     0.020 C 
ATOM     11  C   LIG d   1       4.224  -1.215  -8.339  0.00  0.00     0.129 C 
ATOM     12  H   LIG d   1       5.182  -1.305  -8.851  0.00  0.00     0.062 H 
ATOM     13  H   LIG d   1       6.202  -2.411  -6.558  0.00  0.00     0.053 H 
ATOM     14  H   LIG d   1       4.966  -2.565  -5.279  0.00  0.00     0.053 H 
ATOM     15  H   LIG d   1       3.963  -6.797  -7.718  0.00  0.00     0.103 H 
ATOM     16  H   LIG d   1       2.273  -2.128  -8.482  0.00  0.00     0.035 H 
ATOM     17  H   LIG d   1       3.341  -2.455  -9.870  0.00  0.00     0.035 H 
ENDROOT
BRANCH   1  18
ATOM     18  C   LIG d   1       4.111  -0.493  -4.602  0.00  0.00     0.079 A 
ATOM     19  C   LIG d   1       5.221   0.013  -3.915  0.00  0.00     0.132 A 
ATOM     20  C   LIG d   1       5.312  -0.147  -2.540  0.00  0.00    -0.019 A 
ATOM     21  C   LIG d   1       4.310  -0.804  -1.853  0.00  0.00    -0.058 A 
ATOM     22  H   LIG d   1       6.166   0.241  -2.006  0.00  0.00     0.065 H 
ATOM     23  C   LIG d   1       3.210  -1.307  -2.529  0.00  0.00    -0.061 A 
ATOM     24  H   LIG d   1       4.384  -0.927  -0.782  0.00  0.00     0.062 H 
ATOM     25  C   LIG d   1       3.102  -1.151  -3.894  0.00  0.00    -0.046 A 
ATOM     26  H   LIG d   1       2.431  -1.818  -1.983  0.00  0.00     0.062 H 
ATOM     27  H   LIG d   1       2.241  -1.540  -4.416  0.00  0.00     0.063 H 
BRANCH  19  28
ATOM     28  O   LIG d   1       6.205   0.659  -4.590  0.00  0.00    -0.494 OA
BRANCH  28  29
ATOM     29  C   LIG d   1       7.278   1.199  -3.816  0.00  0.00     0.079 C 
ATOM     30  H   LIG d   1       8.229   0.869  -4.233  0.00  0.00     0.066 H 
ATOM     31  H   LIG d   1       7.230   2.288  -3.838  0.00  0.00     0.066 H 
ATOM     32  H   LIG d   1       7.194   0.852  -2.786  0.00  0.00     0.066 H 
ENDBRANCH  28  29
ENDBRANCH  19  28
ENDBRANCH   1  18
BRANCH  11  33
ATOM     33  C   LIG d   1       3.594   0.112  -8.675  0.00  0.00     0.328 C 
ATOM     34  O   LIG d   1       2.392   0.211  -8.738  0.00  0.00    -0.249 OA
BRANCH  33  35
ATOM     35  O   LIG d   1       4.369   1.183  -8.907  0.00  0.00    -0.467 OA
BRANCH  35  36
ATOM     36  C   LIG d   1       3.814   2.228  -9.751  0.00  0.00     0.082 C 
ATOM     37  H   LIG d   1       3.689   1.848 -10.765  0.00  0.00     0.066 H 
ATOM     38  H   LIG d   1       2.846   2.537  -9.356  0.00  0.00     0.066 H 
ATOM     39  H   LIG d   1       4.492   3.082  -9.763  0.00  0.00     0.066 H 
ENDBRANCH  35  36
ENDBRANCH  33  35
ENDBRANCH  11  33
BRANCH   9  40
ATOM     40  C   LIG d   1       5.536  -5.560  -5.662  0.00  0.00     0.050 C 
ATOM     41  H   LIG d   1       5.294  -5.035  -4.738  0.00  0.00     0.054 H 
ATOM     42  H   LIG d   1       5.315  -6.621  -5.545  0.00  0.00     0.054 H 
BRANCH  40  43
ATOM     43  C   LIG d   1       7.000  -5.383  -5.972  0.00  0.00    -0.028 A 
ATOM     44  C   LIG d   1       7.819  -4.714  -5.082  0.00  0.00    -0.056 A 
ATOM     45  C   LIG d   1       9.162  -4.551  -5.366  0.00  0.00    -0.043 A 
ATOM     46  H   LIG d   1       7.409  -4.319  -4.164  0.00  0.00     0.062 H 
ATOM     47  C   LIG d   1       9.686  -5.056  -6.542  0.00  0.00     0.041 A 
ATOM     48  H   LIG d   1       9.801  -4.028  -4.670  0.00  0.00     0.063 H 
ATOM     49  C   LIG d   1       8.866  -5.725  -7.434  0.00  0.00    -0.043 A 
ATOM     50 CL   LIG d   1      11.372  -4.852  -6.900  0.00  0.00    -0.084 Cl
ATOM     51  C   LIG d   1       7.524  -5.892  -7.145  0.00  0.00    -0.056 A 
ATOM     52  H   LIG d   1       9.274  -6.120  -8.351  0.00  0.00     0.063 H 
ATOM     53  H   LIG d   1       6.885  -6.419  -7.838  0.00  0.00     0.062 H 
ENDBRANCH  40  43
ENDBRANCH   9  40
TORSDOF 8
ENDMDL
MODEL 9
REMARK VINA RESULT:      -6.0      3.075      4.953
REMARK  8 active torsions:
REMARK  status: ('A' for Active; 'I' for Inactive)
REMARK    1  A    between atoms: C_1  and  O_2 
REMARK    2  A    between atoms: O_2  and  C_3 
REMARK    3  A    between atoms: C_8  and  C_9 
REMARK       I    between atoms: C_9  and  N_11 
REMARK    4  A    between atoms: N_17  and  C_18 
REMARK    5  A    between atoms: C_18  and  C_19 
REMARK    6  A    between atoms: C_27  and  C_29 
REMARK    7  A    between atoms: C_29  and  O_31 
REMARK    8  A    between atoms: O_31  and  C_32 
ROOT
ATOM      1  C   LIG d   1       5.095  -2.140  -4.040  0.00  0.00     0.251 C 
ATOM      2  O   LIG d   1       4.533  -2.258  -2.968  0.00  0.00    -0.270 OA
ATOM      3  N   LIG d   1       4.892  -1.039  -4.790  0.00  0.00    -0.278 N 
ATOM      4  C   LIG d   1       5.664  -0.812  -6.025  0.00  0.00     0.058 C 
ATOM      5  C   LIG d   1       4.687  -0.339  -7.077  0.00  0.00     0.059 A 
ATOM      6  C   LIG d   1       3.416   0.036  -6.820  0.00  0.00     0.066 A 
ATOM      7  N   LIG d   1       2.855   0.403  -7.976  0.00  0.00    -0.240 NA
ATOM      8  C   LIG d   1       3.728   0.266  -8.940  0.00  0.00     0.097 A 
ATOM      9  N   LIG d   1       4.886  -0.197  -8.416  0.00  0.00    -0.328 N 
ATOM     10  C   LIG d   1       2.786   0.025  -5.450  0.00  0.00     0.020 C 
ATOM     11  C   LIG d   1       3.898  -0.029  -4.394  0.00  0.00     0.129 C 
ATOM     12  H   LIG d   1       4.379   0.946  -4.322  0.00  0.00     0.062 H 
ATOM     13  H   LIG d   1       6.425  -0.050  -5.851  0.00  0.00     0.053 H 
ATOM     14  H   LIG d   1       6.134  -1.742  -6.344  0.00  0.00     0.053 H 
ATOM     15  H   LIG d   1       3.553   0.488  -9.983  0.00  0.00     0.103 H 
ATOM     16  H   LIG d   1       2.144  -0.850  -5.350  0.00  0.00     0.035 H 
ATOM     17  H   LIG d   1       2.194   0.930  -5.310  0.00  0.00     0.035 H 
ENDROOT
BRANCH   1  18
ATOM     18  C   LIG d   1       6.003  -3.200  -4.517  0.00  0.00     0.079 A 
ATOM     19  C   LIG d   1       5.512  -4.243  -5.312  0.00  0.00     0.132 A 
ATOM     20  C   LIG d   1       6.375  -5.235  -5.756  0.00  0.00    -0.019 A 
ATOM     21  C   LIG d   1       7.712  -5.191  -5.413  0.00  0.00    -0.058 A 
ATOM     22  H   LIG d   1       6.001  -6.041  -6.369  0.00  0.00     0.065 H 
ATOM     23  C   LIG d   1       8.201  -4.162  -4.626  0.00  0.00    -0.061 A 
ATOM     24  H   LIG d   1       8.381  -5.965  -5.761  0.00  0.00     0.062 H 
ATOM     25  C   LIG d   1       7.359  -3.166  -4.182  0.00  0.00    -0.046 A 
ATOM     26  H   LIG d   1       9.249  -4.136  -4.365  0.00  0.00     0.062 H 
ATOM     27  H   LIG d   1       7.745  -2.363  -3.573  0.00  0.00     0.063 H 
BRANCH  19  28
ATOM     28  O   LIG d   1       4.198  -4.284  -5.648  0.00  0.00    -0.494 OA
BRANCH  28  29
ATOM     29  C   LIG d   1       3.887  -4.366  -7.041  0.00  0.00     0.079 C 
ATOM     30  H   LIG d   1       3.283  -5.254  -7.226  0.00  0.00     0.066 H 
ATOM     31  H   LIG d   1       3.331  -3.479  -7.342  0.00  0.00     0.066 H 
ATOM     32  H   LIG d   1       4.810  -4.430  -7.617  0.00  0.00     0.066 H 
ENDBRANCH  28  29
ENDBRANCH  19  28
ENDBRANCH   1  18
BRANCH  11  33
ATOM     33  C   LIG d   1       3.307  -0.401  -3.059  0.00  0.00     0.328 C 
ATOM     34  O   LIG d   1       2.249  -0.983  -3.008  0.00  0.00    -0.249 OA
BRANCH  33  35
ATOM     35  O   LIG d   1       3.954  -0.085  -1.927  0.00  0.00    -0.467 OA
BRANCH  35  36
ATOM     36  C   LIG d   1       4.710   1.156  -1.924  0.00  0.00     0.082 C 
ATOM     37  H   LIG d   1       4.053   1.982  -2.194  0.00  0.00     0.066 H 
ATOM     38  H   LIG d   1       5.121   1.327  -0.928  0.00  0.00     0.066 H 
ATOM     39  H   LIG d   1       5.524   1.086  -2.646  0.00  0.00     0.066 H 
ENDBRANCH  35  36
ENDBRANCH  33  35
ENDBRANCH  11  33
BRANCH   9  40
ATOM     40  C   LIG d   1       6.120  -0.489  -9.150  0.00  0.00     0.050 C 
ATOM     41  H   LIG d   1       6.103   0.027 -10.110  0.00  0.00     0.054 H 
ATOM     42  H   LIG d   1       6.977  -0.148  -8.570  0.00  0.00     0.054 H 
BRANCH  40  43
ATOM     43  C   LIG d   1       6.228  -1.975  -9.380  0.00  0.00    -0.028 A 
ATOM     44  C   LIG d   1       7.214  -2.703  -8.740  0.00  0.00    -0.056 A 
ATOM     45  C   LIG d   1       7.314  -4.065  -8.950  0.00  0.00    -0.043 A 
ATOM     46  H   LIG d   1       7.906  -2.206  -8.076  0.00  0.00     0.062 H 
ATOM     47  C   LIG d   1       6.427  -4.700  -9.801  0.00  0.00     0.041 A 
ATOM     48  H   LIG d   1       8.084  -4.633  -8.450  0.00  0.00     0.063 H 
ATOM     49  C   LIG d   1       5.440  -3.971 -10.442  0.00  0.00    -0.043 A 
ATOM     50 CL   LIG d   1       6.552  -6.411 -10.066  0.00  0.00    -0.084 Cl
ATOM     51  C   LIG d   1       5.339  -2.610 -10.226  0.00  0.00    -0.056 A 
ATOM     52  H   LIG d   1       4.748  -4.466 -11.105  0.00  0.00     0.063 H 
ATOM     53  H   LIG d   1       4.566  -2.041 -10.721  0.00  0.00     0.062 H 
ENDBRANCH  40  43
ENDBRANCH   9  40
TORSDOF 8
ENDMDL
MODEL 10
REMARK VINA RESULT:      -6.0      4.120      6.525
REMARK  8 active torsions:
REMARK  status: ('A' for Active; 'I' for Inactive)
REMARK    1  A    between atoms: C_1  and  O_2 
REMARK    2  A    between atoms: O_2  and  C_3 
REMARK    3  A    between atoms: C_8  and  C_9 
REMARK       I    between atoms: C_9  and  N_11 
REMARK    4  A    between atoms: N_17  and  C_18 
REMARK    5  A    between atoms: C_18  and  C_19 
REMARK    6  A    between atoms: C_27  and  C_29 
REMARK    7  A    between atoms: C_29  and  O_31 
REMARK    8  A    between atoms: O_31  and  C_32 
ROOT
ATOM      1  C   LIG d   1       6.646   0.956  -3.698  0.00  0.00     0.251 C 
ATOM      2  O   LIG d   1       6.772   2.164  -3.645  0.00  0.00    -0.270 OA
ATOM      3  N   LIG d   1       7.712   0.179  -3.970  0.00  0.00    -0.278 N 
ATOM      4  C   LIG d   1       7.613  -1.291  -3.906  0.00  0.00     0.058 C 
ATOM      5  C   LIG d   1       8.317  -1.836  -5.127  0.00  0.00     0.059 A 
ATOM      6  C   LIG d   1       9.094  -1.098  -5.948  0.00  0.00     0.066 A 
ATOM      7  N   LIG d   1       9.560  -1.905  -6.907  0.00  0.00    -0.240 NA
ATOM      8  C   LIG d   1       9.099  -3.113  -6.712  0.00  0.00     0.097 A 
ATOM      9  N   LIG d   1       8.317  -3.109  -5.609  0.00  0.00    -0.328 N 
ATOM     10  C   LIG d   1       9.359   0.376  -5.773  0.00  0.00     0.020 C 
ATOM     11  C   LIG d   1       9.007   0.774  -4.334  0.00  0.00     0.129 C 
ATOM     12  H   LIG d   1       9.778   0.409  -3.656  0.00  0.00     0.062 H 
ATOM     13  H   LIG d   1       8.097  -1.656  -3.000  0.00  0.00     0.053 H 
ATOM     14  H   LIG d   1       6.565  -1.592  -3.915  0.00  0.00     0.053 H 
ATOM     15  H   LIG d   1       9.309  -3.973  -7.332  0.00  0.00     0.103 H 
ATOM     16  H   LIG d   1       8.743   0.944  -6.470  0.00  0.00     0.035 H 
ATOM     17  H   LIG d   1      10.412   0.585  -5.962  0.00  0.00     0.035 H 
ENDROOT
BRANCH   1  18
ATOM     18  C   LIG d   1       5.326   0.341  -3.459  0.00  0.00     0.079 A 
ATOM     19  C   LIG d   1       4.517  -0.032  -4.540  0.00  0.00     0.132 A 
ATOM     20  C   LIG d   1       3.278  -0.610  -4.304  0.00  0.00    -0.019 A 
ATOM     21  C   LIG d   1       2.846  -0.815  -3.008  0.00  0.00    -0.058 A 
ATOM     22  H   LIG d   1       2.651  -0.900  -5.133  0.00  0.00     0.065 H 
ATOM     23  C   LIG d   1       3.643  -0.447  -1.937  0.00  0.00    -0.061 A 
ATOM     24  H   LIG d   1       1.881  -1.266  -2.829  0.00  0.00     0.062 H 
ATOM     25  C   LIG d   1       4.879   0.124  -2.154  0.00  0.00    -0.046 A 
ATOM     26  H   LIG d   1       3.297  -0.612  -0.928  0.00  0.00     0.062 H 
ATOM     27  H   LIG d   1       5.499   0.405  -1.316  0.00  0.00     0.063 H 
BRANCH  19  28
ATOM     28  O   LIG d   1       4.943   0.169  -5.812  0.00  0.00    -0.494 OA
BRANCH  28  29
ATOM     29  C   LIG d   1       5.005  -0.977  -6.665  0.00  0.00     0.079 C 
ATOM     30  H   LIG d   1       5.098  -0.653  -7.701  0.00  0.00     0.066 H 
ATOM     31  H   LIG d   1       5.870  -1.583  -6.395  0.00  0.00     0.066 H 
ATOM     32  H   LIG d   1       4.096  -1.566  -6.549  0.00  0.00     0.066 H 
ENDBRANCH  28  29
ENDBRANCH  19  28
ENDBRANCH   1  18
BRANCH  11  33
ATOM     33  C   LIG d   1       8.916   2.275  -4.234  0.00  0.00     0.328 C 
ATOM     34  O   LIG d   1       8.634   2.929  -5.211  0.00  0.00    -0.249 OA
BRANCH  33  35
ATOM     35  O   LIG d   1       9.150   2.885  -3.062  0.00  0.00    -0.467 OA
BRANCH  35  36
ATOM     36  C   LIG d   1       9.918   4.118  -3.101  0.00  0.00     0.082 C 
ATOM     37  H   LIG d   1       9.327   4.929  -2.675  0.00  0.00     0.066 H 
ATOM     38  H   LIG d   1      10.834   3.992  -2.523  0.00  0.00     0.066 H 
ATOM     39  H   LIG d   1      10.170   4.355  -4.135  0.00  0.00     0.066 H 
ENDBRANCH  35  36
ENDBRANCH  33  35
ENDBRANCH  11  33
BRANCH   9  40
ATOM     40  C   LIG d   1       7.605  -4.256  -5.040  0.00  0.00     0.050 C 
ATOM     41  H   LIG d   1       6.774  -3.902  -4.430  0.00  0.00     0.054 H 
ATOM     42  H   LIG d   1       7.222  -4.882  -5.846  0.00  0.00     0.054 H 
BRANCH  40  43
ATOM     43  C   LIG d   1       8.550  -5.060  -4.185  0.00  0.00    -0.028 A 
ATOM     44  C   LIG d   1       8.799  -6.385  -4.488  0.00  0.00    -0.056 A 
ATOM     45  C   LIG d   1       9.665  -7.124  -3.705  0.00  0.00    -0.043 A 
ATOM     46  H   LIG d   1       8.315  -6.844  -5.339  0.00  0.00     0.062 H 
ATOM     47  C   LIG d   1      10.284  -6.536  -2.617  0.00  0.00     0.041 A 
ATOM     48  H   LIG d   1       9.859  -8.159  -3.943  0.00  0.00     0.063 H 
ATOM     49  C   LIG d   1      10.035  -5.209  -2.312  0.00  0.00    -0.043 A 
ATOM     50 CL   LIG d   1      11.373  -7.462  -1.631  0.00  0.00    -0.084 Cl
ATOM     51  C   LIG d   1       9.172  -4.471  -3.100  0.00  0.00    -0.056 A 
ATOM     52  H   LIG d   1      10.518  -4.750  -1.463  0.00  0.00     0.063 H 
ATOM     53  H   LIG d   1       8.981  -3.434  -2.867  0.00  0.00     0.062 H 
ENDBRANCH  40  43
ENDBRANCH   9  40
TORSDOF 8
ENDMDL
