MODEL 1
REMARK VINA RESULT:      -7.0      0.000      0.000
REMARK  10 active torsions:
REMARK  status: ('A' for Active; 'I' for Inactive)
REMARK    1  A    between atoms: C_3  and  O_37 
REMARK    2  A    between atoms: C_6  and  C_7 
REMARK    3  A    between atoms: C_15  and  O_35 
REMARK    4  A    between atoms: C_17  and  O_18 
REMARK    5  A    between atoms: O_18  and  C_19 
REMARK    6  A    between atoms: C_21  and  O_34 
REMARK    7  A    between atoms: C_23  and  O_33 
REMARK    8  A    between atoms: C_25  and  O_32 
REMARK    9  A    between atoms: C_27  and  C_30 
REMARK   10  A    between atoms: C_30  and  O_31 
ROOT
ATOM      1  C   LIG d   1      10.323   5.125  -3.361  0.00  0.00     0.132 C 
ATOM      2  H   LIG d   1      11.382   5.231  -3.594  0.00  0.00     0.079 H 
ATOM      3  C   LIG d   1       9.587   6.423  -3.726  0.00  0.00     0.052 C 
ATOM      4  C   LIG d   1      10.185   7.532  -2.878  0.00  0.00     0.174 C 
ATOM      5  O   LIG d   1      10.394   8.638  -3.331  0.00  0.00    -0.292 OA
ATOM      6  C   LIG d   1      10.497   7.197  -1.485  0.00  0.00     0.101 A 
ATOM      7  C   LIG d   1      10.480   5.847  -1.085  0.00  0.00     0.139 A 
ATOM      8  C   LIG d   1      10.784   5.525   0.225  0.00  0.00     0.022 A 
ATOM      9  C   LIG d   1      11.097   6.526   1.136  0.00  0.00     0.124 A 
ATOM     10  C   LIG d   1      11.107   7.860   0.748  0.00  0.00     0.023 A 
ATOM     11  C   LIG d   1      10.809   8.204  -0.559  0.00  0.00     0.141 A 
ATOM     12  O   LIG d   1      10.164   4.868  -1.966  0.00  0.00    -0.483 OA
ATOM     13  H   LIG d   1       9.730   6.645  -4.784  0.00  0.00     0.038 H 
ATOM     14  H   LIG d   1       8.524   6.320  -3.508  0.00  0.00     0.038 H 
ATOM     15  H   LIG d   1      10.778   4.492   0.541  0.00  0.00     0.069 H 
ATOM     16  H   LIG d   1      11.350   8.629   1.467  0.00  0.00     0.069 H 
ENDROOT
BRANCH  11  17
ATOM     17  O   LIG d   1      10.818   9.505  -0.942  0.00  0.00    -0.460 OA
BRANCH  17  18
ATOM     18  C   LIG d   1       9.860  10.369  -0.327  0.00  0.00     0.231 C 
ATOM     19  H   LIG d   1       9.258   9.800   0.381  0.00  0.00     0.108 H 
ATOM     20  O   LIG d   1       9.011  10.931  -1.330  0.00  0.00    -0.331 OA
ATOM     21  C   LIG d   1       9.706  11.681  -2.328  0.00  0.00     0.114 C 
ATOM     22  C   LIG d   1      10.428  12.859  -1.670  0.00  0.00     0.112 C 
ATOM     23  H   LIG d   1      10.436  11.040  -2.824  0.00  0.00     0.065 H 
ATOM     24  C   LIG d   1      11.384  12.327  -0.597  0.00  0.00     0.115 C 
ATOM     25  H   LIG d   1      10.995  13.407  -2.422  0.00  0.00     0.065 H 
ATOM     26  C   LIG d   1      10.588  11.494   0.413  0.00  0.00     0.145 C 
ATOM     27  H   LIG d   1      12.145  11.702  -1.065  0.00  0.00     0.065 H 
ATOM     28  H   LIG d   1      11.268  11.066   1.149  0.00  0.00     0.068 H 
BRANCH  21  29
ATOM     29  C   LIG d   1       8.706  12.208  -3.359  0.00  0.00     0.073 C 
ATOM     30  H   LIG d   1       8.654  13.294  -3.292  0.00  0.00     0.058 H 
ATOM     31  H   LIG d   1       9.030  11.921  -4.360  0.00  0.00     0.058 H 
BRANCH  29  32
ATOM     32  O   LIG d   1       7.416  11.652  -3.099  0.00  0.00    -0.392 OA
ATOM     33  H   LIG d   1       7.410  10.688  -3.028  0.00  0.00     0.209 HD
ENDBRANCH  29  32
ENDBRANCH  21  29
BRANCH  22  34
ATOM     34  O   LIG d   1       9.470  13.731  -1.066  0.00  0.00    -0.387 OA
ATOM     35  H   LIG d   1       8.607  13.323  -0.913  0.00  0.00     0.210 HD
ENDBRANCH  22  34
BRANCH  24  36
ATOM     36  O   LIG d   1      12.010  13.422   0.074  0.00  0.00    -0.386 OA
ATOM     37  H   LIG d   1      12.003  14.248  -0.429  0.00  0.00     0.210 HD
ENDBRANCH  24  36
BRANCH  26  38
ATOM     38  O   LIG d   1       9.633  12.327   1.074  0.00  0.00    -0.383 OA
ATOM     39  H   LIG d   1       9.575  12.178   2.027  0.00  0.00     0.210 HD
ENDBRANCH  26  38
ENDBRANCH  17  18
ENDBRANCH  11  17
BRANCH   9  40
ATOM     40  O   LIG d   1      11.394   6.198   2.419  0.00  0.00    -0.506 OA
ATOM     41  H   LIG d   1      10.808   6.601   3.073  0.00  0.00     0.292 HD
ENDBRANCH   9  40
BRANCH   1  42
ATOM     42  C   LIG d   1       9.745   3.980  -4.152  0.00  0.00    -0.007 A 
ATOM     43  C   LIG d   1       9.217   2.884  -3.496  0.00  0.00    -0.052 A 
ATOM     44  C   LIG d   1       8.686   1.833  -4.218  0.00  0.00    -0.020 A 
ATOM     45  H   LIG d   1       9.216   2.850  -2.417  0.00  0.00     0.062 H 
ATOM     46  C   LIG d   1       8.683   1.880  -5.606  0.00  0.00     0.117 A 
ATOM     47  H   LIG d   1       8.275   0.978  -3.705  0.00  0.00     0.065 H 
ATOM     48  C   LIG d   1       9.213   2.981  -6.262  0.00  0.00    -0.020 A 
ATOM     49  C   LIG d   1       9.742   4.028  -5.534  0.00  0.00    -0.052 A 
ATOM     50  H   LIG d   1       9.211   3.018  -7.341  0.00  0.00     0.065 H 
ATOM     51  H   LIG d   1      10.155   4.886  -6.045  0.00  0.00     0.062 H 
BRANCH  46  52
ATOM     52  O   LIG d   1       8.161   0.847  -6.319  0.00  0.00    -0.507 OA
ATOM     53  H   LIG d   1       7.458   1.106  -6.929  0.00  0.00     0.292 HD
ENDBRANCH  46  52
ENDBRANCH   1  42
TORSDOF 10
ENDMDL
MODEL 2
REMARK VINA RESULT:      -6.6      1.619      2.174
REMARK  10 active torsions:
REMARK  status: ('A' for Active; 'I' for Inactive)
REMARK    1  A    between atoms: C_3  and  O_37 
REMARK    2  A    between atoms: C_6  and  C_7 
REMARK    3  A    between atoms: C_15  and  O_35 
REMARK    4  A    between atoms: C_17  and  O_18 
REMARK    5  A    between atoms: O_18  and  C_19 
REMARK    6  A    between atoms: C_21  and  O_34 
REMARK    7  A    between atoms: C_23  and  O_33 
REMARK    8  A    between atoms: C_25  and  O_32 
REMARK    9  A    between atoms: C_27  and  C_30 
REMARK   10  A    between atoms: C_30  and  O_31 
ROOT
ATOM      1  C   LIG d   1      10.630   6.367  -5.168  0.00  0.00     0.132 C 
ATOM      2  H   LIG d   1      11.720   6.376  -5.171  0.00  0.00     0.079 H 
ATOM      3  C   LIG d   1      10.106   7.811  -5.172  0.00  0.00     0.052 C 
ATOM      4  C   LIG d   1      10.611   8.476  -3.905  0.00  0.00     0.174 C 
ATOM      5  O   LIG d   1      11.009   9.622  -3.901  0.00  0.00    -0.292 OA
ATOM      6  C   LIG d   1      10.595   7.661  -2.685  0.00  0.00     0.101 A 
ATOM      7  C   LIG d   1      10.374   6.276  -2.790  0.00  0.00     0.139 A 
ATOM      8  C   LIG d   1      10.368   5.501  -1.645  0.00  0.00     0.022 A 
ATOM      9  C   LIG d   1      10.573   6.090  -0.403  0.00  0.00     0.124 A 
ATOM     10  C   LIG d   1      10.783   7.459  -0.293  0.00  0.00     0.023 A 
ATOM     11  C   LIG d   1      10.796   8.251  -1.427  0.00  0.00     0.141 A 
ATOM     12  O   LIG d   1      10.162   5.698  -3.997  0.00  0.00    -0.483 OA
ATOM     13  H   LIG d   1      10.486   8.340  -6.047  0.00  0.00     0.038 H 
ATOM     14  H   LIG d   1       9.017   7.810  -5.183  0.00  0.00     0.038 H 
ATOM     15  H   LIG d   1      10.203   4.436  -1.715  0.00  0.00     0.069 H 
ATOM     16  H   LIG d   1      10.939   7.904   0.679  0.00  0.00     0.069 H 
ENDROOT
BRANCH  11  17
ATOM     17  O   LIG d   1      11.001   9.588  -1.325  0.00  0.00    -0.460 OA
BRANCH  17  18
ATOM     18  C   LIG d   1      10.058  10.332  -0.551  0.00  0.00     0.231 C 
ATOM     19  H   LIG d   1       9.539   9.661   0.133  0.00  0.00     0.108 H 
ATOM     20  O   LIG d   1       9.109  10.951  -1.422  0.00  0.00    -0.331 OA
ATOM     21  C   LIG d   1       9.690  11.837  -2.382  0.00  0.00     0.114 C 
ATOM     22  C   LIG d   1      10.409  12.975  -1.654  0.00  0.00     0.112 C 
ATOM     23  H   LIG d   1      10.406  11.289  -2.996  0.00  0.00     0.065 H 
ATOM     24  C   LIG d   1      11.469  12.384  -0.719  0.00  0.00     0.115 C 
ATOM     25  H   LIG d   1      10.890  13.628  -2.383  0.00  0.00     0.065 H 
ATOM     26  C   LIG d   1      10.792  11.410   0.251  0.00  0.00     0.145 C 
ATOM     27  H   LIG d   1      12.218  11.852  -1.306  0.00  0.00     0.065 H 
ATOM     28  H   LIG d   1      11.546  10.942   0.884  0.00  0.00     0.068 H 
BRANCH  21  29
ATOM     29  C   LIG d   1       8.590  12.416  -3.273  0.00  0.00     0.073 C 
ATOM     30  H   LIG d   1       8.409  13.454  -2.999  0.00  0.00     0.058 H 
ATOM     31  H   LIG d   1       8.903  12.365  -4.316  0.00  0.00     0.058 H 
BRANCH  29  32
ATOM     32  O   LIG d   1       7.389  11.661  -3.099  0.00  0.00    -0.392 OA
ATOM     33  H   LIG d   1       6.735  11.795  -3.798  0.00  0.00     0.209 HD
ENDBRANCH  29  32
ENDBRANCH  21  29
BRANCH  22  34
ATOM     34  O   LIG d   1       9.464  13.728  -0.890  0.00  0.00    -0.387 OA
ATOM     35  H   LIG d   1       8.872  14.274  -1.425  0.00  0.00     0.210 HD
ENDBRANCH  22  34
BRANCH  24  36
ATOM     36  O   LIG d   1      12.097  13.434   0.020  0.00  0.00    -0.386 OA
ATOM     37  H   LIG d   1      12.441  14.151  -0.531  0.00  0.00     0.210 HD
ENDBRANCH  24  36
BRANCH  26  38
ATOM     38  O   LIG d   1       9.857  12.118   1.066  0.00  0.00    -0.383 OA
ATOM     39  H   LIG d   1       9.130  11.572   1.396  0.00  0.00     0.210 HD
ENDBRANCH  26  38
ENDBRANCH  17  18
ENDBRANCH  11  17
BRANCH   9  40
ATOM     40  O   LIG d   1      10.565   5.320   0.715  0.00  0.00    -0.506 OA
ATOM     41  H   LIG d   1      10.802   4.396   0.557  0.00  0.00     0.292 HD
ENDBRANCH   9  40
BRANCH   1  42
ATOM     42  C   LIG d   1      10.130   5.647  -6.393  0.00  0.00    -0.007 A 
ATOM     43  C   LIG d   1       9.841   6.359  -7.542  0.00  0.00    -0.052 A 
ATOM     44  C   LIG d   1       9.382   5.701  -8.667  0.00  0.00    -0.020 A 
ATOM     45  H   LIG d   1       9.977   7.429  -7.563  0.00  0.00     0.062 H 
ATOM     46  C   LIG d   1       9.212   4.324  -8.642  0.00  0.00     0.117 A 
ATOM     47  H   LIG d   1       9.157   6.257  -9.564  0.00  0.00     0.065 H 
ATOM     48  C   LIG d   1       9.502   3.612  -7.488  0.00  0.00    -0.020 A 
ATOM     49  C   LIG d   1       9.961   4.275  -6.366  0.00  0.00    -0.052 A 
ATOM     50  H   LIG d   1       9.370   2.541  -7.466  0.00  0.00     0.065 H 
ATOM     51  H   LIG d   1      10.187   3.721  -5.467  0.00  0.00     0.062 H 
BRANCH  46  52
ATOM     52  O   LIG d   1       8.760   3.674  -9.748  0.00  0.00    -0.507 OA
ATOM     53  H   LIG d   1       7.840   3.870  -9.970  0.00  0.00     0.292 HD
ENDBRANCH  46  52
ENDBRANCH   1  42
TORSDOF 10
ENDMDL
MODEL 3
REMARK VINA RESULT:      -6.3      3.576      5.645
REMARK  10 active torsions:
REMARK  status: ('A' for Active; 'I' for Inactive)
REMARK    1  A    between atoms: C_3  and  O_37 
REMARK    2  A    between atoms: C_6  and  C_7 
REMARK    3  A    between atoms: C_15  and  O_35 
REMARK    4  A    between atoms: C_17  and  O_18 
REMARK    5  A    between atoms: O_18  and  C_19 
REMARK    6  A    between atoms: C_21  and  O_34 
REMARK    7  A    between atoms: C_23  and  O_33 
REMARK    8  A    between atoms: C_25  and  O_32 
REMARK    9  A    between atoms: C_27  and  C_30 
REMARK   10  A    between atoms: C_30  and  O_31 
ROOT
ATOM      1  C   LIG d   1      10.381   6.352  -7.809  0.00  0.00     0.132 C 
ATOM      2  H   LIG d   1      11.451   6.181  -7.696  0.00  0.00     0.079 H 
ATOM      3  C   LIG d   1       9.969   7.580  -6.983  0.00  0.00     0.052 C 
ATOM      4  C   LIG d   1      10.282   7.270  -5.530  0.00  0.00     0.174 C 
ATOM      5  O   LIG d   1      10.752   8.106  -4.787  0.00  0.00    -0.292 OA
ATOM      6  C   LIG d   1       9.988   5.908  -5.072  0.00  0.00     0.101 A 
ATOM      7  C   LIG d   1       9.693   4.914  -6.023  0.00  0.00     0.139 A 
ATOM      8  C   LIG d   1       9.426   3.626  -5.597  0.00  0.00     0.022 A 
ATOM      9  C   LIG d   1       9.444   3.321  -4.242  0.00  0.00     0.124 A 
ATOM     10  C   LIG d   1       9.727   4.300  -3.298  0.00  0.00     0.023 A 
ATOM     11  C   LIG d   1      10.000   5.595  -3.704  0.00  0.00     0.141 A 
ATOM     12  O   LIG d   1       9.663   5.209  -7.345  0.00  0.00    -0.483 OA
ATOM     13  H   LIG d   1      10.536   8.453  -7.308  0.00  0.00     0.038 H 
ATOM     14  H   LIG d   1       8.902   7.765  -7.101  0.00  0.00     0.038 H 
ATOM     15  H   LIG d   1       9.203   2.855  -6.320  0.00  0.00     0.069 H 
ATOM     16  H   LIG d   1       9.736   4.051  -2.247  0.00  0.00     0.069 H 
ENDROOT
BRANCH  11  17
ATOM     17  O   LIG d   1      10.277   6.554  -2.786  0.00  0.00    -0.460 OA
BRANCH  17  18
ATOM     18  C   LIG d   1       9.834   6.319  -1.447  0.00  0.00     0.231 C 
ATOM     19  H   LIG d   1       9.131   5.486  -1.438  0.00  0.00     0.108 H 
ATOM     20  O   LIG d   1       9.190   7.492  -0.945  0.00  0.00    -0.331 OA
ATOM     21  C   LIG d   1      10.020   8.655  -0.938  0.00  0.00     0.114 C 
ATOM     22  C   LIG d   1      11.230   8.412  -0.034  0.00  0.00     0.112 C 
ATOM     23  H   LIG d   1      10.361   8.866  -1.953  0.00  0.00     0.065 H 
ATOM     24  C   LIG d   1      11.991   7.180  -0.533  0.00  0.00     0.115 C 
ATOM     25  H   LIG d   1      11.887   9.281  -0.061  0.00  0.00     0.065 H 
ATOM     26  C   LIG d   1      11.037   5.981  -0.563  0.00  0.00     0.145 C 
ATOM     27  H   LIG d   1      12.372   7.368  -1.537  0.00  0.00     0.065 H 
ATOM     28  H   LIG d   1      11.555   5.113  -0.970  0.00  0.00     0.068 H 
BRANCH  21  29
ATOM     29  C   LIG d   1       9.221   9.849  -0.411  0.00  0.00     0.073 C 
ATOM     30  H   LIG d   1       8.881   9.639   0.603  0.00  0.00     0.058 H 
ATOM     31  H   LIG d   1       9.855  10.736  -0.405  0.00  0.00     0.058 H 
BRANCH  29  32
ATOM     32  O   LIG d   1       8.091  10.076  -1.255  0.00  0.00    -0.392 OA
ATOM     33  H   LIG d   1       7.294  10.347  -0.781  0.00  0.00     0.209 HD
ENDBRANCH  29  32
ENDBRANCH  21  29
BRANCH  22  34
ATOM     34  O   LIG d   1      10.789   8.190   1.307  0.00  0.00    -0.387 OA
ATOM     35  H   LIG d   1      10.352   7.337   1.443  0.00  0.00     0.210 HD
ENDBRANCH  22  34
BRANCH  24  36
ATOM     36  O   LIG d   1      13.082   6.900   0.347  0.00  0.00    -0.386 OA
ATOM     37  H   LIG d   1      13.525   6.059   0.170  0.00  0.00     0.210 HD
ENDBRANCH  24  36
BRANCH  26  38
ATOM     38  O   LIG d   1      10.589   5.693   0.763  0.00  0.00    -0.383 OA
ATOM     39  H   LIG d   1      10.533   4.748   0.962  0.00  0.00     0.210 HD
ENDBRANCH  26  38
ENDBRANCH  17  18
ENDBRANCH  11  17
BRANCH   9  40
ATOM     40  O   LIG d   1       9.181   2.053  -3.835  0.00  0.00    -0.506 OA
ATOM     41  H   LIG d   1       8.402   1.661  -4.252  0.00  0.00     0.292 HD
ENDBRANCH   9  40
BRANCH   1  42
ATOM     42  C   LIG d   1      10.060   6.593  -9.261  0.00  0.00    -0.007 A 
ATOM     43  C   LIG d   1      10.637   7.657  -9.928  0.00  0.00    -0.052 A 
ATOM     44  C   LIG d   1      10.345   7.880 -11.260  0.00  0.00    -0.020 A 
ATOM     45  H   LIG d   1      11.319   8.313  -9.409  0.00  0.00     0.062 H 
ATOM     46  C   LIG d   1       9.472   7.032 -11.928  0.00  0.00     0.117 A 
ATOM     47  H   LIG d   1      10.795   8.711 -11.781  0.00  0.00     0.065 H 
ATOM     48  C   LIG d   1       8.895   5.965 -11.256  0.00  0.00    -0.020 A 
ATOM     49  C   LIG d   1       9.190   5.748  -9.925  0.00  0.00    -0.052 A 
ATOM     50  H   LIG d   1       8.215   5.305 -11.774  0.00  0.00     0.065 H 
ATOM     51  H   LIG d   1       8.741   4.916  -9.401  0.00  0.00     0.062 H 
BRANCH  46  52
ATOM     52  O   LIG d   1       9.183   7.250 -13.238  0.00  0.00    -0.507 OA
ATOM     53  H   LIG d   1       8.703   8.073 -13.404  0.00  0.00     0.292 HD
ENDBRANCH  46  52
ENDBRANCH   1  42
TORSDOF 10
ENDMDL
MODEL 4
REMARK VINA RESULT:      -6.2      3.729      6.828
REMARK  10 active torsions:
REMARK  status: ('A' for Active; 'I' for Inactive)
REMARK    1  A    between atoms: C_3  and  O_37 
REMARK    2  A    between atoms: C_6  and  C_7 
REMARK    3  A    between atoms: C_15  and  O_35 
REMARK    4  A    between atoms: C_17  and  O_18 
REMARK    5  A    between atoms: O_18  and  C_19 
REMARK    6  A    between atoms: C_21  and  O_34 
REMARK    7  A    between atoms: C_23  and  O_33 
REMARK    8  A    between atoms: C_25  and  O_32 
REMARK    9  A    between atoms: C_27  and  C_30 
REMARK   10  A    between atoms: C_30  and  O_31 
ROOT
ATOM      1  C   LIG d   1      10.244   7.227  -0.516  0.00  0.00     0.132 C 
ATOM      2  H   LIG d   1       9.279   7.432  -0.053  0.00  0.00     0.079 H 
ATOM      3  C   LIG d   1      11.068   6.313   0.403  0.00  0.00     0.052 C 
ATOM      4  C   LIG d   1      11.280   7.060   1.707  0.00  0.00     0.174 C 
ATOM      5  O   LIG d   1      11.216   6.499   2.781  0.00  0.00    -0.292 OA
ATOM      6  C   LIG d   1      11.566   8.495   1.602  0.00  0.00     0.101 A 
ATOM      7  C   LIG d   1      11.374   9.143   0.368  0.00  0.00     0.139 A 
ATOM      8  C   LIG d   1      11.632  10.497   0.266  0.00  0.00     0.022 A 
ATOM      9  C   LIG d   1      12.081  11.208   1.373  0.00  0.00     0.124 A 
ATOM     10  C   LIG d   1      12.280  10.571   2.591  0.00  0.00     0.023 A 
ATOM     11  C   LIG d   1      12.025   9.217   2.715  0.00  0.00     0.141 A 
ATOM     12  O   LIG d   1      10.947   8.453  -0.717  0.00  0.00    -0.483 OA
ATOM     13  H   LIG d   1      10.524   5.386   0.589  0.00  0.00     0.038 H 
ATOM     14  H   LIG d   1      12.030   6.092  -0.060  0.00  0.00     0.038 H 
ATOM     15  H   LIG d   1      11.484  11.005  -0.676  0.00  0.00     0.069 H 
ATOM     16  H   LIG d   1      12.632  11.134   3.443  0.00  0.00     0.069 H 
ENDROOT
BRANCH  11  17
ATOM     17  O   LIG d   1      12.217   8.591   3.903  0.00  0.00    -0.460 OA
BRANCH  17  18
ATOM     18  C   LIG d   1      12.381   9.421   5.055  0.00  0.00     0.231 C 
ATOM     19  H   LIG d   1      12.283  10.468   4.766  0.00  0.00     0.108 H 
ATOM     20  O   LIG d   1      13.675   9.202   5.620  0.00  0.00    -0.331 OA
ATOM     21  C   LIG d   1      13.920   7.851   6.012  0.00  0.00     0.114 C 
ATOM     22  C   LIG d   1      12.910   7.441   7.086  0.00  0.00     0.112 C 
ATOM     23  H   LIG d   1      13.815   7.196   5.146  0.00  0.00     0.065 H 
ATOM     24  C   LIG d   1      11.491   7.621   6.536  0.00  0.00     0.115 C 
ATOM     25  H   LIG d   1      13.065   6.396   7.355  0.00  0.00     0.065 H 
ATOM     26  C   LIG d   1      11.308   9.075   6.091  0.00  0.00     0.145 C 
ATOM     27  H   LIG d   1      11.343   6.957   5.685  0.00  0.00     0.065 H 
ATOM     28  H   LIG d   1      10.321   9.200   5.647  0.00  0.00     0.068 H 
BRANCH  21  29
ATOM     29  C   LIG d   1      15.338   7.730   6.574  0.00  0.00     0.073 C 
ATOM     30  H   LIG d   1      16.060   7.868   5.769  0.00  0.00     0.058 H 
ATOM     31  H   LIG d   1      15.493   8.494   7.336  0.00  0.00     0.058 H 
BRANCH  29  32
ATOM     32  O   LIG d   1      15.512   6.436   7.154  0.00  0.00    -0.392 OA
ATOM     33  H   LIG d   1      14.752   5.849   7.041  0.00  0.00     0.209 HD
ENDBRANCH  29  32
ENDBRANCH  21  29
BRANCH  22  34
ATOM     34  O   LIG d   1      13.081   8.262   8.243  0.00  0.00    -0.387 OA
ATOM     35  H   LIG d   1      12.317   8.818   8.449  0.00  0.00     0.210 HD
ENDBRANCH  22  34
BRANCH  24  36
ATOM     36  O   LIG d   1      10.538   7.311   7.556  0.00  0.00    -0.386 OA
ATOM     37  H   LIG d   1      10.780   7.638   8.433  0.00  0.00     0.210 HD
ENDBRANCH  24  36
BRANCH  26  38
ATOM     38  O   LIG d   1      11.437   9.942   7.219  0.00  0.00    -0.383 OA
ATOM     39  H   LIG d   1      10.601  10.319   7.523  0.00  0.00     0.210 HD
ENDBRANCH  26  38
ENDBRANCH  17  18
ENDBRANCH  11  17
BRANCH   9  40
ATOM     40  O   LIG d   1      12.330  12.537   1.261  0.00  0.00    -0.506 OA
ATOM     41  H   LIG d   1      12.101  13.047   2.050  0.00  0.00     0.292 HD
ENDBRANCH   9  40
BRANCH   1  42
ATOM     42  C   LIG d   1      10.030   6.546  -1.843  0.00  0.00    -0.007 A 
ATOM     43  C   LIG d   1      10.146   5.172  -1.940  0.00  0.00    -0.052 A 
ATOM     44  C   LIG d   1       9.951   4.545  -3.155  0.00  0.00    -0.020 A 
ATOM     45  H   LIG d   1      10.386   4.587  -1.065  0.00  0.00     0.062 H 
ATOM     46  C   LIG d   1       9.637   5.296  -4.279  0.00  0.00     0.117 A 
ATOM     47  H   LIG d   1      10.041   3.472  -3.231  0.00  0.00     0.065 H 
ATOM     48  C   LIG d   1       9.521   6.675  -4.179  0.00  0.00    -0.020 A 
ATOM     49  C   LIG d   1       9.718   7.296  -2.961  0.00  0.00    -0.052 A 
ATOM     50  H   LIG d   1       9.277   7.261  -5.052  0.00  0.00     0.065 H 
ATOM     51  H   LIG d   1       9.628   8.370  -2.883  0.00  0.00     0.062 H 
BRANCH  46  52
ATOM     52  O   LIG d   1       9.444   4.681  -5.476  0.00  0.00    -0.507 OA
ATOM     53  H   LIG d   1       9.116   5.268  -6.171  0.00  0.00     0.292 HD
ENDBRANCH  46  52
ENDBRANCH   1  42
TORSDOF 10
ENDMDL
MODEL 5
REMARK VINA RESULT:      -6.2      4.136      8.182
REMARK  10 active torsions:
REMARK  status: ('A' for Active; 'I' for Inactive)
REMARK    1  A    between atoms: C_3  and  O_37 
REMARK    2  A    between atoms: C_6  and  C_7 
REMARK    3  A    between atoms: C_15  and  O_35 
REMARK    4  A    between atoms: C_17  and  O_18 
REMARK    5  A    between atoms: O_18  and  C_19 
REMARK    6  A    between atoms: C_21  and  O_34 
REMARK    7  A    between atoms: C_23  and  O_33 
REMARK    8  A    between atoms: C_25  and  O_32 
REMARK    9  A    between atoms: C_27  and  C_30 
REMARK   10  A    between atoms: C_30  and  O_31 
ROOT
ATOM      1  C   LIG d   1      10.248   6.306  -3.014  0.00  0.00     0.132 C 
ATOM      2  H   LIG d   1       9.365   6.883  -3.289  0.00  0.00     0.079 H 
ATOM      3  C   LIG d   1      11.448   6.779  -3.849  0.00  0.00     0.052 C 
ATOM      4  C   LIG d   1      11.109   6.526  -5.307  0.00  0.00     0.174 C 
ATOM      5  O   LIG d   1      11.397   7.323  -6.175  0.00  0.00    -0.292 OA
ATOM      6  C   LIG d   1      10.415   5.270  -5.611  0.00  0.00     0.101 A 
ATOM      7  C   LIG d   1       9.878   4.511  -4.555  0.00  0.00     0.139 A 
ATOM      8  C   LIG d   1       9.214   3.332  -4.837  0.00  0.00     0.022 A 
ATOM      9  C   LIG d   1       9.085   2.900  -6.151  0.00  0.00     0.124 A 
ATOM     10  C   LIG d   1       9.620   3.642  -7.197  0.00  0.00     0.023 A 
ATOM     11  C   LIG d   1      10.286   4.826  -6.936  0.00  0.00     0.141 A 
ATOM     12  O   LIG d   1      10.011   4.922  -3.270  0.00  0.00    -0.483 OA
ATOM     13  H   LIG d   1      11.617   7.843  -3.685  0.00  0.00     0.038 H 
ATOM     14  H   LIG d   1      12.338   6.214  -3.571  0.00  0.00     0.038 H 
ATOM     15  H   LIG d   1       8.794   2.744  -4.033  0.00  0.00     0.069 H 
ATOM     16  H   LIG d   1       9.515   3.294  -8.214  0.00  0.00     0.069 H 
ENDROOT
BRANCH  11  17
ATOM     17  O   LIG d   1      10.810   5.553  -7.954  0.00  0.00    -0.460 OA
BRANCH  17  18
ATOM     18  C   LIG d   1      10.069   5.588  -9.176  0.00  0.00     0.231 C 
ATOM     19  H   LIG d   1       9.695   4.590  -9.402  0.00  0.00     0.108 H 
ATOM     20  O   LIG d   1      10.919   6.030 -10.236  0.00  0.00    -0.331 OA
ATOM     21  C   LIG d   1      11.487   7.324 -10.028  0.00  0.00     0.114 C 
ATOM     22  C   LIG d   1      10.366   8.360  -9.918  0.00  0.00     0.112 C 
ATOM     23  H   LIG d   1      12.071   7.322  -9.106  0.00  0.00     0.065 H 
ATOM     24  C   LIG d   1       9.427   7.966  -8.773  0.00  0.00     0.115 C 
ATOM     25  H   LIG d   1      10.795   9.342  -9.714  0.00  0.00     0.065 H 
ATOM     26  C   LIG d   1       8.891   6.554  -9.032  0.00  0.00     0.145 C 
ATOM     27  H   LIG d   1       9.974   7.981  -7.831  0.00  0.00     0.065 H 
ATOM     28  H   LIG d   1       8.265   6.243  -8.195  0.00  0.00     0.068 H 
BRANCH  21  29
ATOM     29  C   LIG d   1      12.396   7.679 -11.207  0.00  0.00     0.073 C 
ATOM     30  H   LIG d   1      12.416   8.761 -11.336  0.00  0.00     0.058 H 
ATOM     31  H   LIG d   1      13.405   7.318 -11.009  0.00  0.00     0.058 H 
BRANCH  29  32
ATOM     32  O   LIG d   1      11.895   7.066 -12.396  0.00  0.00    -0.392 OA
ATOM     33  H   LIG d   1      11.133   7.520 -12.782  0.00  0.00     0.209 HD
ENDBRANCH  29  32
ENDBRANCH  21  29
BRANCH  22  34
ATOM     34  O   LIG d   1       9.633   8.405 -11.143  0.00  0.00    -0.387 OA
ATOM     35  H   LIG d   1       9.659   7.581 -11.649  0.00  0.00     0.210 HD
ENDBRANCH  22  34
BRANCH  24  36
ATOM     36  O   LIG d   1       8.336   8.887  -8.708  0.00  0.00    -0.386 OA
ATOM     37  H   LIG d   1       7.597   8.662  -9.289  0.00  0.00     0.210 HD
ENDBRANCH  24  36
BRANCH  26  38
ATOM     38  O   LIG d   1       8.118   6.548 -10.234  0.00  0.00    -0.383 OA
ATOM     39  H   LIG d   1       7.342   5.972 -10.199  0.00  0.00     0.210 HD
ENDBRANCH  26  38
ENDBRANCH  17  18
ENDBRANCH  11  17
BRANCH   9  40
ATOM     40  O   LIG d   1       8.430   1.742  -6.416  0.00  0.00    -0.506 OA
ATOM     41  H   LIG d   1       8.059   1.312  -5.633  0.00  0.00     0.292 HD
ENDBRANCH   9  40
BRANCH   1  42
ATOM     42  C   LIG d   1      10.544   6.503  -1.550  0.00  0.00    -0.007 A 
ATOM     43  C   LIG d   1      10.358   7.744  -0.970  0.00  0.00    -0.052 A 
ATOM     44  C   LIG d   1      10.629   7.928   0.372  0.00  0.00    -0.020 A 
ATOM     45  H   LIG d   1       9.997   8.569  -1.565  0.00  0.00     0.062 H 
ATOM     46  C   LIG d   1      11.087   6.865   1.138  0.00  0.00     0.117 A 
ATOM     47  H   LIG d   1      10.483   8.897   0.825  0.00  0.00     0.065 H 
ATOM     48  C   LIG d   1      11.273   5.621   0.553  0.00  0.00    -0.020 A 
ATOM     49  C   LIG d   1      11.001   5.443  -0.790  0.00  0.00    -0.052 A 
ATOM     50  H   LIG d   1      11.630   4.793   1.147  0.00  0.00     0.065 H 
ATOM     51  H   LIG d   1      11.145   4.475  -1.246  0.00  0.00     0.062 H 
BRANCH  46  52
ATOM     52  O   LIG d   1      11.354   7.043   2.459  0.00  0.00    -0.507 OA
ATOM     53  H   LIG d   1      10.926   7.820   2.845  0.00  0.00     0.292 HD
ENDBRANCH  46  52
ENDBRANCH   1  42
TORSDOF 10
ENDMDL
MODEL 6
REMARK VINA RESULT:      -6.1      8.157     13.550
REMARK  10 active torsions:
REMARK  status: ('A' for Active; 'I' for Inactive)
REMARK    1  A    between atoms: C_3  and  O_37 
REMARK    2  A    between atoms: C_6  and  C_7 
REMARK    3  A    between atoms: C_15  and  O_35 
REMARK    4  A    between atoms: C_17  and  O_18 
REMARK    5  A    between atoms: O_18  and  C_19 
REMARK    6  A    between atoms: C_21  and  O_34 
REMARK    7  A    between atoms: C_23  and  O_33 
REMARK    8  A    between atoms: C_25  and  O_32 
REMARK    9  A    between atoms: C_27  and  C_30 
REMARK   10  A    between atoms: C_30  and  O_31 
ROOT
ATOM      1  C   LIG d   1       4.669  -6.581  -5.912  0.00  0.00     0.132 C 
ATOM      2  H   LIG d   1       3.915  -6.312  -5.173  0.00  0.00     0.079 H 
ATOM      3  C   LIG d   1       6.020  -5.971  -5.508  0.00  0.00     0.052 C 
ATOM      4  C   LIG d   1       5.844  -4.463  -5.489  0.00  0.00     0.174 C 
ATOM      5  O   LIG d   1       6.346  -3.773  -4.626  0.00  0.00    -0.292 OA
ATOM      6  C   LIG d   1       5.036  -3.883  -6.566  0.00  0.00     0.101 A 
ATOM      7  C   LIG d   1       4.269  -4.735  -7.382  0.00  0.00     0.139 A 
ATOM      8  C   LIG d   1       3.497  -4.193  -8.393  0.00  0.00     0.022 A 
ATOM      9  C   LIG d   1       3.484  -2.819  -8.601  0.00  0.00     0.124 A 
ATOM     10  C   LIG d   1       4.246  -1.974  -7.804  0.00  0.00     0.023 A 
ATOM     11  C   LIG d   1       5.023  -2.496  -6.785  0.00  0.00     0.141 A 
ATOM     12  O   LIG d   1       4.286  -6.076  -7.191  0.00  0.00    -0.483 OA
ATOM     13  H   LIG d   1       6.305  -6.325  -4.517  0.00  0.00     0.038 H 
ATOM     14  H   LIG d   1       6.783  -6.247  -6.236  0.00  0.00     0.038 H 
ATOM     15  H   LIG d   1       2.902  -4.838  -9.022  0.00  0.00     0.069 H 
ATOM     16  H   LIG d   1       4.229  -0.908  -7.978  0.00  0.00     0.069 H 
ENDROOT
BRANCH  11  17
ATOM     17  O   LIG d   1       5.767  -1.675  -6.004  0.00  0.00    -0.460 OA
BRANCH  17  18
ATOM     18  C   LIG d   1       5.215  -0.393  -5.699  0.00  0.00     0.231 C 
ATOM     19  H   LIG d   1       4.620  -0.043  -6.543  0.00  0.00     0.108 H 
ATOM     20  O   LIG d   1       6.273   0.534  -5.446  0.00  0.00    -0.331 OA
ATOM     21  C   LIG d   1       7.134   0.158  -4.370  0.00  0.00     0.114 C 
ATOM     22  C   LIG d   1       6.322   0.071  -3.075  0.00  0.00     0.112 C 
ATOM     23  H   LIG d   1       7.580  -0.814  -4.584  0.00  0.00     0.065 H 
ATOM     24  C   LIG d   1       5.181  -0.934  -3.263  0.00  0.00     0.115 C 
ATOM     25  H   LIG d   1       6.967  -0.260  -2.261  0.00  0.00     0.065 H 
ATOM     26  C   LIG d   1       4.325  -0.501  -4.458  0.00  0.00     0.145 C 
ATOM     27  H   LIG d   1       5.595  -1.925  -3.451  0.00  0.00     0.065 H 
ATOM     28  H   LIG d   1       3.544  -1.240  -4.634  0.00  0.00     0.068 H 
BRANCH  21  29
ATOM     29  C   LIG d   1       8.239   1.203  -4.209  0.00  0.00     0.073 C 
ATOM     30  H   LIG d   1       8.553   1.243  -3.167  0.00  0.00     0.058 H 
ATOM     31  H   LIG d   1       9.089   0.931  -4.835  0.00  0.00     0.058 H 
BRANCH  29  32
ATOM     32  O   LIG d   1       7.745   2.483  -4.608  0.00  0.00    -0.392 OA
ATOM     33  H   LIG d   1       8.201   2.861  -5.372  0.00  0.00     0.209 HD
ENDBRANCH  29  32
ENDBRANCH  21  29
BRANCH  22  34
ATOM     34  O   LIG d   1       5.780   1.355  -2.762  0.00  0.00    -0.387 OA
ATOM     35  H   LIG d   1       5.108   1.341  -2.067  0.00  0.00     0.210 HD
ENDBRANCH  22  34
BRANCH  24  36
ATOM     36  O   LIG d   1       4.373  -0.970  -2.084  0.00  0.00    -0.386 OA
ATOM     37  H   LIG d   1       3.531  -1.431  -2.199  0.00  0.00     0.210 HD
ENDBRANCH  24  36
BRANCH  26  38
ATOM     38  O   LIG d   1       3.730   0.769  -4.185  0.00  0.00    -0.383 OA
ATOM     39  H   LIG d   1       3.959   1.456  -4.825  0.00  0.00     0.210 HD
ENDBRANCH  26  38
ENDBRANCH  17  18
ENDBRANCH  11  17
BRANCH   9  40
ATOM     40  O   LIG d   1       2.722  -2.298  -9.596  0.00  0.00    -0.506 OA
ATOM     41  H   LIG d   1       2.247  -1.494  -9.346  0.00  0.00     0.292 HD
ENDBRANCH   9  40
BRANCH   1  42
ATOM     42  C   LIG d   1       4.795  -8.081  -5.979  0.00  0.00    -0.007 A 
ATOM     43  C   LIG d   1       5.076  -8.802  -4.834  0.00  0.00    -0.052 A 
ATOM     44  C   LIG d   1       5.192 -10.178  -4.893  0.00  0.00    -0.020 A 
ATOM     45  H   LIG d   1       5.202  -8.291  -3.892  0.00  0.00     0.062 H 
ATOM     46  C   LIG d   1       5.025 -10.835  -6.104  0.00  0.00     0.117 A 
ATOM     47  H   LIG d   1       5.412 -10.740  -3.999  0.00  0.00     0.065 H 
ATOM     48  C   LIG d   1       4.743 -10.108  -7.252  0.00  0.00    -0.020 A 
ATOM     49  C   LIG d   1       4.628  -8.733  -7.186  0.00  0.00    -0.052 A 
ATOM     50  H   LIG d   1       4.612 -10.618  -8.195  0.00  0.00     0.065 H 
ATOM     51  H   LIG d   1       4.408  -8.167  -8.080  0.00  0.00     0.062 H 
BRANCH  46  52
ATOM     52  O   LIG d   1       5.138 -12.188  -6.165  0.00  0.00    -0.507 OA
ATOM     53  H   LIG d   1       4.291 -12.653  -6.178  0.00  0.00     0.292 HD
ENDBRANCH  46  52
ENDBRANCH   1  42
TORSDOF 10
ENDMDL
MODEL 7
REMARK VINA RESULT:      -6.0      6.638      9.816
REMARK  10 active torsions:
REMARK  status: ('A' for Active; 'I' for Inactive)
REMARK    1  A    between atoms: C_3  and  O_37 
REMARK    2  A    between atoms: C_6  and  C_7 
REMARK    3  A    between atoms: C_15  and  O_35 
REMARK    4  A    between atoms: C_17  and  O_18 
REMARK    5  A    between atoms: O_18  and  C_19 
REMARK    6  A    between atoms: C_21  and  O_34 
REMARK    7  A    between atoms: C_23  and  O_33 
REMARK    8  A    between atoms: C_25  and  O_32 
REMARK    9  A    between atoms: C_27  and  C_30 
REMARK   10  A    between atoms: C_30  and  O_31 
ROOT
ATOM      1  C   LIG d   1       4.515  -1.356  -7.348  0.00  0.00     0.132 C 
ATOM      2  H   LIG d   1       5.065  -2.274  -7.141  0.00  0.00     0.079 H 
ATOM      3  C   LIG d   1       5.482  -0.291  -7.886  0.00  0.00     0.052 C 
ATOM      4  C   LIG d   1       6.514  -0.032  -6.804  0.00  0.00     0.174 C 
ATOM      5  O   LIG d   1       7.687   0.128  -7.066  0.00  0.00    -0.292 OA
ATOM      6  C   LIG d   1       6.019   0.014  -5.423  0.00  0.00     0.101 A 
ATOM      7  C   LIG d   1       4.712  -0.431  -5.149  0.00  0.00     0.139 A 
ATOM      8  C   LIG d   1       4.245  -0.399  -3.848  0.00  0.00     0.022 A 
ATOM      9  C   LIG d   1       5.058   0.072  -2.825  0.00  0.00     0.124 A 
ATOM     10  C   LIG d   1       6.346   0.520  -3.092  0.00  0.00     0.023 A 
ATOM     11  C   LIG d   1       6.834   0.494  -4.386  0.00  0.00     0.141 A 
ATOM     12  O   LIG d   1       3.911  -0.881  -6.145  0.00  0.00    -0.483 OA
ATOM     13  H   LIG d   1       5.973  -0.658  -8.788  0.00  0.00     0.038 H 
ATOM     14  H   LIG d   1       4.936   0.626  -8.107  0.00  0.00     0.038 H 
ATOM     15  H   LIG d   1       3.245  -0.742  -3.627  0.00  0.00     0.069 H 
ATOM     16  H   LIG d   1       6.967   0.886  -2.288  0.00  0.00     0.069 H 
ENDROOT
BRANCH  11  17
ATOM     17  O   LIG d   1       8.090   0.930  -4.651  0.00  0.00    -0.460 OA
BRANCH  17  18
ATOM     18  C   LIG d   1       8.368   2.308  -4.392  0.00  0.00     0.231 C 
ATOM     19  H   LIG d   1       7.476   2.789  -3.989  0.00  0.00     0.108 H 
ATOM     20  O   LIG d   1       8.751   2.955  -5.607  0.00  0.00    -0.331 OA
ATOM     21  C   LIG d   1       9.900   2.384  -6.235  0.00  0.00     0.114 C 
ATOM     22  C   LIG d   1      11.102   2.495  -5.295  0.00  0.00     0.112 C 
ATOM     23  H   LIG d   1       9.709   1.333  -6.457  0.00  0.00     0.065 H 
ATOM     24  C   LIG d   1      10.774   1.792  -3.973  0.00  0.00     0.115 C 
ATOM     25  H   LIG d   1      11.970   2.021  -5.753  0.00  0.00     0.065 H 
ATOM     26  C   LIG d   1       9.509   2.417  -3.376  0.00  0.00     0.145 C 
ATOM     27  H   LIG d   1      10.605   0.731  -4.157  0.00  0.00     0.065 H 
ATOM     28  H   LIG d   1       9.236   1.886  -2.464  0.00  0.00     0.068 H 
BRANCH  21  29
ATOM     29  C   LIG d   1      10.198   3.134  -7.535  0.00  0.00     0.073 C 
ATOM     30  H   LIG d   1       9.616   2.699  -8.347  0.00  0.00     0.058 H 
ATOM     31  H   LIG d   1       9.929   4.184  -7.417  0.00  0.00     0.058 H 
BRANCH  29  32
ATOM     32  O   LIG d   1      11.590   3.029  -7.837  0.00  0.00    -0.392 OA
ATOM     33  H   LIG d   1      11.980   3.844  -8.182  0.00  0.00     0.209 HD
ENDBRANCH  29  32
ENDBRANCH  21  29
BRANCH  22  34
ATOM     34  O   LIG d   1      11.388   3.872  -5.045  0.00  0.00    -0.387 OA
ATOM     35  H   LIG d   1      11.035   4.203  -4.207  0.00  0.00     0.210 HD
ENDBRANCH  22  34
BRANCH  24  36
ATOM     36  O   LIG d   1      11.862   1.953  -3.061  0.00  0.00    -0.386 OA
ATOM     37  H   LIG d   1      11.721   2.642  -2.398  0.00  0.00     0.210 HD
ENDBRANCH  24  36
BRANCH  26  38
ATOM     38  O   LIG d   1       9.750   3.793  -3.075  0.00  0.00    -0.383 OA
ATOM     39  H   LIG d   1       9.085   4.396  -3.435  0.00  0.00     0.210 HD
ENDBRANCH  26  38
ENDBRANCH  17  18
ENDBRANCH  11  17
BRANCH   9  40
ATOM     40  O   LIG d   1       4.589   0.098  -1.552  0.00  0.00    -0.506 OA
ATOM     41  H   LIG d   1       4.853  -0.666  -1.021  0.00  0.00     0.292 HD
ENDBRANCH   9  40
BRANCH   1  42
ATOM     42  C   LIG d   1       3.445  -1.629  -8.373  0.00  0.00    -0.007 A 
ATOM     43  C   LIG d   1       3.337  -2.885  -8.939  0.00  0.00    -0.052 A 
ATOM     44  C   LIG d   1       2.357  -3.139  -9.880  0.00  0.00    -0.020 A 
ATOM     45  H   LIG d   1       4.016  -3.671  -8.645  0.00  0.00     0.062 H 
ATOM     46  C   LIG d   1       1.481  -2.130 -10.255  0.00  0.00     0.117 A 
ATOM     47  H   LIG d   1       2.273  -4.120 -10.322  0.00  0.00     0.065 H 
ATOM     48  C   LIG d   1       1.591  -0.870  -9.685  0.00  0.00    -0.020 A 
ATOM     49  C   LIG d   1       2.573  -0.623  -8.745  0.00  0.00    -0.052 A 
ATOM     50  H   LIG d   1       0.911  -0.085  -9.976  0.00  0.00     0.065 H 
ATOM     51  H   LIG d   1       2.660   0.358  -8.301  0.00  0.00     0.062 H 
BRANCH  46  52
ATOM     52  O   LIG d   1       0.516  -2.377 -11.180  0.00  0.00    -0.507 OA
ATOM     53  H   LIG d   1       0.070  -1.583 -11.504  0.00  0.00     0.292 HD
ENDBRANCH  46  52
ENDBRANCH   1  42
TORSDOF 10
ENDMDL
MODEL 8
REMARK VINA RESULT:      -5.9      3.634     10.915
REMARK  10 active torsions:
REMARK  status: ('A' for Active; 'I' for Inactive)
REMARK    1  A    between atoms: C_3  and  O_37 
REMARK    2  A    between atoms: C_6  and  C_7 
REMARK    3  A    between atoms: C_15  and  O_35 
REMARK    4  A    between atoms: C_17  and  O_18 
REMARK    5  A    between atoms: O_18  and  C_19 
REMARK    6  A    between atoms: C_21  and  O_34 
REMARK    7  A    between atoms: C_23  and  O_33 
REMARK    8  A    between atoms: C_25  and  O_32 
REMARK    9  A    between atoms: C_27  and  C_30 
REMARK   10  A    between atoms: C_30  and  O_31 
ROOT
ATOM      1  C   LIG d   1       9.929   3.415  -4.369  0.00  0.00     0.132 C 
ATOM      2  H   LIG d   1      10.730   2.676  -4.399  0.00  0.00     0.079 H 
ATOM      3  C   LIG d   1       8.734   2.843  -3.591  0.00  0.00     0.052 C 
ATOM      4  C   LIG d   1       8.260   1.609  -4.337  0.00  0.00     0.174 C 
ATOM      5  O   LIG d   1       7.911   0.605  -3.753  0.00  0.00    -0.292 OA
ATOM      6  C   LIG d   1       8.247   1.693  -5.802  0.00  0.00     0.101 A 
ATOM      7  C   LIG d   1       8.899   2.769  -6.432  0.00  0.00     0.139 A 
ATOM      8  C   LIG d   1       8.899   2.847  -7.812  0.00  0.00     0.022 A 
ATOM      9  C   LIG d   1       8.256   1.874  -8.567  0.00  0.00     0.124 A 
ATOM     10  C   LIG d   1       7.604   0.814  -7.949  0.00  0.00     0.023 A 
ATOM     11  C   LIG d   1       7.595   0.716  -6.569  0.00  0.00     0.141 A 
ATOM     12  O   LIG d   1       9.519   3.727  -5.700  0.00  0.00    -0.483 OA
ATOM     13  H   LIG d   1       9.046   2.570  -2.582  0.00  0.00     0.038 H 
ATOM     14  H   LIG d   1       7.934   3.580  -3.546  0.00  0.00     0.038 H 
ATOM     15  H   LIG d   1       9.401   3.667  -8.305  0.00  0.00     0.069 H 
ATOM     16  H   LIG d   1       7.105   0.065  -8.547  0.00  0.00     0.069 H 
ENDROOT
BRANCH  11  17
ATOM     17  O   LIG d   1       6.960  -0.318  -5.962  0.00  0.00    -0.460 OA
BRANCH  17  18
ATOM     18  C   LIG d   1       5.595  -0.542  -6.322  0.00  0.00     0.231 C 
ATOM     19  H   LIG d   1       5.435  -0.231  -7.354  0.00  0.00     0.108 H 
ATOM     20  O   LIG d   1       4.743   0.215  -5.459  0.00  0.00    -0.331 OA
ATOM     21  C   LIG d   1       4.891  -0.097  -4.073  0.00  0.00     0.114 C 
ATOM     22  C   LIG d   1       4.536  -1.567  -3.841  0.00  0.00     0.112 C 
ATOM     23  H   LIG d   1       5.924   0.080  -3.768  0.00  0.00     0.065 H 
ATOM     24  C   LIG d   1       5.436  -2.446  -4.716  0.00  0.00     0.115 C 
ATOM     25  H   LIG d   1       4.691  -1.819  -2.792  0.00  0.00     0.065 H 
ATOM     26  C   LIG d   1       5.267  -2.031  -6.181  0.00  0.00     0.145 C 
ATOM     27  H   LIG d   1       6.476  -2.315  -4.417  0.00  0.00     0.065 H 
ATOM     28  H   LIG d   1       5.945  -2.613  -6.805  0.00  0.00     0.068 H 
BRANCH  21  29
ATOM     29  C   LIG d   1       3.957   0.790  -3.247  0.00  0.00     0.073 C 
ATOM     30  H   LIG d   1       3.483   0.192  -2.470  0.00  0.00     0.058 H 
ATOM     31  H   LIG d   1       4.532   1.594  -2.787  0.00  0.00     0.058 H 
BRANCH  29  32
ATOM     32  O   LIG d   1       2.955   1.348  -4.098  0.00  0.00    -0.392 OA
ATOM     33  H   LIG d   1       2.049   1.167  -3.811  0.00  0.00     0.209 HD
ENDBRANCH  29  32
ENDBRANCH  21  29
BRANCH  22  34
ATOM     34  O   LIG d   1       3.168  -1.790  -4.188  0.00  0.00    -0.387 OA
ATOM     35  H   LIG d   1       3.036  -2.488  -4.844  0.00  0.00     0.210 HD
ENDBRANCH  22  34
BRANCH  24  36
ATOM     36  O   LIG d   1       5.064  -3.818  -4.562  0.00  0.00    -0.386 OA
ATOM     37  H   LIG d   1       4.906  -4.082  -3.645  0.00  0.00     0.210 HD
ENDBRANCH  24  36
BRANCH  26  38
ATOM     38  O   LIG d   1       3.919  -2.265  -6.593  0.00  0.00    -0.383 OA
ATOM     39  H   LIG d   1       3.257  -1.984  -5.947  0.00  0.00     0.210 HD
ENDBRANCH  26  38
ENDBRANCH  17  18
ENDBRANCH  11  17
BRANCH   9  40
ATOM     40  O   LIG d   1       8.263   1.961  -9.921  0.00  0.00    -0.506 OA
ATOM     41  H   LIG d   1       8.989   2.489 -10.277  0.00  0.00     0.292 HD
ENDBRANCH   9  40
BRANCH   1  42
ATOM     42  C   LIG d   1      10.421   4.665  -3.688  0.00  0.00    -0.007 A 
ATOM     43  C   LIG d   1      10.351   4.774  -2.312  0.00  0.00    -0.052 A 
ATOM     44  C   LIG d   1      10.802   5.920  -1.684  0.00  0.00    -0.020 A 
ATOM     45  H   LIG d   1       9.946   3.963  -1.726  0.00  0.00     0.062 H 
ATOM     46  C   LIG d   1      11.326   6.960  -2.438  0.00  0.00     0.117 A 
ATOM     47  H   LIG d   1      10.747   6.005  -0.610  0.00  0.00     0.065 H 
ATOM     48  C   LIG d   1      11.396   6.848  -3.819  0.00  0.00    -0.020 A 
ATOM     49  C   LIG d   1      10.943   5.700  -4.440  0.00  0.00    -0.052 A 
ATOM     50  H   LIG d   1      11.803   7.657  -4.407  0.00  0.00     0.065 H 
ATOM     51  H   LIG d   1      10.997   5.612  -5.516  0.00  0.00     0.062 H 
BRANCH  46  52
ATOM     52  O   LIG d   1      11.771   8.088  -1.823  0.00  0.00    -0.507 OA
ATOM     53  H   LIG d   1      11.929   8.828  -2.425  0.00  0.00     0.292 HD
ENDBRANCH  46  52
ENDBRANCH   1  42
TORSDOF 10
ENDMDL
MODEL 9
REMARK VINA RESULT:      -5.9      2.598      4.575
REMARK  10 active torsions:
REMARK  status: ('A' for Active; 'I' for Inactive)
REMARK    1  A    between atoms: C_3  and  O_37 
REMARK    2  A    between atoms: C_6  and  C_7 
REMARK    3  A    between atoms: C_15  and  O_35 
REMARK    4  A    between atoms: C_17  and  O_18 
REMARK    5  A    between atoms: O_18  and  C_19 
REMARK    6  A    between atoms: C_21  and  O_34 
REMARK    7  A    between atoms: C_23  and  O_33 
REMARK    8  A    between atoms: C_25  and  O_32 
REMARK    9  A    between atoms: C_27  and  C_30 
REMARK   10  A    between atoms: C_30  and  O_31 
ROOT
ATOM      1  C   LIG d   1      10.169   5.267  -4.585  0.00  0.00     0.132 C 
ATOM      2  H   LIG d   1       9.247   5.449  -4.032  0.00  0.00     0.079 H 
ATOM      3  C   LIG d   1      11.319   6.050  -3.932  0.00  0.00     0.052 C 
ATOM      4  C   LIG d   1      10.962   7.523  -4.012  0.00  0.00     0.174 C 
ATOM      5  O   LIG d   1      11.181   8.283  -3.092  0.00  0.00    -0.292 OA
ATOM      6  C   LIG d   1      10.338   7.980  -5.258  0.00  0.00     0.101 A 
ATOM      7  C   LIG d   1       9.872   7.025  -6.181  0.00  0.00     0.139 A 
ATOM      8  C   LIG d   1       9.273   7.451  -7.352  0.00  0.00     0.022 A 
ATOM      9  C   LIG d   1       9.139   8.809  -7.615  0.00  0.00     0.124 A 
ATOM     10  C   LIG d   1       9.605   9.755  -6.711  0.00  0.00     0.023 A 
ATOM     11  C   LIG d   1      10.204   9.350  -5.531  0.00  0.00     0.141 A 
ATOM     12  O   LIG d   1      10.010   5.700  -5.935  0.00  0.00    -0.483 OA
ATOM     13  H   LIG d   1      11.427   5.749  -2.890  0.00  0.00     0.038 H 
ATOM     14  H   LIG d   1      12.247   5.862  -4.471  0.00  0.00     0.038 H 
ATOM     15  H   LIG d   1       8.908   6.726  -8.065  0.00  0.00     0.069 H 
ATOM     16  H   LIG d   1       9.497  10.808  -6.928  0.00  0.00     0.069 H 
ENDROOT
BRANCH  11  17
ATOM     17  O   LIG d   1      10.660  10.271  -4.646  0.00  0.00    -0.460 OA
BRANCH  17  18
ATOM     18  C   LIG d   1       9.835  11.415  -4.416  0.00  0.00     0.231 C 
ATOM     19  H   LIG d   1       9.402  11.746  -5.360  0.00  0.00     0.108 H 
ATOM     20  O   LIG d   1      10.624  12.467  -3.857  0.00  0.00    -0.331 OA
ATOM     21  C   LIG d   1      11.261  12.128  -2.624  0.00  0.00     0.114 C 
ATOM     22  C   LIG d   1      10.197  11.790  -1.578  0.00  0.00     0.112 C 
ATOM     23  H   LIG d   1      11.909  11.264  -2.775  0.00  0.00     0.065 H 
ATOM     24  C   LIG d   1       9.327  10.641  -2.098  0.00  0.00     0.115 C 
ATOM     25  H   LIG d   1      10.681  11.487  -0.649  0.00  0.00     0.065 H 
ATOM     26  C   LIG d   1       8.712  11.048  -3.441  0.00  0.00     0.145 C 
ATOM     27  H   LIG d   1       9.941   9.751  -2.233  0.00  0.00     0.065 H 
ATOM     28  H   LIG d   1       8.137  10.216  -3.846  0.00  0.00     0.068 H 
BRANCH  21  29
ATOM     29  C   LIG d   1      12.096  13.314  -2.138  0.00  0.00     0.073 C 
ATOM     30  H   LIG d   1      12.128  13.313  -1.049  0.00  0.00     0.058 H 
ATOM     31  H   LIG d   1      13.109  13.230  -2.531  0.00  0.00     0.058 H 
BRANCH  29  32
ATOM     32  O   LIG d   1      11.506  14.532  -2.596  0.00  0.00    -0.392 OA
ATOM     33  H   LIG d   1      10.967  14.433  -3.392  0.00  0.00     0.209 HD
ENDBRANCH  29  32
ENDBRANCH  21  29
BRANCH  22  34
ATOM     34  O   LIG d   1       9.379  12.937  -1.338  0.00  0.00    -0.387 OA
ATOM     35  H   LIG d   1       8.920  12.923  -0.486  0.00  0.00     0.210 HD
ENDBRANCH  22  34
BRANCH  24  36
ATOM     36  O   LIG d   1       8.284  10.365  -1.160  0.00  0.00    -0.386 OA
ATOM     37  H   LIG d   1       7.573  11.019  -1.159  0.00  0.00     0.210 HD
ENDBRANCH  24  36
BRANCH  26  38
ATOM     38  O   LIG d   1       7.855  12.176  -3.254  0.00  0.00    -0.383 OA
ATOM     39  H   LIG d   1       8.222  13.007  -3.584  0.00  0.00     0.210 HD
ENDBRANCH  26  38
ENDBRANCH  17  18
ENDBRANCH  11  17
BRANCH   9  40
ATOM     40  O   LIG d   1       8.549   9.215  -8.768  0.00  0.00    -0.506 OA
ATOM     41  H   LIG d   1       7.583   9.187  -8.746  0.00  0.00     0.292 HD
ENDBRANCH   9  40
BRANCH   1  42
ATOM     42  C   LIG d   1      10.487   3.794  -4.563  0.00  0.00    -0.007 A 
ATOM     43  C   LIG d   1      11.295   3.278  -3.567  0.00  0.00    -0.052 A 
ATOM     44  C   LIG d   1      11.588   1.927  -3.545  0.00  0.00    -0.020 A 
ATOM     45  H   LIG d   1      11.695   3.928  -2.804  0.00  0.00     0.062 H 
ATOM     46  C   LIG d   1      11.069   1.090  -4.523  0.00  0.00     0.117 A 
ATOM     47  H   LIG d   1      12.219   1.524  -2.767  0.00  0.00     0.065 H 
ATOM     48  C   LIG d   1      10.259   1.612  -5.521  0.00  0.00    -0.020 A 
ATOM     49  C   LIG d   1       9.970   2.962  -5.538  0.00  0.00    -0.052 A 
ATOM     50  H   LIG d   1       9.855   0.962  -6.282  0.00  0.00     0.065 H 
ATOM     51  H   LIG d   1       9.339   3.369  -6.315  0.00  0.00     0.062 H 
BRANCH  46  52
ATOM     52  O   LIG d   1      11.356  -0.238  -4.503  0.00  0.00    -0.507 OA
ATOM     53  H   LIG d   1      12.292  -0.436  -4.361  0.00  0.00     0.292 HD
ENDBRANCH  46  52
ENDBRANCH   1  42
TORSDOF 10
ENDMDL
