MODEL 1
REMARK VINA RESULT:      -5.3      0.000      0.000
REMARK  17 active torsions:
REMARK  status: ('A' for Active; 'I' for Inactive)
REMARK    1  A    between atoms: C_1  and  C_2 
REMARK    2  A    between atoms: C_2  and  C_3 
REMARK    3  A    between atoms: C_3  and  C_4 
REMARK    4  A    between atoms: C_4  and  C_5 
REMARK    5  A    between atoms: C_5  and  C_6 
REMARK    6  A    between atoms: C_6  and  C_7 
REMARK    7  A    between atoms: C_7  and  C_9 
REMARK    8  A    between atoms: C_7  and  O_22 
REMARK    9  A    between atoms: C_9  and  C_10 
REMARK   10  A    between atoms: C_11  and  C_12 
REMARK   11  A    between atoms: C_12  and  C_13 
REMARK   12  A    between atoms: C_13  and  C_14 
REMARK   13  A    between atoms: C_14  and  C_15 
REMARK   14  A    between atoms: C_15  and  C_16 
REMARK   15  A    between atoms: C_16  and  C_17 
REMARK   16  A    between atoms: C_17  and  C_18 
REMARK   17  A    between atoms: C_18  and  C_19 
ROOT
ATOM      1  C   LIG d   1       2.862   0.418  -6.052  0.00  0.00    -0.086 C 
ATOM      2  C   LIG d   1       2.250   0.519  -4.899  0.00  0.00    -0.088 C 
ATOM      3  H   LIG d   1       2.522   0.998  -6.897  0.00  0.00     0.057 H 
ATOM      4  H   LIG d   1       1.333   1.086  -4.821  0.00  0.00     0.057 H 
ENDROOT
BRANCH   1   5
ATOM      5  C   LIG d   1       4.042  -0.507  -6.201  0.00  0.00    -0.009 C 
ATOM      6  H   LIG d   1       4.030  -1.244  -5.396  0.00  0.00     0.033 H 
ATOM      7  H   LIG d   1       4.965   0.070  -6.151  0.00  0.00     0.033 H 
BRANCH   5   8
ATOM      8  C   LIG d   1       3.961  -1.225  -7.549  0.00  0.00     0.059 C 
ATOM      9  H   LIG d   1       4.859  -1.014  -8.129  0.00  0.00     0.060 H 
BRANCH   8  10
ATOM     10  C   LIG d   1       2.733  -0.733  -8.317  0.00  0.00    -0.027 C 
ATOM     11  H   LIG d   1       2.655   0.350  -8.223  0.00  0.00     0.029 H 
ATOM     12  H   LIG d   1       1.836  -1.198  -7.905  0.00  0.00     0.029 H 
BRANCH  10  13
ATOM     13  C   LIG d   1       2.868  -1.110  -9.793  0.00  0.00    -0.051 C 
ATOM     14  H   LIG d   1       2.191  -1.932 -10.022  0.00  0.00     0.027 H 
ATOM     15  H   LIG d   1       3.895  -1.418  -9.996  0.00  0.00     0.027 H 
BRANCH  13  16
ATOM     16  C   LIG d   1       2.517   0.099 -10.663  0.00  0.00    -0.053 C 
ATOM     17  H   LIG d   1       1.785   0.718 -10.145  0.00  0.00     0.026 H 
ATOM     18  H   LIG d   1       2.098  -0.245 -11.609  0.00  0.00     0.026 H 
BRANCH  16  19
ATOM     19  C   LIG d   1       3.781   0.918 -10.932  0.00  0.00    -0.053 C 
ATOM     20  H   LIG d   1       3.817   1.193 -11.986  0.00  0.00     0.026 H 
ATOM     21  H   LIG d   1       4.659   0.324 -10.681  0.00  0.00     0.026 H 
BRANCH  19  22
ATOM     22  C   LIG d   1       3.760   2.185 -10.076  0.00  0.00    -0.056 C 
ATOM     23  H   LIG d   1       2.851   2.201  -9.473  0.00  0.00     0.026 H 
ATOM     24  H   LIG d   1       3.780   3.062 -10.723  0.00  0.00     0.026 H 
BRANCH  22  25
ATOM     25  C   LIG d   1       4.982   2.200  -9.156  0.00  0.00    -0.065 C 
ATOM     26  H   LIG d   1       5.661   1.397  -9.440  0.00  0.00     0.023 H 
ATOM     27  H   LIG d   1       5.493   3.159  -9.248  0.00  0.00     0.023 H 
ATOM     28  H   LIG d   1       4.661   2.057  -8.124  0.00  0.00     0.023 H 
ENDBRANCH  22  25
ENDBRANCH  19  22
ENDBRANCH  16  19
ENDBRANCH  13  16
ENDBRANCH  10  13
ENDBRANCH   8  10
BRANCH   8  29
ATOM     29  O   LIG d   1       3.855  -2.633  -7.333  0.00  0.00    -0.392 OA
ATOM     30  H   LIG d   1       4.552  -2.999  -6.772  0.00  0.00     0.210 HD
ENDBRANCH   8  29
ENDBRANCH   5   8
ENDBRANCH   1   5
BRANCH   2  31
ATOM     31  C   LIG d   1       2.823  -0.157  -3.680  0.00  0.00    -0.035 C 
ATOM     32  H   LIG d   1       2.045  -0.741  -3.188  0.00  0.00     0.031 H 
ATOM     33  H   LIG d   1       3.638  -0.816  -3.979  0.00  0.00     0.031 H 
BRANCH  31  34
ATOM     34  C   LIG d   1       3.353   0.904  -2.712  0.00  0.00    -0.050 C 
ATOM     35  H   LIG d   1       3.476   1.849  -3.240  0.00  0.00     0.027 H 
ATOM     36  H   LIG d   1       2.646   1.034  -1.893  0.00  0.00     0.027 H 
BRANCH  34  37
ATOM     37  C   LIG d   1       4.704   0.453  -2.152  0.00  0.00    -0.053 C 
ATOM     38  H   LIG d   1       4.830   0.848  -1.144  0.00  0.00     0.026 H 
ATOM     39  H   LIG d   1       4.741  -0.636  -2.123  0.00  0.00     0.026 H 
BRANCH  37  40
ATOM     40  C   LIG d   1       5.828   0.976  -3.049  0.00  0.00    -0.053 C 
ATOM     41  H   LIG d   1       5.399   1.417  -3.950  0.00  0.00     0.026 H 
ATOM     42  H   LIG d   1       6.399   1.733  -2.511  0.00  0.00     0.026 H 
BRANCH  40  43
ATOM     43  C   LIG d   1       6.752  -0.179  -3.437  0.00  0.00    -0.053 C 
ATOM     44  H   LIG d   1       6.867  -0.204  -4.520  0.00  0.00     0.026 H 
ATOM     45  H   LIG d   1       7.727  -0.035  -2.971  0.00  0.00     0.026 H 
BRANCH  43  46
ATOM     46  C   LIG d   1       6.148  -1.499  -2.957  0.00  0.00    -0.048 C 
ATOM     47  H   LIG d   1       6.762  -1.910  -2.155  0.00  0.00     0.027 H 
ATOM     48  H   LIG d   1       5.137  -1.323  -2.587  0.00  0.00     0.027 H 
BRANCH  46  49
ATOM     49  C   LIG d   1       6.098  -2.491  -4.121  0.00  0.00    -0.013 C 
ATOM     50  H   LIG d   1       6.152  -1.948  -5.064  0.00  0.00     0.033 H 
ATOM     51  H   LIG d   1       6.942  -3.178  -4.049  0.00  0.00     0.033 H 
BRANCH  49  52
ATOM     52  C   LIG d   1       4.810  -3.270  -4.063  0.00  0.00     0.042 C 
ATOM     53  O   LIG d   1       4.530  -4.054  -4.954  0.00  0.00    -0.550 OA
ATOM     54  O   LIG d   1       4.045  -3.116  -3.125  0.00  0.00    -0.550 OA
ENDBRANCH  49  52
ENDBRANCH  46  49
ENDBRANCH  43  46
ENDBRANCH  40  43
ENDBRANCH  37  40
ENDBRANCH  34  37
ENDBRANCH  31  34
ENDBRANCH   2  31
TORSDOF 17
ENDMDL
MODEL 2
REMARK VINA RESULT:      -5.3      2.152      3.016
REMARK  17 active torsions:
REMARK  status: ('A' for Active; 'I' for Inactive)
REMARK    1  A    between atoms: C_1  and  C_2 
REMARK    2  A    between atoms: C_2  and  C_3 
REMARK    3  A    between atoms: C_3  and  C_4 
REMARK    4  A    between atoms: C_4  and  C_5 
REMARK    5  A    between atoms: C_5  and  C_6 
REMARK    6  A    between atoms: C_6  and  C_7 
REMARK    7  A    between atoms: C_7  and  C_9 
REMARK    8  A    between atoms: C_7  and  O_22 
REMARK    9  A    between atoms: C_9  and  C_10 
REMARK   10  A    between atoms: C_11  and  C_12 
REMARK   11  A    between atoms: C_12  and  C_13 
REMARK   12  A    between atoms: C_13  and  C_14 
REMARK   13  A    between atoms: C_14  and  C_15 
REMARK   14  A    between atoms: C_15  and  C_16 
REMARK   15  A    between atoms: C_16  and  C_17 
REMARK   16  A    between atoms: C_17  and  C_18 
REMARK   17  A    between atoms: C_18  and  C_19 
ROOT
ATOM      1  C   LIG d   1       2.782   0.188  -5.958  0.00  0.00    -0.086 C 
ATOM      2  C   LIG d   1       2.277   0.289  -4.754  0.00  0.00    -0.088 C 
ATOM      3  H   LIG d   1       2.157   0.362  -6.822  0.00  0.00     0.057 H 
ATOM      4  H   LIG d   1       1.214   0.426  -4.622  0.00  0.00     0.057 H 
ENDROOT
BRANCH   1   5
ATOM      5  C   LIG d   1       4.234  -0.172  -6.140  0.00  0.00    -0.009 C 
ATOM      6  H   LIG d   1       4.622  -0.597  -5.213  0.00  0.00     0.033 H 
ATOM      7  H   LIG d   1       4.801   0.724  -6.395  0.00  0.00     0.033 H 
BRANCH   5   8
ATOM      8  C   LIG d   1       4.368  -1.198  -7.267  0.00  0.00     0.059 C 
ATOM      9  H   LIG d   1       4.683  -2.155  -6.851  0.00  0.00     0.060 H 
BRANCH   8  10
ATOM     10  C   LIG d   1       5.411  -0.714  -8.277  0.00  0.00    -0.027 C 
ATOM     11  H   LIG d   1       4.915  -0.438  -9.207  0.00  0.00     0.029 H 
ATOM     12  H   LIG d   1       6.127  -1.513  -8.470  0.00  0.00     0.029 H 
BRANCH  10  13
ATOM     13  C   LIG d   1       6.146   0.501  -7.709  0.00  0.00    -0.051 C 
ATOM     14  H   LIG d   1       7.144   0.205  -7.387  0.00  0.00     0.027 H 
ATOM     15  H   LIG d   1       5.591   0.894  -6.856  0.00  0.00     0.027 H 
BRANCH  13  16
ATOM     16  C   LIG d   1       6.256   1.581  -8.787  0.00  0.00    -0.053 C 
ATOM     17  H   LIG d   1       7.146   1.402  -9.390  0.00  0.00     0.026 H 
ATOM     18  H   LIG d   1       6.329   2.560  -8.314  0.00  0.00     0.026 H 
BRANCH  16  19
ATOM     19  C   LIG d   1       5.016   1.537  -9.681  0.00  0.00    -0.053 C 
ATOM     20  H   LIG d   1       4.520   0.573  -9.567  0.00  0.00     0.026 H 
ATOM     21  H   LIG d   1       5.312   1.674 -10.721  0.00  0.00     0.026 H 
BRANCH  19  22
ATOM     22  C   LIG d   1       4.054   2.656  -9.274  0.00  0.00    -0.056 C 
ATOM     23  H   LIG d   1       3.956   3.367 -10.095  0.00  0.00     0.026 H 
ATOM     24  H   LIG d   1       4.445   3.169  -8.395  0.00  0.00     0.026 H 
BRANCH  22  25
ATOM     25  C   LIG d   1       2.684   2.058  -8.950  0.00  0.00    -0.065 C 
ATOM     26  H   LIG d   1       2.283   1.567  -9.836  0.00  0.00     0.023 H 
ATOM     27  H   LIG d   1       2.786   1.331  -8.145  0.00  0.00     0.023 H 
ATOM     28  H   LIG d   1       2.006   2.853  -8.637  0.00  0.00     0.023 H 
ENDBRANCH  22  25
ENDBRANCH  19  22
ENDBRANCH  16  19
ENDBRANCH  13  16
ENDBRANCH  10  13
ENDBRANCH   8  10
BRANCH   8  29
ATOM     29  O   LIG d   1       3.108  -1.355  -7.921  0.00  0.00    -0.392 OA
ATOM     30  H   LIG d   1       2.402  -1.674  -7.343  0.00  0.00     0.210 HD
ENDBRANCH   8  29
ENDBRANCH   5   8
ENDBRANCH   1   5
BRANCH   2  31
ATOM     31  C   LIG d   1       3.182   0.214  -3.550  0.00  0.00    -0.035 C 
ATOM     32  H   LIG d   1       4.220   0.160  -3.878  0.00  0.00     0.031 H 
ATOM     33  H   LIG d   1       3.041   1.101  -2.934  0.00  0.00     0.031 H 
BRANCH  31  34
ATOM     34  C   LIG d   1       2.840  -1.035  -2.733  0.00  0.00    -0.050 C 
ATOM     35  H   LIG d   1       2.346  -0.739  -1.808  0.00  0.00     0.027 H 
ATOM     36  H   LIG d   1       2.176  -1.676  -3.311  0.00  0.00     0.027 H 
BRANCH  34  37
ATOM     37  C   LIG d   1       4.126  -1.796  -2.405  0.00  0.00    -0.053 C 
ATOM     38  H   LIG d   1       4.901  -1.089  -2.108  0.00  0.00     0.026 H 
ATOM     39  H   LIG d   1       3.938  -2.493  -1.588  0.00  0.00     0.026 H 
BRANCH  37  40
ATOM     40  C   LIG d   1       4.589  -2.572  -3.639  0.00  0.00    -0.053 C 
ATOM     41  H   LIG d   1       4.323  -3.623  -3.529  0.00  0.00     0.026 H 
ATOM     42  H   LIG d   1       4.104  -2.166  -4.527  0.00  0.00     0.026 H 
BRANCH  40  43
ATOM     43  C   LIG d   1       6.107  -2.442  -3.785  0.00  0.00    -0.053 C 
ATOM     44  H   LIG d   1       6.592  -3.270  -3.270  0.00  0.00     0.026 H 
ATOM     45  H   LIG d   1       6.372  -2.466  -4.842  0.00  0.00     0.026 H 
BRANCH  43  46
ATOM     46  C   LIG d   1       6.567  -1.119  -3.173  0.00  0.00    -0.048 C 
ATOM     47  H   LIG d   1       5.698  -0.547  -2.846  0.00  0.00     0.027 H 
ATOM     48  H   LIG d   1       7.213  -1.319  -2.317  0.00  0.00     0.027 H 
BRANCH  46  49
ATOM     49  C   LIG d   1       7.342  -0.315  -4.219  0.00  0.00    -0.013 C 
ATOM     50  H   LIG d   1       8.409  -0.503  -4.104  0.00  0.00     0.033 H 
ATOM     51  H   LIG d   1       7.026  -0.618  -5.218  0.00  0.00     0.033 H 
BRANCH  49  52
ATOM     52  C   LIG d   1       7.067   1.154  -4.029  0.00  0.00     0.042 C 
ATOM     53  O   LIG d   1       7.580   1.973  -4.773  0.00  0.00    -0.550 OA
ATOM     54  O   LIG d   1       6.331   1.526  -3.130  0.00  0.00    -0.550 OA
ENDBRANCH  49  52
ENDBRANCH  46  49
ENDBRANCH  43  46
ENDBRANCH  40  43
ENDBRANCH  37  40
ENDBRANCH  34  37
ENDBRANCH  31  34
ENDBRANCH   2  31
TORSDOF 17
ENDMDL
MODEL 3
REMARK VINA RESULT:      -5.1      1.999      3.368
REMARK  17 active torsions:
REMARK  status: ('A' for Active; 'I' for Inactive)
REMARK    1  A    between atoms: C_1  and  C_2 
REMARK    2  A    between atoms: C_2  and  C_3 
REMARK    3  A    between atoms: C_3  and  C_4 
REMARK    4  A    between atoms: C_4  and  C_5 
REMARK    5  A    between atoms: C_5  and  C_6 
REMARK    6  A    between atoms: C_6  and  C_7 
REMARK    7  A    between atoms: C_7  and  C_9 
REMARK    8  A    between atoms: C_7  and  O_22 
REMARK    9  A    between atoms: C_9  and  C_10 
REMARK   10  A    between atoms: C_11  and  C_12 
REMARK   11  A    between atoms: C_12  and  C_13 
REMARK   12  A    between atoms: C_13  and  C_14 
REMARK   13  A    between atoms: C_14  and  C_15 
REMARK   14  A    between atoms: C_15  and  C_16 
REMARK   15  A    between atoms: C_16  and  C_17 
REMARK   16  A    between atoms: C_17  and  C_18 
REMARK   17  A    between atoms: C_18  and  C_19 
ROOT
ATOM      1  C   LIG d   1       3.254   0.292  -2.558  0.00  0.00    -0.086 C 
ATOM      2  C   LIG d   1       4.337  -0.158  -1.975  0.00  0.00    -0.088 C 
ATOM      3  H   LIG d   1       2.803   1.214  -2.221  0.00  0.00     0.057 H 
ATOM      4  H   LIG d   1       4.711   0.322  -1.083  0.00  0.00     0.057 H 
ENDROOT
BRANCH   1   5
ATOM      5  C   LIG d   1       2.637  -0.474  -3.699  0.00  0.00    -0.009 C 
ATOM      6  H   LIG d   1       1.647  -0.826  -3.407  0.00  0.00     0.033 H 
ATOM      7  H   LIG d   1       3.268  -1.328  -3.947  0.00  0.00     0.033 H 
BRANCH   5   8
ATOM      8  C   LIG d   1       2.513   0.439  -4.920  0.00  0.00     0.059 C 
ATOM      9  H   LIG d   1       1.489   0.414  -5.291  0.00  0.00     0.060 H 
BRANCH   8  10
ATOM     10  C   LIG d   1       3.464  -0.043  -6.017  0.00  0.00    -0.027 C 
ATOM     11  H   LIG d   1       3.910  -0.992  -5.721  0.00  0.00     0.029 H 
ATOM     12  H   LIG d   1       4.252   0.697  -6.166  0.00  0.00     0.029 H 
BRANCH  10  13
ATOM     13  C   LIG d   1       2.687  -0.228  -7.322  0.00  0.00    -0.051 C 
ATOM     14  H   LIG d   1       1.691   0.200  -7.215  0.00  0.00     0.027 H 
ATOM     15  H   LIG d   1       2.604  -1.292  -7.546  0.00  0.00     0.027 H 
BRANCH  13  16
ATOM     16  C   LIG d   1       3.426   0.477  -8.461  0.00  0.00    -0.053 C 
ATOM     17  H   LIG d   1       3.221  -0.037  -9.400  0.00  0.00     0.026 H 
ATOM     18  H   LIG d   1       4.498   0.459  -8.264  0.00  0.00     0.026 H 
BRANCH  16  19
ATOM     19  C   LIG d   1       2.950   1.928  -8.558  0.00  0.00    -0.053 C 
ATOM     20  H   LIG d   1       2.776   2.320  -7.556  0.00  0.00     0.026 H 
ATOM     21  H   LIG d   1       2.024   1.969  -9.130  0.00  0.00     0.026 H 
BRANCH  19  22
ATOM     22  C   LIG d   1       4.020   2.770  -9.255  0.00  0.00    -0.056 C 
ATOM     23  H   LIG d   1       4.058   3.760  -8.799  0.00  0.00     0.026 H 
ATOM     24  H   LIG d   1       3.772   2.869 -10.313  0.00  0.00     0.026 H 
BRANCH  22  25
ATOM     25  C   LIG d   1       5.382   2.089  -9.112  0.00  0.00    -0.065 C 
ATOM     26  H   LIG d   1       5.816   2.346  -8.146  0.00  0.00     0.023 H 
ATOM     27  H   LIG d   1       5.256   1.008  -9.178  0.00  0.00     0.023 H 
ATOM     28  H   LIG d   1       6.043   2.427  -9.910  0.00  0.00     0.023 H 
ENDBRANCH  22  25
ENDBRANCH  19  22
ENDBRANCH  16  19
ENDBRANCH  13  16
ENDBRANCH  10  13
ENDBRANCH   8  10
BRANCH   8  29
ATOM     29  O   LIG d   1       2.852   1.777  -4.550  0.00  0.00    -0.392 OA
ATOM     30  H   LIG d   1       2.100   2.303  -4.245  0.00  0.00     0.210 HD
ENDBRANCH   8  29
ENDBRANCH   5   8
ENDBRANCH   1   5
BRANCH   2  31
ATOM     31  C   LIG d   1       5.062  -1.348  -2.551  0.00  0.00    -0.035 C 
ATOM     32  H   LIG d   1       5.229  -2.087  -1.766  0.00  0.00     0.031 H 
ATOM     33  H   LIG d   1       4.462  -1.791  -3.344  0.00  0.00     0.031 H 
BRANCH  31  34
ATOM     34  C   LIG d   1       6.409  -0.897  -3.120  0.00  0.00    -0.050 C 
ATOM     35  H   LIG d   1       6.383   0.176  -3.310  0.00  0.00     0.027 H 
ATOM     36  H   LIG d   1       7.199  -1.120  -2.404  0.00  0.00     0.027 H 
BRANCH  34  37
ATOM     37  C   LIG d   1       6.683  -1.640  -4.430  0.00  0.00    -0.053 C 
ATOM     38  H   LIG d   1       6.477  -0.980  -5.272  0.00  0.00     0.026 H 
ATOM     39  H   LIG d   1       7.727  -1.952  -4.460  0.00  0.00     0.026 H 
BRANCH  37  40
ATOM     40  C   LIG d   1       5.780  -2.872  -4.515  0.00  0.00    -0.053 C 
ATOM     41  H   LIG d   1       5.496  -3.185  -3.510  0.00  0.00     0.026 H 
ATOM     42  H   LIG d   1       4.884  -2.627  -5.086  0.00  0.00     0.026 H 
BRANCH  40  43
ATOM     43  C   LIG d   1       6.531  -4.009  -5.210  0.00  0.00    -0.053 C 
ATOM     44  H   LIG d   1       7.603  -3.817  -5.164  0.00  0.00     0.026 H 
ATOM     45  H   LIG d   1       6.309  -4.951  -4.708  0.00  0.00     0.026 H 
BRANCH  43  46
ATOM     46  C   LIG d   1       6.090  -4.094  -6.671  0.00  0.00    -0.048 C 
ATOM     47  H   LIG d   1       6.676  -3.396  -7.270  0.00  0.00     0.027 H 
ATOM     48  H   LIG d   1       6.245  -5.108  -7.040  0.00  0.00     0.027 H 
BRANCH  46  49
ATOM     49  C   LIG d   1       4.606  -3.735  -6.778  0.00  0.00    -0.013 C 
ATOM     50  H   LIG d   1       4.317  -3.128  -5.920  0.00  0.00     0.033 H 
ATOM     51  H   LIG d   1       4.432  -3.173  -7.695  0.00  0.00     0.033 H 
BRANCH  49  52
ATOM     52  C   LIG d   1       3.784  -4.998  -6.799  0.00  0.00     0.042 C 
ATOM     53  O   LIG d   1       3.366  -5.437  -7.858  0.00  0.00    -0.550 OA
ATOM     54  O   LIG d   1       3.535  -5.582  -5.757  0.00  0.00    -0.550 OA
ENDBRANCH  49  52
ENDBRANCH  46  49
ENDBRANCH  43  46
ENDBRANCH  40  43
ENDBRANCH  37  40
ENDBRANCH  34  37
ENDBRANCH  31  34
ENDBRANCH   2  31
TORSDOF 17
ENDMDL
MODEL 4
REMARK VINA RESULT:      -5.1      1.919      2.835
REMARK  17 active torsions:
REMARK  status: ('A' for Active; 'I' for Inactive)
REMARK    1  A    between atoms: C_1  and  C_2 
REMARK    2  A    between atoms: C_2  and  C_3 
REMARK    3  A    between atoms: C_3  and  C_4 
REMARK    4  A    between atoms: C_4  and  C_5 
REMARK    5  A    between atoms: C_5  and  C_6 
REMARK    6  A    between atoms: C_6  and  C_7 
REMARK    7  A    between atoms: C_7  and  C_9 
REMARK    8  A    between atoms: C_7  and  O_22 
REMARK    9  A    between atoms: C_9  and  C_10 
REMARK   10  A    between atoms: C_11  and  C_12 
REMARK   11  A    between atoms: C_12  and  C_13 
REMARK   12  A    between atoms: C_13  and  C_14 
REMARK   13  A    between atoms: C_14  and  C_15 
REMARK   14  A    between atoms: C_15  and  C_16 
REMARK   15  A    between atoms: C_16  and  C_17 
REMARK   16  A    between atoms: C_17  and  C_18 
REMARK   17  A    between atoms: C_18  and  C_19 
ROOT
ATOM      1  C   LIG d   1       3.569  -0.911  -7.627  0.00  0.00    -0.086 C 
ATOM      2  C   LIG d   1       3.704  -0.274  -6.491  0.00  0.00    -0.088 C 
ATOM      3  H   LIG d   1       4.342  -1.586  -7.963  0.00  0.00     0.057 H 
ATOM      4  H   LIG d   1       4.636  -0.326  -5.949  0.00  0.00     0.057 H 
ENDROOT
BRANCH   1   5
ATOM      5  C   LIG d   1       2.335  -0.703  -8.466  0.00  0.00    -0.009 C 
ATOM      6  H   LIG d   1       2.194   0.363  -8.649  0.00  0.00     0.033 H 
ATOM      7  H   LIG d   1       1.466  -1.099  -7.940  0.00  0.00     0.033 H 
BRANCH   5   8
ATOM      8  C   LIG d   1       2.497  -1.431  -9.802  0.00  0.00     0.059 C 
ATOM      9  H   LIG d   1       3.489  -1.879  -9.854  0.00  0.00     0.060 H 
BRANCH   8  10
ATOM     10  C   LIG d   1       2.328  -0.434 -10.950  0.00  0.00    -0.027 C 
ATOM     11  H   LIG d   1       2.023   0.533 -10.551  0.00  0.00     0.029 H 
ATOM     12  H   LIG d   1       1.565  -0.799 -11.640  0.00  0.00     0.029 H 
BRANCH  10  13
ATOM     13  C   LIG d   1       3.655  -0.283 -11.696  0.00  0.00    -0.051 C 
ATOM     14  H   LIG d   1       3.466   0.077 -12.706  0.00  0.00     0.027 H 
ATOM     15  H   LIG d   1       4.156  -1.251 -11.744  0.00  0.00     0.027 H 
BRANCH  13  16
ATOM     16  C   LIG d   1       4.547   0.715 -10.955  0.00  0.00    -0.053 C 
ATOM     17  H   LIG d   1       5.335   1.063 -11.622  0.00  0.00     0.026 H 
ATOM     18  H   LIG d   1       4.993   0.229 -10.087  0.00  0.00     0.026 H 
BRANCH  16  19
ATOM     19  C   LIG d   1       3.705   1.907 -10.495  0.00  0.00    -0.053 C 
ATOM     20  H   LIG d   1       2.697   1.568 -10.255  0.00  0.00     0.026 H 
ATOM     21  H   LIG d   1       3.660   2.649 -11.291  0.00  0.00     0.026 H 
BRANCH  19  22
ATOM     22  C   LIG d   1       4.341   2.531  -9.251  0.00  0.00    -0.056 C 
ATOM     23  H   LIG d   1       3.686   2.378  -8.392  0.00  0.00     0.026 H 
ATOM     24  H   LIG d   1       4.482   3.600  -9.413  0.00  0.00     0.026 H 
BRANCH  22  25
ATOM     25  C   LIG d   1       5.695   1.872  -8.984  0.00  0.00    -0.065 C 
ATOM     26  H   LIG d   1       6.053   2.164  -7.998  0.00  0.00     0.023 H 
ATOM     27  H   LIG d   1       5.586   0.788  -9.025  0.00  0.00     0.023 H 
ATOM     28  H   LIG d   1       6.411   2.193  -9.741  0.00  0.00     0.023 H 
ENDBRANCH  22  25
ENDBRANCH  19  22
ENDBRANCH  16  19
ENDBRANCH  13  16
ENDBRANCH  10  13
ENDBRANCH   8  10
BRANCH   8  29
ATOM     29  O   LIG d   1       1.506  -2.454  -9.910  0.00  0.00    -0.392 OA
ATOM     30  H   LIG d   1       1.559  -3.128  -9.219  0.00  0.00     0.210 HD
ENDBRANCH   8  29
ENDBRANCH   5   8
ENDBRANCH   1   5
BRANCH   2  31
ATOM     31  C   LIG d   1       2.557   0.534  -5.940  0.00  0.00    -0.035 C 
ATOM     32  H   LIG d   1       2.554   1.523  -6.399  0.00  0.00     0.031 H 
ATOM     33  H   LIG d   1       1.617   0.029  -6.161  0.00  0.00     0.031 H 
BRANCH  31  34
ATOM     34  C   LIG d   1       2.716   0.676  -4.424  0.00  0.00    -0.050 C 
ATOM     35  H   LIG d   1       3.719   1.038  -4.197  0.00  0.00     0.027 H 
ATOM     36  H   LIG d   1       1.980   1.384  -4.047  0.00  0.00     0.027 H 
BRANCH  34  37
ATOM     37  C   LIG d   1       2.502  -0.685  -3.760  0.00  0.00    -0.053 C 
ATOM     38  H   LIG d   1       1.452  -0.797  -3.488  0.00  0.00     0.026 H 
ATOM     39  H   LIG d   1       2.784  -1.477  -4.454  0.00  0.00     0.026 H 
BRANCH  37  40
ATOM     40  C   LIG d   1       3.366  -0.780  -2.501  0.00  0.00    -0.053 C 
ATOM     41  H   LIG d   1       3.977   0.118  -2.411  0.00  0.00     0.026 H 
ATOM     42  H   LIG d   1       2.724  -0.872  -1.625  0.00  0.00     0.026 H 
BRANCH  40  43
ATOM     43  C   LIG d   1       4.275  -2.007  -2.597  0.00  0.00    -0.053 C 
ATOM     44  H   LIG d   1       4.716  -2.209  -1.621  0.00  0.00     0.026 H 
ATOM     45  H   LIG d   1       3.688  -2.869  -2.916  0.00  0.00     0.026 H 
BRANCH  43  46
ATOM     46  C   LIG d   1       5.386  -1.741  -3.614  0.00  0.00    -0.048 C 
ATOM     47  H   LIG d   1       5.871  -2.681  -3.877  0.00  0.00     0.027 H 
ATOM     48  H   LIG d   1       4.958  -1.289  -4.509  0.00  0.00     0.027 H 
BRANCH  46  49
ATOM     49  C   LIG d   1       6.417  -0.788  -3.006  0.00  0.00    -0.013 C 
ATOM     50  H   LIG d   1       6.190  -0.633  -1.951  0.00  0.00     0.033 H 
ATOM     51  H   LIG d   1       7.413  -1.220  -3.103  0.00  0.00     0.033 H 
BRANCH  49  52
ATOM     52  C   LIG d   1       6.369   0.532  -3.729  0.00  0.00     0.042 C 
ATOM     53  O   LIG d   1       6.555   0.576  -4.934  0.00  0.00    -0.550 OA
ATOM     54  O   LIG d   1       6.145   1.560  -3.111  0.00  0.00    -0.550 OA
ENDBRANCH  49  52
ENDBRANCH  46  49
ENDBRANCH  43  46
ENDBRANCH  40  43
ENDBRANCH  37  40
ENDBRANCH  34  37
ENDBRANCH  31  34
ENDBRANCH   2  31
TORSDOF 17
ENDMDL
MODEL 5
REMARK VINA RESULT:      -5.0      2.722      6.748
REMARK  17 active torsions:
REMARK  status: ('A' for Active; 'I' for Inactive)
REMARK    1  A    between atoms: C_1  and  C_2 
REMARK    2  A    between atoms: C_2  and  C_3 
REMARK    3  A    between atoms: C_3  and  C_4 
REMARK    4  A    between atoms: C_4  and  C_5 
REMARK    5  A    between atoms: C_5  and  C_6 
REMARK    6  A    between atoms: C_6  and  C_7 
REMARK    7  A    between atoms: C_7  and  C_9 
REMARK    8  A    between atoms: C_7  and  O_22 
REMARK    9  A    between atoms: C_9  and  C_10 
REMARK   10  A    between atoms: C_11  and  C_12 
REMARK   11  A    between atoms: C_12  and  C_13 
REMARK   12  A    between atoms: C_13  and  C_14 
REMARK   13  A    between atoms: C_14  and  C_15 
REMARK   14  A    between atoms: C_15  and  C_16 
REMARK   15  A    between atoms: C_16  and  C_17 
REMARK   16  A    between atoms: C_17  and  C_18 
REMARK   17  A    between atoms: C_18  and  C_19 
ROOT
ATOM      1  C   LIG d   1       7.642   0.815  -6.551  0.00  0.00    -0.086 C 
ATOM      2  C   LIG d   1       6.851   0.197  -7.393  0.00  0.00    -0.088 C 
ATOM      3  H   LIG d   1       7.924   1.842  -6.730  0.00  0.00     0.057 H 
ATOM      4  H   LIG d   1       6.578   0.670  -8.325  0.00  0.00     0.057 H 
ENDROOT
BRANCH   1   5
ATOM      5  C   LIG d   1       8.159   0.093  -5.334  0.00  0.00    -0.009 C 
ATOM      6  H   LIG d   1       9.247   0.024  -5.386  0.00  0.00     0.033 H 
ATOM      7  H   LIG d   1       7.733  -0.910  -5.298  0.00  0.00     0.033 H 
BRANCH   5   8
ATOM      8  C   LIG d   1       7.758   0.864  -4.075  0.00  0.00     0.059 C 
ATOM      9  H   LIG d   1       8.590   0.868  -3.371  0.00  0.00     0.060 H 
BRANCH   8  10
ATOM     10  C   LIG d   1       6.547   0.189  -3.427  0.00  0.00    -0.027 C 
ATOM     11  H   LIG d   1       5.664   0.359  -4.043  0.00  0.00     0.029 H 
ATOM     12  H   LIG d   1       6.383   0.610  -2.435  0.00  0.00     0.029 H 
BRANCH  10  13
ATOM     13  C   LIG d   1       6.804  -1.314  -3.305  0.00  0.00    -0.051 C 
ATOM     14  H   LIG d   1       7.286  -1.524  -2.351  0.00  0.00     0.027 H 
ATOM     15  H   LIG d   1       7.454  -1.638  -4.119  0.00  0.00     0.027 H 
BRANCH  13  16
ATOM     16  C   LIG d   1       5.475  -2.068  -3.384  0.00  0.00    -0.053 C 
ATOM     17  H   LIG d   1       5.664  -3.141  -3.351  0.00  0.00     0.026 H 
ATOM     18  H   LIG d   1       4.970  -1.816  -4.316  0.00  0.00     0.026 H 
BRANCH  16  19
ATOM     19  C   LIG d   1       4.592  -1.669  -2.201  0.00  0.00    -0.053 C 
ATOM     20  H   LIG d   1       5.015  -0.791  -1.711  0.00  0.00     0.026 H 
ATOM     21  H   LIG d   1       4.542  -2.493  -1.490  0.00  0.00     0.026 H 
BRANCH  19  22
ATOM     22  C   LIG d   1       3.184  -1.342  -2.702  0.00  0.00    -0.056 C 
ATOM     23  H   LIG d   1       2.447  -1.768  -2.020  0.00  0.00     0.026 H 
ATOM     24  H   LIG d   1       3.045  -1.767  -3.697  0.00  0.00     0.026 H 
BRANCH  22  25
ATOM     25  C   LIG d   1       3.003   0.175  -2.765  0.00  0.00    -0.065 C 
ATOM     26  H   LIG d   1       3.976   0.653  -2.873  0.00  0.00     0.023 H 
ATOM     27  H   LIG d   1       2.375   0.431  -3.619  0.00  0.00     0.023 H 
ATOM     28  H   LIG d   1       2.526   0.522  -1.848  0.00  0.00     0.023 H 
ENDBRANCH  22  25
ENDBRANCH  19  22
ENDBRANCH  16  19
ENDBRANCH  13  16
ENDBRANCH  10  13
ENDBRANCH   8  10
BRANCH   8  29
ATOM     29  O   LIG d   1       7.423   2.207  -4.425  0.00  0.00    -0.392 OA
ATOM     30  H   LIG d   1       7.120   2.312  -5.338  0.00  0.00     0.210 HD
ENDBRANCH   8  29
ENDBRANCH   5   8
ENDBRANCH   1   5
BRANCH   2  31
ATOM     31  C   LIG d   1       6.320  -1.174  -7.060  0.00  0.00    -0.035 C 
ATOM     32  H   LIG d   1       6.851  -1.922  -7.650  0.00  0.00     0.031 H 
ATOM     33  H   LIG d   1       6.472  -1.375  -6.000  0.00  0.00     0.031 H 
BRANCH  31  34
ATOM     34  C   LIG d   1       4.826  -1.235  -7.383  0.00  0.00    -0.050 C 
ATOM     35  H   LIG d   1       4.634  -0.703  -8.315  0.00  0.00     0.027 H 
ATOM     36  H   LIG d   1       4.519  -2.274  -7.488  0.00  0.00     0.027 H 
BRANCH  34  37
ATOM     37  C   LIG d   1       4.033  -0.581  -6.249  0.00  0.00    -0.053 C 
ATOM     38  H   LIG d   1       3.601  -1.354  -5.615  0.00  0.00     0.026 H 
ATOM     39  H   LIG d   1       4.697   0.048  -5.656  0.00  0.00     0.026 H 
BRANCH  37  40
ATOM     40  C   LIG d   1       2.913   0.278  -6.840  0.00  0.00    -0.053 C 
ATOM     41  H   LIG d   1       2.057   0.274  -6.165  0.00  0.00     0.026 H 
ATOM     42  H   LIG d   1       3.269   1.301  -6.969  0.00  0.00     0.026 H 
BRANCH  40  43
ATOM     43  C   LIG d   1       2.495  -0.290  -8.197  0.00  0.00    -0.053 C 
ATOM     44  H   LIG d   1       3.247  -1.000  -8.540  0.00  0.00     0.026 H 
ATOM     45  H   LIG d   1       1.535  -0.798  -8.097  0.00  0.00     0.026 H 
BRANCH  43  46
ATOM     46  C   LIG d   1       2.366   0.848  -9.209  0.00  0.00    -0.048 C 
ATOM     47  H   LIG d   1       2.705   0.506 -10.187  0.00  0.00     0.027 H 
ATOM     48  H   LIG d   1       1.323   1.160  -9.275  0.00  0.00     0.027 H 
BRANCH  46  49
ATOM     49  C   LIG d   1       3.224   2.032  -8.758  0.00  0.00    -0.013 C 
ATOM     50  H   LIG d   1       2.652   2.955  -8.861  0.00  0.00     0.033 H 
ATOM     51  H   LIG d   1       3.509   1.897  -7.714  0.00  0.00     0.033 H 
BRANCH  49  52
ATOM     52  C   LIG d   1       4.462   2.110  -9.612  0.00  0.00     0.042 C 
ATOM     53  O   LIG d   1       5.401   2.806  -9.263  0.00  0.00    -0.550 OA
ATOM     54  O   LIG d   1       4.526   1.479 -10.654  0.00  0.00    -0.550 OA
ENDBRANCH  49  52
ENDBRANCH  46  49
ENDBRANCH  43  46
ENDBRANCH  40  43
ENDBRANCH  37  40
ENDBRANCH  34  37
ENDBRANCH  31  34
ENDBRANCH   2  31
TORSDOF 17
ENDMDL
MODEL 6
REMARK VINA RESULT:      -5.0      2.305      6.524
REMARK  17 active torsions:
REMARK  status: ('A' for Active; 'I' for Inactive)
REMARK    1  A    between atoms: C_1  and  C_2 
REMARK    2  A    between atoms: C_2  and  C_3 
REMARK    3  A    between atoms: C_3  and  C_4 
REMARK    4  A    between atoms: C_4  and  C_5 
REMARK    5  A    between atoms: C_5  and  C_6 
REMARK    6  A    between atoms: C_6  and  C_7 
REMARK    7  A    between atoms: C_7  and  C_9 
REMARK    8  A    between atoms: C_7  and  O_22 
REMARK    9  A    between atoms: C_9  and  C_10 
REMARK   10  A    between atoms: C_11  and  C_12 
REMARK   11  A    between atoms: C_12  and  C_13 
REMARK   12  A    between atoms: C_13  and  C_14 
REMARK   13  A    between atoms: C_14  and  C_15 
REMARK   14  A    between atoms: C_15  and  C_16 
REMARK   15  A    between atoms: C_16  and  C_17 
REMARK   16  A    between atoms: C_17  and  C_18 
REMARK   17  A    between atoms: C_18  and  C_19 
ROOT
ATOM      1  C   LIG d   1       7.072  -2.124  -6.430  0.00  0.00    -0.086 C 
ATOM      2  C   LIG d   1       6.210  -1.516  -7.208  0.00  0.00    -0.088 C 
ATOM      3  H   LIG d   1       8.128  -1.929  -6.539  0.00  0.00     0.057 H 
ATOM      4  H   LIG d   1       6.559  -0.915  -8.035  0.00  0.00     0.057 H 
ENDROOT
BRANCH   1   5
ATOM      5  C   LIG d   1       6.589  -3.095  -5.385  0.00  0.00    -0.009 C 
ATOM      6  H   LIG d   1       6.923  -4.101  -5.641  0.00  0.00     0.033 H 
ATOM      7  H   LIG d   1       5.499  -3.073  -5.344  0.00  0.00     0.033 H 
BRANCH   5   8
ATOM      8  C   LIG d   1       7.158  -2.701  -4.020  0.00  0.00     0.059 C 
ATOM      9  H   LIG d   1       7.286  -3.594  -3.408  0.00  0.00     0.060 H 
BRANCH   8  10
ATOM     10  C   LIG d   1       6.195  -1.739  -3.323  0.00  0.00    -0.027 C 
ATOM     11  H   LIG d   1       6.216  -0.774  -3.828  0.00  0.00     0.029 H 
ATOM     12  H   LIG d   1       6.498  -1.611  -2.283  0.00  0.00     0.029 H 
BRANCH  10  13
ATOM     13  C   LIG d   1       4.777  -2.311  -3.372  0.00  0.00    -0.051 C 
ATOM     14  H   LIG d   1       4.812  -3.385  -3.194  0.00  0.00     0.027 H 
ATOM     15  H   LIG d   1       4.343  -2.120  -4.355  0.00  0.00     0.027 H 
BRANCH  13  16
ATOM     16  C   LIG d   1       3.918  -1.642  -2.297  0.00  0.00    -0.053 C 
ATOM     17  H   LIG d   1       4.554  -1.042  -1.646  0.00  0.00     0.026 H 
ATOM     18  H   LIG d   1       3.414  -2.407  -1.708  0.00  0.00     0.026 H 
BRANCH  16  19
ATOM     19  C   LIG d   1       2.876  -0.742  -2.964  0.00  0.00    -0.053 C 
ATOM     20  H   LIG d   1       1.943  -0.791  -2.403  0.00  0.00     0.026 H 
ATOM     21  H   LIG d   1       2.705  -1.079  -3.986  0.00  0.00     0.026 H 
BRANCH  19  22
ATOM     22  C   LIG d   1       3.385   0.701  -2.982  0.00  0.00    -0.056 C 
ATOM     23  H   LIG d   1       2.537   1.385  -2.941  0.00  0.00     0.026 H 
ATOM     24  H   LIG d   1       3.948   0.877  -3.899  0.00  0.00     0.026 H 
BRANCH  22  25
ATOM     25  C   LIG d   1       4.291   0.938  -1.772  0.00  0.00    -0.065 C 
ATOM     26  H   LIG d   1       5.333   0.852  -2.076  0.00  0.00     0.023 H 
ATOM     27  H   LIG d   1       4.109   1.937  -1.373  0.00  0.00     0.023 H 
ATOM     28  H   LIG d   1       4.073   0.196  -1.004  0.00  0.00     0.023 H 
ENDBRANCH  22  25
ENDBRANCH  19  22
ENDBRANCH  16  19
ENDBRANCH  13  16
ENDBRANCH  10  13
ENDBRANCH   8  10
BRANCH   8  29
ATOM     29  O   LIG d   1       8.423  -2.062  -4.199  0.00  0.00    -0.392 OA
ATOM     30  H   LIG d   1       9.028  -2.542  -4.782  0.00  0.00     0.210 HD
ENDBRANCH   8  29
ENDBRANCH   5   8
ENDBRANCH   1   5
BRANCH   2  31
ATOM     31  C   LIG d   1       4.732  -1.654  -6.947  0.00  0.00    -0.035 C 
ATOM     32  H   LIG d   1       4.231  -1.978  -7.860  0.00  0.00     0.031 H 
ATOM     33  H   LIG d   1       4.569  -2.392  -6.162  0.00  0.00     0.031 H 
BRANCH  31  34
ATOM     34  C   LIG d   1       4.164  -0.304  -6.506  0.00  0.00    -0.050 C 
ATOM     35  H   LIG d   1       4.011  -0.309  -5.426  0.00  0.00     0.027 H 
ATOM     36  H   LIG d   1       4.863   0.488  -6.770  0.00  0.00     0.027 H 
BRANCH  34  37
ATOM     37  C   LIG d   1       2.827  -0.059  -7.209  0.00  0.00    -0.053 C 
ATOM     38  H   LIG d   1       2.636  -0.865  -7.917  0.00  0.00     0.026 H 
ATOM     39  H   LIG d   1       2.027  -0.029  -6.469  0.00  0.00     0.026 H 
BRANCH  37  40
ATOM     40  C   LIG d   1       2.880   1.274  -7.957  0.00  0.00    -0.053 C 
ATOM     41  H   LIG d   1       2.063   1.913  -7.620  0.00  0.00     0.026 H 
ATOM     42  H   LIG d   1       3.832   1.767  -7.755  0.00  0.00     0.026 H 
BRANCH  40  43
ATOM     43  C   LIG d   1       2.745   1.023  -9.460  0.00  0.00    -0.053 C 
ATOM     44  H   LIG d   1       2.706  -0.049  -9.646  0.00  0.00     0.026 H 
ATOM     45  H   LIG d   1       1.829   1.489  -9.824  0.00  0.00     0.026 H 
BRANCH  43  46
ATOM     46  C   LIG d   1       3.947   1.626 -10.187  0.00  0.00    -0.048 C 
ATOM     47  H   LIG d   1       4.552   0.826 -10.615  0.00  0.00     0.027 H 
ATOM     48  H   LIG d   1       3.598   2.283 -10.984  0.00  0.00     0.027 H 
BRANCH  46  49
ATOM     49  C   LIG d   1       4.793   2.430  -9.197  0.00  0.00    -0.013 C 
ATOM     50  H   LIG d   1       4.939   3.440  -9.581  0.00  0.00     0.033 H 
ATOM     51  H   LIG d   1       4.280   2.478  -8.236  0.00  0.00     0.033 H 
BRANCH  49  52
ATOM     52  C   LIG d   1       6.131   1.761  -9.019  0.00  0.00     0.042 C 
ATOM     53  O   LIG d   1       6.718   1.844  -7.953  0.00  0.00    -0.550 OA
ATOM     54  O   LIG d   1       6.628   1.136  -9.942  0.00  0.00    -0.550 OA
ENDBRANCH  49  52
ENDBRANCH  46  49
ENDBRANCH  43  46
ENDBRANCH  40  43
ENDBRANCH  37  40
ENDBRANCH  34  37
ENDBRANCH  31  34
ENDBRANCH   2  31
TORSDOF 17
ENDMDL
MODEL 7
REMARK VINA RESULT:      -5.0      2.205      3.796
REMARK  17 active torsions:
REMARK  status: ('A' for Active; 'I' for Inactive)
REMARK    1  A    between atoms: C_1  and  C_2 
REMARK    2  A    between atoms: C_2  and  C_3 
REMARK    3  A    between atoms: C_3  and  C_4 
REMARK    4  A    between atoms: C_4  and  C_5 
REMARK    5  A    between atoms: C_5  and  C_6 
REMARK    6  A    between atoms: C_6  and  C_7 
REMARK    7  A    between atoms: C_7  and  C_9 
REMARK    8  A    between atoms: C_7  and  O_22 
REMARK    9  A    between atoms: C_9  and  C_10 
REMARK   10  A    between atoms: C_11  and  C_12 
REMARK   11  A    between atoms: C_12  and  C_13 
REMARK   12  A    between atoms: C_13  and  C_14 
REMARK   13  A    between atoms: C_14  and  C_15 
REMARK   14  A    between atoms: C_15  and  C_16 
REMARK   15  A    between atoms: C_16  and  C_17 
REMARK   16  A    between atoms: C_17  and  C_18 
REMARK   17  A    between atoms: C_18  and  C_19 
ROOT
ATOM      1  C   LIG d   1       7.419  -1.292  -6.823  0.00  0.00    -0.086 C 
ATOM      2  C   LIG d   1       7.925  -1.446  -5.624  0.00  0.00    -0.088 C 
ATOM      3  H   LIG d   1       7.864  -1.800  -7.665  0.00  0.00     0.057 H 
ATOM      4  H   LIG d   1       8.854  -1.980  -5.494  0.00  0.00     0.057 H 
ENDROOT
BRANCH   1   5
ATOM      5  C   LIG d   1       6.218  -0.406  -7.026  0.00  0.00    -0.009 C 
ATOM      6  H   LIG d   1       6.547   0.594  -7.312  0.00  0.00     0.033 H 
ATOM      7  H   LIG d   1       5.647  -0.349  -6.098  0.00  0.00     0.033 H 
BRANCH   5   8
ATOM      8  C   LIG d   1       5.335  -0.987  -8.132  0.00  0.00     0.059 C 
ATOM      9  H   LIG d   1       5.228  -0.257  -8.933  0.00  0.00     0.060 H 
BRANCH   8  10
ATOM     10  C   LIG d   1       3.956  -1.324  -7.562  0.00  0.00    -0.027 C 
ATOM     11  H   LIG d   1       4.072  -1.934  -6.666  0.00  0.00     0.029 H 
ATOM     12  H   LIG d   1       3.380  -1.876  -8.305  0.00  0.00     0.029 H 
BRANCH  10  13
ATOM     13  C   LIG d   1       3.221  -0.030  -7.207  0.00  0.00    -0.051 C 
ATOM     14  H   LIG d   1       3.918   0.670  -6.749  0.00  0.00     0.027 H 
ATOM     15  H   LIG d   1       2.415  -0.252  -6.506  0.00  0.00     0.027 H 
BRANCH  13  16
ATOM     16  C   LIG d   1       2.635   0.589  -8.478  0.00  0.00    -0.053 C 
ATOM     17  H   LIG d   1       1.562   0.399  -8.514  0.00  0.00     0.026 H 
ATOM     18  H   LIG d   1       3.112   0.144  -9.351  0.00  0.00     0.026 H 
BRANCH  16  19
ATOM     19  C   LIG d   1       2.886   2.098  -8.473  0.00  0.00    -0.053 C 
ATOM     20  H   LIG d   1       3.176   2.414  -7.471  0.00  0.00     0.026 H 
ATOM     21  H   LIG d   1       1.977   2.619  -8.770  0.00  0.00     0.026 H 
BRANCH  19  22
ATOM     22  C   LIG d   1       4.010   2.432  -9.457  0.00  0.00    -0.056 C 
ATOM     23  H   LIG d   1       4.973   2.334  -8.955  0.00  0.00     0.026 H 
ATOM     24  H   LIG d   1       3.889   3.455  -9.813  0.00  0.00     0.026 H 
BRANCH  22  25
ATOM     25  C   LIG d   1       3.952   1.468 -10.643  0.00  0.00    -0.065 C 
ATOM     26  H   LIG d   1       4.941   1.387 -11.094  0.00  0.00     0.023 H 
ATOM     27  H   LIG d   1       3.628   0.486 -10.298  0.00  0.00     0.023 H 
ATOM     28  H   LIG d   1       3.245   1.844 -11.383  0.00  0.00     0.023 H 
ENDBRANCH  22  25
ENDBRANCH  19  22
ENDBRANCH  16  19
ENDBRANCH  13  16
ENDBRANCH  10  13
ENDBRANCH   8  10
BRANCH   8  29
ATOM     29  O   LIG d   1       5.940  -2.174  -8.648  0.00  0.00    -0.392 OA
ATOM     30  H   LIG d   1       6.791  -2.391  -8.243  0.00  0.00     0.210 HD
ENDBRANCH   8  29
ENDBRANCH   5   8
ENDBRANCH   1   5
BRANCH   2  31
ATOM     31  C   LIG d   1       7.208  -0.877  -4.426  0.00  0.00    -0.035 C 
ATOM     32  H   LIG d   1       7.872  -0.193  -3.897  0.00  0.00     0.031 H 
ATOM     33  H   LIG d   1       6.320  -0.340  -4.755  0.00  0.00     0.031 H 
BRANCH  31  34
ATOM     34  C   LIG d   1       6.799  -2.016  -3.489  0.00  0.00    -0.050 C 
ATOM     35  H   LIG d   1       7.611  -2.740  -3.421  0.00  0.00     0.027 H 
ATOM     36  H   LIG d   1       6.587  -1.614  -2.499  0.00  0.00     0.027 H 
BRANCH  34  37
ATOM     37  C   LIG d   1       5.548  -2.703  -4.040  0.00  0.00    -0.053 C 
ATOM     38  H   LIG d   1       5.334  -2.324  -5.039  0.00  0.00     0.026 H 
ATOM     39  H   LIG d   1       5.714  -3.779  -4.087  0.00  0.00     0.026 H 
BRANCH  37  40
ATOM     40  C   LIG d   1       4.360  -2.412  -3.120  0.00  0.00    -0.053 C 
ATOM     41  H   LIG d   1       3.794  -3.329  -2.956  0.00  0.00     0.026 H 
ATOM     42  H   LIG d   1       4.724  -2.035  -2.164  0.00  0.00     0.026 H 
BRANCH  40  43
ATOM     43  C   LIG d   1       3.455  -1.364  -3.770  0.00  0.00    -0.053 C 
ATOM     44  H   LIG d   1       4.018  -0.817  -4.526  0.00  0.00     0.026 H 
ATOM     45  H   LIG d   1       2.605  -1.860  -4.239  0.00  0.00     0.026 H 
BRANCH  43  46
ATOM     46  C   LIG d   1       2.953  -0.391  -2.703  0.00  0.00    -0.048 C 
ATOM     47  H   LIG d   1       2.396   0.416  -3.179  0.00  0.00     0.027 H 
ATOM     48  H   LIG d   1       2.303  -0.920  -2.005  0.00  0.00     0.027 H 
BRANCH  46  49
ATOM     49  C   LIG d   1       4.147   0.193  -1.943  0.00  0.00    -0.013 C 
ATOM     50  H   LIG d   1       3.832   0.482  -0.940  0.00  0.00     0.033 H 
ATOM     51  H   LIG d   1       4.936  -0.556  -1.874  0.00  0.00     0.033 H 
BRANCH  49  52
ATOM     52  C   LIG d   1       4.665   1.404  -2.675  0.00  0.00     0.042 C 
ATOM     53  O   LIG d   1       5.858   1.656  -2.670  0.00  0.00    -0.550 OA
ATOM     54  O   LIG d   1       3.891   2.133  -3.273  0.00  0.00    -0.550 OA
ENDBRANCH  49  52
ENDBRANCH  46  49
ENDBRANCH  43  46
ENDBRANCH  40  43
ENDBRANCH  37  40
ENDBRANCH  34  37
ENDBRANCH  31  34
ENDBRANCH   2  31
TORSDOF 17
ENDMDL
MODEL 8
REMARK VINA RESULT:      -5.0      2.506      6.701
REMARK  17 active torsions:
REMARK  status: ('A' for Active; 'I' for Inactive)
REMARK    1  A    between atoms: C_1  and  C_2 
REMARK    2  A    between atoms: C_2  and  C_3 
REMARK    3  A    between atoms: C_3  and  C_4 
REMARK    4  A    between atoms: C_4  and  C_5 
REMARK    5  A    between atoms: C_5  and  C_6 
REMARK    6  A    between atoms: C_6  and  C_7 
REMARK    7  A    between atoms: C_7  and  C_9 
REMARK    8  A    between atoms: C_7  and  O_22 
REMARK    9  A    between atoms: C_9  and  C_10 
REMARK   10  A    between atoms: C_11  and  C_12 
REMARK   11  A    between atoms: C_12  and  C_13 
REMARK   12  A    between atoms: C_13  and  C_14 
REMARK   13  A    between atoms: C_14  and  C_15 
REMARK   14  A    between atoms: C_15  and  C_16 
REMARK   15  A    between atoms: C_16  and  C_17 
REMARK   16  A    between atoms: C_17  and  C_18 
REMARK   17  A    between atoms: C_18  and  C_19 
ROOT
ATOM      1  C   LIG d   1       7.063  -2.669  -4.025  0.00  0.00    -0.086 C 
ATOM      2  C   LIG d   1       6.281  -3.400  -4.779  0.00  0.00    -0.088 C 
ATOM      3  H   LIG d   1       7.368  -3.030  -3.054  0.00  0.00     0.057 H 
ATOM      4  H   LIG d   1       5.842  -4.305  -4.386  0.00  0.00     0.057 H 
ENDROOT
BRANCH   1   5
ATOM      5  C   LIG d   1       7.538  -1.324  -4.511  0.00  0.00    -0.009 C 
ATOM      6  H   LIG d   1       7.033  -1.077  -5.446  0.00  0.00     0.033 H 
ATOM      7  H   LIG d   1       8.615  -1.357  -4.677  0.00  0.00     0.033 H 
BRANCH   5   8
ATOM      8  C   LIG d   1       7.215  -0.259  -3.461  0.00  0.00     0.059 C 
ATOM      9  H   LIG d   1       7.314  -0.689  -2.465  0.00  0.00     0.060 H 
BRANCH   8  10
ATOM     10  C   LIG d   1       5.782   0.238  -3.662  0.00  0.00    -0.027 C 
ATOM     11  H   LIG d   1       5.248  -0.447  -4.320  0.00  0.00     0.029 H 
ATOM     12  H   LIG d   1       5.801   1.232  -4.111  0.00  0.00     0.029 H 
BRANCH  10  13
ATOM     13  C   LIG d   1       5.071   0.305  -2.309  0.00  0.00    -0.051 C 
ATOM     14  H   LIG d   1       4.244   1.013  -2.368  0.00  0.00     0.027 H 
ATOM     15  H   LIG d   1       5.776   0.634  -1.545  0.00  0.00     0.027 H 
BRANCH  13  16
ATOM     16  C   LIG d   1       4.533  -1.080  -1.945  0.00  0.00    -0.053 C 
ATOM     17  H   LIG d   1       4.039  -1.034  -0.974  0.00  0.00     0.026 H 
ATOM     18  H   LIG d   1       5.359  -1.789  -1.899  0.00  0.00     0.026 H 
BRANCH  16  19
ATOM     19  C   LIG d   1       3.530  -1.533  -3.008  0.00  0.00    -0.053 C 
ATOM     20  H   LIG d   1       3.161  -2.528  -2.758  0.00  0.00     0.026 H 
ATOM     21  H   LIG d   1       4.020  -1.561  -3.981  0.00  0.00     0.026 H 
BRANCH  19  22
ATOM     22  C   LIG d   1       2.358  -0.552  -3.054  0.00  0.00    -0.056 C 
ATOM     23  H   LIG d   1       2.551   0.277  -2.373  0.00  0.00     0.026 H 
ATOM     24  H   LIG d   1       1.443  -1.063  -2.752  0.00  0.00     0.026 H 
BRANCH  22  25
ATOM     25  C   LIG d   1       2.196  -0.015  -4.478  0.00  0.00    -0.065 C 
ATOM     26  H   LIG d   1       1.931  -0.833  -5.146  0.00  0.00     0.023 H 
ATOM     27  H   LIG d   1       1.409   0.739  -4.494  0.00  0.00     0.023 H 
ATOM     28  H   LIG d   1       3.135   0.433  -4.805  0.00  0.00     0.023 H 
ENDBRANCH  22  25
ENDBRANCH  19  22
ENDBRANCH  16  19
ENDBRANCH  13  16
ENDBRANCH  10  13
ENDBRANCH   8  10
BRANCH   8  29
ATOM     29  O   LIG d   1       8.122   0.836  -3.600  0.00  0.00    -0.392 OA
ATOM     30  H   LIG d   1       8.056   1.493  -2.894  0.00  0.00     0.210 HD
ENDBRANCH   8  29
ENDBRANCH   5   8
ENDBRANCH   1   5
BRANCH   2  31
ATOM     31  C   LIG d   1       5.992  -2.977  -6.197  0.00  0.00    -0.035 C 
ATOM     32  H   LIG d   1       6.668  -2.170  -6.480  0.00  0.00     0.031 H 
ATOM     33  H   LIG d   1       6.139  -3.825  -6.866  0.00  0.00     0.031 H 
BRANCH  31  34
ATOM     34  C   LIG d   1       4.545  -2.491  -6.299  0.00  0.00    -0.050 C 
ATOM     35  H   LIG d   1       3.934  -3.263  -6.769  0.00  0.00     0.027 H 
ATOM     36  H   LIG d   1       4.161  -2.281  -5.302  0.00  0.00     0.027 H 
BRANCH  34  37
ATOM     37  C   LIG d   1       4.495  -1.216  -7.145  0.00  0.00    -0.053 C 
ATOM     38  H   LIG d   1       4.178  -0.380  -6.522  0.00  0.00     0.026 H 
ATOM     39  H   LIG d   1       5.484  -1.012  -7.554  0.00  0.00     0.026 H 
BRANCH  37  40
ATOM     40  C   LIG d   1       3.499  -1.404  -8.291  0.00  0.00    -0.053 C 
ATOM     41  H   LIG d   1       4.024  -1.335  -9.244  0.00  0.00     0.026 H 
ATOM     42  H   LIG d   1       3.028  -2.383  -8.207  0.00  0.00     0.026 H 
BRANCH  40  43
ATOM     43  C   LIG d   1       2.427  -0.315  -8.219  0.00  0.00    -0.053 C 
ATOM     44  H   LIG d   1       1.942  -0.219  -9.190  0.00  0.00     0.026 H 
ATOM     45  H   LIG d   1       1.685  -0.586  -7.468  0.00  0.00     0.026 H 
BRANCH  43  46
ATOM     46  C   LIG d   1       3.076   1.016  -7.838  0.00  0.00    -0.048 C 
ATOM     47  H   LIG d   1       2.602   1.407  -6.937  0.00  0.00     0.027 H 
ATOM     48  H   LIG d   1       4.139   0.861  -7.652  0.00  0.00     0.027 H 
BRANCH  46  49
ATOM     49  C   LIG d   1       2.899   2.016  -8.982  0.00  0.00    -0.013 C 
ATOM     50  H   LIG d   1       1.979   1.791  -9.523  0.00  0.00     0.033 H 
ATOM     51  H   LIG d   1       2.844   3.027  -8.577  0.00  0.00     0.033 H 
BRANCH  49  52
ATOM     52  C   LIG d   1       4.072   1.916  -9.923  0.00  0.00     0.042 C 
ATOM     53  O   LIG d   1       3.924   1.432 -11.033  0.00  0.00    -0.550 OA
ATOM     54  O   LIG d   1       5.170   2.317  -9.575  0.00  0.00    -0.550 OA
ENDBRANCH  49  52
ENDBRANCH  46  49
ENDBRANCH  43  46
ENDBRANCH  40  43
ENDBRANCH  37  40
ENDBRANCH  34  37
ENDBRANCH  31  34
ENDBRANCH   2  31
TORSDOF 17
ENDMDL
MODEL 9
REMARK VINA RESULT:      -4.9      1.895      6.236
REMARK  17 active torsions:
REMARK  status: ('A' for Active; 'I' for Inactive)
REMARK    1  A    between atoms: C_1  and  C_2 
REMARK    2  A    between atoms: C_2  and  C_3 
REMARK    3  A    between atoms: C_3  and  C_4 
REMARK    4  A    between atoms: C_4  and  C_5 
REMARK    5  A    between atoms: C_5  and  C_6 
REMARK    6  A    between atoms: C_6  and  C_7 
REMARK    7  A    between atoms: C_7  and  C_9 
REMARK    8  A    between atoms: C_7  and  O_22 
REMARK    9  A    between atoms: C_9  and  C_10 
REMARK   10  A    between atoms: C_11  and  C_12 
REMARK   11  A    between atoms: C_12  and  C_13 
REMARK   12  A    between atoms: C_13  and  C_14 
REMARK   13  A    between atoms: C_14  and  C_15 
REMARK   14  A    between atoms: C_15  and  C_16 
REMARK   15  A    between atoms: C_16  and  C_17 
REMARK   16  A    between atoms: C_17  and  C_18 
REMARK   17  A    between atoms: C_18  and  C_19 
ROOT
ATOM      1  C   LIG d   1       2.953   1.422  -7.584  0.00  0.00    -0.086 C 
ATOM      2  C   LIG d   1       2.919   1.828  -8.829  0.00  0.00    -0.088 C 
ATOM      3  H   LIG d   1       2.954   2.143  -6.781  0.00  0.00     0.057 H 
ATOM      4  H   LIG d   1       3.015   2.879  -9.058  0.00  0.00     0.057 H 
ENDROOT
BRANCH   1   5
ATOM      5  C   LIG d   1       2.991  -0.052  -7.273  0.00  0.00    -0.009 C 
ATOM      6  H   LIG d   1       3.664  -0.554  -7.969  0.00  0.00     0.033 H 
ATOM      7  H   LIG d   1       1.989  -0.470  -7.371  0.00  0.00     0.033 H 
BRANCH   5   8
ATOM      8  C   LIG d   1       3.492  -0.259  -5.842  0.00  0.00     0.059 C 
ATOM      9  H   LIG d   1       3.468  -1.320  -5.598  0.00  0.00     0.060 H 
BRANCH   8  10
ATOM     10  C   LIG d   1       2.592   0.508  -4.870  0.00  0.00    -0.027 C 
ATOM     11  H   LIG d   1       1.559   0.455  -5.213  0.00  0.00     0.029 H 
ATOM     12  H   LIG d   1       2.908   1.551  -4.828  0.00  0.00     0.029 H 
BRANCH  10  13
ATOM     13  C   LIG d   1       2.701  -0.113  -3.476  0.00  0.00    -0.051 C 
ATOM     14  H   LIG d   1       3.253  -1.050  -3.538  0.00  0.00     0.027 H 
ATOM     15  H   LIG d   1       1.701  -0.306  -3.086  0.00  0.00     0.027 H 
BRANCH  13  16
ATOM     16  C   LIG d   1       3.434   0.853  -2.543  0.00  0.00    -0.053 C 
ATOM     17  H   LIG d   1       2.724   1.286  -1.839  0.00  0.00     0.026 H 
ATOM     18  H   LIG d   1       3.894   1.647  -3.131  0.00  0.00     0.026 H 
BRANCH  16  19
ATOM     19  C   LIG d   1       4.519   0.095  -1.775  0.00  0.00    -0.053 C 
ATOM     20  H   LIG d   1       4.347   0.203  -0.704  0.00  0.00     0.026 H 
ATOM     21  H   LIG d   1       5.496   0.503  -2.029  0.00  0.00     0.026 H 
BRANCH  19  22
ATOM     22  C   LIG d   1       4.470  -1.387  -2.152  0.00  0.00    -0.056 C 
ATOM     23  H   LIG d   1       3.588  -1.577  -2.764  0.00  0.00     0.026 H 
ATOM     24  H   LIG d   1       4.419  -1.991  -1.246  0.00  0.00     0.026 H 
BRANCH  22  25
ATOM     25  C   LIG d   1       5.727  -1.755  -2.941  0.00  0.00    -0.065 C 
ATOM     26  H   LIG d   1       6.394  -2.341  -2.310  0.00  0.00     0.023 H 
ATOM     27  H   LIG d   1       5.448  -2.340  -3.817  0.00  0.00     0.023 H 
ATOM     28  H   LIG d   1       6.235  -0.844  -3.260  0.00  0.00     0.023 H 
ENDBRANCH  22  25
ENDBRANCH  19  22
ENDBRANCH  16  19
ENDBRANCH  13  16
ENDBRANCH  10  13
ENDBRANCH   8  10
BRANCH   8  29
ATOM     29  O   LIG d   1       4.832   0.225  -5.733  0.00  0.00    -0.392 OA
ATOM     30  H   LIG d   1       4.948   1.134  -6.040  0.00  0.00     0.210 HD
ENDBRANCH   8  29
ENDBRANCH   5   8
ENDBRANCH   1   5
BRANCH   2  31
ATOM     31  C   LIG d   1       2.746   0.827  -9.943  0.00  0.00    -0.035 C 
ATOM     32  H   LIG d   1       2.708  -0.179  -9.525  0.00  0.00     0.031 H 
ATOM     33  H   LIG d   1       1.819   1.034 -10.477  0.00  0.00     0.031 H 
BRANCH  31  34
ATOM     34  C   LIG d   1       3.927   0.933 -10.911  0.00  0.00    -0.050 C 
ATOM     35  H   LIG d   1       3.628   1.507 -11.788  0.00  0.00     0.027 H 
ATOM     36  H   LIG d   1       4.758   1.433 -10.416  0.00  0.00     0.027 H 
BRANCH  34  37
ATOM     37  C   LIG d   1       4.359  -0.470 -11.342  0.00  0.00    -0.053 C 
ATOM     38  H   LIG d   1       4.335  -0.541 -12.429  0.00  0.00     0.026 H 
ATOM     39  H   LIG d   1       5.372  -0.665 -10.987  0.00  0.00     0.026 H 
BRANCH  37  40
ATOM     40  C   LIG d   1       3.404  -1.505 -10.744  0.00  0.00    -0.053 C 
ATOM     41  H   LIG d   1       2.720  -1.011 -10.052  0.00  0.00     0.026 H 
ATOM     42  H   LIG d   1       2.832  -1.977 -11.543  0.00  0.00     0.026 H 
BRANCH  40  43
ATOM     43  C   LIG d   1       4.207  -2.569  -9.994  0.00  0.00    -0.053 C 
ATOM     44  H   LIG d   1       4.637  -3.269 -10.710  0.00  0.00     0.026 H 
ATOM     45  H   LIG d   1       5.007  -2.089  -9.430  0.00  0.00     0.026 H 
BRANCH  43  46
ATOM     46  C   LIG d   1       3.285  -3.322  -9.034  0.00  0.00    -0.048 C 
ATOM     47  H   LIG d   1       2.447  -2.682  -8.758  0.00  0.00     0.027 H 
ATOM     48  H   LIG d   1       2.910  -4.223  -9.521  0.00  0.00     0.027 H 
BRANCH  46  49
ATOM     49  C   LIG d   1       4.066  -3.710  -7.776  0.00  0.00    -0.013 C 
ATOM     50  H   LIG d   1       5.133  -3.731  -8.003  0.00  0.00     0.033 H 
ATOM     51  H   LIG d   1       3.877  -2.978  -6.990  0.00  0.00     0.033 H 
BRANCH  49  52
ATOM     52  C   LIG d   1       3.625  -5.073  -7.312  0.00  0.00     0.042 C 
ATOM     53  O   LIG d   1       3.464  -5.291  -6.122  0.00  0.00    -0.550 OA
ATOM     54  O   LIG d   1       3.428  -5.961  -8.125  0.00  0.00    -0.550 OA
ENDBRANCH  49  52
ENDBRANCH  46  49
ENDBRANCH  43  46
ENDBRANCH  40  43
ENDBRANCH  37  40
ENDBRANCH  34  37
ENDBRANCH  31  34
ENDBRANCH   2  31
TORSDOF 17
ENDMDL
MODEL 10
REMARK VINA RESULT:      -4.9      2.177      7.044
REMARK  17 active torsions:
REMARK  status: ('A' for Active; 'I' for Inactive)
REMARK    1  A    between atoms: C_1  and  C_2 
REMARK    2  A    between atoms: C_2  and  C_3 
REMARK    3  A    between atoms: C_3  and  C_4 
REMARK    4  A    between atoms: C_4  and  C_5 
REMARK    5  A    between atoms: C_5  and  C_6 
REMARK    6  A    between atoms: C_6  and  C_7 
REMARK    7  A    between atoms: C_7  and  C_9 
REMARK    8  A    between atoms: C_7  and  O_22 
REMARK    9  A    between atoms: C_9  and  C_10 
REMARK   10  A    between atoms: C_11  and  C_12 
REMARK   11  A    between atoms: C_12  and  C_13 
REMARK   12  A    between atoms: C_13  and  C_14 
REMARK   13  A    between atoms: C_14  and  C_15 
REMARK   14  A    between atoms: C_15  and  C_16 
REMARK   15  A    between atoms: C_16  and  C_17 
REMARK   16  A    between atoms: C_17  and  C_18 
REMARK   17  A    between atoms: C_18  and  C_19 
ROOT
ATOM      1  C   LIG d   1       2.573   0.011  -7.733  0.00  0.00    -0.086 C 
ATOM      2  C   LIG d   1       1.891  -0.252  -8.820  0.00  0.00    -0.088 C 
ATOM      3  H   LIG d   1       2.342   0.891  -7.151  0.00  0.00     0.057 H 
ATOM      4  H   LIG d   1       1.182   0.468  -9.202  0.00  0.00     0.057 H 
ENDROOT
BRANCH   1   5
ATOM      5  C   LIG d   1       3.680  -0.912  -7.295  0.00  0.00    -0.009 C 
ATOM      6  H   LIG d   1       4.545  -0.778  -7.946  0.00  0.00     0.033 H 
ATOM      7  H   LIG d   1       3.337  -1.945  -7.356  0.00  0.00     0.033 H 
BRANCH   5   8
ATOM      8  C   LIG d   1       4.073  -0.590  -5.852  0.00  0.00     0.059 C 
ATOM      9  H   LIG d   1       4.252  -1.517  -5.308  0.00  0.00     0.060 H 
BRANCH   8  10
ATOM     10  C   LIG d   1       2.942   0.187  -5.176  0.00  0.00    -0.027 C 
ATOM     11  H   LIG d   1       2.015   0.035  -5.729  0.00  0.00     0.029 H 
ATOM     12  H   LIG d   1       3.187   1.250  -5.164  0.00  0.00     0.029 H 
BRANCH  10  13
ATOM     13  C   LIG d   1       2.767  -0.311  -3.740  0.00  0.00    -0.051 C 
ATOM     14  H   LIG d   1       3.108  -1.344  -3.670  0.00  0.00     0.027 H 
ATOM     15  H   LIG d   1       1.714  -0.256  -3.463  0.00  0.00     0.027 H 
BRANCH  13  16
ATOM     16  C   LIG d   1       3.590   0.564  -2.793  0.00  0.00    -0.053 C 
ATOM     17  H   LIG d   1       2.929   1.258  -2.273  0.00  0.00     0.026 H 
ATOM     18  H   LIG d   1       4.327   1.126  -3.366  0.00  0.00     0.026 H 
BRANCH  16  19
ATOM     19  C   LIG d   1       4.305  -0.322  -1.772  0.00  0.00    -0.053 C 
ATOM     20  H   LIG d   1       3.676  -0.440  -0.890  0.00  0.00     0.026 H 
ATOM     21  H   LIG d   1       5.249   0.142  -1.486  0.00  0.00     0.026 H 
BRANCH  19  22
ATOM     22  C   LIG d   1       4.578  -1.695  -2.390  0.00  0.00    -0.056 C 
ATOM     23  H   LIG d   1       3.847  -1.891  -3.175  0.00  0.00     0.026 H 
ATOM     24  H   LIG d   1       4.499  -2.463  -1.620  0.00  0.00     0.026 H 
BRANCH  22  25
ATOM     25  C   LIG d   1       5.986  -1.715  -2.988  0.00  0.00    -0.065 C 
ATOM     26  H   LIG d   1       6.621  -2.377  -2.400  0.00  0.00     0.023 H 
ATOM     27  H   LIG d   1       5.939  -2.074  -4.016  0.00  0.00     0.023 H 
ATOM     28  H   LIG d   1       6.400  -0.706  -2.975  0.00  0.00     0.023 H 
ENDBRANCH  22  25
ENDBRANCH  19  22
ENDBRANCH  16  19
ENDBRANCH  13  16
ENDBRANCH  10  13
ENDBRANCH   8  10
BRANCH   8  29
ATOM     29  O   LIG d   1       5.262   0.202  -5.849  0.00  0.00    -0.392 OA
ATOM     30  H   LIG d   1       5.601   0.406  -6.731  0.00  0.00     0.210 HD
ENDBRANCH   8  29
ENDBRANCH   5   8
ENDBRANCH   1   5
BRANCH   2  31
ATOM     31  C   LIG d   1       2.096  -1.562  -9.539  0.00  0.00    -0.035 C 
ATOM     32  H   LIG d   1       3.163  -1.754  -9.646  0.00  0.00     0.031 H 
ATOM     33  H   LIG d   1       1.638  -2.366  -8.965  0.00  0.00     0.031 H 
BRANCH  31  34
ATOM     34  C   LIG d   1       1.448  -1.489 -10.923  0.00  0.00    -0.050 C 
ATOM     35  H   LIG d   1       0.601  -2.175 -10.965  0.00  0.00     0.027 H 
ATOM     36  H   LIG d   1       1.103  -0.473 -11.110  0.00  0.00     0.027 H 
BRANCH  34  37
ATOM     37  C   LIG d   1       2.475  -1.882 -11.987  0.00  0.00    -0.053 C 
ATOM     38  H   LIG d   1       2.479  -2.965 -12.106  0.00  0.00     0.026 H 
ATOM     39  H   LIG d   1       2.215  -1.413 -12.936  0.00  0.00     0.026 H 
BRANCH  37  40
ATOM     40  C   LIG d   1       3.865  -1.413 -11.552  0.00  0.00    -0.053 C 
ATOM     41  H   LIG d   1       3.896  -1.326 -10.465  0.00  0.00     0.026 H 
ATOM     42  H   LIG d   1       4.612  -2.136 -11.879  0.00  0.00     0.026 H 
BRANCH  40  43
ATOM     43  C   LIG d   1       4.164  -0.051 -12.181  0.00  0.00    -0.053 C 
ATOM     44  H   LIG d   1       5.114  -0.098 -12.712  0.00  0.00     0.026 H 
ATOM     45  H   LIG d   1       3.369   0.208 -12.880  0.00  0.00     0.026 H 
BRANCH  43  46
ATOM     46  C   LIG d   1       4.244   1.011 -11.083  0.00  0.00    -0.048 C 
ATOM     47  H   LIG d   1       4.415   1.989 -11.535  0.00  0.00     0.027 H 
ATOM     48  H   LIG d   1       3.308   1.027 -10.524  0.00  0.00     0.027 H 
BRANCH  46  49
ATOM     49  C   LIG d   1       5.398   0.679 -10.135  0.00  0.00    -0.013 C 
ATOM     50  H   LIG d   1       5.189  -0.260  -9.623  0.00  0.00     0.033 H 
ATOM     51  H   LIG d   1       6.322   0.584 -10.706  0.00  0.00     0.033 H 
BRANCH  49  52
ATOM     52  C   LIG d   1       5.547   1.782  -9.119  0.00  0.00     0.042 C 
ATOM     53  O   LIG d   1       6.193   1.592  -8.102  0.00  0.00    -0.550 OA
ATOM     54  O   LIG d   1       5.020   2.865  -9.312  0.00  0.00    -0.550 OA
ENDBRANCH  49  52
ENDBRANCH  46  49
ENDBRANCH  43  46
ENDBRANCH  40  43
ENDBRANCH  37  40
ENDBRANCH  34  37
ENDBRANCH  31  34
ENDBRANCH   2  31
TORSDOF 17
ENDMDL
