MODEL 1
REMARK VINA RESULT:      -8.0      0.000      0.000
REMARK  4 active torsions:
REMARK  status: ('A' for Active; 'I' for Inactive)
REMARK    1  A    between atoms: C_1  and  C_2 
REMARK    2  A    between atoms: C_6  and  C_29 
REMARK    3  A    between atoms: N_19  and  C_22 
REMARK    4  A    between atoms: C_22  and  C_23 
ROOT
ATOM      1  C   LIG d   1       3.618  -1.112 -10.393  0.00  0.00     0.052 C 
ATOM      2  C   LIG d   1       2.667  -1.318  -9.203  0.00  0.00     0.015 C 
ATOM      3  N   LIG d   1       3.299  -0.802  -7.981  0.00  0.00    -0.271 N 
ATOM      4  C   LIG d   1       3.528   0.648  -8.052  0.00  0.00     0.015 C 
ATOM      5  C   LIG d   1       4.521   0.951  -9.185  0.00  0.00     0.052 C 
ATOM      6  C   LIG d   1       3.911   0.383 -10.462  0.00  0.00     0.150 C 
ATOM      7  O   LIG d   1       3.666   1.059 -11.433  0.00  0.00    -0.296 OA
ATOM      8  C   LIG d   1       5.812   0.159  -8.925  0.00  0.00     0.015 C 
ATOM      9  N   LIG d   1       5.492  -1.272  -8.819  0.00  0.00    -0.271 N 
ATOM     10  C   LIG d   1       4.957  -1.809 -10.102  0.00  0.00     0.015 C 
ATOM     11  C   LIG d   1       4.556  -1.509  -7.715  0.00  0.00     0.182 A 
ATOM     12  C   LIG d   1       4.319  -2.971  -7.510  0.00  0.00     0.018 A 
ATOM     13  C   LIG d   1       3.795  -3.938  -8.340  0.00  0.00    -0.053 A 
ATOM     14  C   LIG d   1       3.710  -5.229  -7.830  0.00  0.00    -0.061 A 
ATOM     15  C   LIG d   1       4.133  -5.525  -6.550  0.00  0.00    -0.060 A 
ATOM     16  C   LIG d   1       4.663  -4.558  -5.710  0.00  0.00    -0.040 A 
ATOM     17  C   LIG d   1       4.754  -3.259  -6.210  0.00  0.00     0.043 A 
ATOM     18  N   LIG d   1       5.233  -2.114  -5.599  0.00  0.00    -0.264 N 
ATOM     19  C   LIG d   1       5.157  -1.037  -6.409  0.00  0.00     0.260 A 
ATOM     20  O   LIG d   1       5.503   0.094  -6.141  0.00  0.00    -0.271 OA
ATOM     21  H   LIG d   1       1.735  -0.781  -9.385  0.00  0.00     0.044 H 
ATOM     22  H   LIG d   1       2.458  -2.380  -9.084  0.00  0.00     0.044 H 
ATOM     23  H   LIG d   1       2.584   1.157  -8.249  0.00  0.00     0.044 H 
ATOM     24  H   LIG d   1       3.939   0.998  -7.105  0.00  0.00     0.044 H 
ATOM     25  H   LIG d   1       6.508   0.316  -9.749  0.00  0.00     0.044 H 
ATOM     26  H   LIG d   1       6.267   0.499  -7.995  0.00  0.00     0.044 H 
ATOM     27  H   LIG d   1       4.794  -2.882 -10.002  0.00  0.00     0.044 H 
ATOM     28  H   LIG d   1       5.650  -1.621 -10.922  0.00  0.00     0.044 H 
ATOM     29  H   LIG d   1       3.464  -3.704  -9.342  0.00  0.00     0.062 H 
ATOM     30  H   LIG d   1       3.304  -6.016  -8.449  0.00  0.00     0.062 H 
ATOM     31  H   LIG d   1       4.049  -6.541  -6.193  0.00  0.00     0.062 H 
ATOM     32  H   LIG d   1       4.992  -4.802  -4.711  0.00  0.00     0.064 H 
ENDROOT
BRANCH  18  33
ATOM     33  C   LIG d   1       5.763  -2.075  -4.233  0.00  0.00     0.045 C 
ATOM     34  H   LIG d   1       5.623  -3.048  -3.762  0.00  0.00     0.052 H 
ATOM     35  H   LIG d   1       6.826  -1.834  -4.262  0.00  0.00     0.052 H 
BRANCH  33  36
ATOM     36  C   LIG d   1       5.032  -1.021  -3.440  0.00  0.00    -0.030 A 
ATOM     37  C   LIG d   1       5.738   0.001  -2.834  0.00  0.00    -0.057 A 
ATOM     38  C   LIG d   1       5.067   0.969  -2.110  0.00  0.00    -0.061 A 
ATOM     39  H   LIG d   1       6.813   0.044  -2.926  0.00  0.00     0.062 H 
ATOM     40  C   LIG d   1       3.692   0.910  -1.987  0.00  0.00    -0.062 A 
ATOM     41  H   LIG d   1       5.618   1.770  -1.640  0.00  0.00     0.062 H 
ATOM     42  C   LIG d   1       2.986  -0.115  -2.589  0.00  0.00    -0.061 A 
ATOM     43  H   LIG d   1       3.167   1.665  -1.419  0.00  0.00     0.062 H 
ATOM     44  C   LIG d   1       3.657  -1.081  -3.316  0.00  0.00    -0.057 A 
ATOM     45  H   LIG d   1       1.912  -0.161  -2.492  0.00  0.00     0.062 H 
ATOM     46  H   LIG d   1       3.106  -1.882  -3.786  0.00  0.00     0.062 H 
ENDBRANCH  33  36
ENDBRANCH  18  33
BRANCH   1  47
ATOM     47  C   LIG d   1       2.997  -1.621 -11.696  0.00  0.00    -0.050 C 
ATOM     48  H   LIG d   1       3.781  -1.764 -12.440  0.00  0.00     0.024 H 
ATOM     49  H   LIG d   1       2.491  -2.568 -11.512  0.00  0.00     0.024 H 
ATOM     50  H   LIG d   1       2.277  -0.890 -12.064  0.00  0.00     0.024 H 
ENDBRANCH   1  47
BRANCH   5  51
ATOM     51  C   LIG d   1       4.781   2.453  -9.311  0.00  0.00    -0.050 C 
ATOM     52  H   LIG d   1       4.435   2.802 -10.284  0.00  0.00     0.024 H 
ATOM     53  H   LIG d   1       4.243   2.983  -8.524  0.00  0.00     0.024 H 
ATOM     54  H   LIG d   1       5.849   2.647  -9.213  0.00  0.00     0.024 H 
ENDBRANCH   5  51
TORSDOF 4
ENDMDL
MODEL 2
REMARK VINA RESULT:      -7.2      1.818      3.844
REMARK  4 active torsions:
REMARK  status: ('A' for Active; 'I' for Inactive)
REMARK    1  A    between atoms: C_1  and  C_2 
REMARK    2  A    between atoms: C_6  and  C_29 
REMARK    3  A    between atoms: N_19  and  C_22 
REMARK    4  A    between atoms: C_22  and  C_23 
ROOT
ATOM      1  C   LIG d   1       4.531  -0.464 -10.536  0.00  0.00     0.052 C 
ATOM      2  C   LIG d   1       5.964  -0.972 -10.314  0.00  0.00     0.015 C 
ATOM      3  N   LIG d   1       6.029  -1.700  -9.038  0.00  0.00    -0.271 N 
ATOM      4  C   LIG d   1       5.185  -2.903  -9.050  0.00  0.00     0.015 C 
ATOM      5  C   LIG d   1       3.714  -2.490  -9.210  0.00  0.00     0.052 C 
ATOM      6  C   LIG d   1       3.624  -1.690 -10.506  0.00  0.00     0.150 C 
ATOM      7  O   LIG d   1       2.915  -2.009 -11.430  0.00  0.00    -0.296 OA
ATOM      8  C   LIG d   1       3.353  -1.524  -8.071  0.00  0.00     0.015 C 
ATOM      9  N   LIG d   1       4.270  -0.374  -8.098  0.00  0.00    -0.271 N 
ATOM     10  C   LIG d   1       4.113   0.420  -9.350  0.00  0.00     0.015 C 
ATOM     11  C   LIG d   1       5.656  -0.820  -7.925  0.00  0.00     0.182 A 
ATOM     12  C   LIG d   1       6.590   0.343  -7.822  0.00  0.00     0.018 A 
ATOM     13  C   LIG d   1       6.886   1.360  -8.703  0.00  0.00    -0.053 A 
ATOM     14  C   LIG d   1       7.820   2.302  -8.289  0.00  0.00    -0.061 A 
ATOM     15  C   LIG d   1       8.423   2.220  -7.050  0.00  0.00    -0.060 A 
ATOM     16  C   LIG d   1       8.130   1.201  -6.157  0.00  0.00    -0.040 A 
ATOM     17  C   LIG d   1       7.193   0.248  -6.561  0.00  0.00     0.043 A 
ATOM     18  N   LIG d   1       6.719  -0.860  -5.883  0.00  0.00    -0.264 N 
ATOM     19  C   LIG d   1       5.811  -1.548  -6.608  0.00  0.00     0.260 A 
ATOM     20  O   LIG d   1       5.232  -2.557  -6.268  0.00  0.00    -0.271 OA
ATOM     21  H   LIG d   1       6.243  -1.640 -11.129  0.00  0.00     0.044 H 
ATOM     22  H   LIG d   1       6.650  -0.126 -10.285  0.00  0.00     0.044 H 
ATOM     23  H   LIG d   1       5.476  -3.544  -9.882  0.00  0.00     0.044 H 
ATOM     24  H   LIG d   1       5.310  -3.444  -8.112  0.00  0.00     0.044 H 
ATOM     25  H   LIG d   1       2.328  -1.173  -8.201  0.00  0.00     0.044 H 
ATOM     26  H   LIG d   1       3.443  -2.038  -7.115  0.00  0.00     0.044 H 
ATOM     27  H   LIG d   1       4.762   1.295  -9.302  0.00  0.00     0.044 H 
ATOM     28  H   LIG d   1       3.079   0.740  -9.481  0.00  0.00     0.044 H 
ATOM     29  H   LIG d   1       6.413   1.423  -9.673  0.00  0.00     0.062 H 
ATOM     30  H   LIG d   1       8.080   3.116  -8.951  0.00  0.00     0.062 H 
ATOM     31  H   LIG d   1       9.145   2.973  -6.768  0.00  0.00     0.062 H 
ATOM     32  H   LIG d   1       8.607   1.147  -5.190  0.00  0.00     0.064 H 
ENDROOT
BRANCH  18  33
ATOM     33  C   LIG d   1       7.151  -1.243  -4.536  0.00  0.00     0.045 C 
ATOM     34  H   LIG d   1       7.231  -2.328  -4.475  0.00  0.00     0.052 H 
ATOM     35  H   LIG d   1       8.122  -0.794  -4.324  0.00  0.00     0.052 H 
BRANCH  33  36
ATOM     36  C   LIG d   1       6.142  -0.755  -3.527  0.00  0.00    -0.030 A 
ATOM     37  C   LIG d   1       6.053   0.593  -3.235  0.00  0.00    -0.057 A 
ATOM     38  C   LIG d   1       5.126   1.041  -2.314  0.00  0.00    -0.061 A 
ATOM     39  H   LIG d   1       6.708   1.296  -3.728  0.00  0.00     0.062 H 
ATOM     40  C   LIG d   1       4.292   0.139  -1.679  0.00  0.00    -0.062 A 
ATOM     41  H   LIG d   1       5.054   2.094  -2.089  0.00  0.00     0.062 H 
ATOM     42  C   LIG d   1       4.384  -1.210  -1.967  0.00  0.00    -0.061 A 
ATOM     43  H   LIG d   1       3.569   0.489  -0.956  0.00  0.00     0.062 H 
ATOM     44  C   LIG d   1       5.309  -1.657  -2.892  0.00  0.00    -0.057 A 
ATOM     45  H   LIG d   1       3.733  -1.914  -1.471  0.00  0.00     0.062 H 
ATOM     46  H   LIG d   1       5.381  -2.711  -3.117  0.00  0.00     0.062 H 
ENDBRANCH  33  36
ENDBRANCH  18  33
BRANCH   1  47
ATOM     47  C   LIG d   1       4.407   0.290 -11.862  0.00  0.00    -0.050 C 
ATOM     48  H   LIG d   1       4.048  -0.391 -12.634  0.00  0.00     0.024 H 
ATOM     49  H   LIG d   1       3.703   1.114 -11.748  0.00  0.00     0.024 H 
ATOM     50  H   LIG d   1       5.383   0.682 -12.149  0.00  0.00     0.024 H 
ENDBRANCH   1  47
BRANCH   5  51
ATOM     51  C   LIG d   1       2.793  -3.711  -9.244  0.00  0.00    -0.050 C 
ATOM     52  H   LIG d   1       3.365  -4.605  -8.995  0.00  0.00     0.024 H 
ATOM     53  H   LIG d   1       1.989  -3.582  -8.519  0.00  0.00     0.024 H 
ATOM     54  H   LIG d   1       2.367  -3.818 -10.242  0.00  0.00     0.024 H 
ENDBRANCH   5  51
TORSDOF 4
ENDMDL
MODEL 3
REMARK VINA RESULT:      -7.1      2.782      4.736
REMARK  4 active torsions:
REMARK  status: ('A' for Active; 'I' for Inactive)
REMARK    1  A    between atoms: C_1  and  C_2 
REMARK    2  A    between atoms: C_6  and  C_29 
REMARK    3  A    between atoms: N_19  and  C_22 
REMARK    4  A    between atoms: C_22  and  C_23 
ROOT
ATOM      1  C   LIG d   1       8.649   1.142  -9.111  0.00  0.00     0.052 C 
ATOM      2  C   LIG d   1       7.979   1.962  -7.997  0.00  0.00     0.015 C 
ATOM      3  N   LIG d   1       7.436   1.049  -6.981  0.00  0.00    -0.271 N 
ATOM      4  C   LIG d   1       8.495   0.278  -6.315  0.00  0.00     0.015 C 
ATOM      5  C   LIG d   1       9.191  -0.625  -7.345  0.00  0.00     0.052 C 
ATOM      6  C   LIG d   1       9.725   0.294  -8.440  0.00  0.00     0.150 C 
ATOM      7  O   LIG d   1      10.894   0.358  -8.735  0.00  0.00    -0.296 OA
ATOM      8  C   LIG d   1       8.130  -1.521  -8.003  0.00  0.00     0.015 C 
ATOM      9  N   LIG d   1       7.084  -0.678  -8.603  0.00  0.00    -0.271 N 
ATOM     10  C   LIG d   1       7.627   0.162  -9.708  0.00  0.00     0.015 C 
ATOM     11  C   LIG d   1       6.441   0.149  -7.577  0.00  0.00     0.182 A 
ATOM     12  C   LIG d   1       5.291   0.918  -8.144  0.00  0.00     0.018 A 
ATOM     13  C   LIG d   1       5.228   1.868  -9.141  0.00  0.00    -0.053 A 
ATOM     14  C   LIG d   1       3.975   2.397  -9.429  0.00  0.00    -0.061 A 
ATOM     15  C   LIG d   1       2.847   1.988  -8.746  0.00  0.00    -0.060 A 
ATOM     16  C   LIG d   1       2.903   1.033  -7.743  0.00  0.00    -0.040 A 
ATOM     17  C   LIG d   1       4.154   0.493  -7.444  0.00  0.00     0.043 A 
ATOM     18  N   LIG d   1       4.498  -0.461  -6.503  0.00  0.00    -0.264 N 
ATOM     19  C   LIG d   1       5.822  -0.726  -6.510  0.00  0.00     0.260 A 
ATOM     20  O   LIG d   1       6.403  -1.516  -5.797  0.00  0.00    -0.271 OA
ATOM     21  H   LIG d   1       8.715   2.621  -7.537  0.00  0.00     0.044 H 
ATOM     22  H   LIG d   1       7.170   2.557  -8.420  0.00  0.00     0.044 H 
ATOM     23  H   LIG d   1       9.223   0.961  -5.879  0.00  0.00     0.044 H 
ATOM     24  H   LIG d   1       8.057  -0.339  -5.530  0.00  0.00     0.044 H 
ATOM     25  H   LIG d   1       8.596  -2.128  -8.780  0.00  0.00     0.044 H 
ATOM     26  H   LIG d   1       7.685  -2.171  -7.251  0.00  0.00     0.044 H 
ATOM     27  H   LIG d   1       6.811   0.721 -10.167  0.00  0.00     0.044 H 
ATOM     28  H   LIG d   1       8.114  -0.456 -10.463  0.00  0.00     0.044 H 
ATOM     29  H   LIG d   1       6.112   2.187  -9.674  0.00  0.00     0.062 H 
ATOM     30  H   LIG d   1       3.883   3.144 -10.204  0.00  0.00     0.062 H 
ATOM     31  H   LIG d   1       1.893   2.425  -9.002  0.00  0.00     0.062 H 
ATOM     32  H   LIG d   1       2.014   0.720  -7.216  0.00  0.00     0.064 H 
ENDROOT
BRANCH  18  33
ATOM     33  C   LIG d   1       3.538  -1.109  -5.605  0.00  0.00     0.045 C 
ATOM     34  H   LIG d   1       2.525  -0.823  -5.890  0.00  0.00     0.052 H 
ATOM     35  H   LIG d   1       3.645  -2.191  -5.679  0.00  0.00     0.052 H 
BRANCH  33  36
ATOM     36  C   LIG d   1       3.804  -0.674  -4.186  0.00  0.00    -0.030 A 
ATOM     37  C   LIG d   1       4.177  -1.606  -3.237  0.00  0.00    -0.057 A 
ATOM     38  C   LIG d   1       4.425  -1.206  -1.937  0.00  0.00    -0.061 A 
ATOM     39  H   LIG d   1       4.276  -2.646  -3.510  0.00  0.00     0.062 H 
ATOM     40  C   LIG d   1       4.293   0.124  -1.586  0.00  0.00    -0.062 A 
ATOM     41  H   LIG d   1       4.721  -1.934  -1.196  0.00  0.00     0.062 H 
ATOM     42  C   LIG d   1       3.915   1.056  -2.535  0.00  0.00    -0.061 A 
ATOM     43  H   LIG d   1       4.485   0.436  -0.569  0.00  0.00     0.062 H 
ATOM     44  C   LIG d   1       3.671   0.657  -3.836  0.00  0.00    -0.057 A 
ATOM     45  H   LIG d   1       3.812   2.095  -2.260  0.00  0.00     0.062 H 
ATOM     46  H   LIG d   1       3.376   1.384  -4.577  0.00  0.00     0.062 H 
ENDBRANCH  33  36
ENDBRANCH  18  33
BRANCH   1  47
ATOM     47  C   LIG d   1       9.245   2.050 -10.188  0.00  0.00    -0.050 C 
ATOM     48  H   LIG d   1      10.128   1.575 -10.616  0.00  0.00     0.024 H 
ATOM     49  H   LIG d   1       8.507   2.218 -10.972  0.00  0.00     0.024 H 
ATOM     50  H   LIG d   1       9.526   3.005  -9.743  0.00  0.00     0.024 H 
ENDBRANCH   1  47
BRANCH   5  51
ATOM     51  C   LIG d   1      10.316  -1.439  -6.703  0.00  0.00    -0.050 C 
ATOM     52  H   LIG d   1       9.886  -2.236  -6.096  0.00  0.00     0.024 H 
ATOM     53  H   LIG d   1      10.941  -1.874  -7.483  0.00  0.00     0.024 H 
ATOM     54  H   LIG d   1      10.922  -0.788  -6.073  0.00  0.00     0.024 H 
ENDBRANCH   5  51
TORSDOF 4
ENDMDL
MODEL 4
REMARK VINA RESULT:      -6.9      2.632      5.071
REMARK  4 active torsions:
REMARK  status: ('A' for Active; 'I' for Inactive)
REMARK    1  A    between atoms: C_1  and  C_2 
REMARK    2  A    between atoms: C_6  and  C_29 
REMARK    3  A    between atoms: N_19  and  C_22 
REMARK    4  A    between atoms: C_22  and  C_23 
ROOT
ATOM      1  C   LIG d   1       4.384  -5.865  -8.249  0.00  0.00     0.052 C 
ATOM      2  C   LIG d   1       5.675  -5.132  -8.647  0.00  0.00     0.015 C 
ATOM      3  N   LIG d   1       6.423  -4.770  -7.435  0.00  0.00    -0.271 N 
ATOM      4  C   LIG d   1       6.861  -5.957  -6.687  0.00  0.00     0.015 C 
ATOM      5  C   LIG d   1       5.630  -6.731  -6.192  0.00  0.00     0.052 C 
ATOM      6  C   LIG d   1       4.808  -7.079  -7.430  0.00  0.00     0.150 C 
ATOM      7  O   LIG d   1       4.535  -8.213  -7.741  0.00  0.00    -0.296 OA
ATOM      8  C   LIG d   1       4.767  -5.782  -5.345  0.00  0.00     0.015 C 
ATOM      9  N   LIG d   1       4.411  -4.601  -6.147  0.00  0.00    -0.271 N 
ATOM     10  C   LIG d   1       3.558  -4.969  -7.312  0.00  0.00     0.015 C 
ATOM     11  C   LIG d   1       5.619  -3.891  -6.579  0.00  0.00     0.182 A 
ATOM     12  C   LIG d   1       5.275  -2.619  -7.286  0.00  0.00     0.018 A 
ATOM     13  C   LIG d   1       4.558  -2.377  -8.437  0.00  0.00    -0.053 A 
ATOM     14  C   LIG d   1       4.422  -1.050  -8.829  0.00  0.00    -0.061 A 
ATOM     15  C   LIG d   1       4.981  -0.023  -8.095  0.00  0.00    -0.060 A 
ATOM     16  C   LIG d   1       5.702  -0.258  -6.935  0.00  0.00    -0.040 A 
ATOM     17  C   LIG d   1       5.846  -1.586  -6.530  0.00  0.00     0.043 A 
ATOM     18  N   LIG d   1       6.506  -2.103  -5.430  0.00  0.00    -0.264 N 
ATOM     19  C   LIG d   1       6.425  -3.450  -5.377  0.00  0.00     0.260 A 
ATOM     20  O   LIG d   1       6.907  -4.169  -4.528  0.00  0.00    -0.271 OA
ATOM     21  H   LIG d   1       6.287  -5.785  -9.270  0.00  0.00     0.044 H 
ATOM     22  H   LIG d   1       5.424  -4.229  -9.203  0.00  0.00     0.044 H 
ATOM     23  H   LIG d   1       7.457  -6.598  -7.337  0.00  0.00     0.044 H 
ATOM     24  H   LIG d   1       7.463  -5.646  -5.832  0.00  0.00     0.044 H 
ATOM     25  H   LIG d   1       3.858  -6.296  -5.033  0.00  0.00     0.044 H 
ATOM     26  H   LIG d   1       5.328  -5.468  -4.465  0.00  0.00     0.044 H 
ATOM     27  H   LIG d   1       3.263  -4.063  -7.841  0.00  0.00     0.044 H 
ATOM     28  H   LIG d   1       2.667  -5.508  -6.988  0.00  0.00     0.044 H 
ATOM     29  H   LIG d   1       4.122  -3.182  -9.011  0.00  0.00     0.062 H 
ATOM     30  H   LIG d   1       3.868  -0.818  -9.727  0.00  0.00     0.062 H 
ATOM     31  H   LIG d   1       4.852   0.994  -8.435  0.00  0.00     0.062 H 
ATOM     32  H   LIG d   1       6.134   0.553  -6.368  0.00  0.00     0.064 H 
ENDROOT
BRANCH  18  33
ATOM     33  C   LIG d   1       7.210  -1.286  -4.438  0.00  0.00     0.045 C 
ATOM     34  H   LIG d   1       7.893  -1.915  -3.868  0.00  0.00     0.052 H 
ATOM     35  H   LIG d   1       7.774  -0.503  -4.947  0.00  0.00     0.052 H 
BRANCH  33  36
ATOM     36  C   LIG d   1       6.208  -0.655  -3.504  0.00  0.00    -0.030 A 
ATOM     37  C   LIG d   1       6.143   0.720  -3.388  0.00  0.00    -0.057 A 
ATOM     38  C   LIG d   1       5.221   1.298  -2.535  0.00  0.00    -0.061 A 
ATOM     39  H   LIG d   1       6.810   1.344  -3.964  0.00  0.00     0.062 H 
ATOM     40  C   LIG d   1       4.372   0.500  -1.792  0.00  0.00    -0.062 A 
ATOM     41  H   LIG d   1       5.167   2.373  -2.446  0.00  0.00     0.062 H 
ATOM     42  C   LIG d   1       4.440  -0.876  -1.905  0.00  0.00    -0.061 A 
ATOM     43  H   LIG d   1       3.653   0.951  -1.123  0.00  0.00     0.062 H 
ATOM     44  C   LIG d   1       5.359  -1.454  -2.762  0.00  0.00    -0.057 A 
ATOM     45  H   LIG d   1       3.777  -1.500  -1.325  0.00  0.00     0.062 H 
ATOM     46  H   LIG d   1       5.413  -2.529  -2.850  0.00  0.00     0.062 H 
ENDBRANCH  33  36
ENDBRANCH  18  33
BRANCH   1  47
ATOM     47  C   LIG d   1       3.576  -6.277  -9.481  0.00  0.00    -0.050 C 
ATOM     48  H   LIG d   1       3.246  -5.385 -10.014  0.00  0.00     0.024 H 
ATOM     49  H   LIG d   1       4.199  -6.884 -10.138  0.00  0.00     0.024 H 
ATOM     50  H   LIG d   1       2.707  -6.856  -9.168  0.00  0.00     0.024 H 
ENDBRANCH   1  47
BRANCH   5  51
ATOM     51  C   LIG d   1       6.034  -7.987  -5.419  0.00  0.00    -0.050 C 
ATOM     52  H   LIG d   1       5.158  -8.617  -5.264  0.00  0.00     0.024 H 
ATOM     53  H   LIG d   1       6.783  -8.540  -5.988  0.00  0.00     0.024 H 
ATOM     54  H   LIG d   1       6.452  -7.701  -4.453  0.00  0.00     0.024 H 
ENDBRANCH   5  51
TORSDOF 4
ENDMDL
MODEL 5
REMARK VINA RESULT:      -6.8      1.986      4.148
REMARK  4 active torsions:
REMARK  status: ('A' for Active; 'I' for Inactive)
REMARK    1  A    between atoms: C_1  and  C_2 
REMARK    2  A    between atoms: C_6  and  C_29 
REMARK    3  A    between atoms: N_19  and  C_22 
REMARK    4  A    between atoms: C_22  and  C_23 
ROOT
ATOM      1  C   LIG d   1       3.491   0.870  -8.886  0.00  0.00     0.052 C 
ATOM      2  C   LIG d   1       4.698   0.936  -7.937  0.00  0.00     0.015 C 
ATOM      3  N   LIG d   1       5.286  -0.404  -7.805  0.00  0.00    -0.271 N 
ATOM      4  C   LIG d   1       5.820  -0.897  -9.082  0.00  0.00     0.015 C 
ATOM      5  C   LIG d   1       4.669  -1.053 -10.088  0.00  0.00     0.052 C 
ATOM      6  C   LIG d   1       4.007   0.316 -10.209  0.00  0.00     0.150 C 
ATOM      7  O   LIG d   1       3.918   0.914 -11.255  0.00  0.00    -0.296 OA
ATOM      8  C   LIG d   1       3.618  -1.996  -9.481  0.00  0.00     0.015 C 
ATOM      9  N   LIG d   1       3.171  -1.460  -8.186  0.00  0.00    -0.271 N 
ATOM     10  C   LIG d   1       2.475  -0.151  -8.349  0.00  0.00     0.015 C 
ATOM     11  C   LIG d   1       4.302  -1.346  -7.260  0.00  0.00     0.182 A 
ATOM     12  C   LIG d   1       3.847  -0.923  -5.900  0.00  0.00     0.018 A 
ATOM     13  C   LIG d   1       3.202   0.213  -5.463  0.00  0.00    -0.053 A 
ATOM     14  C   LIG d   1       2.918   0.295  -4.104  0.00  0.00    -0.061 A 
ATOM     15  C   LIG d   1       3.269  -0.719  -3.235  0.00  0.00    -0.060 A 
ATOM     16  C   LIG d   1       3.918  -1.865  -3.667  0.00  0.00    -0.040 A 
ATOM     17  C   LIG d   1       4.208  -1.960  -5.029  0.00  0.00     0.043 A 
ATOM     18  N   LIG d   1       4.839  -2.975  -5.724  0.00  0.00    -0.264 N 
ATOM     19  C   LIG d   1       4.938  -2.700  -7.042  0.00  0.00     0.260 A 
ATOM     20  O   LIG d   1       5.442  -3.406  -7.890  0.00  0.00    -0.271 OA
ATOM     21  H   LIG d   1       5.442   1.622  -8.343  0.00  0.00     0.044 H 
ATOM     22  H   LIG d   1       4.373   1.289  -6.959  0.00  0.00     0.044 H 
ATOM     23  H   LIG d   1       6.549  -0.186  -9.471  0.00  0.00     0.044 H 
ATOM     24  H   LIG d   1       6.300  -1.863  -8.927  0.00  0.00     0.044 H 
ATOM     25  H   LIG d   1       2.764  -2.074 -10.155  0.00  0.00     0.044 H 
ATOM     26  H   LIG d   1       4.056  -2.983  -9.333  0.00  0.00     0.044 H 
ATOM     27  H   LIG d   1       2.104   0.180  -7.378  0.00  0.00     0.044 H 
ATOM     28  H   LIG d   1       1.642  -0.237  -9.047  0.00  0.00     0.044 H 
ATOM     29  H   LIG d   1       2.928   1.005  -6.145  0.00  0.00     0.062 H 
ATOM     30  H   LIG d   1       2.413   1.170  -3.721  0.00  0.00     0.062 H 
ATOM     31  H   LIG d   1       3.031  -0.614  -2.186  0.00  0.00     0.062 H 
ATOM     32  H   LIG d   1       4.186  -2.652  -2.978  0.00  0.00     0.064 H 
ENDROOT
BRANCH  18  33
ATOM     33  C   LIG d   1       5.341  -4.204  -5.103  0.00  0.00     0.045 C 
ATOM     34  H   LIG d   1       4.873  -4.334  -4.127  0.00  0.00     0.052 H 
ATOM     35  H   LIG d   1       5.100  -5.056  -5.739  0.00  0.00     0.052 H 
BRANCH  33  36
ATOM     36  C   LIG d   1       6.836  -4.109  -4.937  0.00  0.00    -0.030 A 
ATOM     37  C   LIG d   1       7.658  -5.048  -5.530  0.00  0.00    -0.057 A 
ATOM     38  C   LIG d   1       9.029  -4.959  -5.382  0.00  0.00    -0.061 A 
ATOM     39  H   LIG d   1       7.229  -5.851  -6.112  0.00  0.00     0.062 H 
ATOM     40  C   LIG d   1       9.578  -3.935  -4.633  0.00  0.00    -0.062 A 
ATOM     41  H   LIG d   1       9.672  -5.690  -5.849  0.00  0.00     0.062 H 
ATOM     42  C   LIG d   1       8.755  -2.998  -4.034  0.00  0.00    -0.061 A 
ATOM     43  H   LIG d   1      10.650  -3.866  -4.514  0.00  0.00     0.062 H 
ATOM     44  C   LIG d   1       7.384  -3.085  -4.187  0.00  0.00    -0.057 A 
ATOM     45  H   LIG d   1       9.183  -2.198  -3.449  0.00  0.00     0.062 H 
ATOM     46  H   LIG d   1       6.741  -2.354  -3.720  0.00  0.00     0.062 H 
ENDBRANCH  33  36
ENDBRANCH  18  33
BRANCH   1  47
ATOM     47  C   LIG d   1       2.851   2.248  -9.069  0.00  0.00    -0.050 C 
ATOM     48  H   LIG d   1       2.725   2.722  -8.095  0.00  0.00     0.024 H 
ATOM     49  H   LIG d   1       3.493   2.867  -9.695  0.00  0.00     0.024 H 
ATOM     50  H   LIG d   1       1.877   2.135  -9.547  0.00  0.00     0.024 H 
ENDBRANCH   1  47
BRANCH   5  51
ATOM     51  C   LIG d   1       5.176  -1.551 -11.443  0.00  0.00    -0.050 C 
ATOM     52  H   LIG d   1       6.187  -1.943 -11.330  0.00  0.00     0.024 H 
ATOM     53  H   LIG d   1       4.519  -2.339 -11.810  0.00  0.00     0.024 H 
ATOM     54  H   LIG d   1       5.184  -0.724 -12.154  0.00  0.00     0.024 H 
ENDBRANCH   5  51
TORSDOF 4
ENDMDL
MODEL 6
REMARK VINA RESULT:      -6.8      4.669      7.260
REMARK  4 active torsions:
REMARK  status: ('A' for Active; 'I' for Inactive)
REMARK    1  A    between atoms: C_1  and  C_2 
REMARK    2  A    between atoms: C_6  and  C_29 
REMARK    3  A    between atoms: N_19  and  C_22 
REMARK    4  A    between atoms: C_22  and  C_23 
ROOT
ATOM      1  C   LIG d   1      10.762  -6.777  -4.101  0.00  0.00     0.052 C 
ATOM      2  C   LIG d   1      10.306  -6.490  -5.541  0.00  0.00     0.015 C 
ATOM      3  N   LIG d   1       9.847  -5.097  -5.637  0.00  0.00    -0.271 N 
ATOM      4  C   LIG d   1      10.932  -4.142  -5.373  0.00  0.00     0.015 C 
ATOM      5  C   LIG d   1      11.419  -4.313  -3.925  0.00  0.00     0.052 C 
ATOM      6  C   LIG d   1      11.859  -5.767  -3.782  0.00  0.00     0.150 C 
ATOM      7  O   LIG d   1      12.979  -6.087  -3.464  0.00  0.00    -0.296 OA
ATOM      8  C   LIG d   1      10.219  -4.123  -2.984  0.00  0.00     0.015 C 
ATOM      9  N   LIG d   1       9.161  -5.079  -3.342  0.00  0.00    -0.271 N 
ATOM     10  C   LIG d   1       9.603  -6.487  -3.133  0.00  0.00     0.015 C 
ATOM     11  C   LIG d   1       8.722  -4.863  -4.725  0.00  0.00     0.182 A 
ATOM     12  C   LIG d   1       7.560  -5.740  -5.067  0.00  0.00     0.018 A 
ATOM     13  C   LIG d   1       7.425  -7.110  -5.096  0.00  0.00    -0.053 A 
ATOM     14  C   LIG d   1       6.184  -7.615  -5.466  0.00  0.00    -0.061 A 
ATOM     15  C   LIG d   1       5.135  -6.778  -5.788  0.00  0.00    -0.060 A 
ATOM     16  C   LIG d   1       5.262  -5.398  -5.759  0.00  0.00    -0.040 A 
ATOM     17  C   LIG d   1       6.503  -4.878  -5.389  0.00  0.00     0.043 A 
ATOM     18  N   LIG d   1       6.906  -3.560  -5.279  0.00  0.00    -0.264 N 
ATOM     19  C   LIG d   1       8.196  -3.455  -4.893  0.00  0.00     0.260 A 
ATOM     20  O   LIG d   1       8.814  -2.427  -4.715  0.00  0.00    -0.271 OA
ATOM     21  H   LIG d   1      11.141  -6.645  -6.224  0.00  0.00     0.044 H 
ATOM     22  H   LIG d   1       9.490  -7.161  -5.805  0.00  0.00     0.044 H 
ATOM     23  H   LIG d   1      11.758  -4.330  -6.059  0.00  0.00     0.044 H 
ATOM     24  H   LIG d   1      10.565  -3.126  -5.515  0.00  0.00     0.044 H 
ATOM     25  H   LIG d   1      10.533  -4.298  -1.954  0.00  0.00     0.044 H 
ATOM     26  H   LIG d   1       9.838  -3.106  -3.080  0.00  0.00     0.044 H 
ATOM     27  H   LIG d   1       8.773  -7.159  -3.348  0.00  0.00     0.044 H 
ATOM     28  H   LIG d   1       9.940  -6.640  -2.107  0.00  0.00     0.044 H 
ATOM     29  H   LIG d   1       8.248  -7.764  -4.844  0.00  0.00     0.062 H 
ATOM     30  H   LIG d   1       6.037  -8.685  -5.502  0.00  0.00     0.062 H 
ATOM     31  H   LIG d   1       4.186  -7.212  -6.070  0.00  0.00     0.062 H 
ATOM     32  H   LIG d   1       4.434  -4.752  -6.012  0.00  0.00     0.064 H 
ENDROOT
BRANCH  18  33
ATOM     33  C   LIG d   1       6.036  -2.412  -5.548  0.00  0.00     0.045 C 
ATOM     34  H   LIG d   1       6.618  -1.617  -6.014  0.00  0.00     0.052 H 
ATOM     35  H   LIG d   1       5.231  -2.715  -6.218  0.00  0.00     0.052 H 
BRANCH  33  36
ATOM     36  C   LIG d   1       5.448  -1.912  -4.252  0.00  0.00    -0.030 A 
ATOM     37  C   LIG d   1       5.920  -0.744  -3.685  0.00  0.00    -0.057 A 
ATOM     38  C   LIG d   1       5.378  -0.283  -2.500  0.00  0.00    -0.061 A 
ATOM     39  H   LIG d   1       6.710  -0.189  -4.169  0.00  0.00     0.062 H 
ATOM     40  C   LIG d   1       4.371  -0.996  -1.878  0.00  0.00    -0.062 A 
ATOM     41  H   LIG d   1       5.744   0.632  -2.059  0.00  0.00     0.062 H 
ATOM     42  C   LIG d   1       3.902  -2.168  -2.442  0.00  0.00    -0.061 A 
ATOM     43  H   LIG d   1       3.949  -0.638  -0.949  0.00  0.00     0.062 H 
ATOM     44  C   LIG d   1       4.441  -2.626  -3.630  0.00  0.00    -0.057 A 
ATOM     45  H   LIG d   1       3.115  -2.725  -1.956  0.00  0.00     0.062 H 
ATOM     46  H   LIG d   1       4.075  -3.541  -4.071  0.00  0.00     0.062 H 
ENDBRANCH  33  36
ENDBRANCH  18  33
BRANCH   1  47
ATOM     47  C   LIG d   1      11.265  -8.214  -3.953  0.00  0.00    -0.050 C 
ATOM     48  H   LIG d   1      11.306  -8.477  -2.895  0.00  0.00     0.024 H 
ATOM     49  H   LIG d   1      10.588  -8.892  -4.471  0.00  0.00     0.024 H 
ATOM     50  H   LIG d   1      12.262  -8.295  -4.385  0.00  0.00     0.024 H 
ENDBRANCH   1  47
BRANCH   5  51
ATOM     51  C   LIG d   1      12.563  -3.349  -3.605  0.00  0.00    -0.050 C 
ATOM     52  H   LIG d   1      12.612  -3.189  -2.527  0.00  0.00     0.024 H 
ATOM     53  H   LIG d   1      13.505  -3.774  -3.952  0.00  0.00     0.024 H 
ATOM     54  H   LIG d   1      12.388  -2.397  -4.106  0.00  0.00     0.024 H 
ENDBRANCH   5  51
TORSDOF 4
ENDMDL
MODEL 7
REMARK VINA RESULT:      -6.6      3.437      5.869
REMARK  4 active torsions:
REMARK  status: ('A' for Active; 'I' for Inactive)
REMARK    1  A    between atoms: C_1  and  C_2 
REMARK    2  A    between atoms: C_6  and  C_29 
REMARK    3  A    between atoms: N_19  and  C_22 
REMARK    4  A    between atoms: C_22  and  C_23 
ROOT
ATOM      1  C   LIG d   1       4.095  -0.896  -4.187  0.00  0.00     0.052 C 
ATOM      2  C   LIG d   1       4.572  -1.980  -3.207  0.00  0.00     0.015 C 
ATOM      3  N   LIG d   1       6.032  -2.118  -3.307  0.00  0.00    -0.271 N 
ATOM      4  C   LIG d   1       6.728  -0.890  -2.901  0.00  0.00     0.015 C 
ATOM      5  C   LIG d   1       6.358   0.248  -3.864  0.00  0.00     0.052 C 
ATOM      6  C   LIG d   1       4.839   0.383  -3.817  0.00  0.00     0.150 C 
ATOM      7  O   LIG d   1       4.278   1.403  -3.497  0.00  0.00    -0.296 OA
ATOM      8  C   LIG d   1       6.715  -0.190  -5.294  0.00  0.00     0.015 C 
ATOM      9  N   LIG d   1       6.019  -1.447  -5.606  0.00  0.00    -0.271 N 
ATOM     10  C   LIG d   1       4.540  -1.266  -5.611  0.00  0.00     0.015 C 
ATOM     11  C   LIG d   1       6.419  -2.502  -4.670  0.00  0.00     0.182 A 
ATOM     12  C   LIG d   1       5.821  -3.818  -5.049  0.00  0.00     0.018 A 
ATOM     13  C   LIG d   1       4.511  -4.230  -5.162  0.00  0.00    -0.053 A 
ATOM     14  C   LIG d   1       4.293  -5.549  -5.543  0.00  0.00    -0.061 A 
ATOM     15  C   LIG d   1       5.345  -6.406  -5.797  0.00  0.00    -0.060 A 
ATOM     16  C   LIG d   1       6.666  -5.999  -5.687  0.00  0.00    -0.040 A 
ATOM     17  C   LIG d   1       6.898  -4.677  -5.306  0.00  0.00     0.043 A 
ATOM     18  N   LIG d   1       8.097  -4.014  -5.119  0.00  0.00    -0.264 N 
ATOM     19  C   LIG d   1       7.913  -2.729  -4.745  0.00  0.00     0.260 A 
ATOM     20  O   LIG d   1       8.780  -1.915  -4.513  0.00  0.00    -0.271 OA
ATOM     21  H   LIG d   1       4.303  -1.695  -2.190  0.00  0.00     0.044 H 
ATOM     22  H   LIG d   1       4.099  -2.930  -3.457  0.00  0.00     0.044 H 
ATOM     23  H   LIG d   1       6.429  -0.620  -1.888  0.00  0.00     0.044 H 
ATOM     24  H   LIG d   1       7.805  -1.055  -2.931  0.00  0.00     0.044 H 
ATOM     25  H   LIG d   1       6.405   0.582  -6.000  0.00  0.00     0.044 H 
ATOM     26  H   LIG d   1       7.791  -0.342  -5.370  0.00  0.00     0.044 H 
ATOM     27  H   LIG d   1       4.065  -2.201  -5.910  0.00  0.00     0.044 H 
ATOM     28  H   LIG d   1       4.247  -0.473  -6.300  0.00  0.00     0.044 H 
ATOM     29  H   LIG d   1       3.688  -3.557  -4.962  0.00  0.00     0.062 H 
ATOM     30  H   LIG d   1       3.280  -5.910  -5.642  0.00  0.00     0.062 H 
ATOM     31  H   LIG d   1       5.132  -7.423  -6.090  0.00  0.00     0.062 H 
ATOM     32  H   LIG d   1       7.481  -6.678  -5.890  0.00  0.00     0.064 H 
ENDROOT
BRANCH  18  33
ATOM     33  C   LIG d   1       9.413  -4.631  -5.307  0.00  0.00     0.045 C 
ATOM     34  H   LIG d   1       9.396  -5.257  -6.199  0.00  0.00     0.052 H 
ATOM     35  H   LIG d   1      10.166  -3.852  -5.422  0.00  0.00     0.052 H 
BRANCH  33  36
ATOM     36  C   LIG d   1       9.746  -5.478  -4.105  0.00  0.00    -0.030 A 
ATOM     37  C   LIG d   1       9.616  -4.954  -2.833  0.00  0.00    -0.057 A 
ATOM     38  C   LIG d   1       9.918  -5.731  -1.731  0.00  0.00    -0.061 A 
ATOM     39  H   LIG d   1       9.278  -3.937  -2.700  0.00  0.00     0.062 H 
ATOM     40  C   LIG d   1      10.357  -7.031  -1.901  0.00  0.00    -0.062 A 
ATOM     41  H   LIG d   1       9.813  -5.323  -0.737  0.00  0.00     0.062 H 
ATOM     42  C   LIG d   1      10.491  -7.554  -3.174  0.00  0.00    -0.061 A 
ATOM     43  H   LIG d   1      10.595  -7.638  -1.040  0.00  0.00     0.062 H 
ATOM     44  C   LIG d   1      10.186  -6.778  -4.276  0.00  0.00    -0.057 A 
ATOM     45  H   LIG d   1      10.834  -8.569  -3.307  0.00  0.00     0.062 H 
ATOM     46  H   LIG d   1      10.291  -7.186  -5.270  0.00  0.00     0.062 H 
ENDBRANCH  33  36
ENDBRANCH  18  33
BRANCH   1  47
ATOM     47  C   LIG d   1       2.579  -0.703  -4.109  0.00  0.00    -0.050 C 
ATOM     48  H   LIG d   1       2.307   0.234  -4.594  0.00  0.00     0.024 H 
ATOM     49  H   LIG d   1       2.081  -1.532  -4.612  0.00  0.00     0.024 H 
ATOM     50  H   LIG d   1       2.271  -0.674  -3.064  0.00  0.00     0.024 H 
ENDBRANCH   1  47
BRANCH   5  51
ATOM     51  C   LIG d   1       7.046   1.557  -3.473  0.00  0.00    -0.050 C 
ATOM     52  H   LIG d   1       7.174   1.591  -2.391  0.00  0.00     0.024 H 
ATOM     53  H   LIG d   1       8.023   1.613  -3.955  0.00  0.00     0.024 H 
ATOM     54  H   LIG d   1       6.435   2.400  -3.794  0.00  0.00     0.024 H 
ENDBRANCH   5  51
TORSDOF 4
ENDMDL
MODEL 8
REMARK VINA RESULT:      -6.6      2.553      4.522
REMARK  4 active torsions:
REMARK  status: ('A' for Active; 'I' for Inactive)
REMARK    1  A    between atoms: C_1  and  C_2 
REMARK    2  A    between atoms: C_6  and  C_29 
REMARK    3  A    between atoms: N_19  and  C_22 
REMARK    4  A    between atoms: C_22  and  C_23 
ROOT
ATOM      1  C   LIG d   1       3.830  -5.288 -10.413  0.00  0.00     0.052 C 
ATOM      2  C   LIG d   1       4.613  -4.022 -10.792  0.00  0.00     0.015 C 
ATOM      3  N   LIG d   1       5.379  -3.556  -9.627  0.00  0.00    -0.271 N 
ATOM      4  C   LIG d   1       6.394  -4.534  -9.212  0.00  0.00     0.015 C 
ATOM      5  C   LIG d   1       5.700  -5.826  -8.755  0.00  0.00     0.052 C 
ATOM      6  C   LIG d   1       4.857  -6.308  -9.932  0.00  0.00     0.150 C 
ATOM      7  O   LIG d   1       5.004  -7.390 -10.448  0.00  0.00    -0.296 OA
ATOM      8  C   LIG d   1       4.717  -5.477  -7.626  0.00  0.00     0.015 C 
ATOM      9  N   LIG d   1       3.767  -4.461  -8.104  0.00  0.00    -0.271 N 
ATOM     10  C   LIG d   1       2.919  -4.984  -9.212  0.00  0.00     0.015 C 
ATOM     11  C   LIG d   1       4.479  -3.245  -8.511  0.00  0.00     0.182 A 
ATOM     12  C   LIG d   1       3.522  -2.156  -8.879  0.00  0.00     0.018 A 
ATOM     13  C   LIG d   1       2.555  -2.079  -9.857  0.00  0.00    -0.053 A 
ATOM     14  C   LIG d   1       1.825  -0.898  -9.932  0.00  0.00    -0.061 A 
ATOM     15  C   LIG d   1       2.061   0.149  -9.064  0.00  0.00    -0.060 A 
ATOM     16  C   LIG d   1       3.031   0.079  -8.077  0.00  0.00    -0.040 A 
ATOM     17  C   LIG d   1       3.771  -1.101  -7.990  0.00  0.00     0.043 A 
ATOM     18  N   LIG d   1       4.787  -1.440  -7.115  0.00  0.00    -0.264 N 
ATOM     19  C   LIG d   1       5.263  -2.682  -7.347  0.00  0.00     0.260 A 
ATOM     20  O   LIG d   1       6.150  -3.240  -6.738  0.00  0.00    -0.271 OA
ATOM     21  H   LIG d   1       5.297  -4.248 -11.610  0.00  0.00     0.044 H 
ATOM     22  H   LIG d   1       3.917  -3.243 -11.104  0.00  0.00     0.044 H 
ATOM     23  H   LIG d   1       7.054  -4.753 -10.052  0.00  0.00     0.044 H 
ATOM     24  H   LIG d   1       6.978  -4.125  -8.388  0.00  0.00     0.044 H 
ATOM     25  H   LIG d   1       4.171  -6.372  -7.328  0.00  0.00     0.044 H 
ATOM     26  H   LIG d   1       5.268  -5.085  -6.772  0.00  0.00     0.044 H 
ATOM     27  H   LIG d   1       2.188  -4.226  -9.493  0.00  0.00     0.044 H 
ATOM     28  H   LIG d   1       2.401  -5.895  -8.909  0.00  0.00     0.044 H 
ATOM     29  H   LIG d   1       2.372  -2.900 -10.536  0.00  0.00     0.062 H 
ATOM     30  H   LIG d   1       1.057  -0.798 -10.686  0.00  0.00     0.062 H 
ATOM     31  H   LIG d   1       1.471   1.049  -9.157  0.00  0.00     0.062 H 
ATOM     32  H   LIG d   1       3.206   0.904  -7.402  0.00  0.00     0.064 H 
ENDROOT
BRANCH  18  33
ATOM     33  C   LIG d   1       5.288  -0.555  -6.060  0.00  0.00     0.045 C 
ATOM     34  H   LIG d   1       6.358  -0.716  -5.929  0.00  0.00     0.052 H 
ATOM     35  H   LIG d   1       5.108   0.483  -6.341  0.00  0.00     0.052 H 
BRANCH  33  36
ATOM     36  C   LIG d   1       4.571  -0.857  -4.768  0.00  0.00    -0.030 A 
ATOM     37  C   LIG d   1       5.173  -1.657  -3.815  0.00  0.00    -0.057 A 
ATOM     38  C   LIG d   1       4.517  -1.930  -2.629  0.00  0.00    -0.061 A 
ATOM     39  H   LIG d   1       6.156  -2.066  -3.996  0.00  0.00     0.062 H 
ATOM     40  C   LIG d   1       3.257  -1.411  -2.401  0.00  0.00    -0.062 A 
ATOM     41  H   LIG d   1       4.989  -2.552  -1.883  0.00  0.00     0.062 H 
ATOM     42  C   LIG d   1       2.653  -0.616  -3.356  0.00  0.00    -0.061 A 
ATOM     43  H   LIG d   1       2.744  -1.627  -1.475  0.00  0.00     0.062 H 
ATOM     44  C   LIG d   1       3.310  -0.338  -4.541  0.00  0.00    -0.057 A 
ATOM     45  H   LIG d   1       1.668  -0.210  -3.178  0.00  0.00     0.062 H 
ATOM     46  H   LIG d   1       2.838   0.283  -5.287  0.00  0.00     0.062 H 
ENDBRANCH  33  36
ENDBRANCH  18  33
BRANCH   1  47
ATOM     47  C   LIG d   1       3.026  -5.822 -11.600  0.00  0.00    -0.050 C 
ATOM     48  H   LIG d   1       2.584  -4.987 -12.144  0.00  0.00     0.024 H 
ATOM     49  H   LIG d   1       3.686  -6.380 -12.264  0.00  0.00     0.024 H 
ATOM     50  H   LIG d   1       2.235  -6.478 -11.237  0.00  0.00     0.024 H 
ENDBRANCH   1  47
BRANCH   5  51
ATOM     51  C   LIG d   1       6.717  -6.885  -8.327  0.00  0.00    -0.050 C 
ATOM     52  H   LIG d   1       6.823  -6.870  -7.242  0.00  0.00     0.024 H 
ATOM     53  H   LIG d   1       6.374  -7.870  -8.645  0.00  0.00     0.024 H 
ATOM     54  H   LIG d   1       7.681  -6.671  -8.789  0.00  0.00     0.024 H 
ENDBRANCH   5  51
TORSDOF 4
ENDMDL
MODEL 9
REMARK VINA RESULT:      -6.6      3.543      6.030
REMARK  4 active torsions:
REMARK  status: ('A' for Active; 'I' for Inactive)
REMARK    1  A    between atoms: C_1  and  C_2 
REMARK    2  A    between atoms: C_6  and  C_29 
REMARK    3  A    between atoms: N_19  and  C_22 
REMARK    4  A    between atoms: C_22  and  C_23 
ROOT
ATOM      1  C   LIG d   1       5.371  -3.037  -4.848  0.00  0.00     0.052 C 
ATOM      2  C   LIG d   1       6.870  -2.890  -4.540  0.00  0.00     0.015 C 
ATOM      3  N   LIG d   1       7.176  -1.477  -4.275  0.00  0.00    -0.271 N 
ATOM      4  C   LIG d   1       6.481  -0.981  -3.080  0.00  0.00     0.015 C 
ATOM      5  C   LIG d   1       4.963  -1.033  -3.315  0.00  0.00     0.052 C 
ATOM      6  C   LIG d   1       4.623  -2.484  -3.639  0.00  0.00     0.150 C 
ATOM      7  O   LIG d   1       3.846  -3.140  -2.988  0.00  0.00    -0.296 OA
ATOM      8  C   LIG d   1       4.637  -0.214  -4.573  0.00  0.00     0.015 C 
ATOM      9  N   LIG d   1       5.406  -0.741  -5.711  0.00  0.00    -0.271 N 
ATOM     10  C   LIG d   1       5.005  -2.138  -6.040  0.00  0.00     0.015 C 
ATOM     11  C   LIG d   1       6.845  -0.653  -5.443  0.00  0.00     0.182 A 
ATOM     12  C   LIG d   1       7.644  -1.065  -6.637  0.00  0.00     0.018 A 
ATOM     13  C   LIG d   1       7.710  -2.255  -7.328  0.00  0.00    -0.053 A 
ATOM     14  C   LIG d   1       8.573  -2.307  -8.416  0.00  0.00    -0.061 A 
ATOM     15  C   LIG d   1       9.330  -1.213  -8.786  0.00  0.00    -0.060 A 
ATOM     16  C   LIG d   1       9.269  -0.012  -8.096  0.00  0.00    -0.040 A 
ATOM     17  C   LIG d   1       8.405   0.053  -7.002  0.00  0.00     0.043 A 
ATOM     18  N   LIG d   1       8.150   1.109  -6.146  0.00  0.00    -0.264 N 
ATOM     19  C   LIG d   1       7.244   0.785  -5.198  0.00  0.00     0.260 A 
ATOM     20  O   LIG d   1       6.831   1.510  -4.319  0.00  0.00    -0.271 OA
ATOM     21  H   LIG d   1       7.121  -3.487  -3.663  0.00  0.00     0.044 H 
ATOM     22  H   LIG d   1       7.452  -3.234  -5.394  0.00  0.00     0.044 H 
ATOM     23  H   LIG d   1       6.738  -1.604  -2.223  0.00  0.00     0.044 H 
ATOM     24  H   LIG d   1       6.783   0.049  -2.885  0.00  0.00     0.044 H 
ATOM     25  H   LIG d   1       3.571  -0.287  -4.790  0.00  0.00     0.044 H 
ATOM     26  H   LIG d   1       4.904   0.830  -4.408  0.00  0.00     0.044 H 
ATOM     27  H   LIG d   1       5.549  -2.468  -6.925  0.00  0.00     0.044 H 
ATOM     28  H   LIG d   1       3.933  -2.202  -6.227  0.00  0.00     0.044 H 
ATOM     29  H   LIG d   1       7.116  -3.110  -7.038  0.00  0.00     0.062 H 
ATOM     30  H   LIG d   1       8.654  -3.223  -8.984  0.00  0.00     0.062 H 
ATOM     31  H   LIG d   1       9.989  -1.297  -9.637  0.00  0.00     0.062 H 
ATOM     32  H   LIG d   1       9.865   0.837  -8.395  0.00  0.00     0.064 H 
ENDROOT
BRANCH  18  33
ATOM     33  C   LIG d   1       8.786   2.425  -6.256  0.00  0.00     0.045 C 
ATOM     34  H   LIG d   1       9.465   2.429  -7.108  0.00  0.00     0.052 H 
ATOM     35  H   LIG d   1       8.021   3.188  -6.396  0.00  0.00     0.052 H 
BRANCH  33  36
ATOM     36  C   LIG d   1       9.559   2.716  -4.994  0.00  0.00    -0.030 A 
ATOM     37  C   LIG d   1       9.258   3.835  -4.242  0.00  0.00    -0.057 A 
ATOM     38  C   LIG d   1       9.964   4.099  -3.083  0.00  0.00    -0.061 A 
ATOM     39  H   LIG d   1       8.469   4.502  -4.558  0.00  0.00     0.062 H 
ATOM     40  C   LIG d   1      10.976   3.249  -2.682  0.00  0.00    -0.062 A 
ATOM     41  H   LIG d   1       9.725   4.972  -2.493  0.00  0.00     0.062 H 
ATOM     42  C   LIG d   1      11.282   2.132  -3.438  0.00  0.00    -0.061 A 
ATOM     43  H   LIG d   1      11.530   3.457  -1.778  0.00  0.00     0.062 H 
ATOM     44  C   LIG d   1      10.573   1.865  -4.594  0.00  0.00    -0.057 A 
ATOM     45  H   LIG d   1      12.073   1.467  -3.124  0.00  0.00     0.062 H 
ATOM     46  H   LIG d   1      10.811   0.993  -5.184  0.00  0.00     0.062 H 
ENDBRANCH  33  36
ENDBRANCH  18  33
BRANCH   1  47
ATOM     47  C   LIG d   1       4.999  -4.497  -5.115  0.00  0.00    -0.050 C 
ATOM     48  H   LIG d   1       3.916  -4.612  -5.057  0.00  0.00     0.024 H 
ATOM     49  H   LIG d   1       5.342  -4.783  -6.109  0.00  0.00     0.024 H 
ATOM     50  H   LIG d   1       5.472  -5.135  -4.369  0.00  0.00     0.024 H 
ENDBRANCH   1  47
BRANCH   5  51
ATOM     51  C   LIG d   1       4.192  -0.540  -2.089  0.00  0.00    -0.050 C 
ATOM     52  H   LIG d   1       4.671   0.357  -1.695  0.00  0.00     0.024 H 
ATOM     53  H   LIG d   1       3.165  -0.308  -2.374  0.00  0.00     0.024 H 
ATOM     54  H   LIG d   1       4.190  -1.316  -1.324  0.00  0.00     0.024 H 
ENDBRANCH   5  51
TORSDOF 4
ENDMDL
MODEL 10
REMARK VINA RESULT:      -6.4      3.969      5.608
REMARK  4 active torsions:
REMARK  status: ('A' for Active; 'I' for Inactive)
REMARK    1  A    between atoms: C_1  and  C_2 
REMARK    2  A    between atoms: C_6  and  C_29 
REMARK    3  A    between atoms: N_19  and  C_22 
REMARK    4  A    between atoms: C_22  and  C_23 
ROOT
ATOM      1  C   LIG d   1      11.387   0.556  -6.417  0.00  0.00     0.052 C 
ATOM      2  C   LIG d   1      10.736  -0.602  -7.190  0.00  0.00     0.015 C 
ATOM      3  N   LIG d   1       9.281  -0.398  -7.237  0.00  0.00    -0.271 N 
ATOM      4  C   LIG d   1       8.922   0.819  -7.978  0.00  0.00     0.015 C 
ATOM      5  C   LIG d   1       9.483   2.047  -7.245  0.00  0.00     0.052 C 
ATOM      6  C   LIG d   1      10.991   1.839  -7.139  0.00  0.00     0.150 C 
ATOM      7  O   LIG d   1      11.796   2.611  -7.602  0.00  0.00    -0.296 OA
ATOM      8  C   LIG d   1       8.938   2.046  -5.808  0.00  0.00     0.015 C 
ATOM      9  N   LIG d   1       9.297   0.780  -5.151  0.00  0.00    -0.271 N 
ATOM     10  C   LIG d   1      10.774   0.637  -5.009  0.00  0.00     0.015 C 
ATOM     11  C   LIG d   1       8.724  -0.356  -5.880  0.00  0.00     0.182 A 
ATOM     12  C   LIG d   1       8.970  -1.643  -5.158  0.00  0.00     0.018 A 
ATOM     13  C   LIG d   1      10.136  -2.285  -4.805  0.00  0.00    -0.053 A 
ATOM     14  C   LIG d   1      10.012  -3.491  -4.125  0.00  0.00    -0.061 A 
ATOM     15  C   LIG d   1       8.774  -4.019  -3.820  0.00  0.00    -0.060 A 
ATOM     16  C   LIG d   1       7.596  -3.379  -4.171  0.00  0.00    -0.040 A 
ATOM     17  C   LIG d   1       7.707  -2.166  -4.853  0.00  0.00     0.043 A 
ATOM     18  N   LIG d   1       6.712  -1.326  -5.319  0.00  0.00    -0.264 N 
ATOM     19  C   LIG d   1       7.217  -0.236  -5.936  0.00  0.00     0.260 A 
ATOM     20  O   LIG d   1       6.583   0.666  -6.439  0.00  0.00    -0.271 OA
ATOM     21  H   LIG d   1      11.132  -0.629  -8.205  0.00  0.00     0.044 H 
ATOM     22  H   LIG d   1      10.955  -1.544  -6.688  0.00  0.00     0.044 H 
ATOM     23  H   LIG d   1       9.343   0.771  -8.983  0.00  0.00     0.044 H 
ATOM     24  H   LIG d   1       7.836   0.899  -8.042  0.00  0.00     0.044 H 
ATOM     25  H   LIG d   1       9.372   2.878  -5.253  0.00  0.00     0.044 H 
ATOM     26  H   LIG d   1       7.854   2.149  -5.829  0.00  0.00     0.044 H 
ATOM     27  H   LIG d   1      10.995  -0.280  -4.463  0.00  0.00     0.044 H 
ATOM     28  H   LIG d   1      11.198   1.490  -4.478  0.00  0.00     0.044 H 
ATOM     29  H   LIG d   1      11.105  -1.870  -5.045  0.00  0.00     0.062 H 
ATOM     30  H   LIG d   1      10.903  -4.027  -3.831  0.00  0.00     0.062 H 
ATOM     31  H   LIG d   1       8.722  -4.960  -3.291  0.00  0.00     0.062 H 
ATOM     32  H   LIG d   1       6.632  -3.801  -3.925  0.00  0.00     0.064 H 
ENDROOT
BRANCH  18  33
ATOM     33  C   LIG d   1       5.279  -1.587  -5.161  0.00  0.00     0.045 C 
ATOM     34  H   LIG d   1       4.770  -1.406  -6.108  0.00  0.00     0.052 H 
ATOM     35  H   LIG d   1       5.129  -2.624  -4.860  0.00  0.00     0.052 H 
BRANCH  33  36
ATOM     36  C   LIG d   1       4.715  -0.671  -4.103  0.00  0.00    -0.030 A 
ATOM     37  C   LIG d   1       3.702   0.213  -4.424  0.00  0.00    -0.057 A 
ATOM     38  C   LIG d   1       3.182   1.049  -3.454  0.00  0.00    -0.061 A 
ATOM     39  H   LIG d   1       3.315   0.249  -5.432  0.00  0.00     0.062 H 
ATOM     40  C   LIG d   1       3.682   1.008  -2.166  0.00  0.00    -0.062 A 
ATOM     41  H   LIG d   1       2.388   1.737  -3.704  0.00  0.00     0.062 H 
ATOM     42  C   LIG d   1       4.699   0.128  -1.847  0.00  0.00    -0.061 A 
ATOM     43  H   LIG d   1       3.278   1.664  -1.409  0.00  0.00     0.062 H 
ATOM     44  C   LIG d   1       5.216  -0.712  -2.816  0.00  0.00    -0.057 A 
ATOM     45  H   LIG d   1       5.089   0.095  -0.841  0.00  0.00     0.062 H 
ATOM     46  H   LIG d   1       6.010  -1.400  -2.566  0.00  0.00     0.062 H 
ENDBRANCH  33  36
ENDBRANCH  18  33
BRANCH   1  47
ATOM     47  C   LIG d   1      12.908   0.397  -6.354  0.00  0.00    -0.050 C 
ATOM     48  H   LIG d   1      13.188  -0.028  -5.390  0.00  0.00     0.024 H 
ATOM     49  H   LIG d   1      13.238  -0.266  -7.153  0.00  0.00     0.024 H 
ATOM     50  H   LIG d   1      13.379   1.372  -6.472  0.00  0.00     0.024 H 
ENDBRANCH   1  47
BRANCH   5  51
ATOM     51  C   LIG d   1       9.149   3.341  -7.988  0.00  0.00    -0.050 C 
ATOM     52  H   LIG d   1       9.451   4.196  -7.383  0.00  0.00     0.024 H 
ATOM     53  H   LIG d   1       9.681   3.363  -8.939  0.00  0.00     0.024 H 
ATOM     54  H   LIG d   1       8.075   3.388  -8.172  0.00  0.00     0.024 H 
ENDBRANCH   5  51
TORSDOF 4
ENDMDL
