MODEL 1
REMARK VINA RESULT:      -6.7      0.000      0.000
REMARK  6 active torsions:
REMARK  status: ('A' for Active; 'I' for Inactive)
REMARK    1  A    between atoms: C_1  and  C_2 
REMARK    2  A    between atoms: C_5  and  C_8 
REMARK    3  A    between atoms: C_8  and  C_10 
REMARK    4  A    between atoms: C_11  and  C_29 
REMARK    5  A    between atoms: C_14  and  N_19 
REMARK       I    between atoms: N_19  and  C_20 
REMARK    6  A    between atoms: C_20  and  C_22 
ROOT
ATOM      1  C   LIG d   1       4.932  -9.843  -7.186  0.00  0.00     0.179 A 
ATOM      2  C   LIG d   1       4.812  -9.293  -5.948  0.00  0.00     0.006 A 
ATOM      3  C   LIG d   1       4.689  -7.851  -6.154  0.00  0.00     0.025 A 
ATOM      4  C   LIG d   1       4.544  -6.754  -5.301  0.00  0.00    -0.029 A 
ATOM      5  C   LIG d   1       4.450  -5.483  -5.834  0.00  0.00     0.035 A 
ATOM      6  C   LIG d   1       4.510  -5.297  -7.215  0.00  0.00    -0.037 A 
ATOM      7  C   LIG d   1       4.657  -6.372  -8.063  0.00  0.00    -0.017 A 
ATOM      8  C   LIG d   1       4.749  -7.659  -7.548  0.00  0.00     0.136 A 
ATOM      9  O   LIG d   1       4.893  -8.871  -8.121  0.00  0.00    -0.451 OA
ATOM     10  H   LIG d   1       4.501  -6.900  -4.231  0.00  0.00     0.064 H 
ATOM     11  H   LIG d   1       4.440  -4.300  -7.623  0.00  0.00     0.064 H 
ATOM     12  H   LIG d   1       4.702  -6.213  -9.130  0.00  0.00     0.066 H 
ENDROOT
BRANCH   1  13
ATOM     13  C   LIG d   1       5.081 -11.277  -7.463  0.00  0.00     0.228 C 
ATOM     14  O   LIG d   1       6.192 -11.768  -7.544  0.00  0.00    -0.283 OA
BRANCH  13  15
ATOM     15  C   LIG d   1       3.883 -12.123  -7.645  0.00  0.00     0.025 A 
ATOM     16  C   LIG d   1       3.373 -12.855  -6.571  0.00  0.00    -0.051 A 
ATOM     17  C   LIG d   1       2.254 -13.642  -6.746  0.00  0.00    -0.058 A 
ATOM     18  H   LIG d   1       3.851 -12.804  -5.604  0.00  0.00     0.062 H 
ATOM     19  C   LIG d   1       1.639 -13.709  -7.984  0.00  0.00    -0.050 A 
ATOM     20  H   LIG d   1       1.857 -14.208  -5.916  0.00  0.00     0.062 H 
ATOM     21  C   LIG d   1       2.140 -12.987  -9.052  0.00  0.00    -0.058 A 
ATOM     22  C   LIG d   1       3.254 -12.191  -8.889  0.00  0.00    -0.051 A 
ATOM     23  H   LIG d   1       1.655 -13.044 -10.016  0.00  0.00     0.062 H 
ATOM     24  H   LIG d   1       3.642 -11.625  -9.723  0.00  0.00     0.062 H 
BRANCH  19  25
ATOM     25  C   LIG d   1       0.417 -14.571  -8.169  0.00  0.00    -0.040 C 
ATOM     26  H   LIG d   1      -0.071 -14.313  -9.109  0.00  0.00     0.028 H 
ATOM     27  H   LIG d   1       0.710 -15.620  -8.187  0.00  0.00     0.028 H 
ATOM     28  H   LIG d   1      -0.275 -14.402  -7.342  0.00  0.00     0.028 H 
ENDBRANCH  19  25
ENDBRANCH  13  15
ENDBRANCH   1  13
BRANCH   2  29
ATOM     29  C   LIG d   1       4.806 -10.022  -4.628  0.00  0.00    -0.035 C 
ATOM     30  H   LIG d   1       5.484  -9.524  -3.934  0.00  0.00     0.028 H 
ATOM     31  H   LIG d   1       3.797 -10.019  -4.216  0.00  0.00     0.028 H 
ATOM     32  H   LIG d   1       5.134 -11.051  -4.780  0.00  0.00     0.028 H 
ENDBRANCH   2  29
BRANCH   5  33
ATOM     33  N   LIG d   1       4.300  -4.379  -4.986  0.00  0.00    -0.281 N 
ATOM     34  C   LIG d   1       5.379  -3.657  -4.624  0.00  0.00     0.248 C 
ATOM     35  O   LIG d   1       6.492  -4.019  -4.953  0.00  0.00    -0.270 OA
ATOM     36  H   LIG d   1       3.421  -4.134  -4.660  0.00  0.00     0.155 HD
BRANCH  34  37
ATOM     37  C   LIG d   1       5.208  -2.427  -3.822  0.00  0.00     0.037 A 
ATOM     38  C   LIG d   1       6.138  -1.390  -3.924  0.00  0.00    -0.048 A 
ATOM     39  C   LIG d   1       5.974  -0.245  -3.173  0.00  0.00    -0.043 A 
ATOM     40  H   LIG d   1       6.985  -1.485  -4.588  0.00  0.00     0.062 H 
ATOM     41  C   LIG d   1       4.890  -0.122  -2.320  0.00  0.00     0.041 A 
ATOM     42  H   LIG d   1       6.693   0.558  -3.250  0.00  0.00     0.063 H 
ATOM     43  C   LIG d   1       3.964  -1.148  -2.214  0.00  0.00    -0.043 A 
ATOM     44 CL   LIG d   1       4.690   1.323  -1.378  0.00  0.00    -0.084 Cl
ATOM     45  C   LIG d   1       4.115  -2.295  -2.964  0.00  0.00    -0.048 A 
ATOM     46  H   LIG d   1       3.122  -1.047  -1.547  0.00  0.00     0.063 H 
ATOM     47  H   LIG d   1       3.391  -3.092  -2.885  0.00  0.00     0.062 H 
ENDBRANCH  34  37
ENDBRANCH   5  33
TORSDOF 6
ENDMDL
MODEL 2
REMARK VINA RESULT:      -6.7      7.686     13.240
REMARK  6 active torsions:
REMARK  status: ('A' for Active; 'I' for Inactive)
REMARK    1  A    between atoms: C_1  and  C_2 
REMARK    2  A    between atoms: C_5  and  C_8 
REMARK    3  A    between atoms: C_8  and  C_10 
REMARK    4  A    between atoms: C_11  and  C_29 
REMARK    5  A    between atoms: C_14  and  N_19 
REMARK       I    between atoms: N_19  and  C_20 
REMARK    6  A    between atoms: C_20  and  C_22 
ROOT
ATOM      1  C   LIG d   1       9.007   1.823  -3.936  0.00  0.00     0.179 A 
ATOM      2  C   LIG d   1       8.756   1.406  -5.206  0.00  0.00     0.006 A 
ATOM      3  C   LIG d   1       7.451   0.749  -5.166  0.00  0.00     0.025 A 
ATOM      4  C   LIG d   1       6.650   0.117  -6.122  0.00  0.00    -0.029 A 
ATOM      5  C   LIG d   1       5.431  -0.413  -5.746  0.00  0.00     0.035 A 
ATOM      6  C   LIG d   1       5.009  -0.327  -4.420  0.00  0.00    -0.037 A 
ATOM      7  C   LIG d   1       5.793   0.290  -3.471  0.00  0.00    -0.017 A 
ATOM      8  C   LIG d   1       7.021   0.834  -3.828  0.00  0.00     0.136 A 
ATOM      9  O   LIG d   1       7.978   1.482  -3.133  0.00  0.00    -0.451 OA
ATOM     10  H   LIG d   1       6.981   0.048  -7.148  0.00  0.00     0.064 H 
ATOM     11  H   LIG d   1       4.056  -0.749  -4.134  0.00  0.00     0.064 H 
ATOM     12  H   LIG d   1       5.454   0.350  -2.448  0.00  0.00     0.066 H 
ENDROOT
BRANCH   1  13
ATOM     13  C   LIG d   1      10.214   2.538  -3.504  0.00  0.00     0.228 C 
ATOM     14  O   LIG d   1      11.277   1.950  -3.437  0.00  0.00    -0.283 OA
BRANCH  13  15
ATOM     15  C   LIG d   1      10.138   3.971  -3.149  0.00  0.00     0.025 A 
ATOM     16  C   LIG d   1      10.664   4.422  -1.937  0.00  0.00    -0.051 A 
ATOM     17  C   LIG d   1      10.591   5.761  -1.612  0.00  0.00    -0.058 A 
ATOM     18  H   LIG d   1      11.130   3.726  -1.255  0.00  0.00     0.062 H 
ATOM     19  C   LIG d   1       9.995   6.656  -2.483  0.00  0.00    -0.050 A 
ATOM     20  H   LIG d   1      10.999   6.111  -0.675  0.00  0.00     0.062 H 
ATOM     21  C   LIG d   1       9.471   6.215  -3.686  0.00  0.00    -0.058 A 
ATOM     22  C   LIG d   1       9.543   4.880  -4.026  0.00  0.00    -0.051 A 
ATOM     23  H   LIG d   1       9.007   6.918  -4.361  0.00  0.00     0.062 H 
ATOM     24  H   LIG d   1       9.137   4.538  -4.966  0.00  0.00     0.062 H 
BRANCH  19  25
ATOM     25  C   LIG d   1       9.918   8.116  -2.123  0.00  0.00    -0.040 C 
ATOM     26  H   LIG d   1       8.886   8.456  -2.200  0.00  0.00     0.028 H 
ATOM     27  H   LIG d   1      10.272   8.259  -1.102  0.00  0.00     0.028 H 
ATOM     28  H   LIG d   1      10.543   8.692  -2.807  0.00  0.00     0.028 H 
ENDBRANCH  19  25
ENDBRANCH  13  15
ENDBRANCH   1  13
BRANCH   2  29
ATOM     29  C   LIG d   1       9.644   1.585  -6.411  0.00  0.00    -0.035 C 
ATOM     30  H   LIG d   1       9.430   2.545  -6.881  0.00  0.00     0.028 H 
ATOM     31  H   LIG d   1      10.688   1.557  -6.100  0.00  0.00     0.028 H 
ATOM     32  H   LIG d   1       9.455   0.782  -7.123  0.00  0.00     0.028 H 
ENDBRANCH   2  29
BRANCH   5  33
ATOM     33  N   LIG d   1       4.621  -1.044  -6.698  0.00  0.00    -0.281 N 
ATOM     34  C   LIG d   1       3.746  -0.321  -7.424  0.00  0.00     0.248 C 
ATOM     35  O   LIG d   1       3.590   0.861  -7.187  0.00  0.00    -0.270 OA
ATOM     36  H   LIG d   1       4.690  -2.002  -6.834  0.00  0.00     0.155 HD
BRANCH  34  37
ATOM     37  C   LIG d   1       2.973  -0.967  -8.506  0.00  0.00     0.037 A 
ATOM     38  C   LIG d   1       2.039  -0.228  -9.236  0.00  0.00    -0.048 A 
ATOM     39  C   LIG d   1       1.321  -0.835 -10.244  0.00  0.00    -0.043 A 
ATOM     40  H   LIG d   1       1.880   0.816  -9.011  0.00  0.00     0.062 H 
ATOM     41  C   LIG d   1       1.523  -2.175 -10.533  0.00  0.00     0.041 A 
ATOM     42  H   LIG d   1       0.597  -0.266 -10.809  0.00  0.00     0.063 H 
ATOM     43  C   LIG d   1       2.448  -2.913  -9.812  0.00  0.00    -0.043 A 
ATOM     44 CL   LIG d   1       0.615  -2.932 -11.804  0.00  0.00    -0.084 Cl
ATOM     45  C   LIG d   1       3.176  -2.315  -8.805  0.00  0.00    -0.048 A 
ATOM     46  H   LIG d   1       2.601  -3.956 -10.041  0.00  0.00     0.063 H 
ATOM     47  H   LIG d   1       3.900  -2.889  -8.246  0.00  0.00     0.062 H 
ENDBRANCH  34  37
ENDBRANCH   5  33
TORSDOF 6
ENDMDL
MODEL 3
REMARK VINA RESULT:      -6.5      9.704     13.976
REMARK  6 active torsions:
REMARK  status: ('A' for Active; 'I' for Inactive)
REMARK    1  A    between atoms: C_1  and  C_2 
REMARK    2  A    between atoms: C_5  and  C_8 
REMARK    3  A    between atoms: C_8  and  C_10 
REMARK    4  A    between atoms: C_11  and  C_29 
REMARK    5  A    between atoms: C_14  and  N_19 
REMARK       I    between atoms: N_19  and  C_20 
REMARK    6  A    between atoms: C_20  and  C_22 
ROOT
ATOM      1  C   LIG d   1       9.962   2.907  -5.121  0.00  0.00     0.179 A 
ATOM      2  C   LIG d   1       8.877   2.090  -5.062  0.00  0.00     0.006 A 
ATOM      3  C   LIG d   1       8.413   1.932  -6.439  0.00  0.00     0.025 A 
ATOM      4  C   LIG d   1       7.360   1.236  -7.037  0.00  0.00    -0.029 A 
ATOM      5  C   LIG d   1       7.196   1.293  -8.408  0.00  0.00     0.035 A 
ATOM      6  C   LIG d   1       8.070   2.052  -9.187  0.00  0.00    -0.037 A 
ATOM      7  C   LIG d   1       9.108   2.745  -8.605  0.00  0.00    -0.017 A 
ATOM      8  C   LIG d   1       9.294   2.697  -7.229  0.00  0.00     0.136 A 
ATOM      9  O   LIG d   1      10.199   3.258  -6.402  0.00  0.00    -0.451 OA
ATOM     10  H   LIG d   1       6.681   0.651  -6.433  0.00  0.00     0.064 H 
ATOM     11  H   LIG d   1       7.931   2.095 -10.257  0.00  0.00     0.064 H 
ATOM     12  H   LIG d   1       9.777   3.328  -9.219  0.00  0.00     0.066 H 
ENDROOT
BRANCH   1  13
ATOM     13  C   LIG d   1      10.757   3.342  -3.966  0.00  0.00     0.228 C 
ATOM     14  O   LIG d   1      11.720   2.689  -3.610  0.00  0.00    -0.283 OA
BRANCH  13  15
ATOM     15  C   LIG d   1      10.387   4.572  -3.234  0.00  0.00     0.025 A 
ATOM     16  C   LIG d   1       9.703   5.598  -3.889  0.00  0.00    -0.051 A 
ATOM     17  C   LIG d   1       9.359   6.744  -3.201  0.00  0.00    -0.058 A 
ATOM     18  H   LIG d   1       9.442   5.496  -4.933  0.00  0.00     0.062 H 
ATOM     19  C   LIG d   1       9.692   6.877  -1.865  0.00  0.00    -0.050 A 
ATOM     20  H   LIG d   1       8.830   7.538  -3.707  0.00  0.00     0.062 H 
ATOM     21  C   LIG d   1      10.370   5.864  -1.210  0.00  0.00    -0.058 A 
ATOM     22  C   LIG d   1      10.714   4.711  -1.884  0.00  0.00    -0.051 A 
ATOM     23  H   LIG d   1      10.627   5.975  -0.167  0.00  0.00     0.062 H 
ATOM     24  H   LIG d   1      11.240   3.920  -1.371  0.00  0.00     0.062 H 
BRANCH  19  25
ATOM     25  C   LIG d   1       9.314   8.130  -1.119  0.00  0.00    -0.040 C 
ATOM     26  H   LIG d   1       8.618   7.881  -0.318  0.00  0.00     0.028 H 
ATOM     27  H   LIG d   1      10.209   8.585  -0.694  0.00  0.00     0.028 H 
ATOM     28  H   LIG d   1       8.841   8.833  -1.806  0.00  0.00     0.028 H 
ENDBRANCH  19  25
ENDBRANCH  13  15
ENDBRANCH   1  13
BRANCH   2  29
ATOM     29  C   LIG d   1       8.273   1.472  -3.827  0.00  0.00    -0.035 C 
ATOM     30  H   LIG d   1       8.682   0.470  -3.685  0.00  0.00     0.028 H 
ATOM     31  H   LIG d   1       8.510   2.087  -2.960  0.00  0.00     0.028 H 
ATOM     32  H   LIG d   1       7.192   1.409  -3.943  0.00  0.00     0.028 H 
ENDBRANCH   2  29
BRANCH   5  33
ATOM     33  N   LIG d   1       6.146   0.595  -9.016  0.00  0.00    -0.281 N 
ATOM     34  C   LIG d   1       4.957   1.200  -9.210  0.00  0.00     0.248 C 
ATOM     35  O   LIG d   1       4.765   2.317  -8.771  0.00  0.00    -0.270 OA
ATOM     36  H   LIG d   1       6.274  -0.324  -9.298  0.00  0.00     0.155 HD
BRANCH  34  37
ATOM     37  C   LIG d   1       3.886   0.502  -9.952  0.00  0.00     0.037 A 
ATOM     38  C   LIG d   1       4.095   0.102 -11.274  0.00  0.00    -0.048 A 
ATOM     39  C   LIG d   1       3.092  -0.549 -11.960  0.00  0.00    -0.043 A 
ATOM     40  H   LIG d   1       5.039   0.304 -11.757  0.00  0.00     0.062 H 
ATOM     41  C   LIG d   1       1.880  -0.807 -11.342  0.00  0.00     0.041 A 
ATOM     42  H   LIG d   1       3.252  -0.858 -12.983  0.00  0.00     0.063 H 
ATOM     43  C   LIG d   1       1.666  -0.413 -10.031  0.00  0.00    -0.043 A 
ATOM     44 CL   LIG d   1       0.622  -1.628 -12.214  0.00  0.00    -0.084 Cl
ATOM     45  C   LIG d   1       2.664   0.234  -9.333  0.00  0.00    -0.048 A 
ATOM     46  H   LIG d   1       0.719  -0.616  -9.555  0.00  0.00     0.063 H 
ATOM     47  H   LIG d   1       2.499   0.537  -8.309  0.00  0.00     0.062 H 
ENDBRANCH  34  37
ENDBRANCH   5  33
TORSDOF 6
ENDMDL
MODEL 4
REMARK VINA RESULT:      -6.4      7.398     10.161
REMARK  6 active torsions:
REMARK  status: ('A' for Active; 'I' for Inactive)
REMARK    1  A    between atoms: C_1  and  C_2 
REMARK    2  A    between atoms: C_5  and  C_8 
REMARK    3  A    between atoms: C_8  and  C_10 
REMARK    4  A    between atoms: C_11  and  C_29 
REMARK    5  A    between atoms: C_14  and  N_19 
REMARK       I    between atoms: N_19  and  C_20 
REMARK    6  A    between atoms: C_20  and  C_22 
ROOT
ATOM      1  C   LIG d   1       6.272  -0.967  -5.519  0.00  0.00     0.179 A 
ATOM      2  C   LIG d   1       6.238  -0.160  -4.425  0.00  0.00     0.006 A 
ATOM      3  C   LIG d   1       7.497   0.583  -4.430  0.00  0.00     0.025 A 
ATOM      4  C   LIG d   1       8.062   1.546  -3.590  0.00  0.00    -0.029 A 
ATOM      5  C   LIG d   1       9.307   2.066  -3.891  0.00  0.00     0.035 A 
ATOM      6  C   LIG d   1       9.998   1.623  -5.018  0.00  0.00    -0.037 A 
ATOM      7  C   LIG d   1       9.450   0.671  -5.849  0.00  0.00    -0.017 A 
ATOM      8  C   LIG d   1       8.198   0.139  -5.568  0.00  0.00     0.136 A 
ATOM      9  O   LIG d   1       7.430  -0.782  -6.185  0.00  0.00    -0.451 OA
ATOM     10  H   LIG d   1       7.528   1.886  -2.715  0.00  0.00     0.064 H 
ATOM     11  H   LIG d   1      10.972   2.031  -5.242  0.00  0.00     0.064 H 
ATOM     12  H   LIG d   1       9.995   0.337  -6.719  0.00  0.00     0.066 H 
ENDROOT
BRANCH   1  13
ATOM     13  C   LIG d   1       5.208  -1.898  -5.915  0.00  0.00     0.228 C 
ATOM     14  O   LIG d   1       5.114  -2.981  -5.370  0.00  0.00    -0.283 OA
BRANCH  13  15
ATOM     15  C   LIG d   1       4.253  -1.519  -6.978  0.00  0.00     0.025 A 
ATOM     16  C   LIG d   1       4.062  -2.355  -8.080  0.00  0.00    -0.051 A 
ATOM     17  C   LIG d   1       3.168  -1.997  -9.068  0.00  0.00    -0.058 A 
ATOM     18  H   LIG d   1       4.612  -3.281  -8.159  0.00  0.00     0.062 H 
ATOM     19  C   LIG d   1       2.463  -0.811  -8.969  0.00  0.00    -0.050 A 
ATOM     20  H   LIG d   1       3.020  -2.643  -9.921  0.00  0.00     0.062 H 
ATOM     21  C   LIG d   1       2.647   0.022  -7.879  0.00  0.00    -0.058 A 
ATOM     22  C   LIG d   1       3.533  -0.327  -6.882  0.00  0.00    -0.051 A 
ATOM     23  H   LIG d   1       2.093   0.947  -7.808  0.00  0.00     0.062 H 
ATOM     24  H   LIG d   1       3.673   0.322  -6.030  0.00  0.00     0.062 H 
BRANCH  19  25
ATOM     25  C   LIG d   1       1.488  -0.425 -10.051  0.00  0.00    -0.040 C 
ATOM     26  H   LIG d   1       1.961   0.280 -10.733  0.00  0.00     0.028 H 
ATOM     27  H   LIG d   1       1.184  -1.315 -10.601  0.00  0.00     0.028 H 
ATOM     28  H   LIG d   1       0.610   0.039  -9.599  0.00  0.00     0.028 H 
ENDBRANCH  19  25
ENDBRANCH  13  15
ENDBRANCH   1  13
BRANCH   2  29
ATOM     29  C   LIG d   1       5.128  -0.052  -3.411  0.00  0.00    -0.035 C 
ATOM     30  H   LIG d   1       5.174  -0.903  -2.730  0.00  0.00     0.028 H 
ATOM     31  H   LIG d   1       5.241   0.872  -2.845  0.00  0.00     0.028 H 
ATOM     32  H   LIG d   1       4.166  -0.050  -3.924  0.00  0.00     0.028 H 
ENDBRANCH   2  29
BRANCH   5  33
ATOM     33  N   LIG d   1       9.879   3.035  -3.057  0.00  0.00    -0.281 N 
ATOM     34  C   LIG d   1       9.695   4.344  -3.320  0.00  0.00     0.248 C 
ATOM     35  O   LIG d   1       9.117   4.685  -4.334  0.00  0.00    -0.270 OA
ATOM     36  H   LIG d   1      10.406   2.764  -2.289  0.00  0.00     0.155 HD
BRANCH  34  37
ATOM     37  C   LIG d   1      10.203   5.365  -2.379  0.00  0.00     0.037 A 
ATOM     38  C   LIG d   1       9.551   6.594  -2.262  0.00  0.00    -0.048 A 
ATOM     39  C   LIG d   1      10.029   7.543  -1.381  0.00  0.00    -0.043 A 
ATOM     40  H   LIG d   1       8.676   6.802  -2.859  0.00  0.00     0.062 H 
ATOM     41  C   LIG d   1      11.152   7.277  -0.615  0.00  0.00     0.041 A 
ATOM     42  H   LIG d   1       9.527   8.494  -1.290  0.00  0.00     0.063 H 
ATOM     43  C   LIG d   1      11.802   6.059  -0.727  0.00  0.00    -0.043 A 
ATOM     44 CL   LIG d   1      11.746   8.477   0.491  0.00  0.00    -0.084 Cl
ATOM     45  C   LIG d   1      11.331   5.101  -1.600  0.00  0.00    -0.048 A 
ATOM     46  H   LIG d   1      12.677   5.859  -0.128  0.00  0.00     0.063 H 
ATOM     47  H   LIG d   1      11.836   4.150  -1.684  0.00  0.00     0.062 H 
ENDBRANCH  34  37
ENDBRANCH   5  33
TORSDOF 6
ENDMDL
MODEL 5
REMARK VINA RESULT:      -6.4      9.024     13.529
REMARK  6 active torsions:
REMARK  status: ('A' for Active; 'I' for Inactive)
REMARK    1  A    between atoms: C_1  and  C_2 
REMARK    2  A    between atoms: C_5  and  C_8 
REMARK    3  A    between atoms: C_8  and  C_10 
REMARK    4  A    between atoms: C_11  and  C_29 
REMARK    5  A    between atoms: C_14  and  N_19 
REMARK       I    between atoms: N_19  and  C_20 
REMARK    6  A    between atoms: C_20  and  C_22 
ROOT
ATOM      1  C   LIG d   1       9.055   2.068  -4.214  0.00  0.00     0.179 A 
ATOM      2  C   LIG d   1       8.857   3.008  -5.176  0.00  0.00     0.006 A 
ATOM      3  C   LIG d   1       9.177   4.294  -4.558  0.00  0.00     0.025 A 
ATOM      4  C   LIG d   1       9.170   5.618  -5.005  0.00  0.00    -0.029 A 
ATOM      5  C   LIG d   1       9.543   6.631  -4.143  0.00  0.00     0.035 A 
ATOM      6  C   LIG d   1       9.912   6.334  -2.832  0.00  0.00    -0.037 A 
ATOM      7  C   LIG d   1       9.918   5.032  -2.381  0.00  0.00    -0.017 A 
ATOM      8  C   LIG d   1       9.552   3.998  -3.233  0.00  0.00     0.136 A 
ATOM      9  O   LIG d   1       9.464   2.662  -3.074  0.00  0.00    -0.451 OA
ATOM     10  H   LIG d   1       8.880   5.847  -6.020  0.00  0.00     0.064 H 
ATOM     11  H   LIG d   1      10.198   7.132  -2.163  0.00  0.00     0.064 H 
ATOM     12  H   LIG d   1      10.207   4.816  -1.363  0.00  0.00     0.066 H 
ENDROOT
BRANCH   1  13
ATOM     13  C   LIG d   1       8.854   0.624  -4.389  0.00  0.00     0.228 C 
ATOM     14  O   LIG d   1       9.708  -0.046  -4.938  0.00  0.00    -0.283 OA
BRANCH  13  15
ATOM     15  C   LIG d   1       7.615  -0.015  -3.898  0.00  0.00     0.025 A 
ATOM     16  C   LIG d   1       7.496  -1.406  -3.897  0.00  0.00    -0.051 A 
ATOM     17  C   LIG d   1       6.337  -1.996  -3.437  0.00  0.00    -0.058 A 
ATOM     18  H   LIG d   1       8.310  -2.020  -4.253  0.00  0.00     0.062 H 
ATOM     19  C   LIG d   1       5.293  -1.213  -2.980  0.00  0.00    -0.050 A 
ATOM     20  H   LIG d   1       6.245  -3.073  -3.434  0.00  0.00     0.062 H 
ATOM     21  C   LIG d   1       5.404   0.167  -2.979  0.00  0.00    -0.058 A 
ATOM     22  C   LIG d   1       6.559   0.770  -3.430  0.00  0.00    -0.051 A 
ATOM     23  H   LIG d   1       4.584   0.773  -2.621  0.00  0.00     0.062 H 
ATOM     24  H   LIG d   1       6.645   1.846  -3.426  0.00  0.00     0.062 H 
BRANCH  19  25
ATOM     25  C   LIG d   1       4.030  -1.863  -2.478  0.00  0.00    -0.040 C 
ATOM     26  H   LIG d   1       3.994  -2.898  -2.818  0.00  0.00     0.028 H 
ATOM     27  H   LIG d   1       4.015  -1.838  -1.389  0.00  0.00     0.028 H 
ATOM     28  H   LIG d   1       3.165  -1.323  -2.865  0.00  0.00     0.028 H 
ENDBRANCH  19  25
ENDBRANCH  13  15
ENDBRANCH   1  13
BRANCH   2  29
ATOM     29  C   LIG d   1       8.401   2.774  -6.593  0.00  0.00    -0.035 C 
ATOM     30  H   LIG d   1       9.113   3.226  -7.284  0.00  0.00     0.028 H 
ATOM     31  H   LIG d   1       8.340   1.703  -6.783  0.00  0.00     0.028 H 
ATOM     32  H   LIG d   1       7.419   3.225  -6.738  0.00  0.00     0.028 H 
ENDBRANCH   2  29
BRANCH   5  33
ATOM     33  N   LIG d   1       9.543   7.959  -4.585  0.00  0.00    -0.281 N 
ATOM     34  C   LIG d   1      10.456   8.369  -5.488  0.00  0.00     0.248 C 
ATOM     35  O   LIG d   1      11.339   7.614  -5.845  0.00  0.00    -0.270 OA
ATOM     36  H   LIG d   1       8.885   8.584  -4.242  0.00  0.00     0.155 HD
BRANCH  34  37
ATOM     37  C   LIG d   1      10.387   9.739  -6.038  0.00  0.00     0.037 A 
ATOM     38  C   LIG d   1      11.104  10.068  -7.191  0.00  0.00    -0.048 A 
ATOM     39  C   LIG d   1      11.035  11.347  -7.701  0.00  0.00    -0.043 A 
ATOM     40  H   LIG d   1      11.711   9.322  -7.681  0.00  0.00     0.062 H 
ATOM     41  C   LIG d   1      10.257  12.305  -7.072  0.00  0.00     0.041 A 
ATOM     42  H   LIG d   1      11.589  11.603  -8.591  0.00  0.00     0.063 H 
ATOM     43  C   LIG d   1       9.543  11.986  -5.928  0.00  0.00    -0.043 A 
ATOM     44 CL   LIG d   1      10.175  13.914  -7.720  0.00  0.00    -0.084 Cl
ATOM     45  C   LIG d   1       9.600  10.708  -5.412  0.00  0.00    -0.048 A 
ATOM     46  H   LIG d   1       8.939  12.737  -5.442  0.00  0.00     0.063 H 
ATOM     47  H   LIG d   1       9.040  10.458  -4.523  0.00  0.00     0.062 H 
ENDBRANCH  34  37
ENDBRANCH   5  33
TORSDOF 6
ENDMDL
MODEL 6
REMARK VINA RESULT:      -6.3      4.636      7.246
REMARK  6 active torsions:
REMARK  status: ('A' for Active; 'I' for Inactive)
REMARK    1  A    between atoms: C_1  and  C_2 
REMARK    2  A    between atoms: C_5  and  C_8 
REMARK    3  A    between atoms: C_8  and  C_10 
REMARK    4  A    between atoms: C_11  and  C_29 
REMARK    5  A    between atoms: C_14  and  N_19 
REMARK       I    between atoms: N_19  and  C_20 
REMARK    6  A    between atoms: C_20  and  C_22 
ROOT
ATOM      1  C   LIG d   1       4.905  -3.903  -5.162  0.00  0.00     0.179 A 
ATOM      2  C   LIG d   1       6.178  -3.454  -5.321  0.00  0.00     0.006 A 
ATOM      3  C   LIG d   1       6.255  -2.187  -4.596  0.00  0.00     0.025 A 
ATOM      4  C   LIG d   1       7.267  -1.247  -4.383  0.00  0.00    -0.029 A 
ATOM      5  C   LIG d   1       7.005  -0.124  -3.622  0.00  0.00     0.035 A 
ATOM      6  C   LIG d   1       5.735   0.075  -3.081  0.00  0.00    -0.037 A 
ATOM      7  C   LIG d   1       4.731  -0.844  -3.289  0.00  0.00    -0.017 A 
ATOM      8  C   LIG d   1       4.974  -1.983  -4.047  0.00  0.00     0.136 A 
ATOM      9  O   LIG d   1       4.205  -3.029  -4.409  0.00  0.00    -0.451 OA
ATOM     10  H   LIG d   1       8.249  -1.401  -4.805  0.00  0.00     0.064 H 
ATOM     11  H   LIG d   1       5.538   0.958  -2.492  0.00  0.00     0.064 H 
ATOM     12  H   LIG d   1       3.752  -0.678  -2.864  0.00  0.00     0.066 H 
ENDROOT
BRANCH   1  13
ATOM     13  C   LIG d   1       4.372  -5.150  -5.724  0.00  0.00     0.228 C 
ATOM     14  O   LIG d   1       4.163  -6.103  -4.997  0.00  0.00    -0.283 OA
BRANCH  13  15
ATOM     15  C   LIG d   1       4.090  -5.248  -7.171  0.00  0.00     0.025 A 
ATOM     16  C   LIG d   1       3.749  -4.105  -7.898  0.00  0.00    -0.051 A 
ATOM     17  C   LIG d   1       3.487  -4.203  -9.249  0.00  0.00    -0.058 A 
ATOM     18  H   LIG d   1       3.691  -3.146  -7.404  0.00  0.00     0.062 H 
ATOM     19  C   LIG d   1       3.560  -5.430  -9.884  0.00  0.00    -0.050 A 
ATOM     20  H   LIG d   1       3.224  -3.319  -9.812  0.00  0.00     0.062 H 
ATOM     21  C   LIG d   1       3.898  -6.566  -9.169  0.00  0.00    -0.058 A 
ATOM     22  C   LIG d   1       4.167  -6.482  -7.820  0.00  0.00    -0.051 A 
ATOM     23  H   LIG d   1       3.952  -7.521  -9.671  0.00  0.00     0.062 H 
ATOM     24  H   LIG d   1       4.433  -7.369  -7.264  0.00  0.00     0.062 H 
BRANCH  19  25
ATOM     25  C   LIG d   1       3.274  -5.530 -11.360  0.00  0.00    -0.040 C 
ATOM     26  H   LIG d   1       2.207  -5.393 -11.533  0.00  0.00     0.028 H 
ATOM     27  H   LIG d   1       3.831  -4.758 -11.891  0.00  0.00     0.028 H 
ATOM     28  H   LIG d   1       3.579  -6.512 -11.722  0.00  0.00     0.028 H 
ENDBRANCH  19  25
ENDBRANCH  13  15
ENDBRANCH   1  13
BRANCH   2  29
ATOM     29  C   LIG d   1       7.288  -4.126  -6.090  0.00  0.00    -0.035 C 
ATOM     30  H   LIG d   1       7.789  -3.391  -6.721  0.00  0.00     0.028 H 
ATOM     31  H   LIG d   1       8.005  -4.555  -5.391  0.00  0.00     0.028 H 
ATOM     32  H   LIG d   1       6.870  -4.915  -6.714  0.00  0.00     0.028 H 
ENDBRANCH   2  29
BRANCH   5  33
ATOM     33  N   LIG d   1       8.014   0.821  -3.400  0.00  0.00    -0.281 N 
ATOM     34  C   LIG d   1       8.189   1.837  -4.268  0.00  0.00     0.248 C 
ATOM     35  O   LIG d   1       7.537   1.880  -5.293  0.00  0.00    -0.270 OA
ATOM     36  H   LIG d   1       8.587   0.744  -2.622  0.00  0.00     0.155 HD
BRANCH  34  37
ATOM     37  C   LIG d   1       9.179   2.895  -3.976  0.00  0.00     0.037 A 
ATOM     38  C   LIG d   1      10.165   2.684  -3.010  0.00  0.00    -0.048 A 
ATOM     39  C   LIG d   1      11.086   3.675  -2.743  0.00  0.00    -0.043 A 
ATOM     40  H   LIG d   1      10.206   1.748  -2.474  0.00  0.00     0.062 H 
ATOM     41  C   LIG d   1      11.034   4.877  -3.429  0.00  0.00     0.041 A 
ATOM     42  H   LIG d   1      11.849   3.515  -1.996  0.00  0.00     0.063 H 
ATOM     43  C   LIG d   1      10.058   5.092  -4.389  0.00  0.00    -0.043 A 
ATOM     44 CL   LIG d   1      12.197   6.120  -3.087  0.00  0.00    -0.084 Cl
ATOM     45  C   LIG d   1       9.135   4.107  -4.668  0.00  0.00    -0.048 A 
ATOM     46  H   LIG d   1      10.021   6.031  -4.920  0.00  0.00     0.063 H 
ATOM     47  H   LIG d   1       8.376   4.273  -5.419  0.00  0.00     0.062 H 
ENDBRANCH  34  37
ENDBRANCH   5  33
TORSDOF 6
ENDMDL
MODEL 7
REMARK VINA RESULT:      -6.3      9.479     14.105
REMARK  6 active torsions:
REMARK  status: ('A' for Active; 'I' for Inactive)
REMARK    1  A    between atoms: C_1  and  C_2 
REMARK    2  A    between atoms: C_5  and  C_8 
REMARK    3  A    between atoms: C_8  and  C_10 
REMARK    4  A    between atoms: C_11  and  C_29 
REMARK    5  A    between atoms: C_14  and  N_19 
REMARK       I    between atoms: N_19  and  C_20 
REMARK    6  A    between atoms: C_20  and  C_22 
ROOT
ATOM      1  C   LIG d   1       9.430   3.175  -4.797  0.00  0.00     0.179 A 
ATOM      2  C   LIG d   1      10.137   3.459  -3.671  0.00  0.00     0.006 A 
ATOM      3  C   LIG d   1      10.145   4.916  -3.554  0.00  0.00     0.025 A 
ATOM      4  C   LIG d   1      10.696   5.816  -2.637  0.00  0.00    -0.029 A 
ATOM      5  C   LIG d   1      10.511   7.173  -2.819  0.00  0.00     0.035 A 
ATOM      6  C   LIG d   1       9.788   7.641  -3.916  0.00  0.00    -0.037 A 
ATOM      7  C   LIG d   1       9.246   6.761  -4.827  0.00  0.00    -0.017 A 
ATOM      8  C   LIG d   1       9.415   5.392  -4.660  0.00  0.00     0.136 A 
ATOM      9  O   LIG d   1       9.009   4.321  -5.371  0.00  0.00    -0.451 OA
ATOM     10  H   LIG d   1      11.258   5.452  -1.790  0.00  0.00     0.064 H 
ATOM     11  H   LIG d   1       9.652   8.703  -4.053  0.00  0.00     0.064 H 
ATOM     12  H   LIG d   1       8.688   7.137  -5.672  0.00  0.00     0.066 H 
ENDROOT
BRANCH   1  13
ATOM     13  C   LIG d   1       9.163   1.826  -5.311  0.00  0.00     0.228 C 
ATOM     14  O   LIG d   1       9.768   1.416  -6.284  0.00  0.00    -0.283 OA
BRANCH  13  15
ATOM     15  C   LIG d   1       8.161   0.966  -4.646  0.00  0.00     0.025 A 
ATOM     16  C   LIG d   1       8.176  -0.415  -4.850  0.00  0.00    -0.051 A 
ATOM     17  C   LIG d   1       7.238  -1.212  -4.226  0.00  0.00    -0.058 A 
ATOM     18  H   LIG d   1       8.920  -0.859  -5.495  0.00  0.00     0.062 H 
ATOM     19  C   LIG d   1       6.284  -0.645  -3.401  0.00  0.00    -0.050 A 
ATOM     20  H   LIG d   1       7.249  -2.280  -4.383  0.00  0.00     0.062 H 
ATOM     21  C   LIG d   1       6.264   0.724  -3.194  0.00  0.00    -0.058 A 
ATOM     22  C   LIG d   1       7.199   1.531  -3.807  0.00  0.00    -0.051 A 
ATOM     23  H   LIG d   1       5.516   1.160  -2.549  0.00  0.00     0.062 H 
ATOM     24  H   LIG d   1       7.184   2.598  -3.642  0.00  0.00     0.062 H 
BRANCH  19  25
ATOM     25  C   LIG d   1       5.263  -1.520  -2.722  0.00  0.00    -0.040 C 
ATOM     26  H   LIG d   1       5.646  -2.538  -2.651  0.00  0.00     0.028 H 
ATOM     27  H   LIG d   1       5.062  -1.136  -1.722  0.00  0.00     0.028 H 
ATOM     28  H   LIG d   1       4.340  -1.519  -3.303  0.00  0.00     0.028 H 
ENDBRANCH  19  25
ENDBRANCH  13  15
ENDBRANCH   1  13
BRANCH   2  29
ATOM     29  C   LIG d   1      10.782   2.472  -2.732  0.00  0.00    -0.035 C 
ATOM     30  H   LIG d   1      11.135   1.609  -3.299  0.00  0.00     0.028 H 
ATOM     31  H   LIG d   1      11.625   2.945  -2.230  0.00  0.00     0.028 H 
ATOM     32  H   LIG d   1      10.053   2.145  -1.990  0.00  0.00     0.028 H 
ENDBRANCH   2  29
BRANCH   5  33
ATOM     33  N   LIG d   1      11.056   8.081  -1.903  0.00  0.00    -0.281 N 
ATOM     34  C   LIG d   1      10.404   8.353  -0.755  0.00  0.00     0.248 C 
ATOM     35  O   LIG d   1       9.298   7.887  -0.558  0.00  0.00    -0.270 OA
ATOM     36  H   LIG d   1      11.902   8.513  -2.094  0.00  0.00     0.155 HD
BRANCH  34  37
ATOM     37  C   LIG d   1      11.031   9.224   0.262  0.00  0.00     0.037 A 
ATOM     38  C   LIG d   1      11.064  10.607   0.075  0.00  0.00    -0.048 A 
ATOM     39  C   LIG d   1      11.650  11.414   1.028  0.00  0.00    -0.043 A 
ATOM     40  H   LIG d   1      10.632  11.044  -0.813  0.00  0.00     0.062 H 
ATOM     41  C   LIG d   1      12.206  10.855   2.166  0.00  0.00     0.041 A 
ATOM     42  H   LIG d   1      11.677  12.484   0.884  0.00  0.00     0.063 H 
ATOM     43  C   LIG d   1      12.176   9.483   2.357  0.00  0.00    -0.043 A 
ATOM     44 CL   LIG d   1      12.941  11.879   3.361  0.00  0.00    -0.084 Cl
ATOM     45  C   LIG d   1      11.589   8.667   1.414  0.00  0.00    -0.048 A 
ATOM     46  H   LIG d   1      12.612   9.053   3.246  0.00  0.00     0.063 H 
ATOM     47  H   LIG d   1      11.562   7.598   1.565  0.00  0.00     0.062 H 
ENDBRANCH  34  37
ENDBRANCH   5  33
TORSDOF 6
ENDMDL
MODEL 8
REMARK VINA RESULT:      -6.2      8.070     10.622
REMARK  6 active torsions:
REMARK  status: ('A' for Active; 'I' for Inactive)
REMARK    1  A    between atoms: C_1  and  C_2 
REMARK    2  A    between atoms: C_5  and  C_8 
REMARK    3  A    between atoms: C_8  and  C_10 
REMARK    4  A    between atoms: C_11  and  C_29 
REMARK    5  A    between atoms: C_14  and  N_19 
REMARK       I    between atoms: N_19  and  C_20 
REMARK    6  A    between atoms: C_20  and  C_22 
ROOT
ATOM      1  C   LIG d   1       3.546  -1.316 -13.750  0.00  0.00     0.179 A 
ATOM      2  C   LIG d   1       4.337  -0.909 -12.721  0.00  0.00     0.006 A 
ATOM      3  C   LIG d   1       3.457  -0.783 -11.560  0.00  0.00     0.025 A 
ATOM      4  C   LIG d   1       3.651  -0.407 -10.228  0.00  0.00    -0.029 A 
ATOM      5  C   LIG d   1       2.577  -0.396  -9.359  0.00  0.00     0.035 A 
ATOM      6  C   LIG d   1       1.306  -0.748  -9.812  0.00  0.00    -0.037 A 
ATOM      7  C   LIG d   1       1.105  -1.116 -11.124  0.00  0.00    -0.017 A 
ATOM      8  C   LIG d   1       2.172  -1.138 -12.014  0.00  0.00     0.136 A 
ATOM      9  O   LIG d   1       2.274  -1.448 -13.322  0.00  0.00    -0.451 OA
ATOM     10  H   LIG d   1       4.636  -0.131  -9.879  0.00  0.00     0.064 H 
ATOM     11  H   LIG d   1       0.472  -0.733  -9.128  0.00  0.00     0.064 H 
ATOM     12  H   LIG d   1       0.116  -1.387 -11.462  0.00  0.00     0.066 H 
ENDROOT
BRANCH   1  13
ATOM     13  C   LIG d   1       4.008  -1.573 -15.120  0.00  0.00     0.228 C 
ATOM     14  O   LIG d   1       4.578  -2.615 -15.383  0.00  0.00    -0.283 OA
BRANCH  13  15
ATOM     15  C   LIG d   1       3.780  -0.566 -16.178  0.00  0.00     0.025 A 
ATOM     16  C   LIG d   1       4.607   0.554 -16.270  0.00  0.00    -0.051 A 
ATOM     17  C   LIG d   1       4.390   1.490 -17.260  0.00  0.00    -0.058 A 
ATOM     18  H   LIG d   1       5.418   0.689 -15.568  0.00  0.00     0.062 H 
ATOM     19  C   LIG d   1       3.353   1.321 -18.160  0.00  0.00    -0.050 A 
ATOM     20  H   LIG d   1       5.030   2.357 -17.332  0.00  0.00     0.062 H 
ATOM     21  C   LIG d   1       2.529   0.212 -18.075  0.00  0.00    -0.058 A 
ATOM     22  C   LIG d   1       2.739  -0.734 -17.093  0.00  0.00    -0.051 A 
ATOM     23  H   LIG d   1       1.721   0.086 -18.780  0.00  0.00     0.062 H 
ATOM     24  H   LIG d   1       2.097  -1.600 -17.030  0.00  0.00     0.062 H 
BRANCH  19  25
ATOM     25  C   LIG d   1       3.121   2.346 -19.239  0.00  0.00    -0.040 C 
ATOM     26  H   LIG d   1       2.708   1.858 -20.121  0.00  0.00     0.028 H 
ATOM     27  H   LIG d   1       2.421   3.100 -18.880  0.00  0.00     0.028 H 
ATOM     28  H   LIG d   1       4.068   2.822 -19.497  0.00  0.00     0.028 H 
ENDBRANCH  19  25
ENDBRANCH  13  15
ENDBRANCH   1  13
BRANCH   2  29
ATOM     29  C   LIG d   1       5.820  -0.642 -12.767  0.00  0.00    -0.035 C 
ATOM     30  H   LIG d   1       6.291  -1.331 -13.469  0.00  0.00     0.028 H 
ATOM     31  H   LIG d   1       5.994   0.383 -13.091  0.00  0.00     0.028 H 
ATOM     32  H   LIG d   1       6.246  -0.787 -11.774  0.00  0.00     0.028 H 
ENDBRANCH   2  29
BRANCH   5  33
ATOM     33  N   LIG d   1       2.764  -0.025  -8.022  0.00  0.00    -0.281 N 
ATOM     34  C   LIG d   1       3.487  -0.810  -7.199  0.00  0.00     0.248 C 
ATOM     35  O   LIG d   1       3.894  -1.888  -7.590  0.00  0.00    -0.270 OA
ATOM     36  H   LIG d   1       2.374   0.798  -7.689  0.00  0.00     0.155 HD
BRANCH  34  37
ATOM     37  C   LIG d   1       3.779  -0.364  -5.821  0.00  0.00     0.037 A 
ATOM     38  C   LIG d   1       2.793   0.280  -5.070  0.00  0.00    -0.048 A 
ATOM     39  C   LIG d   1       3.071   0.694  -3.784  0.00  0.00    -0.043 A 
ATOM     40  H   LIG d   1       1.816   0.456  -5.496  0.00  0.00     0.062 H 
ATOM     41  C   LIG d   1       4.324   0.471  -3.237  0.00  0.00     0.041 A 
ATOM     42  H   LIG d   1       2.311   1.193  -3.202  0.00  0.00     0.063 H 
ATOM     43  C   LIG d   1       5.306  -0.169  -3.977  0.00  0.00    -0.043 A 
ATOM     44 CL   LIG d   1       4.666   0.994  -1.617  0.00  0.00    -0.084 Cl
ATOM     45  C   LIG d   1       5.038  -0.591  -5.262  0.00  0.00    -0.048 A 
ATOM     46  H   LIG d   1       6.281  -0.339  -3.546  0.00  0.00     0.063 H 
ATOM     47  H   LIG d   1       5.802  -1.093  -5.837  0.00  0.00     0.062 H 
ENDBRANCH  34  37
ENDBRANCH   5  33
TORSDOF 6
ENDMDL
MODEL 9
REMARK VINA RESULT:      -6.2      3.621      6.308
REMARK  6 active torsions:
REMARK  status: ('A' for Active; 'I' for Inactive)
REMARK    1  A    between atoms: C_1  and  C_2 
REMARK    2  A    between atoms: C_5  and  C_8 
REMARK    3  A    between atoms: C_8  and  C_10 
REMARK    4  A    between atoms: C_11  and  C_29 
REMARK    5  A    between atoms: C_14  and  N_19 
REMARK       I    between atoms: N_19  and  C_20 
REMARK    6  A    between atoms: C_20  and  C_22 
ROOT
ATOM      1  C   LIG d   1       4.819  -4.402  -5.860  0.00  0.00     0.179 A 
ATOM      2  C   LIG d   1       5.946  -3.740  -6.237  0.00  0.00     0.006 A 
ATOM      3  C   LIG d   1       6.153  -2.692  -5.239  0.00  0.00     0.025 A 
ATOM      4  C   LIG d   1       7.112  -1.691  -5.065  0.00  0.00    -0.029 A 
ATOM      5  C   LIG d   1       7.019  -0.840  -3.980  0.00  0.00     0.035 A 
ATOM      6  C   LIG d   1       5.969  -0.974  -3.072  0.00  0.00    -0.037 A 
ATOM      7  C   LIG d   1       5.017  -1.956  -3.239  0.00  0.00    -0.017 A 
ATOM      8  C   LIG d   1       5.094  -2.825  -4.320  0.00  0.00     0.136 A 
ATOM      9  O   LIG d   1       4.327  -3.855  -4.729  0.00  0.00    -0.451 OA
ATOM     10  H   LIG d   1       7.923  -1.586  -5.771  0.00  0.00     0.064 H 
ATOM     11  H   LIG d   1       5.902  -0.302  -2.230  0.00  0.00     0.064 H 
ATOM     12  H   LIG d   1       4.209  -2.049  -2.529  0.00  0.00     0.066 H 
ENDROOT
BRANCH   1  13
ATOM     13  C   LIG d   1       4.228  -5.540  -6.574  0.00  0.00     0.228 C 
ATOM     14  O   LIG d   1       3.299  -5.362  -7.339  0.00  0.00    -0.283 OA
BRANCH  13  15
ATOM     15  C   LIG d   1       4.762  -6.903  -6.364  0.00  0.00     0.025 A 
ATOM     16  C   LIG d   1       5.588  -7.171  -5.271  0.00  0.00    -0.051 A 
ATOM     17  C   LIG d   1       6.082  -8.445  -5.079  0.00  0.00    -0.058 A 
ATOM     18  H   LIG d   1       5.838  -6.384  -4.575  0.00  0.00     0.062 H 
ATOM     19  C   LIG d   1       5.763  -9.455  -5.970  0.00  0.00    -0.050 A 
ATOM     20  H   LIG d   1       6.721  -8.654  -4.233  0.00  0.00     0.062 H 
ATOM     21  C   LIG d   1       4.945  -9.195  -7.056  0.00  0.00    -0.058 A 
ATOM     22  C   LIG d   1       4.439  -7.928  -7.256  0.00  0.00    -0.051 A 
ATOM     23  H   LIG d   1       4.700  -9.988  -7.747  0.00  0.00     0.062 H 
ATOM     24  H   LIG d   1       3.799  -7.728  -8.101  0.00  0.00     0.062 H 
BRANCH  19  25
ATOM     25  C   LIG d   1       6.306 -10.844  -5.755  0.00  0.00    -0.040 C 
ATOM     26  H   LIG d   1       6.001 -11.485  -6.582  0.00  0.00     0.028 H 
ATOM     27  H   LIG d   1       7.394 -10.806  -5.706  0.00  0.00     0.028 H 
ATOM     28  H   LIG d   1       5.915 -11.246  -4.820  0.00  0.00     0.028 H 
ENDBRANCH  19  25
ENDBRANCH  13  15
ENDBRANCH   1  13
BRANCH   2  29
ATOM     29  C   LIG d   1       6.807  -4.028  -7.441  0.00  0.00    -0.035 C 
ATOM     30  H   LIG d   1       7.669  -3.359  -7.439  0.00  0.00     0.028 H 
ATOM     31  H   LIG d   1       7.148  -5.062  -7.404  0.00  0.00     0.028 H 
ATOM     32  H   LIG d   1       6.226  -3.869  -8.349  0.00  0.00     0.028 H 
ENDBRANCH   2  29
BRANCH   5  33
ATOM     33  N   LIG d   1       7.978   0.163  -3.795  0.00  0.00    -0.281 N 
ATOM     34  C   LIG d   1       7.940   1.279  -4.550  0.00  0.00     0.248 C 
ATOM     35  O   LIG d   1       7.134   1.373  -5.456  0.00  0.00    -0.270 OA
ATOM     36  H   LIG d   1       8.670   0.055  -3.124  0.00  0.00     0.155 HD
BRANCH  34  37
ATOM     37  C   LIG d   1       8.881   2.386  -4.280  0.00  0.00     0.037 A 
ATOM     38  C   LIG d   1       9.877   2.238  -3.312  0.00  0.00    -0.048 A 
ATOM     39  C   LIG d   1      10.754   3.274  -3.065  0.00  0.00    -0.043 A 
ATOM     40  H   LIG d   1       9.961   1.314  -2.759  0.00  0.00     0.062 H 
ATOM     41  C   LIG d   1      10.647   4.459  -3.774  0.00  0.00     0.041 A 
ATOM     42  H   LIG d   1      11.524   3.161  -2.317  0.00  0.00     0.063 H 
ATOM     43  C   LIG d   1       9.660   4.612  -4.735  0.00  0.00    -0.043 A 
ATOM     44 CL   LIG d   1      11.754   5.758  -3.457  0.00  0.00    -0.084 Cl
ATOM     45  C   LIG d   1       8.782   3.581  -4.994  0.00  0.00    -0.048 A 
ATOM     46  H   LIG d   1       9.581   5.539  -5.283  0.00  0.00     0.063 H 
ATOM     47  H   LIG d   1       8.016   3.700  -5.746  0.00  0.00     0.062 H 
ENDBRANCH  34  37
ENDBRANCH   5  33
TORSDOF 6
ENDMDL
