MODEL 1
REMARK VINA RESULT:      -4.6      0.000      0.000
REMARK  0 active torsions:
REMARK  status: ('A' for Active; 'I' for Inactive)
ROOT
ATOM      1  C   LIG d   1       2.830  -0.084  -3.993  0.00  0.00     0.030 A 
ATOM      2  C   LIG d   1       3.437   0.788  -3.159  0.00  0.00     0.121 A 
ATOM      3  C   LIG d   1       4.216   0.289  -2.087  0.00  0.00     0.272 A 
ATOM      4  O   LIG d   1       4.772   1.055  -1.321  0.00  0.00    -0.266 OA
ATOM      5  N   LIG d   1       4.335  -1.044  -1.921  0.00  0.00    -0.274 N 
ATOM      6  H   LIG d   1       4.882  -1.405  -1.166  0.00  0.00     0.173 HD
ATOM      7  C   LIG d   1       3.719  -1.892  -2.766  0.00  0.00     0.327 A 
ATOM      8  O   LIG d   1       3.835  -3.091  -2.603  0.00  0.00    -0.247 OA
ATOM      9  N   LIG d   1       2.977  -1.430  -3.789  0.00  0.00    -0.313 N 
ATOM     10  H   LIG d   1       2.527  -2.076  -4.406  0.00  0.00     0.170 HD
ATOM     11 CL   LIG d   1       3.267   2.499  -3.400  0.00  0.00    -0.076 Cl
ATOM     12  H   LIG d   1       2.233   0.279  -4.816  0.00  0.00     0.083 H 
ENDROOT
TORSDOF 0
ENDMDL
MODEL 2
REMARK VINA RESULT:      -4.5      2.811      3.193
REMARK  0 active torsions:
REMARK  status: ('A' for Active; 'I' for Inactive)
ROOT
ATOM      1  C   LIG d   1       4.035  -1.472  -4.288  0.00  0.00     0.030 A 
ATOM      2  C   LIG d   1       3.938  -0.772  -3.137  0.00  0.00     0.121 A 
ATOM      3  C   LIG d   1       3.434   0.551  -3.175  0.00  0.00     0.272 A 
ATOM      4  O   LIG d   1       3.337   1.202  -2.151  0.00  0.00    -0.266 OA
ATOM      5  N   LIG d   1       3.062   1.083  -4.357  0.00  0.00    -0.274 N 
ATOM      6  H   LIG d   1       2.705   2.017  -4.393  0.00  0.00     0.173 HD
ATOM      7  C   LIG d   1       3.170   0.364  -5.490  0.00  0.00     0.327 A 
ATOM      8  O   LIG d   1       2.830   0.858  -6.549  0.00  0.00    -0.247 OA
ATOM      9  N   LIG d   1       3.647  -0.893  -5.468  0.00  0.00    -0.313 N 
ATOM     10  H   LIG d   1       3.720  -1.411  -6.320  0.00  0.00     0.170 HD
ATOM     11 CL   LIG d   1       4.424  -1.484  -1.630  0.00  0.00    -0.076 Cl
ATOM     12  H   LIG d   1       4.417  -2.481  -4.279  0.00  0.00     0.083 H 
ENDROOT
TORSDOF 0
ENDMDL
MODEL 3
REMARK VINA RESULT:      -4.4      2.129      2.611
REMARK  0 active torsions:
REMARK  status: ('A' for Active; 'I' for Inactive)
ROOT
ATOM      1  C   LIG d   1       5.787  -1.158  -2.906  0.00  0.00     0.030 A 
ATOM      2  C   LIG d   1       4.616  -0.544  -2.629  0.00  0.00     0.121 A 
ATOM      3  C   LIG d   1       3.416  -1.078  -3.156  0.00  0.00     0.272 A 
ATOM      4  O   LIG d   1       2.348  -0.542  -2.921  0.00  0.00    -0.266 OA
ATOM      5  N   LIG d   1       3.465  -2.186  -3.923  0.00  0.00    -0.274 N 
ATOM      6  H   LIG d   1       2.622  -2.570  -4.300  0.00  0.00     0.173 HD
ATOM      7  C   LIG d   1       4.645  -2.779  -4.185  0.00  0.00     0.327 A 
ATOM      8  O   LIG d   1       4.674  -3.778  -4.878  0.00  0.00    -0.247 OA
ATOM      9  N   LIG d   1       5.793  -2.282  -3.690  0.00  0.00    -0.313 N 
ATOM     10  H   LIG d   1       6.660  -2.737  -3.895  0.00  0.00     0.170 HD
ATOM     11 CL   LIG d   1       4.584   0.881  -1.638  0.00  0.00    -0.076 Cl
ATOM     12  H   LIG d   1       6.712  -0.766  -2.513  0.00  0.00     0.083 H 
ENDROOT
TORSDOF 0
ENDMDL
MODEL 4
REMARK VINA RESULT:      -4.3      2.922      3.805
REMARK  0 active torsions:
REMARK  status: ('A' for Active; 'I' for Inactive)
ROOT
ATOM      1  C   LIG d   1       6.213  -1.261  -3.102  0.00  0.00     0.030 A 
ATOM      2  C   LIG d   1       4.950  -0.941  -2.747  0.00  0.00     0.121 A 
ATOM      3  C   LIG d   1       4.574   0.423  -2.691  0.00  0.00     0.272 A 
ATOM      4  O   LIG d   1       3.441   0.737  -2.372  0.00  0.00    -0.266 OA
ATOM      5  N   LIG d   1       5.483   1.373  -2.993  0.00  0.00    -0.274 N 
ATOM      6  H   LIG d   1       5.226   2.338  -2.955  0.00  0.00     0.173 HD
ATOM      7  C   LIG d   1       6.736   1.027  -3.343  0.00  0.00     0.327 A 
ATOM      8  O   LIG d   1       7.545   1.894  -3.613  0.00  0.00    -0.247 OA
ATOM      9  N   LIG d   1       7.106  -0.266  -3.401  0.00  0.00    -0.313 N 
ATOM     10  H   LIG d   1       8.041  -0.502  -3.663  0.00  0.00     0.170 HD
ATOM     11 CL   LIG d   1       3.802  -2.186  -2.365  0.00  0.00    -0.076 Cl
ATOM     12  H   LIG d   1       6.518  -2.295  -3.150  0.00  0.00     0.083 H 
ENDROOT
TORSDOF 0
ENDMDL
MODEL 5
REMARK VINA RESULT:      -4.1      2.294      2.478
REMARK  0 active torsions:
REMARK  status: ('A' for Active; 'I' for Inactive)
ROOT
ATOM      1  C   LIG d   1       3.702  -1.356  -2.817  0.00  0.00     0.030 A 
ATOM      2  C   LIG d   1       4.502  -0.268  -2.857  0.00  0.00     0.121 A 
ATOM      3  C   LIG d   1       5.358  -0.083  -3.970  0.00  0.00     0.272 A 
ATOM      4  O   LIG d   1       6.089   0.889  -4.028  0.00  0.00    -0.266 OA
ATOM      5  N   LIG d   1       5.358  -0.995  -4.963  0.00  0.00    -0.274 N 
ATOM      6  H   LIG d   1       5.960  -0.872  -5.752  0.00  0.00     0.173 HD
ATOM      7  C   LIG d   1       4.552  -2.071  -4.898  0.00  0.00     0.327 A 
ATOM      8  O   LIG d   1       4.563  -2.884  -5.802  0.00  0.00    -0.247 OA
ATOM      9  N   LIG d   1       3.733  -2.258  -3.847  0.00  0.00    -0.313 N 
ATOM     10  H   LIG d   1       3.142  -3.064  -3.817  0.00  0.00     0.170 HD
ATOM     11 CL   LIG d   1       4.478   0.888  -1.563  0.00  0.00    -0.076 Cl
ATOM     12  H   LIG d   1       3.042  -1.514  -1.977  0.00  0.00     0.083 H 
ENDROOT
TORSDOF 0
ENDMDL
MODEL 6
REMARK VINA RESULT:      -4.0      2.870      3.628
REMARK  0 active torsions:
REMARK  status: ('A' for Active; 'I' for Inactive)
ROOT
ATOM      1  C   LIG d   1       5.347  -0.269  -4.569  0.00  0.00     0.030 A 
ATOM      2  C   LIG d   1       5.322  -1.458  -3.927  0.00  0.00     0.121 A 
ATOM      3  C   LIG d   1       4.073  -2.032  -3.588  0.00  0.00     0.272 A 
ATOM      4  O   LIG d   1       4.024  -3.102  -3.009  0.00  0.00    -0.266 OA
ATOM      5  N   LIG d   1       2.937  -1.381  -3.911  0.00  0.00    -0.274 N 
ATOM      6  H   LIG d   1       2.050  -1.779  -3.674  0.00  0.00     0.173 HD
ATOM      7  C   LIG d   1       2.990  -0.197  -4.549  0.00  0.00     0.327 A 
ATOM      8  O   LIG d   1       1.956   0.377  -4.834  0.00  0.00    -0.247 OA
ATOM      9  N   LIG d   1       4.170   0.358  -4.878  0.00  0.00    -0.313 N 
ATOM     10  H   LIG d   1       4.188   1.238  -5.352  0.00  0.00     0.170 HD
ATOM     11 CL   LIG d   1       6.802  -2.272  -3.526  0.00  0.00    -0.076 Cl
ATOM     12  H   LIG d   1       6.290   0.183  -4.836  0.00  0.00     0.083 H 
ENDROOT
TORSDOF 0
ENDMDL
MODEL 7
REMARK VINA RESULT:      -4.0      3.380      4.248
REMARK  0 active torsions:
REMARK  status: ('A' for Active; 'I' for Inactive)
ROOT
ATOM      1  C   LIG d   1       5.008   0.623  -2.898  0.00  0.00     0.030 A 
ATOM      2  C   LIG d   1       5.387  -0.673  -2.843  0.00  0.00     0.121 A 
ATOM      3  C   LIG d   1       6.700  -1.024  -3.238  0.00  0.00     0.272 A 
ATOM      4  O   LIG d   1       7.065  -2.185  -3.198  0.00  0.00    -0.266 OA
ATOM      5  N   LIG d   1       7.544  -0.061  -3.662  0.00  0.00    -0.274 N 
ATOM      6  H   LIG d   1       8.473  -0.300  -3.943  0.00  0.00     0.173 HD
ATOM      7  C   LIG d   1       7.140   1.223  -3.708  0.00  0.00     0.327 A 
ATOM      8  O   LIG d   1       7.913   2.081  -4.092  0.00  0.00    -0.247 OA
ATOM      9  N   LIG d   1       5.896   1.570  -3.335  0.00  0.00    -0.313 N 
ATOM     10  H   LIG d   1       5.615   2.529  -3.376  0.00  0.00     0.170 HD
ATOM     11 CL   LIG d   1       4.279  -1.890  -2.292  0.00  0.00    -0.076 Cl
ATOM     12  H   LIG d   1       4.011   0.910  -2.600  0.00  0.00     0.083 H 
ENDROOT
TORSDOF 0
ENDMDL
MODEL 8
REMARK VINA RESULT:      -3.9      2.971      3.281
REMARK  0 active torsions:
REMARK  status: ('A' for Active; 'I' for Inactive)
ROOT
ATOM      1  C   LIG d   1       4.509  -2.207  -3.754  0.00  0.00     0.030 A 
ATOM      2  C   LIG d   1       5.604  -1.426  -3.627  0.00  0.00     0.121 A 
ATOM      3  C   LIG d   1       5.481  -0.030  -3.825  0.00  0.00     0.272 A 
ATOM      4  O   LIG d   1       6.454   0.695  -3.717  0.00  0.00    -0.266 OA
ATOM      5  N   LIG d   1       4.277   0.491  -4.136  0.00  0.00    -0.274 N 
ATOM      6  H   LIG d   1       4.182   1.477  -4.278  0.00  0.00     0.173 HD
ATOM      7  C   LIG d   1       3.202  -0.309  -4.258  0.00  0.00     0.327 A 
ATOM      8  O   LIG d   1       2.122   0.176  -4.538  0.00  0.00    -0.247 OA
ATOM      9  N   LIG d   1       3.304  -1.637  -4.071  0.00  0.00    -0.313 N 
ATOM     10  H   LIG d   1       2.494  -2.215  -4.166  0.00  0.00     0.170 HD
ATOM     11 CL   LIG d   1       7.141  -2.126  -3.225  0.00  0.00    -0.076 Cl
ATOM     12  H   LIG d   1       4.583  -3.274  -3.607  0.00  0.00     0.083 H 
ENDROOT
TORSDOF 0
ENDMDL
MODEL 9
REMARK VINA RESULT:      -3.7      2.787      3.485
REMARK  0 active torsions:
REMARK  status: ('A' for Active; 'I' for Inactive)
ROOT
ATOM      1  C   LIG d   1       6.137   0.130  -2.978  0.00  0.00     0.030 A 
ATOM      2  C   LIG d   1       4.963  -0.534  -2.907  0.00  0.00     0.121 A 
ATOM      3  C   LIG d   1       4.914  -1.892  -3.307  0.00  0.00     0.272 A 
ATOM      4  O   LIG d   1       3.867  -2.512  -3.252  0.00  0.00    -0.266 OA
ATOM      5  N   LIG d   1       6.038  -2.492  -3.749  0.00  0.00    -0.274 N 
ATOM      6  H   LIG d   1       6.012  -3.450  -4.034  0.00  0.00     0.173 HD
ATOM      7  C   LIG d   1       7.194  -1.806  -3.811  0.00  0.00     0.327 A 
ATOM      8  O   LIG d   1       8.200  -2.361  -4.213  0.00  0.00    -0.247 OA
ATOM      9  N   LIG d   1       7.255  -0.517  -3.434  0.00  0.00    -0.313 N 
ATOM     10  H   LIG d   1       8.123  -0.024  -3.488  0.00  0.00     0.170 HD
ATOM     11 CL   LIG d   1       3.533   0.265  -2.331  0.00  0.00    -0.076 Cl
ATOM     12  H   LIG d   1       6.193   1.165  -2.678  0.00  0.00     0.083 H 
ENDROOT
TORSDOF 0
ENDMDL
MODEL 10
REMARK VINA RESULT:      -3.6      5.958      6.589
REMARK  0 active torsions:
REMARK  status: ('A' for Active; 'I' for Inactive)
ROOT
ATOM      1  C   LIG d   1       2.707  -0.860  -8.915  0.00  0.00     0.030 A 
ATOM      2  C   LIG d   1       3.005   0.120  -9.795  0.00  0.00     0.121 A 
ATOM      3  C   LIG d   1       3.289   1.420  -9.309  0.00  0.00     0.272 A 
ATOM      4  O   LIG d   1       3.561   2.320 -10.083  0.00  0.00    -0.266 OA
ATOM      5  N   LIG d   1       3.255   1.652  -7.981  0.00  0.00    -0.274 N 
ATOM      6  H   LIG d   1       3.454   2.566  -7.630  0.00  0.00     0.173 HD
ATOM      7  C   LIG d   1       2.953   0.657  -7.125  0.00  0.00     0.327 A 
ATOM      8  O   LIG d   1       2.926   0.882  -5.930  0.00  0.00    -0.247 OA
ATOM      9  N   LIG d   1       2.682  -0.582  -7.574  0.00  0.00    -0.313 N 
ATOM     10  H   LIG d   1       2.460  -1.307  -6.922  0.00  0.00     0.170 HD
ATOM     11 CL   LIG d   1       3.043  -0.209 -11.499  0.00  0.00    -0.076 Cl
ATOM     12  H   LIG d   1       2.488  -1.857  -9.267  0.00  0.00     0.083 H 
ENDROOT
TORSDOF 0
ENDMDL
