MODEL 1
REMARK VINA RESULT:      -5.8      0.000      0.000
REMARK  7 active torsions:
REMARK  status: ('A' for Active; 'I' for Inactive)
REMARK    1  A    between atoms: C_1  and  N_2 
REMARK    2  A    between atoms: C_7  and  O_25 
REMARK    3  A    between atoms: C_8  and  O_23 
REMARK    4  A    between atoms: C_17  and  O_21 
REMARK    5  A    between atoms: C_18  and  O_20 
REMARK    6  A    between atoms: O_21  and  C_22 
REMARK    7  A    between atoms: O_23  and  C_24 
ROOT
ATOM      1  N   LIG d   1       9.311   8.785  -6.347  0.00  0.00     0.239 N 
ATOM      2  C   LIG d   1       9.879  10.077  -6.733  0.00  0.00    -0.028 C 
ATOM      3  C   LIG d   1       9.596  11.129  -5.673  0.00  0.00     0.013 C 
ATOM      4  C   LIG d   1       9.718  10.578  -4.281  0.00  0.00    -0.030 A 
ATOM      5  C   LIG d   1       9.631  11.465  -3.214  0.00  0.00    -0.013 A 
ATOM      6  C   LIG d   1       9.760  11.020  -1.911  0.00  0.00     0.159 A 
ATOM      7  C   LIG d   1       9.976   9.671  -1.660  0.00  0.00     0.169 A 
ATOM      8  C   LIG d   1      10.042   8.777  -2.727  0.00  0.00     0.037 A 
ATOM      9  C   LIG d   1       9.920   9.236  -4.041  0.00  0.00     0.015 A 
ATOM     10  C   LIG d   1      10.034   8.258  -5.180  0.00  0.00     0.010 C 
ATOM     11  H   LIG d   1      11.085   8.121  -5.437  0.00  0.00     0.091 H 
ATOM     12  C   LIG d   1       9.432   6.905  -4.802  0.00  0.00     0.021 C 
ATOM     13  C   LIG d   1       9.989   6.419  -3.493  0.00  0.00    -0.030 A 
ATOM     14  C   LIG d   1      10.270   7.333  -2.481  0.00  0.00    -0.007 A 
ATOM     15  C   LIG d   1      10.760   6.891  -1.255  0.00  0.00    -0.008 A 
ATOM     16  C   LIG d   1      10.982   5.539  -1.052  0.00  0.00     0.162 A 
ATOM     17  C   LIG d   1      10.716   4.631  -2.073  0.00  0.00     0.159 A 
ATOM     18  C   LIG d   1      10.221   5.073  -3.289  0.00  0.00    -0.013 A 
ATOM     19  H   LIG d   1      10.956   9.973  -6.856  0.00  0.00     0.082 H 
ATOM     20  H   LIG d   1       9.439  10.394  -7.678  0.00  0.00     0.082 H 
ATOM     21  H   LIG d   1      10.305  11.950  -5.792  0.00  0.00     0.036 H 
ATOM     22  H   LIG d   1       8.586  11.513  -5.815  0.00  0.00     0.036 H 
ATOM     23  H   LIG d   1       9.460  12.514  -3.406  0.00  0.00     0.066 H 
ATOM     24  H   LIG d   1       8.350   7.006  -4.716  0.00  0.00     0.037 H 
ATOM     25  H   LIG d   1       9.662   6.179  -5.582  0.00  0.00     0.037 H 
ATOM     26  H   LIG d   1      10.966   7.599  -0.466  0.00  0.00     0.066 H 
ATOM     27  H   LIG d   1      10.016   4.365  -4.078  0.00  0.00     0.066 H 
ATOM     28  H   LIG d   1       8.337   8.902  -6.114  0.00  0.00     0.204 HD
ENDROOT
BRANCH   1  29
ATOM     29  C   LIG d   1       9.436   7.842  -7.467  0.00  0.00    -0.043 C 
ATOM     30  H   LIG d   1      10.349   7.258  -7.350  0.00  0.00     0.078 H 
ATOM     31  H   LIG d   1       8.576   7.173  -7.477  0.00  0.00     0.078 H 
ATOM     32  H   LIG d   1       9.477   8.396  -8.405  0.00  0.00     0.078 H 
ENDBRANCH   1  29
BRANCH   7  33
ATOM     33  O   LIG d   1      10.122   9.225  -0.384  0.00  0.00    -0.491 OA
BRANCH  33  34
ATOM     34  C   LIG d   1      11.279   9.667   0.329  0.00  0.00     0.079 C 
ATOM     35  H   LIG d   1      11.018   9.837   1.374  0.00  0.00     0.066 H 
ATOM     36  H   LIG d   1      12.056   8.906   0.268  0.00  0.00     0.066 H 
ATOM     37  H   LIG d   1      11.643  10.596  -0.110  0.00  0.00     0.066 H 
ENDBRANCH  33  34
ENDBRANCH   7  33
BRANCH   6  38
ATOM     38  O   LIG d   1       9.677  11.902  -0.878  0.00  0.00    -0.503 OA
ATOM     39  H   LIG d   1      10.532  12.139  -0.493  0.00  0.00     0.292 HD
ENDBRANCH   6  38
BRANCH  17  40
ATOM     40  O   LIG d   1      10.944   3.304  -1.875  0.00  0.00    -0.503 OA
ATOM     41  H   LIG d   1      11.091   2.804  -2.690  0.00  0.00     0.292 HD
ENDBRANCH  17  40
BRANCH  16  42
ATOM     42  O   LIG d   1      11.459   5.100   0.144  0.00  0.00    -0.491 OA
BRANCH  42  43
ATOM     43  C   LIG d   1      11.093   5.851   1.303  0.00  0.00     0.079 C 
ATOM     44  H   LIG d   1      10.058   6.180   1.212  0.00  0.00     0.066 H 
ATOM     45  H   LIG d   1      11.198   5.226   2.189  0.00  0.00     0.066 H 
ATOM     46  H   LIG d   1      11.743   6.722   1.393  0.00  0.00     0.066 H 
ENDBRANCH  42  43
ENDBRANCH  16  42
TORSDOF 7
ENDMDL
MODEL 2
REMARK VINA RESULT:      -5.8      1.594      2.564
REMARK  7 active torsions:
REMARK  status: ('A' for Active; 'I' for Inactive)
REMARK    1  A    between atoms: C_1  and  N_2 
REMARK    2  A    between atoms: C_7  and  O_25 
REMARK    3  A    between atoms: C_8  and  O_23 
REMARK    4  A    between atoms: C_17  and  O_21 
REMARK    5  A    between atoms: C_18  and  O_20 
REMARK    6  A    between atoms: O_21  and  C_22 
REMARK    7  A    between atoms: O_23  and  C_24 
ROOT
ATOM      1  N   LIG d   1       9.350   7.819  -4.760  0.00  0.00     0.239 N 
ATOM      2  C   LIG d   1       9.824   8.726  -5.807  0.00  0.00    -0.028 C 
ATOM      3  C   LIG d   1       9.473  10.166  -5.473  0.00  0.00     0.013 C 
ATOM      4  C   LIG d   1       9.639  10.465  -4.010  0.00  0.00    -0.030 A 
ATOM      5  C   LIG d   1       9.494  11.782  -3.589  0.00  0.00    -0.013 A 
ATOM      6  C   LIG d   1       9.660  12.123  -2.259  0.00  0.00     0.159 A 
ATOM      7  C   LIG d   1       9.972  11.140  -1.328  0.00  0.00     0.169 A 
ATOM      8  C   LIG d   1      10.096   9.816  -1.744  0.00  0.00     0.037 A 
ATOM      9  C   LIG d   1       9.936   9.481  -3.091  0.00  0.00     0.015 A 
ATOM     10  C   LIG d   1      10.113   8.050  -3.525  0.00  0.00     0.010 C 
ATOM     11  H   LIG d   1      11.170   7.856  -3.711  0.00  0.00     0.091 H 
ATOM     12  C   LIG d   1       9.609   7.087  -2.451  0.00  0.00     0.021 C 
ATOM     13  C   LIG d   1      10.205   7.420  -1.112  0.00  0.00    -0.030 A 
ATOM     14  C   LIG d   1      10.425   8.751  -0.766  0.00  0.00    -0.007 A 
ATOM     15  C   LIG d   1      10.951   9.073   0.482  0.00  0.00    -0.008 A 
ATOM     16  C   LIG d   1      11.268   8.062   1.374  0.00  0.00     0.162 A 
ATOM     17  C   LIG d   1      11.063   6.732   1.018  0.00  0.00     0.159 A 
ATOM     18  C   LIG d   1      10.532   6.416  -0.223  0.00  0.00    -0.013 A 
ATOM     19  H   LIG d   1      10.905   8.632  -5.899  0.00  0.00     0.082 H 
ATOM     20  H   LIG d   1       9.358   8.454  -6.754  0.00  0.00     0.082 H 
ATOM     21  H   LIG d   1      10.121  10.830  -6.046  0.00  0.00     0.036 H 
ATOM     22  H   LIG d   1       8.437  10.353  -5.757  0.00  0.00     0.036 H 
ATOM     23  H   LIG d   1       9.249  12.548  -4.310  0.00  0.00     0.066 H 
ATOM     24  H   LIG d   1       8.523   7.157  -2.388  0.00  0.00     0.037 H 
ATOM     25  H   LIG d   1       9.887   6.069  -2.724  0.00  0.00     0.037 H 
ATOM     26  H   LIG d   1      11.110  10.106   0.754  0.00  0.00     0.066 H 
ATOM     27  H   LIG d   1      10.374   5.383  -0.494  0.00  0.00     0.066 H 
ATOM     28  H   LIG d   1       8.371   7.988  -4.587  0.00  0.00     0.204 HD
ENDROOT
BRANCH   1  29
ATOM     29  C   LIG d   1       9.536   6.428  -5.197  0.00  0.00    -0.043 C 
ATOM     30  H   LIG d   1       8.569   5.997  -5.458  0.00  0.00     0.078 H 
ATOM     31  H   LIG d   1      10.191   6.406  -6.068  0.00  0.00     0.078 H 
ATOM     32  H   LIG d   1       9.986   5.851  -4.389  0.00  0.00     0.078 H 
ENDBRANCH   1  29
BRANCH   7  33
ATOM     33  O   LIG d   1      10.154  11.466  -0.021  0.00  0.00    -0.491 OA
BRANCH  33  34
ATOM     34  C   LIG d   1      11.264  12.311   0.287  0.00  0.00     0.079 C 
ATOM     35  H   LIG d   1      10.910  13.202   0.808  0.00  0.00     0.066 H 
ATOM     36  H   LIG d   1      11.965  11.773   0.925  0.00  0.00     0.066 H 
ATOM     37  H   LIG d   1      11.765  12.605  -0.635  0.00  0.00     0.066 H 
ENDBRANCH  33  34
ENDBRANCH   7  33
BRANCH   6  38
ATOM     38  O   LIG d   1       9.520  13.417  -1.864  0.00  0.00    -0.503 OA
ATOM     39  H   LIG d   1      10.358  13.880  -1.726  0.00  0.00     0.292 HD
ENDBRANCH   6  38
BRANCH  17  40
ATOM     40  O   LIG d   1      11.384   5.740   1.892  0.00  0.00    -0.503 OA
ATOM     41  H   LIG d   1      11.222   4.849   1.552  0.00  0.00     0.292 HD
ENDBRANCH  17  40
BRANCH  16  42
ATOM     42  O   LIG d   1      11.780   8.369   2.596  0.00  0.00    -0.491 OA
BRANCH  42  43
ATOM     43  C   LIG d   1      12.330   9.678   2.759  0.00  0.00     0.079 C 
ATOM     44  H   LIG d   1      13.336   9.705   2.339  0.00  0.00     0.066 H 
ATOM     45  H   LIG d   1      11.702  10.404   2.242  0.00  0.00     0.066 H 
ATOM     46  H   LIG d   1      12.374   9.925   3.819  0.00  0.00     0.066 H 
ENDBRANCH  42  43
ENDBRANCH  16  42
TORSDOF 7
ENDMDL
MODEL 3
REMARK VINA RESULT:      -5.7      2.832      4.771
REMARK  7 active torsions:
REMARK  status: ('A' for Active; 'I' for Inactive)
REMARK    1  A    between atoms: C_1  and  N_2 
REMARK    2  A    between atoms: C_7  and  O_25 
REMARK    3  A    between atoms: C_8  and  O_23 
REMARK    4  A    between atoms: C_17  and  O_21 
REMARK    5  A    between atoms: C_18  and  O_20 
REMARK    6  A    between atoms: O_21  and  C_22 
REMARK    7  A    between atoms: O_23  and  C_24 
ROOT
ATOM      1  N   LIG d   1       9.717   3.553  -6.861  0.00  0.00     0.239 N 
ATOM      2  C   LIG d   1      10.378   3.703  -8.158  0.00  0.00    -0.028 C 
ATOM      3  C   LIG d   1       9.881   4.946  -8.877  0.00  0.00     0.013 C 
ATOM      4  C   LIG d   1       9.677   6.100  -7.937  0.00  0.00    -0.030 A 
ATOM      5  C   LIG d   1       9.366   7.342  -8.481  0.00  0.00    -0.013 A 
ATOM      6  C   LIG d   1       9.191   8.447  -7.669  0.00  0.00     0.159 A 
ATOM      7  C   LIG d   1       9.323   8.320  -6.291  0.00  0.00     0.169 A 
ATOM      8  C   LIG d   1       9.614   7.072  -5.743  0.00  0.00     0.037 A 
ATOM      9  C   LIG d   1       9.798   5.962  -6.571  0.00  0.00     0.015 A 
ATOM     10  C   LIG d   1      10.149   4.632  -5.960  0.00  0.00     0.010 C 
ATOM     11  H   LIG d   1      11.229   4.572  -5.817  0.00  0.00     0.091 H 
ATOM     12  C   LIG d   1       9.456   4.449  -4.611  0.00  0.00     0.021 C 
ATOM     13  C   LIG d   1       9.696   5.638  -3.721  0.00  0.00    -0.030 A 
ATOM     14  C   LIG d   1       9.757   6.914  -4.276  0.00  0.00    -0.007 A 
ATOM     15  C   LIG d   1       9.951   8.024  -3.458  0.00  0.00    -0.008 A 
ATOM     16  C   LIG d   1      10.100   7.852  -2.092  0.00  0.00     0.162 A 
ATOM     17  C   LIG d   1      10.056   6.573  -1.544  0.00  0.00     0.159 A 
ATOM     18  C   LIG d   1       9.855   5.471  -2.360  0.00  0.00    -0.013 A 
ATOM     19  H   LIG d   1      11.454   3.783  -8.005  0.00  0.00     0.082 H 
ATOM     20  H   LIG d   1      10.167   2.826  -8.771  0.00  0.00     0.082 H 
ATOM     21  H   LIG d   1      10.611   5.232  -9.635  0.00  0.00     0.036 H 
ATOM     22  H   LIG d   1       8.935   4.718  -9.367  0.00  0.00     0.036 H 
ATOM     23  H   LIG d   1       9.260   7.443  -9.551  0.00  0.00     0.066 H 
ATOM     24  H   LIG d   1       8.384   4.333  -4.772  0.00  0.00     0.037 H 
ATOM     25  H   LIG d   1       9.845   3.553  -4.126  0.00  0.00     0.037 H 
ATOM     26  H   LIG d   1       9.985   9.014  -3.888  0.00  0.00     0.066 H 
ATOM     27  H   LIG d   1       9.821   4.481  -1.930  0.00  0.00     0.066 H 
ATOM     28  H   LIG d   1       8.717   3.600  -6.986  0.00  0.00     0.204 HD
ENDROOT
BRANCH   1  29
ATOM     29  C   LIG d   1      10.076   2.254  -6.276  0.00  0.00    -0.043 C 
ATOM     30  H   LIG d   1      10.548   2.410  -5.306  0.00  0.00     0.078 H 
ATOM     31  H   LIG d   1       9.177   1.652  -6.150  0.00  0.00     0.078 H 
ATOM     32  H   LIG d   1      10.769   1.737  -6.940  0.00  0.00     0.078 H 
ENDBRANCH   1  29
BRANCH   7  33
ATOM     33  O   LIG d   1       9.171   9.403  -5.484  0.00  0.00    -0.491 OA
BRANCH  33  34
ATOM     34  C   LIG d   1      10.122  10.459  -5.630  0.00  0.00     0.079 C 
ATOM     35  H   LIG d   1      10.104  10.824  -6.658  0.00  0.00     0.066 H 
ATOM     36  H   LIG d   1       9.869  11.273  -4.951  0.00  0.00     0.066 H 
ATOM     37  H   LIG d   1      11.118  10.086  -5.395  0.00  0.00     0.066 H 
ENDBRANCH  33  34
ENDBRANCH   7  33
BRANCH   6  38
ATOM     38  O   LIG d   1       8.892   9.656  -8.216  0.00  0.00    -0.503 OA
ATOM     39  H   LIG d   1       9.647  10.258  -8.279  0.00  0.00     0.292 HD
ENDBRANCH   6  38
BRANCH  17  40
ATOM     40  O   LIG d   1      10.212   6.405  -0.203  0.00  0.00    -0.503 OA
ATOM     41  H   LIG d   1      11.080   6.061   0.052  0.00  0.00     0.292 HD
ENDBRANCH  17  40
BRANCH  16  42
ATOM     42  O   LIG d   1      10.288   8.932  -1.288  0.00  0.00    -0.491 OA
BRANCH  42  43
ATOM     43  C   LIG d   1       9.129   9.694  -0.943  0.00  0.00     0.079 C 
ATOM     44  H   LIG d   1       9.326  10.264  -0.035  0.00  0.00     0.066 H 
ATOM     45  H   LIG d   1       8.889  10.379  -1.756  0.00  0.00     0.066 H 
ATOM     46  H   LIG d   1       8.288   9.022  -0.774  0.00  0.00     0.066 H 
ENDBRANCH  42  43
ENDBRANCH  16  42
TORSDOF 7
ENDMDL
MODEL 4
REMARK VINA RESULT:      -5.6      1.899      3.553
REMARK  7 active torsions:
REMARK  status: ('A' for Active; 'I' for Inactive)
REMARK    1  A    between atoms: C_1  and  N_2 
REMARK    2  A    between atoms: C_7  and  O_25 
REMARK    3  A    between atoms: C_8  and  O_23 
REMARK    4  A    between atoms: C_17  and  O_21 
REMARK    5  A    between atoms: C_18  and  O_20 
REMARK    6  A    between atoms: O_21  and  C_22 
REMARK    7  A    between atoms: O_23  and  C_24 
ROOT
ATOM      1  N   LIG d   1       9.620   5.278  -6.222  0.00  0.00     0.239 N 
ATOM      2  C   LIG d   1      10.252   5.623  -7.496  0.00  0.00    -0.028 C 
ATOM      3  C   LIG d   1       9.872   7.031  -7.924  0.00  0.00     0.013 C 
ATOM      4  C   LIG d   1       9.824   7.983  -6.763  0.00  0.00    -0.030 A 
ATOM      5  C   LIG d   1       9.634   9.334  -7.029  0.00  0.00    -0.013 A 
ATOM      6  C   LIG d   1       9.606  10.262  -6.004  0.00  0.00     0.159 A 
ATOM      7  C   LIG d   1       9.766   9.842  -4.689  0.00  0.00     0.169 A 
ATOM      8  C   LIG d   1       9.935   8.485  -4.418  0.00  0.00     0.037 A 
ATOM      9  C   LIG d   1       9.972   7.556  -5.460  0.00  0.00     0.015 A 
ATOM     10  C   LIG d   1      10.194   6.100  -5.148  0.00  0.00     0.010 C 
ATOM     11  H   LIG d   1      11.265   5.904  -5.076  0.00  0.00     0.091 H 
ATOM     12  C   LIG d   1       9.528   5.716  -3.828  0.00  0.00     0.021 C 
ATOM     13  C   LIG d   1       9.924   6.666  -2.732  0.00  0.00    -0.030 A 
ATOM     14  C   LIG d   1      10.105   8.016  -3.022  0.00  0.00    -0.007 A 
ATOM     15  C   LIG d   1      10.445   8.910  -2.010  0.00  0.00    -0.008 A 
ATOM     16  C   LIG d   1      10.616   8.448  -0.716  0.00  0.00     0.162 A 
ATOM     17  C   LIG d   1      10.450   7.094  -0.434  0.00  0.00     0.159 A 
ATOM     18  C   LIG d   1      10.104   6.209  -1.442  0.00  0.00    -0.013 A 
ATOM     19  H   LIG d   1      11.334   5.562  -7.387  0.00  0.00     0.082 H 
ATOM     20  H   LIG d   1       9.928   4.917  -8.260  0.00  0.00     0.082 H 
ATOM     21  H   LIG d   1      10.605   7.391  -8.647  0.00  0.00     0.036 H 
ATOM     22  H   LIG d   1       8.892   7.004  -8.400  0.00  0.00     0.036 H 
ATOM     23  H   LIG d   1       9.506   9.663  -8.050  0.00  0.00     0.066 H 
ATOM     24  H   LIG d   1       8.445   5.743  -3.953  0.00  0.00     0.037 H 
ATOM     25  H   LIG d   1       9.831   4.705  -3.554  0.00  0.00     0.037 H 
ATOM     26  H   LIG d   1      10.574   9.959  -2.233  0.00  0.00     0.066 H 
ATOM     27  H   LIG d   1       9.977   5.160  -1.218  0.00  0.00     0.066 H 
ATOM     28  H   LIG d   1       8.627   5.450  -6.283  0.00  0.00     0.204 HD
ENDROOT
BRANCH   1  29
ATOM     29  C   LIG d   1       9.852   3.857  -5.930  0.00  0.00    -0.043 C 
ATOM     30  H   LIG d   1      10.536   3.767  -5.086  0.00  0.00     0.078 H 
ATOM     31  H   LIG d   1       8.905   3.377  -5.684  0.00  0.00     0.078 H 
ATOM     32  H   LIG d   1      10.289   3.374  -6.804  0.00  0.00     0.078 H 
ENDBRANCH   1  29
BRANCH   7  33
ATOM     33  O   LIG d   1       9.758  10.746  -3.674  0.00  0.00    -0.491 OA
BRANCH  33  34
ATOM     34  C   LIG d   1       8.523  11.418  -3.415  0.00  0.00     0.079 C 
ATOM     35  H   LIG d   1       8.621  12.471  -3.679  0.00  0.00     0.066 H 
ATOM     36  H   LIG d   1       7.731  10.966  -4.011  0.00  0.00     0.066 H 
ATOM     37  H   LIG d   1       8.277  11.330  -2.357  0.00  0.00     0.066 H 
ENDBRANCH  33  34
ENDBRANCH   7  33
BRANCH   6  38
ATOM     38  O   LIG d   1       9.424  11.581  -6.281  0.00  0.00    -0.503 OA
ATOM     39  H   LIG d   1      10.019  11.926  -6.962  0.00  0.00     0.292 HD
ENDBRANCH   6  38
BRANCH  17  40
ATOM     40  O   LIG d   1      10.628   6.641   0.837  0.00  0.00    -0.503 OA
ATOM     41  H   LIG d   1      10.047   7.058   1.488  0.00  0.00     0.292 HD
ENDBRANCH  17  40
BRANCH  16  42
ATOM     42  O   LIG d   1      10.946   9.315   0.278  0.00  0.00    -0.491 OA
BRANCH  42  43
ATOM     43  C   LIG d   1      10.232  10.552   0.323  0.00  0.00     0.079 C 
ATOM     44  H   LIG d   1       9.162  10.357   0.247  0.00  0.00     0.066 H 
ATOM     45  H   LIG d   1      10.443  11.060   1.264  0.00  0.00     0.066 H 
ATOM     46  H   LIG d   1      10.545  11.184  -0.509  0.00  0.00     0.066 H 
ENDBRANCH  42  43
ENDBRANCH  16  42
TORSDOF 7
ENDMDL
MODEL 5
REMARK VINA RESULT:      -5.3      3.343      6.729
REMARK  7 active torsions:
REMARK  status: ('A' for Active; 'I' for Inactive)
REMARK    1  A    between atoms: C_1  and  N_2 
REMARK    2  A    between atoms: C_7  and  O_25 
REMARK    3  A    between atoms: C_8  and  O_23 
REMARK    4  A    between atoms: C_17  and  O_21 
REMARK    5  A    between atoms: C_18  and  O_20 
REMARK    6  A    between atoms: O_21  and  C_22 
REMARK    7  A    between atoms: O_23  and  C_24 
ROOT
ATOM      1  N   LIG d   1       9.757   8.971  -2.977  0.00  0.00     0.239 N 
ATOM      2  C   LIG d   1      10.604   8.497  -1.882  0.00  0.00    -0.028 C 
ATOM      3  C   LIG d   1      10.301   7.044  -1.555  0.00  0.00     0.013 C 
ATOM      4  C   LIG d   1      10.046   6.227  -2.789  0.00  0.00    -0.030 A 
ATOM      5  C   LIG d   1       9.902   4.852  -2.647  0.00  0.00    -0.013 A 
ATOM      6  C   LIG d   1       9.690   4.044  -3.750  0.00  0.00     0.159 A 
ATOM      7  C   LIG d   1       9.617   4.610  -5.017  0.00  0.00     0.169 A 
ATOM      8  C   LIG d   1       9.739   5.991  -5.159  0.00  0.00     0.037 A 
ATOM      9  C   LIG d   1       9.963   6.798  -4.041  0.00  0.00     0.015 A 
ATOM     10  C   LIG d   1      10.131   8.284  -4.222  0.00  0.00     0.010 C 
ATOM     11  H   LIG d   1      11.172   8.504  -4.458  0.00  0.00     0.091 H 
ATOM     12  C   LIG d   1       9.243   8.801  -5.352  0.00  0.00     0.021 C 
ATOM     13  C   LIG d   1       9.436   7.986  -6.601  0.00  0.00    -0.030 A 
ATOM     14  C   LIG d   1       9.662   6.615  -6.501  0.00  0.00    -0.007 A 
ATOM     15  C   LIG d   1       9.814   5.846  -7.651  0.00  0.00    -0.008 A 
ATOM     16  C   LIG d   1       9.756   6.452  -8.895  0.00  0.00     0.162 A 
ATOM     17  C   LIG d   1       9.547   7.825  -8.989  0.00  0.00     0.159 A 
ATOM     18  C   LIG d   1       9.387   8.587  -7.842  0.00  0.00    -0.013 A 
ATOM     19  H   LIG d   1      11.650   8.589  -2.172  0.00  0.00     0.082 H 
ATOM     20  H   LIG d   1      10.422   9.109  -0.998  0.00  0.00     0.082 H 
ATOM     21  H   LIG d   1      11.149   6.618  -1.017  0.00  0.00     0.036 H 
ATOM     22  H   LIG d   1       9.420   7.001  -0.914  0.00  0.00     0.036 H 
ATOM     23  H   LIG d   1       9.955   4.409  -1.664  0.00  0.00     0.066 H 
ATOM     24  H   LIG d   1       8.199   8.742  -5.043  0.00  0.00     0.037 H 
ATOM     25  H   LIG d   1       9.496   9.841  -5.560  0.00  0.00     0.037 H 
ATOM     26  H   LIG d   1       9.977   4.781  -7.573  0.00  0.00     0.066 H 
ATOM     27  H   LIG d   1       9.225   9.652  -7.921  0.00  0.00     0.066 H 
ATOM     28  H   LIG d   1       8.791   8.777  -2.763  0.00  0.00     0.204 HD
ENDROOT
BRANCH   1  29
ATOM     29  C   LIG d   1       9.939  10.420  -3.144  0.00  0.00    -0.043 C 
ATOM     30  H   LIG d   1       9.101  10.946  -2.686  0.00  0.00     0.078 H 
ATOM     31  H   LIG d   1      10.867  10.727  -2.663  0.00  0.00     0.078 H 
ATOM     32  H   LIG d   1       9.983  10.660  -4.206  0.00  0.00     0.078 H 
ENDBRANCH   1  29
BRANCH   7  33
ATOM     33  O   LIG d   1       9.426   3.824  -6.109  0.00  0.00    -0.491 OA
BRANCH  33  34
ATOM     34  C   LIG d   1      10.479   2.919  -6.448  0.00  0.00     0.079 C 
ATOM     35  H   LIG d   1      11.364   3.486  -6.743  0.00  0.00     0.066 H 
ATOM     36  H   LIG d   1      10.717   2.298  -5.585  0.00  0.00     0.066 H 
ATOM     37  H   LIG d   1      10.161   2.286  -7.276  0.00  0.00     0.066 H 
ENDBRANCH  33  34
ENDBRANCH   7  33
BRANCH   6  38
ATOM     38  O   LIG d   1       9.555   2.699  -3.595  0.00  0.00    -0.503 OA
ATOM     39  H   LIG d   1      10.111   2.326  -2.896  0.00  0.00     0.292 HD
ENDBRANCH   6  38
BRANCH  17  40
ATOM     40  O   LIG d   1       9.499   8.420 -10.212  0.00  0.00    -0.503 OA
ATOM     41  H   LIG d   1       9.592   7.805 -10.952  0.00  0.00     0.292 HD
ENDBRANCH  17  40
BRANCH  16  42
ATOM     42  O   LIG d   1       9.902   5.706 -10.022  0.00  0.00    -0.491 OA
BRANCH  42  43
ATOM     43  C   LIG d   1       9.677   4.300  -9.904  0.00  0.00     0.079 C 
ATOM     44  H   LIG d   1      10.465   3.855  -9.296  0.00  0.00     0.066 H 
ATOM     45  H   LIG d   1       8.711   4.125  -9.430  0.00  0.00     0.066 H 
ATOM     46  H   LIG d   1       9.683   3.845 -10.895  0.00  0.00     0.066 H 
ENDBRANCH  42  43
ENDBRANCH  16  42
TORSDOF 7
ENDMDL
MODEL 6
REMARK VINA RESULT:      -5.3      2.257      4.127
REMARK  7 active torsions:
REMARK  status: ('A' for Active; 'I' for Inactive)
REMARK    1  A    between atoms: C_1  and  N_2 
REMARK    2  A    between atoms: C_7  and  O_25 
REMARK    3  A    between atoms: C_8  and  O_23 
REMARK    4  A    between atoms: C_17  and  O_21 
REMARK    5  A    between atoms: C_18  and  O_20 
REMARK    6  A    between atoms: O_21  and  C_22 
REMARK    7  A    between atoms: O_23  and  C_24 
ROOT
ATOM      1  N   LIG d   1       9.722   4.960  -3.720  0.00  0.00     0.239 N 
ATOM      2  C   LIG d   1      10.151   4.951  -5.119  0.00  0.00    -0.028 C 
ATOM      3  C   LIG d   1       9.674   6.202  -5.838  0.00  0.00     0.013 C 
ATOM      4  C   LIG d   1       9.772   7.426  -4.973  0.00  0.00    -0.030 A 
ATOM      5  C   LIG d   1       9.508   8.662  -5.552  0.00  0.00    -0.013 A 
ATOM      6  C   LIG d   1       9.605   9.826  -4.812  0.00  0.00     0.159 A 
ATOM      7  C   LIG d   1       9.967   9.764  -3.472  0.00  0.00     0.169 A 
ATOM      8  C   LIG d   1      10.211   8.525  -2.884  0.00  0.00     0.037 A 
ATOM      9  C   LIG d   1      10.120   7.354  -3.641  0.00  0.00     0.015 A 
ATOM     10  C   LIG d   1      10.426   6.028  -2.995  0.00  0.00     0.010 C 
ATOM     11  H   LIG d   1      11.500   5.845  -3.035  0.00  0.00     0.091 H 
ATOM     12  C   LIG d   1       9.970   6.013  -1.537  0.00  0.00     0.021 C 
ATOM     13  C   LIG d   1      10.496   7.212  -0.799  0.00  0.00    -0.030 A 
ATOM     14  C   LIG d   1      10.597   8.436  -1.455  0.00  0.00    -0.007 A 
ATOM     15  C   LIG d   1      11.057   9.560  -0.774  0.00  0.00    -0.008 A 
ATOM     16  C   LIG d   1      11.428   9.452   0.555  0.00  0.00     0.162 A 
ATOM     17  C   LIG d   1      11.342   8.222   1.203  0.00  0.00     0.159 A 
ATOM     18  C   LIG d   1      10.877   7.107   0.524  0.00  0.00    -0.013 A 
ATOM     19  H   LIG d   1      11.239   4.907  -5.160  0.00  0.00     0.082 H 
ATOM     20  H   LIG d   1       9.738   4.073  -5.615  0.00  0.00     0.082 H 
ATOM     21  H   LIG d   1      10.283   6.350  -6.731  0.00  0.00     0.036 H 
ATOM     22  H   LIG d   1       8.636   6.063  -6.140  0.00  0.00     0.036 H 
ATOM     23  H   LIG d   1       9.223   8.712  -6.592  0.00  0.00     0.066 H 
ATOM     24  H   LIG d   1       8.880   6.019  -1.502  0.00  0.00     0.037 H 
ATOM     25  H   LIG d   1      10.338   5.106  -1.056  0.00  0.00     0.037 H 
ATOM     26  H   LIG d   1      11.122  10.512  -1.281  0.00  0.00     0.066 H 
ATOM     27  H   LIG d   1      10.812   6.156   1.031  0.00  0.00     0.066 H 
ATOM     28  H   LIG d   1       8.727   5.123  -3.675  0.00  0.00     0.204 HD
ENDROOT
BRANCH   1  29
ATOM     29  C   LIG d   1      10.034   3.663  -3.104  0.00  0.00    -0.043 C 
ATOM     30  H   LIG d   1       9.319   3.459  -2.306  0.00  0.00     0.078 H 
ATOM     31  H   LIG d   1       9.970   2.879  -3.858  0.00  0.00     0.078 H 
ATOM     32  H   LIG d   1      11.042   3.690  -2.692  0.00  0.00     0.078 H 
ENDBRANCH   1  29
BRANCH   7  33
ATOM     33  O   LIG d   1      10.083  10.903  -2.740  0.00  0.00    -0.491 OA
BRANCH  33  34
ATOM     34  C   LIG d   1      11.142  11.796  -3.092  0.00  0.00     0.079 C 
ATOM     35  H   LIG d   1      11.274  12.534  -2.300  0.00  0.00     0.066 H 
ATOM     36  H   LIG d   1      12.066  11.232  -3.220  0.00  0.00     0.066 H 
ATOM     37  H   LIG d   1      10.894  12.304  -4.024  0.00  0.00     0.066 H 
ENDBRANCH  33  34
ENDBRANCH   7  33
BRANCH   6  38
ATOM     38  O   LIG d   1       9.348  11.028  -5.394  0.00  0.00    -0.503 OA
ATOM     39  H   LIG d   1      10.045  11.334  -5.991  0.00  0.00     0.292 HD
ENDBRANCH   6  38
BRANCH  17  40
ATOM     40  O   LIG d   1      11.717   8.116   2.506  0.00  0.00    -0.503 OA
ATOM     41  H   LIG d   1      11.953   8.959   2.918  0.00  0.00     0.292 HD
ENDBRANCH  17  40
BRANCH  16  42
ATOM     42  O   LIG d   1      11.876  10.546   1.227  0.00  0.00    -0.491 OA
BRANCH  42  43
ATOM     43  C   LIG d   1      11.243  11.793   0.933  0.00  0.00     0.079 C 
ATOM     44  H   LIG d   1      10.397  11.938   1.605  0.00  0.00     0.066 H 
ATOM     45  H   LIG d   1      11.957  12.604   1.069  0.00  0.00     0.066 H 
ATOM     46  H   LIG d   1      10.890  11.788  -0.098  0.00  0.00     0.066 H 
ENDBRANCH  42  43
ENDBRANCH  16  42
TORSDOF 7
ENDMDL
MODEL 7
REMARK VINA RESULT:      -5.2      2.426      5.130
REMARK  7 active torsions:
REMARK  status: ('A' for Active; 'I' for Inactive)
REMARK    1  A    between atoms: C_1  and  N_2 
REMARK    2  A    between atoms: C_7  and  O_25 
REMARK    3  A    between atoms: C_8  and  O_23 
REMARK    4  A    between atoms: C_17  and  O_21 
REMARK    5  A    between atoms: C_18  and  O_20 
REMARK    6  A    between atoms: O_21  and  C_22 
REMARK    7  A    between atoms: O_23  and  C_24 
ROOT
ATOM      1  N   LIG d   1       9.730   4.759  -4.101  0.00  0.00     0.239 N 
ATOM      2  C   LIG d   1      10.359   4.312  -5.345  0.00  0.00    -0.028 C 
ATOM      3  C   LIG d   1       9.895   5.157  -6.519  0.00  0.00     0.013 C 
ATOM      4  C   LIG d   1       9.766   6.609  -6.157  0.00  0.00    -0.030 A 
ATOM      5  C   LIG d   1       9.492   7.517  -7.173  0.00  0.00    -0.013 A 
ATOM      6  C   LIG d   1       9.386   8.870  -6.905  0.00  0.00     0.159 A 
ATOM      7  C   LIG d   1       9.551   9.331  -5.605  0.00  0.00     0.169 A 
ATOM      8  C   LIG d   1       9.805   8.420  -4.581  0.00  0.00     0.037 A 
ATOM      9  C   LIG d   1       9.920   7.057  -4.862  0.00  0.00     0.015 A 
ATOM     10  C   LIG d   1      10.232   6.094  -3.746  0.00  0.00     0.010 C 
ATOM     11  H   LIG d   1      11.311   6.048  -3.600  0.00  0.00     0.091 H 
ATOM     12  C   LIG d   1       9.570   6.535  -2.442  0.00  0.00     0.021 C 
ATOM     13  C   LIG d   1       9.884   7.975  -2.142  0.00  0.00    -0.030 A 
ATOM     14  C   LIG d   1       9.982   8.891  -3.186  0.00  0.00    -0.007 A 
ATOM     15  C   LIG d   1      10.245  10.232  -2.919  0.00  0.00    -0.008 A 
ATOM     16  C   LIG d   1      10.425  10.647  -1.610  0.00  0.00     0.162 A 
ATOM     17  C   LIG d   1      10.343   9.725  -0.571  0.00  0.00     0.159 A 
ATOM     18  C   LIG d   1      10.073   8.392  -0.840  0.00  0.00    -0.013 A 
ATOM     19  H   LIG d   1      11.441   4.396  -5.249  0.00  0.00     0.082 H 
ATOM     20  H   LIG d   1      10.095   3.270  -5.526  0.00  0.00     0.082 H 
ATOM     21  H   LIG d   1      10.615   5.058  -7.333  0.00  0.00     0.036 H 
ATOM     22  H   LIG d   1       8.927   4.790  -6.859  0.00  0.00     0.036 H 
ATOM     23  H   LIG d   1       9.360   7.162  -8.184  0.00  0.00     0.066 H 
ATOM     24  H   LIG d   1       8.490   6.415  -2.530  0.00  0.00     0.037 H 
ATOM     25  H   LIG d   1       9.934   5.911  -1.626  0.00  0.00     0.037 H 
ATOM     26  H   LIG d   1      10.308  10.944  -3.728  0.00  0.00     0.066 H 
ATOM     27  H   LIG d   1      10.011   7.680  -0.031  0.00  0.00     0.066 H 
ATOM     28  H   LIG d   1       8.729   4.798  -4.227  0.00  0.00     0.204 HD
ENDROOT
BRANCH   1  29
ATOM     29  C   LIG d   1      10.050   3.813  -3.024  0.00  0.00    -0.043 C 
ATOM     30  H   LIG d   1      10.915   4.175  -2.468  0.00  0.00     0.078 H 
ATOM     31  H   LIG d   1       9.197   3.726  -2.351  0.00  0.00     0.078 H 
ATOM     32  H   LIG d   1      10.276   2.837  -3.453  0.00  0.00     0.078 H 
ENDBRANCH   1  29
BRANCH   7  33
ATOM     33  O   LIG d   1       9.467  10.660  -5.332  0.00  0.00    -0.491 OA
BRANCH  33  34
ATOM     34  C   LIG d   1      10.478  11.502  -5.889  0.00  0.00     0.079 C 
ATOM     35  H   LIG d   1      11.375  10.912  -6.085  0.00  0.00     0.066 H 
ATOM     36  H   LIG d   1      10.118  11.935  -6.823  0.00  0.00     0.066 H 
ATOM     37  H   LIG d   1      10.715  12.300  -5.186  0.00  0.00     0.066 H 
ENDBRANCH  33  34
ENDBRANCH   7  33
BRANCH   6  38
ATOM     38  O   LIG d   1       9.122   9.747  -7.911  0.00  0.00    -0.503 OA
ATOM     39  H   LIG d   1       9.847   9.850  -8.544  0.00  0.00     0.292 HD
ENDBRANCH   6  38
BRANCH  17  40
ATOM     40  O   LIG d   1      10.530  10.133   0.714  0.00  0.00    -0.503 OA
ATOM     41  H   LIG d   1      10.294  11.058   0.870  0.00  0.00     0.292 HD
ENDBRANCH  17  40
BRANCH  16  42
ATOM     42  O   LIG d   1      10.680  11.956  -1.341  0.00  0.00    -0.491 OA
BRANCH  42  43
ATOM     43  C   LIG d   1      10.114  12.923  -2.227  0.00  0.00     0.079 C 
ATOM     44  H   LIG d   1       9.195  12.526  -2.658  0.00  0.00     0.066 H 
ATOM     45  H   LIG d   1       9.890  13.835  -1.674  0.00  0.00     0.066 H 
ATOM     46  H   LIG d   1      10.822  13.145  -3.025  0.00  0.00     0.066 H 
ENDBRANCH  42  43
ENDBRANCH  16  42
TORSDOF 7
ENDMDL
MODEL 8
REMARK VINA RESULT:      -5.2      2.457      3.806
REMARK  7 active torsions:
REMARK  status: ('A' for Active; 'I' for Inactive)
REMARK    1  A    between atoms: C_1  and  N_2 
REMARK    2  A    between atoms: C_7  and  O_25 
REMARK    3  A    between atoms: C_8  and  O_23 
REMARK    4  A    between atoms: C_17  and  O_21 
REMARK    5  A    between atoms: C_18  and  O_20 
REMARK    6  A    between atoms: O_21  and  C_22 
REMARK    7  A    between atoms: O_23  and  C_24 
ROOT
ATOM      1  N   LIG d   1       9.250   4.667  -8.704  0.00  0.00     0.239 N 
ATOM      2  C   LIG d   1       9.782   5.546  -9.745  0.00  0.00    -0.028 C 
ATOM      3  C   LIG d   1       9.410   6.994  -9.472  0.00  0.00     0.013 C 
ATOM      4  C   LIG d   1       9.491   7.334  -8.011  0.00  0.00    -0.030 A 
ATOM      5  C   LIG d   1       9.320   8.662  -7.636  0.00  0.00    -0.013 A 
ATOM      6  C   LIG d   1       9.407   9.040  -6.308  0.00  0.00     0.159 A 
ATOM      7  C   LIG d   1       9.665   8.083  -5.334  0.00  0.00     0.169 A 
ATOM      8  C   LIG d   1       9.815   6.749  -5.706  0.00  0.00     0.037 A 
ATOM      9  C   LIG d   1       9.735   6.377  -7.050  0.00  0.00     0.015 A 
ATOM     10  C   LIG d   1       9.938   4.935  -7.433  0.00  0.00     0.010 C 
ATOM     11  H   LIG d   1      11.005   4.739  -7.551  0.00  0.00     0.091 H 
ATOM     12  C   LIG d   1       9.374   4.000  -6.364  0.00  0.00     0.021 C 
ATOM     13  C   LIG d   1       9.891   4.371  -5.002  0.00  0.00    -0.030 A 
ATOM     14  C   LIG d   1      10.089   5.712  -4.681  0.00  0.00    -0.007 A 
ATOM     15  C   LIG d   1      10.540   6.070  -3.414  0.00  0.00    -0.008 A 
ATOM     16  C   LIG d   1      10.806   5.085  -2.477  0.00  0.00     0.162 A 
ATOM     17  C   LIG d   1      10.623   3.745  -2.808  0.00  0.00     0.159 A 
ATOM     18  C   LIG d   1      10.166   3.393  -4.068  0.00  0.00    -0.013 A 
ATOM     19  H   LIG d   1      10.867   5.454  -9.772  0.00  0.00     0.082 H 
ATOM     20  H   LIG d   1       9.373   5.247 -10.710  0.00  0.00     0.082 H 
ATOM     21  H   LIG d   1      10.090   7.644 -10.024  0.00  0.00     0.036 H 
ATOM     22  H   LIG d   1       8.393   7.171  -9.821  0.00  0.00     0.036 H 
ATOM     23  H   LIG d   1       9.116   9.407  -8.391  0.00  0.00     0.066 H 
ATOM     24  H   LIG d   1       8.286   4.068  -6.367  0.00  0.00     0.037 H 
ATOM     25  H   LIG d   1       9.669   2.975  -6.593  0.00  0.00     0.037 H 
ATOM     26  H   LIG d   1      10.681   7.110  -3.162  0.00  0.00     0.066 H 
ATOM     27  H   LIG d   1      10.026   2.352  -4.319  0.00  0.00     0.066 H 
ATOM     28  H   LIG d   1       8.261   4.839  -8.593  0.00  0.00     0.204 HD
ENDROOT
BRANCH   1  29
ATOM     29  C   LIG d   1       9.462   3.266  -9.091  0.00  0.00    -0.043 C 
ATOM     30  H   LIG d   1      10.514   3.112  -9.333  0.00  0.00     0.078 H 
ATOM     31  H   LIG d   1       9.181   2.614  -8.264  0.00  0.00     0.078 H 
ATOM     32  H   LIG d   1       8.850   3.033  -9.962  0.00  0.00     0.078 H 
ENDBRANCH   1  29
BRANCH   7  33
ATOM     33  O   LIG d   1       9.771   8.446  -4.028  0.00  0.00    -0.491 OA
BRANCH  33  34
ATOM     34  C   LIG d   1      10.889   9.260  -3.669  0.00  0.00     0.079 C 
ATOM     35  H   LIG d   1      11.492   8.740  -2.924  0.00  0.00     0.066 H 
ATOM     36  H   LIG d   1      11.495   9.456  -4.554  0.00  0.00     0.066 H 
ATOM     37  H   LIG d   1      10.534  10.203  -3.255  0.00  0.00     0.066 H 
ENDBRANCH  33  34
ENDBRANCH   7  33
BRANCH   6  38
ATOM     38  O   LIG d   1       9.243  10.344  -5.958  0.00  0.00    -0.503 OA
ATOM     39  H   LIG d   1       8.619  10.480  -5.231  0.00  0.00     0.292 HD
ENDBRANCH   6  38
BRANCH  17  40
ATOM     40  O   LIG d   1      10.894   2.778  -1.890  0.00  0.00    -0.503 OA
ATOM     41  H   LIG d   1      11.757   2.872  -1.463  0.00  0.00     0.292 HD
ENDBRANCH  17  40
BRANCH  16  42
ATOM     42  O   LIG d   1      11.245   5.427  -1.237  0.00  0.00    -0.491 OA
BRANCH  42  43
ATOM     43  C   LIG d   1      10.548   6.480  -0.569  0.00  0.00     0.079 C 
ATOM     44  H   LIG d   1      11.080   6.746   0.345  0.00  0.00     0.066 H 
ATOM     45  H   LIG d   1      10.492   7.350  -1.222  0.00  0.00     0.066 H 
ATOM     46  H   LIG d   1       9.540   6.148  -0.318  0.00  0.00     0.066 H 
ENDBRANCH  42  43
ENDBRANCH  16  42
TORSDOF 7
ENDMDL
MODEL 9
REMARK VINA RESULT:      -5.2      4.011      6.564
REMARK  7 active torsions:
REMARK  status: ('A' for Active; 'I' for Inactive)
REMARK    1  A    between atoms: C_1  and  N_2 
REMARK    2  A    between atoms: C_7  and  O_25 
REMARK    3  A    between atoms: C_8  and  O_23 
REMARK    4  A    between atoms: C_17  and  O_21 
REMARK    5  A    between atoms: C_18  and  O_20 
REMARK    6  A    between atoms: O_21  and  C_22 
REMARK    7  A    between atoms: O_23  and  C_24 
ROOT
ATOM      1  N   LIG d   1      10.218   5.763  -3.482  0.00  0.00     0.239 N 
ATOM      2  C   LIG d   1       9.612   6.713  -2.548  0.00  0.00    -0.028 C 
ATOM      3  C   LIG d   1       9.950   8.143  -2.937  0.00  0.00     0.013 C 
ATOM      4  C   LIG d   1       9.923   8.346  -4.425  0.00  0.00    -0.030 A 
ATOM      5  C   LIG d   1      10.068   9.640  -4.913  0.00  0.00    -0.013 A 
ATOM      6  C   LIG d   1      10.027   9.894  -6.273  0.00  0.00     0.159 A 
ATOM      7  C   LIG d   1       9.842   8.845  -7.165  0.00  0.00     0.169 A 
ATOM      8  C   LIG d   1       9.718   7.544  -6.679  0.00  0.00     0.037 A 
ATOM      9  C   LIG d   1       9.751   7.298  -5.304  0.00  0.00     0.015 A 
ATOM     10  C   LIG d   1       9.577   5.890  -4.799  0.00  0.00     0.010 C 
ATOM     11  H   LIG d   1       8.513   5.668  -4.707  0.00  0.00     0.091 H 
ATOM     12  C   LIG d   1      10.216   4.884  -5.754  0.00  0.00     0.021 C 
ATOM     13  C   LIG d   1       9.749   5.112  -7.165  0.00  0.00    -0.030 A 
ATOM     14  C   LIG d   1       9.523   6.411  -7.615  0.00  0.00    -0.007 A 
ATOM     15  C   LIG d   1       9.117   6.636  -8.927  0.00  0.00    -0.008 A 
ATOM     16  C   LIG d   1       8.923   5.562  -9.779  0.00  0.00     0.162 A 
ATOM     17  C   LIG d   1       9.134   4.265  -9.320  0.00  0.00     0.159 A 
ATOM     18  C   LIG d   1       9.546   4.044  -8.015  0.00  0.00    -0.013 A 
ATOM     19  H   LIG d   1       8.530   6.585  -2.557  0.00  0.00     0.082 H 
ATOM     20  H   LIG d   1       9.988   6.517  -1.544  0.00  0.00     0.082 H 
ATOM     21  H   LIG d   1       9.226   8.816  -2.475  0.00  0.00     0.036 H 
ATOM     22  H   LIG d   1      10.945   8.386  -2.565  0.00  0.00     0.036 H 
ATOM     23  H   LIG d   1      10.215  10.457  -4.222  0.00  0.00     0.066 H 
ATOM     24  H   LIG d   1      11.301   4.991  -5.714  0.00  0.00     0.037 H 
ATOM     25  H   LIG d   1       9.945   3.874  -5.445  0.00  0.00     0.037 H 
ATOM     26  H   LIG d   1       8.954   7.645  -9.279  0.00  0.00     0.066 H 
ATOM     27  H   LIG d   1       9.708   3.036  -7.664  0.00  0.00     0.066 H 
ATOM     28  H   LIG d   1      11.204   5.959  -3.568  0.00  0.00     0.204 HD
ENDROOT
BRANCH   1  29
ATOM     29  C   LIG d   1      10.032   4.396  -2.978  0.00  0.00    -0.043 C 
ATOM     30  H   LIG d   1       9.071   4.324  -2.469  0.00  0.00     0.078 H 
ATOM     31  H   LIG d   1      10.055   3.695  -3.812  0.00  0.00     0.078 H 
ATOM     32  H   LIG d   1      10.833   4.156  -2.278  0.00  0.00     0.078 H 
ENDBRANCH   1  29
BRANCH   7  33
ATOM     33  O   LIG d   1       9.783   9.084  -8.502  0.00  0.00    -0.491 OA
BRANCH  33  34
ATOM     34  C   LIG d   1      11.021   9.327  -9.173  0.00  0.00     0.079 C 
ATOM     35  H   LIG d   1      10.848   9.976 -10.032  0.00  0.00     0.066 H 
ATOM     36  H   LIG d   1      11.717   9.810  -8.487  0.00  0.00     0.066 H 
ATOM     37  H   LIG d   1      11.443   8.381  -9.512  0.00  0.00     0.066 H 
ENDBRANCH  33  34
ENDBRANCH   7  33
BRANCH   6  38
ATOM     38  O   LIG d   1      10.166  11.166  -6.734  0.00  0.00    -0.503 OA
ATOM     39  H   LIG d   1      11.061  11.522  -6.645  0.00  0.00     0.292 HD
ENDBRANCH   6  38
BRANCH  17  40
ATOM     40  O   LIG d   1       8.934   3.210 -10.156  0.00  0.00    -0.503 OA
ATOM     41  H   LIG d   1       8.079   2.772 -10.039  0.00  0.00     0.292 HD
ENDBRANCH  17  40
BRANCH  16  42
ATOM     42  O   LIG d   1       8.528   5.775 -11.063  0.00  0.00    -0.491 OA
BRANCH  42  43
ATOM     43  C   LIG d   1       9.469   6.403 -11.935  0.00  0.00     0.079 C 
ATOM     44  H   LIG d   1       9.448   7.481 -11.779  0.00  0.00     0.066 H 
ATOM     45  H   LIG d   1      10.470   6.026 -11.724  0.00  0.00     0.066 H 
ATOM     46  H   LIG d   1       9.210   6.182 -12.971  0.00  0.00     0.066 H 
ENDBRANCH  42  43
ENDBRANCH  16  42
TORSDOF 7
ENDMDL
MODEL 10
REMARK VINA RESULT:      -5.1      2.762      6.375
REMARK  7 active torsions:
REMARK  status: ('A' for Active; 'I' for Inactive)
REMARK    1  A    between atoms: C_1  and  N_2 
REMARK    2  A    between atoms: C_7  and  O_25 
REMARK    3  A    between atoms: C_8  and  O_23 
REMARK    4  A    between atoms: C_17  and  O_21 
REMARK    5  A    between atoms: C_18  and  O_20 
REMARK    6  A    between atoms: O_21  and  C_22 
REMARK    7  A    between atoms: O_23  and  C_24 
ROOT
ATOM      1  N   LIG d   1      10.232  10.323  -0.414  0.00  0.00     0.239 N 
ATOM      2  C   LIG d   1      11.128   9.562   0.457  0.00  0.00    -0.028 C 
ATOM      3  C   LIG d   1      10.809   8.078   0.396  0.00  0.00     0.013 C 
ATOM      4  C   LIG d   1      10.463   7.629  -0.995  0.00  0.00    -0.030 A 
ATOM      5  C   LIG d   1      10.293   6.268  -1.222  0.00  0.00    -0.013 A 
ATOM      6  C   LIG d   1       9.998   5.792  -2.487  0.00  0.00     0.159 A 
ATOM      7  C   LIG d   1       9.865   6.682  -3.546  0.00  0.00     0.169 A 
ATOM      8  C   LIG d   1      10.014   8.048  -3.316  0.00  0.00     0.037 A 
ATOM      9  C   LIG d   1      10.322   8.520  -2.038  0.00  0.00     0.015 A 
ATOM     10  C   LIG d   1      10.516   9.997  -1.820  0.00  0.00     0.010 C 
ATOM     11  H   LIG d   1      11.547  10.265  -2.052  0.00  0.00     0.091 H 
ATOM     12  C   LIG d   1       9.577  10.810  -2.710  0.00  0.00     0.021 C 
ATOM     13  C   LIG d   1       9.677  10.363  -4.142  0.00  0.00    -0.030 A 
ATOM     14  C   LIG d   1       9.875   9.015  -4.432  0.00  0.00    -0.007 A 
ATOM     15  C   LIG d   1       9.941   8.586  -5.754  0.00  0.00    -0.008 A 
ATOM     16  C   LIG d   1       9.826   9.508  -6.781  0.00  0.00     0.162 A 
ATOM     17  C   LIG d   1       9.646  10.856  -6.487  0.00  0.00     0.159 A 
ATOM     18  C   LIG d   1       9.572  11.279  -5.169  0.00  0.00    -0.013 A 
ATOM     19  H   LIG d   1      12.158   9.720   0.138  0.00  0.00     0.082 H 
ATOM     20  H   LIG d   1      11.014   9.912   1.483  0.00  0.00     0.082 H 
ATOM     21  H   LIG d   1      11.676   7.514   0.744  0.00  0.00     0.036 H 
ATOM     22  H   LIG d   1       9.966   7.869   1.055  0.00  0.00     0.036 H 
ATOM     23  H   LIG d   1      10.392   5.574  -0.401  0.00  0.00     0.066 H 
ATOM     24  H   LIG d   1       8.552  10.677  -2.363  0.00  0.00     0.037 H 
ATOM     25  H   LIG d   1       9.844  11.865  -2.643  0.00  0.00     0.037 H 
ATOM     26  H   LIG d   1      10.082   7.538  -5.978  0.00  0.00     0.066 H 
ATOM     27  H   LIG d   1       9.433  12.326  -4.946  0.00  0.00     0.066 H 
ATOM     28  H   LIG d   1       9.275  10.085  -0.201  0.00  0.00     0.204 HD
ENDROOT
BRANCH   1  29
ATOM     29  C   LIG d   1      10.440  11.761  -0.194  0.00  0.00    -0.043 C 
ATOM     30  H   LIG d   1      10.379  12.287  -1.146  0.00  0.00     0.078 H 
ATOM     31  H   LIG d   1       9.672  12.139   0.481  0.00  0.00     0.078 H 
ATOM     32  H   LIG d   1      11.424  11.921   0.248  0.00  0.00     0.078 H 
ENDBRANCH   1  29
BRANCH   7  33
ATOM     33  O   LIG d   1       9.593   6.224  -4.796  0.00  0.00    -0.491 OA
BRANCH  33  34
ATOM     34  C   LIG d   1      10.597   5.427  -5.428  0.00  0.00     0.079 C 
ATOM     35  H   LIG d   1      10.627   5.659  -6.494  0.00  0.00     0.066 H 
ATOM     36  H   LIG d   1      11.567   5.644  -4.982  0.00  0.00     0.066 H 
ATOM     37  H   LIG d   1      10.361   4.372  -5.293  0.00  0.00     0.066 H 
ENDBRANCH  33  34
ENDBRANCH   7  33
BRANCH   6  38
ATOM     38  O   LIG d   1       9.839   4.457  -2.694  0.00  0.00    -0.503 OA
ATOM     39  H   LIG d   1       9.166   4.238  -3.353  0.00  0.00     0.292 HD
ENDBRANCH   6  38
BRANCH  17  40
ATOM     40  O   LIG d   1       9.543  11.762  -7.497  0.00  0.00    -0.503 OA
ATOM     41  H   LIG d   1       8.680  11.767  -7.934  0.00  0.00     0.292 HD
ENDBRANCH  17  40
BRANCH  16  42
ATOM     42  O   LIG d   1       9.888   9.095  -8.075  0.00  0.00    -0.491 OA
BRANCH  42  43
ATOM     43  C   LIG d   1       8.898   8.160  -8.507  0.00  0.00     0.079 C 
ATOM     44  H   LIG d   1       8.671   7.470  -7.693  0.00  0.00     0.066 H 
ATOM     45  H   LIG d   1       7.993   8.694  -8.793  0.00  0.00     0.066 H 
ATOM     46  H   LIG d   1       9.275   7.599  -9.362  0.00  0.00     0.066 H 
ENDBRANCH  42  43
ENDBRANCH  16  42
TORSDOF 7
ENDMDL
