MODEL 1
REMARK VINA RESULT:      -6.2      0.000      0.000
REMARK  11 active torsions:
REMARK  status: ('A' for Active; 'I' for Inactive)
REMARK    1  A    between atoms: C_1  and  C_2 
REMARK    2  A    between atoms: C_2  and  C_3 
REMARK    3  A    between atoms: C_2  and  C_4 
REMARK    4  A    between atoms: C_4  and  C_5 
REMARK    5  A    between atoms: C_5  and  C_7 
REMARK    6  A    between atoms: C_5  and  N_14 
REMARK       I    between atoms: C_7  and  N_9 
REMARK    7  A    between atoms: N_9  and  C_10 
REMARK    8  A    between atoms: C_10  and  C_11 
REMARK    9  A    between atoms: C_11  and  C_12 
REMARK   10  A    between atoms: C_11  and  C_13 
REMARK   11  A    between atoms: C_17  and  C_33 
ROOT
ATOM      1  C   LIG d   1       4.676  -1.306  -6.684  0.00  0.00     0.111 C 
ATOM      2  H   LIG d   1       4.161  -1.244  -7.644  0.00  0.00     0.060 H 
ENDROOT
BRANCH   1   3
ATOM      3  C   LIG d   1       4.759  -2.769  -6.244  0.00  0.00    -0.023 C 
ATOM      4  H   LIG d   1       3.994  -2.966  -5.493  0.00  0.00     0.029 H 
ATOM      5  H   LIG d   1       5.744  -2.965  -5.820  0.00  0.00     0.029 H 
BRANCH   3   6
ATOM      6  C   LIG d   1       4.533  -3.680  -7.453  0.00  0.00    -0.045 C 
ATOM      7  H   LIG d   1       5.493  -3.927  -7.905  0.00  0.00     0.030 H 
BRANCH   6   8
ATOM      8  C   LIG d   1       3.657  -2.957  -8.478  0.00  0.00    -0.063 C 
ATOM      9  H   LIG d   1       4.291  -2.441  -9.199  0.00  0.00     0.023 H 
ATOM     10  H   LIG d   1       3.023  -2.232  -7.967  0.00  0.00     0.023 H 
ATOM     11  H   LIG d   1       3.032  -3.684  -8.998  0.00  0.00     0.023 H 
ENDBRANCH   6   8
BRANCH   6  12
ATOM     12  C   LIG d   1       3.837  -4.964  -7.000  0.00  0.00    -0.063 C 
ATOM     13  H   LIG d   1       3.841  -5.015  -5.911  0.00  0.00     0.023 H 
ATOM     14  H   LIG d   1       2.808  -4.965  -7.359  0.00  0.00     0.023 H 
ATOM     15  H   LIG d   1       4.365  -5.826  -7.407  0.00  0.00     0.023 H 
ENDBRANCH   6  12
ENDBRANCH   3   6
ENDBRANCH   1   3
BRANCH   1  16
ATOM     16  C   LIG d   1       3.914  -0.513  -5.653  0.00  0.00     0.234 C 
ATOM     17  O   LIG d   1       3.605   0.638  -5.881  0.00  0.00    -0.274 OA
ATOM     18  N   LIG d   1       3.576  -1.083  -4.480  0.00  0.00    -0.314 N 
ATOM     19  H   LIG d   1       3.824  -2.003  -4.298  0.00  0.00     0.149 HD
BRANCH  18  20
ATOM     20  C   LIG d   1       2.836  -0.312  -3.478  0.00  0.00     0.014 C 
ATOM     21  H   LIG d   1       2.758   0.725  -3.802  0.00  0.00     0.046 H 
ATOM     22  H   LIG d   1       1.836  -0.732  -3.362  0.00  0.00     0.046 H 
BRANCH  20  23
ATOM     23  C   LIG d   1       3.573  -0.375  -2.139  0.00  0.00    -0.031 C 
ATOM     24  H   LIG d   1       2.849  -0.359  -1.324  0.00  0.00     0.031 H 
BRANCH  23  25
ATOM     25  C   LIG d   1       4.392  -1.666  -2.069  0.00  0.00    -0.061 C 
ATOM     26  H   LIG d   1       3.967  -2.325  -1.312  0.00  0.00     0.023 H 
ATOM     27  H   LIG d   1       4.371  -2.163  -3.038  0.00  0.00     0.023 H 
ATOM     28  H   LIG d   1       5.423  -1.428  -1.805  0.00  0.00     0.023 H 
ENDBRANCH  23  25
BRANCH  23  29
ATOM     29  C   LIG d   1       4.508   0.830  -2.014  0.00  0.00    -0.061 C 
ATOM     30  H   LIG d   1       5.541   0.503  -2.128  0.00  0.00     0.023 H 
ATOM     31  H   LIG d   1       4.268   1.557  -2.791  0.00  0.00     0.023 H 
ATOM     32  H   LIG d   1       4.378   1.290  -1.034  0.00  0.00     0.023 H 
ENDBRANCH  23  29
ENDBRANCH  20  23
ENDBRANCH  18  20
ENDBRANCH   1  16
BRANCH   1  33
ATOM     33  N   LIG d   1       6.028  -0.760  -6.819  0.00  0.00    -0.212 N 
ATOM     34  C   LIG d   1       6.545  -0.298  -7.969  0.00  0.00     0.313 C 
ATOM     35  N   LIG d   1       7.751   0.241  -7.789  0.00  0.00    -0.266 N 
ATOM     36  O   LIG d   1       5.979  -0.360  -9.044  0.00  0.00    -0.252 OA
ATOM     37  C   LIG d   1       8.185  -0.137  -6.423  0.00  0.00     0.153 C 
ATOM     38  C   LIG d   1       8.543   1.119  -8.653  0.00  0.00     0.022 C 
ATOM     39  C   LIG d   1       6.913  -0.663  -5.803  0.00  0.00     0.253 C 
ATOM     40  C   LIG d   1       8.637   1.144  -5.763  0.00  0.00     0.053 A 
ATOM     41  O   LIG d   1       6.726  -0.941  -4.638  0.00  0.00    -0.272 OA
ATOM     42  N   LIG d   1       8.876   1.357  -4.442  0.00  0.00    -0.356 N 
ATOM     43  C   LIG d   1       8.841   2.292  -6.467  0.00  0.00    -0.015 A 
ATOM     44  C   LIG d   1       9.274   2.646  -4.241  0.00  0.00     0.047 A 
ATOM     45  H   LIG d   1       8.783   0.686  -3.748  0.00  0.00     0.166 HD
ATOM     46  C   LIG d   1       9.272   3.290  -5.505  0.00  0.00     0.003 A 
ATOM     47  C   LIG d   1       9.642   3.343  -3.092  0.00  0.00    -0.038 A 
ATOM     48  C   LIG d   1       9.639   4.632  -5.637  0.00  0.00    -0.052 A 
ATOM     49  C   LIG d   1       9.997   5.293  -4.489  0.00  0.00    -0.061 A 
ATOM     50  H   LIG d   1       9.641   5.125  -6.598  0.00  0.00     0.062 H 
ATOM     51  C   LIG d   1       9.998   4.671  -3.251  0.00  0.00    -0.060 A 
ATOM     52  H   LIG d   1      10.287   6.333  -4.552  0.00  0.00     0.062 H 
ATOM     53  H   LIG d   1      10.289   5.241  -2.381  0.00  0.00     0.062 H 
ATOM     54  H   LIG d   1       9.648   2.869  -2.121  0.00  0.00     0.064 H 
ATOM     55  C   LIG d   1       8.659   2.481  -7.953  0.00  0.00    -0.009 C 
ATOM     56  H   LIG d   1       9.516   3.021  -8.355  0.00  0.00     0.033 H 
ATOM     57  H   LIG d   1       7.752   3.059  -8.134  0.00  0.00     0.033 H 
ATOM     58  H   LIG d   1       9.535   0.693  -8.802  0.00  0.00     0.047 H 
ATOM     59  H   LIG d   1       8.043   1.239  -9.614  0.00  0.00     0.047 H 
BRANCH  37  60
ATOM     60  C   LIG d   1       9.293  -1.191  -6.440  0.00  0.00    -0.029 C 
ATOM     61  H   LIG d   1      10.172  -0.788  -6.942  0.00  0.00     0.026 H 
ATOM     62  H   LIG d   1       9.552  -1.464  -5.417  0.00  0.00     0.026 H 
ATOM     63  H   LIG d   1       8.945  -2.076  -6.974  0.00  0.00     0.026 H 
ENDBRANCH  37  60
ENDBRANCH   1  33
TORSDOF 11
ENDMDL
MODEL 2
REMARK VINA RESULT:      -6.1      3.998      8.173
REMARK  11 active torsions:
REMARK  status: ('A' for Active; 'I' for Inactive)
REMARK    1  A    between atoms: C_1  and  C_2 
REMARK    2  A    between atoms: C_2  and  C_3 
REMARK    3  A    between atoms: C_2  and  C_4 
REMARK    4  A    between atoms: C_4  and  C_5 
REMARK    5  A    between atoms: C_5  and  C_7 
REMARK    6  A    between atoms: C_5  and  N_14 
REMARK       I    between atoms: C_7  and  N_9 
REMARK    7  A    between atoms: N_9  and  C_10 
REMARK    8  A    between atoms: C_10  and  C_11 
REMARK    9  A    between atoms: C_11  and  C_12 
REMARK   10  A    between atoms: C_11  and  C_13 
REMARK   11  A    between atoms: C_17  and  C_33 
ROOT
ATOM      1  C   LIG d   1       5.045  -1.948  -4.446  0.00  0.00     0.111 C 
ATOM      2  H   LIG d   1       4.017  -2.226  -4.208  0.00  0.00     0.060 H 
ENDROOT
BRANCH   1   3
ATOM      3  C   LIG d   1       5.766  -1.518  -3.167  0.00  0.00    -0.023 C 
ATOM      4  H   LIG d   1       6.261  -0.562  -3.333  0.00  0.00     0.029 H 
ATOM      5  H   LIG d   1       6.508  -2.271  -2.899  0.00  0.00     0.029 H 
BRANCH   3   6
ATOM      6  C   LIG d   1       4.750  -1.376  -2.032  0.00  0.00    -0.045 C 
ATOM      7  H   LIG d   1       5.213  -1.674  -1.091  0.00  0.00     0.030 H 
BRANCH   6   8
ATOM      8  C   LIG d   1       3.543  -2.273  -2.313  0.00  0.00    -0.063 C 
ATOM      9  H   LIG d   1       3.681  -2.778  -3.269  0.00  0.00     0.023 H 
ATOM     10  H   LIG d   1       2.639  -1.664  -2.351  0.00  0.00     0.023 H 
ATOM     11  H   LIG d   1       3.448  -3.015  -1.520  0.00  0.00     0.023 H 
ENDBRANCH   6   8
BRANCH   6  12
ATOM     12  C   LIG d   1       4.293   0.080  -1.937  0.00  0.00    -0.063 C 
ATOM     13  H   LIG d   1       5.074   0.676  -1.464  0.00  0.00     0.023 H 
ATOM     14  H   LIG d   1       4.098   0.466  -2.938  0.00  0.00     0.023 H 
ATOM     15  H   LIG d   1       3.382   0.137  -1.341  0.00  0.00     0.023 H 
ENDBRANCH   6  12
ENDBRANCH   3   6
ENDBRANCH   1   3
BRANCH   1  16
ATOM     16  C   LIG d   1       5.040  -0.805  -5.429  0.00  0.00     0.234 C 
ATOM     17  O   LIG d   1       5.728   0.173  -5.224  0.00  0.00    -0.274 OA
ATOM     18  N   LIG d   1       4.273  -0.871  -6.535  0.00  0.00    -0.314 N 
ATOM     19  H   LIG d   1       3.723  -1.653  -6.698  0.00  0.00     0.149 HD
BRANCH  18  20
ATOM     20  C   LIG d   1       4.269   0.239  -7.491  0.00  0.00     0.014 C 
ATOM     21  H   LIG d   1       4.756   1.106  -7.043  0.00  0.00     0.046 H 
ATOM     22  H   LIG d   1       4.808  -0.055  -8.392  0.00  0.00     0.046 H 
BRANCH  20  23
ATOM     23  C   LIG d   1       2.825   0.595  -7.852  0.00  0.00    -0.031 C 
ATOM     24  H   LIG d   1       2.220   0.623  -6.946  0.00  0.00     0.031 H 
BRANCH  23  25
ATOM     25  C   LIG d   1       2.793   1.967  -8.530  0.00  0.00    -0.061 C 
ATOM     26  H   LIG d   1       3.568   2.012  -9.294  0.00  0.00     0.023 H 
ATOM     27  H   LIG d   1       1.818   2.121  -8.990  0.00  0.00     0.023 H 
ATOM     28  H   LIG d   1       2.970   2.743  -7.785  0.00  0.00     0.023 H 
ENDBRANCH  23  25
BRANCH  23  29
ATOM     29  C   LIG d   1       2.265  -0.460  -8.808  0.00  0.00    -0.061 C 
ATOM     30  H   LIG d   1       2.977  -0.637  -9.613  0.00  0.00     0.023 H 
ATOM     31  H   LIG d   1       2.093  -1.389  -8.263  0.00  0.00     0.023 H 
ATOM     32  H   LIG d   1       1.322  -0.106  -9.227  0.00  0.00     0.023 H 
ENDBRANCH  23  29
ENDBRANCH  20  23
ENDBRANCH  18  20
ENDBRANCH   1  16
BRANCH   1  33
ATOM     33  N   LIG d   1       5.738  -3.097  -5.035  0.00  0.00    -0.212 N 
ATOM     34  C   LIG d   1       7.073  -3.236  -5.072  0.00  0.00     0.313 C 
ATOM     35  N   LIG d   1       7.433  -4.421  -5.565  0.00  0.00    -0.266 N 
ATOM     36  O   LIG d   1       7.857  -2.386  -4.696  0.00  0.00    -0.252 OA
ATOM     37  C   LIG d   1       6.215  -5.024  -6.156  0.00  0.00     0.153 C 
ATOM     38  C   LIG d   1       8.716  -5.126  -5.512  0.00  0.00     0.022 C 
ATOM     39  C   LIG d   1       5.113  -4.144  -5.616  0.00  0.00     0.253 C 
ATOM     40  C   LIG d   1       6.133  -6.425  -5.597  0.00  0.00     0.053 A 
ATOM     41  O   LIG d   1       3.918  -4.338  -5.689  0.00  0.00    -0.272 OA
ATOM     42  N   LIG d   1       5.072  -7.272  -5.637  0.00  0.00    -0.356 N 
ATOM     43  C   LIG d   1       7.173  -7.005  -4.937  0.00  0.00    -0.015 A 
ATOM     44  C   LIG d   1       5.392  -8.450  -5.028  0.00  0.00     0.047 A 
ATOM     45  H   LIG d   1       4.215  -7.069  -6.045  0.00  0.00     0.166 HD
ATOM     46  C   LIG d   1       6.727  -8.335  -4.563  0.00  0.00     0.003 A 
ATOM     47  C   LIG d   1       4.668  -9.623  -4.821  0.00  0.00    -0.038 A 
ATOM     48  C   LIG d   1       7.356  -9.387  -3.891  0.00  0.00    -0.052 A 
ATOM     49  C   LIG d   1       6.620 -10.531  -3.702  0.00  0.00    -0.061 A 
ATOM     50  H   LIG d   1       8.373  -9.305  -3.538  0.00  0.00     0.062 H 
ATOM     51  C   LIG d   1       5.314 -10.648  -4.151  0.00  0.00    -0.060 A 
ATOM     52  H   LIG d   1       7.072 -11.365  -3.187  0.00  0.00     0.062 H 
ATOM     53  H   LIG d   1       4.783 -11.571  -3.974  0.00  0.00     0.062 H 
ATOM     54  H   LIG d   1       3.650  -9.727  -5.167  0.00  0.00     0.064 H 
ATOM     55  C   LIG d   1       8.520  -6.386  -4.657  0.00  0.00    -0.009 C 
ATOM     56  H   LIG d   1       9.303  -7.107  -4.892  0.00  0.00     0.033 H 
ATOM     57  H   LIG d   1       8.582  -6.119  -3.601  0.00  0.00     0.033 H 
ATOM     58  H   LIG d   1       9.024  -5.406  -6.519  0.00  0.00     0.047 H 
ATOM     59  H   LIG d   1       9.471  -4.485  -5.058  0.00  0.00     0.047 H 
BRANCH  37  60
ATOM     60  C   LIG d   1       6.253  -5.021  -7.685  0.00  0.00    -0.029 C 
ATOM     61  H   LIG d   1       5.930  -5.992  -8.059  0.00  0.00     0.026 H 
ATOM     62  H   LIG d   1       5.585  -4.247  -8.064  0.00  0.00     0.026 H 
ATOM     63  H   LIG d   1       7.269  -4.821  -8.024  0.00  0.00     0.026 H 
ENDBRANCH  37  60
ENDBRANCH   1  33
TORSDOF 11
ENDMDL
MODEL 3
REMARK VINA RESULT:      -6.0      3.220      5.612
REMARK  11 active torsions:
REMARK  status: ('A' for Active; 'I' for Inactive)
REMARK    1  A    between atoms: C_1  and  C_2 
REMARK    2  A    between atoms: C_2  and  C_3 
REMARK    3  A    between atoms: C_2  and  C_4 
REMARK    4  A    between atoms: C_4  and  C_5 
REMARK    5  A    between atoms: C_5  and  C_7 
REMARK    6  A    between atoms: C_5  and  N_14 
REMARK       I    between atoms: C_7  and  N_9 
REMARK    7  A    between atoms: N_9  and  C_10 
REMARK    8  A    between atoms: C_10  and  C_11 
REMARK    9  A    between atoms: C_11  and  C_12 
REMARK   10  A    between atoms: C_11  and  C_13 
REMARK   11  A    between atoms: C_17  and  C_33 
ROOT
ATOM      1  C   LIG d   1       3.758   0.174  -6.917  0.00  0.00     0.111 C 
ATOM      2  H   LIG d   1       3.962   1.229  -7.101  0.00  0.00     0.060 H 
ENDROOT
BRANCH   1   3
ATOM      3  C   LIG d   1       2.642  -0.301  -7.850  0.00  0.00    -0.023 C 
ATOM      4  H   LIG d   1       1.711  -0.382  -7.291  0.00  0.00     0.029 H 
ATOM      5  H   LIG d   1       2.904  -1.275  -8.264  0.00  0.00     0.029 H 
BRANCH   3   6
ATOM      6  C   LIG d   1       2.467   0.706  -8.989  0.00  0.00    -0.045 C 
ATOM      7  H   LIG d   1       1.409   0.798  -9.234  0.00  0.00     0.030 H 
BRANCH   6   8
ATOM      8  C   LIG d   1       3.235   0.222 -10.220  0.00  0.00    -0.063 C 
ATOM      9  H   LIG d   1       3.098  -0.853 -10.334  0.00  0.00     0.023 H 
ATOM     10  H   LIG d   1       4.296   0.441 -10.096  0.00  0.00     0.023 H 
ATOM     11  H   LIG d   1       2.861   0.733 -11.107  0.00  0.00     0.023 H 
ENDBRANCH   6   8
BRANCH   6  12
ATOM     12  C   LIG d   1       3.009   2.068  -8.552  0.00  0.00    -0.063 C 
ATOM     13  H   LIG d   1       2.900   2.781  -9.370  0.00  0.00     0.023 H 
ATOM     14  H   LIG d   1       2.449   2.421  -7.686  0.00  0.00     0.023 H 
ATOM     15  H   LIG d   1       4.062   1.973  -8.291  0.00  0.00     0.023 H 
ENDBRANCH   6  12
ENDBRANCH   3   6
ENDBRANCH   1   3
BRANCH   1  16
ATOM     16  C   LIG d   1       3.329  -0.013  -5.485  0.00  0.00     0.234 C 
ATOM     17  O   LIG d   1       2.734   0.875  -4.910  0.00  0.00    -0.274 OA
ATOM     18  N   LIG d   1       3.605  -1.165  -4.843  0.00  0.00    -0.314 N 
ATOM     19  H   LIG d   1       4.080  -1.875  -5.303  0.00  0.00     0.149 HD
BRANCH  18  20
ATOM     20  C   LIG d   1       3.187  -1.347  -3.451  0.00  0.00     0.014 C 
ATOM     21  H   LIG d   1       2.543  -0.519  -3.154  0.00  0.00     0.046 H 
ATOM     22  H   LIG d   1       2.640  -2.285  -3.354  0.00  0.00     0.046 H 
BRANCH  20  23
ATOM     23  C   LIG d   1       4.422  -1.381  -2.549  0.00  0.00    -0.031 C 
ATOM     24  H   LIG d   1       4.302  -2.163  -1.798  0.00  0.00     0.031 H 
BRANCH  23  25
ATOM     25  C   LIG d   1       5.663  -1.673  -3.395  0.00  0.00    -0.061 C 
ATOM     26  H   LIG d   1       6.552  -1.334  -2.864  0.00  0.00     0.023 H 
ATOM     27  H   LIG d   1       5.734  -2.744  -3.577  0.00  0.00     0.023 H 
ATOM     28  H   LIG d   1       5.586  -1.147  -4.346  0.00  0.00     0.023 H 
ENDBRANCH  23  25
BRANCH  23  29
ATOM     29  C   LIG d   1       4.584  -0.028  -1.854  0.00  0.00    -0.061 C 
ATOM     30  H   LIG d   1       4.950   0.708  -2.571  0.00  0.00     0.023 H 
ATOM     31  H   LIG d   1       3.620   0.296  -1.460  0.00  0.00     0.023 H 
ATOM     32  H   LIG d   1       5.298  -0.123  -1.035  0.00  0.00     0.023 H 
ENDBRANCH  23  29
ENDBRANCH  20  23
ENDBRANCH  18  20
ENDBRANCH   1  16
BRANCH   1  33
ATOM     33  N   LIG d   1       4.971  -0.609  -7.169  0.00  0.00    -0.212 N 
ATOM     34  C   LIG d   1       6.219  -0.132  -7.037  0.00  0.00     0.313 C 
ATOM     35  N   LIG d   1       7.135  -1.083  -7.222  0.00  0.00    -0.266 N 
ATOM     36  O   LIG d   1       6.481   1.027  -6.776  0.00  0.00    -0.252 OA
ATOM     37  C   LIG d   1       6.423  -2.253  -7.790  0.00  0.00     0.153 C 
ATOM     38  C   LIG d   1       8.560  -1.113  -6.887  0.00  0.00     0.022 C 
ATOM     39  C   LIG d   1       4.972  -1.899  -7.569  0.00  0.00     0.253 C 
ATOM     40  C   LIG d   1       6.841  -3.438  -6.952  0.00  0.00     0.053 A 
ATOM     41  O   LIG d   1       4.010  -2.622  -7.720  0.00  0.00    -0.272 OA
ATOM     42  N   LIG d   1       6.268  -4.670  -6.916  0.00  0.00    -0.356 N 
ATOM     43  C   LIG d   1       7.884  -3.379  -6.078  0.00  0.00    -0.015 A 
ATOM     44  C   LIG d   1       6.937  -5.470  -6.036  0.00  0.00     0.047 A 
ATOM     45  H   LIG d   1       5.500  -4.940  -7.443  0.00  0.00     0.166 HD
ATOM     46  C   LIG d   1       7.983  -4.695  -5.473  0.00  0.00     0.003 A 
ATOM     47  C   LIG d   1       6.756  -6.798  -5.655  0.00  0.00    -0.038 A 
ATOM     48  C   LIG d   1       8.860  -5.234  -4.528  0.00  0.00    -0.052 A 
ATOM     49  C   LIG d   1       8.658  -6.545  -4.172  0.00  0.00    -0.061 A 
ATOM     50  H   LIG d   1       9.659  -4.649  -4.098  0.00  0.00     0.062 H 
ATOM     51  C   LIG d   1       7.637  -7.307  -4.716  0.00  0.00    -0.060 A 
ATOM     52  H   LIG d   1       9.317  -6.997  -3.443  0.00  0.00     0.062 H 
ATOM     53  H   LIG d   1       7.525  -8.332  -4.398  0.00  0.00     0.062 H 
ATOM     54  H   LIG d   1       5.964  -7.403  -6.072  0.00  0.00     0.064 H 
ATOM     55  C   LIG d   1       8.760  -2.183  -5.803  0.00  0.00    -0.009 C 
ATOM     56  H   LIG d   1       9.804  -2.496  -5.794  0.00  0.00     0.033 H 
ATOM     57  H   LIG d   1       8.503  -1.764  -4.830  0.00  0.00     0.033 H 
ATOM     58  H   LIG d   1       9.142  -1.370  -7.771  0.00  0.00     0.047 H 
ATOM     59  H   LIG d   1       8.870  -0.140  -6.507  0.00  0.00     0.047 H 
BRANCH  37  60
ATOM     60  C   LIG d   1       6.743  -2.460  -9.271  0.00  0.00    -0.029 C 
ATOM     61  H   LIG d   1       7.256  -3.413  -9.403  0.00  0.00     0.026 H 
ATOM     62  H   LIG d   1       5.818  -2.464  -9.847  0.00  0.00     0.026 H 
ATOM     63  H   LIG d   1       7.386  -1.652  -9.622  0.00  0.00     0.026 H 
ENDBRANCH  37  60
ENDBRANCH   1  33
TORSDOF 11
ENDMDL
MODEL 4
REMARK VINA RESULT:      -6.0      3.581      7.376
REMARK  11 active torsions:
REMARK  status: ('A' for Active; 'I' for Inactive)
REMARK    1  A    between atoms: C_1  and  C_2 
REMARK    2  A    between atoms: C_2  and  C_3 
REMARK    3  A    between atoms: C_2  and  C_4 
REMARK    4  A    between atoms: C_4  and  C_5 
REMARK    5  A    between atoms: C_5  and  C_7 
REMARK    6  A    between atoms: C_5  and  N_14 
REMARK       I    between atoms: C_7  and  N_9 
REMARK    7  A    between atoms: N_9  and  C_10 
REMARK    8  A    between atoms: C_10  and  C_11 
REMARK    9  A    between atoms: C_11  and  C_12 
REMARK   10  A    between atoms: C_11  and  C_13 
REMARK   11  A    between atoms: C_17  and  C_33 
ROOT
ATOM      1  C   LIG d   1       4.904  -0.840  -5.503  0.00  0.00     0.111 C 
ATOM      2  H   LIG d   1       5.815  -0.449  -5.048  0.00  0.00     0.060 H 
ENDROOT
BRANCH   1   3
ATOM      3  C   LIG d   1       3.709  -0.532  -4.599  0.00  0.00    -0.023 C 
ATOM      4  H   LIG d   1       2.939  -1.289  -4.744  0.00  0.00     0.029 H 
ATOM      5  H   LIG d   1       3.307   0.450  -4.852  0.00  0.00     0.029 H 
BRANCH   3   6
ATOM      6  C   LIG d   1       4.161  -0.537  -3.137  0.00  0.00    -0.045 C 
ATOM      7  H   LIG d   1       5.249  -0.506  -3.093  0.00  0.00     0.030 H 
BRANCH   6   8
ATOM      8  C   LIG d   1       3.657  -1.809  -2.452  0.00  0.00    -0.063 C 
ATOM      9  H   LIG d   1       4.227  -2.665  -2.813  0.00  0.00     0.023 H 
ATOM     10  H   LIG d   1       2.601  -1.952  -2.683  0.00  0.00     0.023 H 
ATOM     11  H   LIG d   1       3.784  -1.716  -1.374  0.00  0.00     0.023 H 
ENDBRANCH   6   8
BRANCH   6  12
ATOM     12  C   LIG d   1       3.588   0.688  -2.423  0.00  0.00    -0.063 C 
ATOM     13  H   LIG d   1       2.499   0.653  -2.458  0.00  0.00     0.023 H 
ATOM     14  H   LIG d   1       3.917   0.691  -1.384  0.00  0.00     0.023 H 
ATOM     15  H   LIG d   1       3.938   1.594  -2.917  0.00  0.00     0.023 H 
ENDBRANCH   6  12
ENDBRANCH   3   6
ENDBRANCH   1   3
BRANCH   1  16
ATOM     16  C   LIG d   1       5.031  -2.332  -5.677  0.00  0.00     0.234 C 
ATOM     17  O   LIG d   1       5.992  -2.916  -5.222  0.00  0.00    -0.274 OA
ATOM     18  N   LIG d   1       4.075  -3.017  -6.336  0.00  0.00    -0.314 N 
ATOM     19  H   LIG d   1       3.307  -2.550  -6.699  0.00  0.00     0.149 HD
BRANCH  18  20
ATOM     20  C   LIG d   1       4.198  -4.467  -6.505  0.00  0.00     0.014 C 
ATOM     21  H   LIG d   1       5.250  -4.749  -6.470  0.00  0.00     0.046 H 
ATOM     22  H   LIG d   1       3.659  -4.973  -5.703  0.00  0.00     0.046 H 
BRANCH  20  23
ATOM     23  C   LIG d   1       3.605  -4.875  -7.855  0.00  0.00    -0.031 C 
ATOM     24  H   LIG d   1       2.608  -5.288  -7.704  0.00  0.00     0.031 H 
BRANCH  23  25
ATOM     25  C   LIG d   1       3.517  -3.648  -8.765  0.00  0.00    -0.061 C 
ATOM     26  H   LIG d   1       4.188  -3.776  -9.612  0.00  0.00     0.023 H 
ATOM     27  H   LIG d   1       2.495  -3.535  -9.123  0.00  0.00     0.023 H 
ATOM     28  H   LIG d   1       3.805  -2.759  -8.203  0.00  0.00     0.023 H 
ENDBRANCH  23  25
BRANCH  23  29
ATOM     29  C   LIG d   1       4.501  -5.931  -8.507  0.00  0.00    -0.061 C 
ATOM     30  H   LIG d   1       4.084  -6.215  -9.473  0.00  0.00     0.023 H 
ATOM     31  H   LIG d   1       5.501  -5.521  -8.648  0.00  0.00     0.023 H 
ATOM     32  H   LIG d   1       4.555  -6.809  -7.863  0.00  0.00     0.023 H 
ENDBRANCH  23  29
ENDBRANCH  20  23
ENDBRANCH  18  20
ENDBRANCH   1  16
BRANCH   1  33
ATOM     33  N   LIG d   1       4.702  -0.212  -6.811  0.00  0.00    -0.212 N 
ATOM     34  C   LIG d   1       5.697   0.212  -7.607  0.00  0.00     0.313 C 
ATOM     35  N   LIG d   1       5.240   0.644  -8.783  0.00  0.00    -0.266 N 
ATOM     36  O   LIG d   1       6.872   0.199  -7.294  0.00  0.00    -0.252 OA
ATOM     37  C   LIG d   1       3.768   0.758  -8.651  0.00  0.00     0.153 C 
ATOM     38  C   LIG d   1       5.941   0.899 -10.043  0.00  0.00     0.022 C 
ATOM     39  C   LIG d   1       3.491   0.019  -7.364  0.00  0.00     0.253 C 
ATOM     40  C   LIG d   1       3.188   0.035  -9.843  0.00  0.00     0.053 A 
ATOM     41  O   LIG d   1       2.409  -0.300  -6.920  0.00  0.00    -0.272 OA
ATOM     42  N   LIG d   1       1.900  -0.354 -10.031  0.00  0.00    -0.356 N 
ATOM     43  C   LIG d   1       3.952  -0.343 -10.906  0.00  0.00    -0.015 A 
ATOM     44  C   LIG d   1       1.771  -0.975 -11.238  0.00  0.00     0.047 A 
ATOM     45  H   LIG d   1       1.179  -0.204  -9.399  0.00  0.00     0.166 HD
ATOM     46  C   LIG d   1       3.053  -0.993 -11.843  0.00  0.00     0.003 A 
ATOM     47  C   LIG d   1       0.672  -1.533 -11.890  0.00  0.00    -0.038 A 
ATOM     48  C   LIG d   1       3.255  -1.564 -13.102  0.00  0.00    -0.052 A 
ATOM     49  C   LIG d   1       2.156  -2.106 -13.721  0.00  0.00    -0.061 A 
ATOM     50  H   LIG d   1       4.230  -1.578 -13.567  0.00  0.00     0.062 H 
ATOM     51  C   LIG d   1       0.901  -2.093 -13.135  0.00  0.00    -0.060 A 
ATOM     52  H   LIG d   1       2.274  -2.556 -14.696  0.00  0.00     0.062 H 
ATOM     53  H   LIG d   1       0.072  -2.535 -13.668  0.00  0.00     0.062 H 
ATOM     54  H   LIG d   1      -0.312  -1.529 -11.445  0.00  0.00     0.064 H 
ATOM     55  C   LIG d   1       5.434  -0.122 -11.073  0.00  0.00    -0.009 C 
ATOM     56  H   LIG d   1       5.632   0.251 -12.078  0.00  0.00     0.033 H 
ATOM     57  H   LIG d   1       5.958  -1.068 -10.931  0.00  0.00     0.033 H 
ATOM     58  H   LIG d   1       5.725   1.910 -10.387  0.00  0.00     0.047 H 
ATOM     59  H   LIG d   1       7.014   0.778  -9.900  0.00  0.00     0.047 H 
BRANCH  37  60
ATOM     60  C   LIG d   1       3.305   2.214  -8.586  0.00  0.00    -0.029 C 
ATOM     61  H   LIG d   1       3.385   2.576  -7.561  0.00  0.00     0.026 H 
ATOM     62  H   LIG d   1       3.932   2.825  -9.236  0.00  0.00     0.026 H 
ATOM     63  H   LIG d   1       2.268   2.282  -8.915  0.00  0.00     0.026 H 
ENDBRANCH  37  60
ENDBRANCH   1  33
TORSDOF 11
ENDMDL
MODEL 5
REMARK VINA RESULT:      -6.0      1.996      6.358
REMARK  11 active torsions:
REMARK  status: ('A' for Active; 'I' for Inactive)
REMARK    1  A    between atoms: C_1  and  C_2 
REMARK    2  A    between atoms: C_2  and  C_3 
REMARK    3  A    between atoms: C_2  and  C_4 
REMARK    4  A    between atoms: C_4  and  C_5 
REMARK    5  A    between atoms: C_5  and  C_7 
REMARK    6  A    between atoms: C_5  and  N_14 
REMARK       I    between atoms: C_7  and  N_9 
REMARK    7  A    between atoms: N_9  and  C_10 
REMARK    8  A    between atoms: C_10  and  C_11 
REMARK    9  A    between atoms: C_11  and  C_12 
REMARK   10  A    between atoms: C_11  and  C_13 
REMARK   11  A    between atoms: C_17  and  C_33 
ROOT
ATOM      1  C   LIG d   1       7.571   0.553  -3.881  0.00  0.00     0.111 C 
ATOM      2  H   LIG d   1       8.296   0.058  -3.235  0.00  0.00     0.060 H 
ENDROOT
BRANCH   1   3
ATOM      3  C   LIG d   1       8.079   1.951  -4.241  0.00  0.00    -0.023 C 
ATOM      4  H   LIG d   1       7.369   2.698  -3.887  0.00  0.00     0.029 H 
ATOM      5  H   LIG d   1       8.183   2.031  -5.324  0.00  0.00     0.029 H 
BRANCH   3   6
ATOM      6  C   LIG d   1       9.439   2.185  -3.580  0.00  0.00    -0.045 C 
ATOM      7  H   LIG d   1       9.472   1.665  -2.623  0.00  0.00     0.030 H 
BRANCH   6   8
ATOM      8  C   LIG d   1       9.644   3.684  -3.354  0.00  0.00    -0.063 C 
ATOM      9  H   LIG d   1       9.266   3.958  -2.369  0.00  0.00     0.023 H 
ATOM     10  H   LIG d   1       9.105   4.244  -4.118  0.00  0.00     0.023 H 
ATOM     11  H   LIG d   1      10.707   3.919  -3.413  0.00  0.00     0.023 H 
ENDBRANCH   6   8
BRANCH   6  12
ATOM     12  C   LIG d   1      10.546   1.650  -4.489  0.00  0.00    -0.063 C 
ATOM     13  H   LIG d   1      11.419   2.298  -4.418  0.00  0.00     0.023 H 
ATOM     14  H   LIG d   1      10.817   0.641  -4.177  0.00  0.00     0.023 H 
ATOM     15  H   LIG d   1      10.192   1.629  -5.520  0.00  0.00     0.023 H 
ENDBRANCH   6  12
ENDBRANCH   3   6
ENDBRANCH   1   3
BRANCH   1  16
ATOM     16  C   LIG d   1       6.252   0.669  -3.160  0.00  0.00     0.234 C 
ATOM     17  O   LIG d   1       5.694   1.744  -3.085  0.00  0.00    -0.274 OA
ATOM     18  N   LIG d   1       5.693  -0.422  -2.599  0.00  0.00    -0.314 N 
ATOM     19  H   LIG d   1       6.139  -1.281  -2.659  0.00  0.00     0.149 HD
BRANCH  18  20
ATOM     20  C   LIG d   1       4.411  -0.310  -1.898  0.00  0.00     0.014 C 
ATOM     21  H   LIG d   1       4.556  -0.524  -0.840  0.00  0.00     0.046 H 
ATOM     22  H   LIG d   1       4.022   0.702  -2.013  0.00  0.00     0.046 H 
BRANCH  20  23
ATOM     23  C   LIG d   1       3.417  -1.310  -2.491  0.00  0.00    -0.031 C 
ATOM     24  H   LIG d   1       2.798  -1.722  -1.694  0.00  0.00     0.031 H 
BRANCH  23  25
ATOM     25  C   LIG d   1       2.526  -0.599  -3.512  0.00  0.00    -0.061 C 
ATOM     26  H   LIG d   1       1.955   0.183  -3.013  0.00  0.00     0.023 H 
ATOM     27  H   LIG d   1       3.148  -0.156  -4.290  0.00  0.00     0.023 H 
ATOM     28  H   LIG d   1       1.842  -1.319  -3.960  0.00  0.00     0.023 H 
ENDBRANCH  23  25
BRANCH  23  29
ATOM     29  C   LIG d   1       4.182  -2.441  -3.180  0.00  0.00    -0.061 C 
ATOM     30  H   LIG d   1       4.931  -2.842  -2.498  0.00  0.00     0.023 H 
ATOM     31  H   LIG d   1       3.485  -3.232  -3.461  0.00  0.00     0.023 H 
ATOM     32  H   LIG d   1       4.673  -2.056  -4.074  0.00  0.00     0.023 H 
ENDBRANCH  23  29
ENDBRANCH  20  23
ENDBRANCH  18  20
ENDBRANCH   1  16
BRANCH   1  33
ATOM     33  N   LIG d   1       7.391  -0.232  -5.105  0.00  0.00    -0.212 N 
ATOM     34  C   LIG d   1       7.442  -1.572  -5.157  0.00  0.00     0.313 C 
ATOM     35  N   LIG d   1       7.137  -2.033  -6.370  0.00  0.00    -0.266 N 
ATOM     36  O   LIG d   1       7.728  -2.280  -4.210  0.00  0.00    -0.252 OA
ATOM     37  C   LIG d   1       7.137  -0.863  -7.281  0.00  0.00     0.153 C 
ATOM     38  C   LIG d   1       6.769  -3.378  -6.815  0.00  0.00     0.022 C 
ATOM     39  C   LIG d   1       7.158   0.304  -6.323  0.00  0.00     0.253 C 
ATOM     40  C   LIG d   1       5.835  -0.932  -8.044  0.00  0.00     0.053 A 
ATOM     41  O   LIG d   1       7.001   1.476  -6.592  0.00  0.00    -0.272 OA
ATOM     42  N   LIG d   1       5.264   0.043  -8.798  0.00  0.00    -0.356 N 
ATOM     43  C   LIG d   1       5.044  -2.041  -8.032  0.00  0.00    -0.015 A 
ATOM     44  C   LIG d   1       4.091  -0.406  -9.331  0.00  0.00     0.047 A 
ATOM     45  H   LIG d   1       5.640   0.925  -8.940  0.00  0.00     0.166 HD
ATOM     46  C   LIG d   1       3.902  -1.736  -8.875  0.00  0.00     0.003 A 
ATOM     47  C   LIG d   1       3.154   0.195 -10.170  0.00  0.00    -0.038 A 
ATOM     48  C   LIG d   1       2.782  -2.481  -9.252  0.00  0.00    -0.052 A 
ATOM     49  C   LIG d   1       1.876  -1.865 -10.079  0.00  0.00    -0.061 A 
ATOM     50  H   LIG d   1       2.636  -3.495  -8.909  0.00  0.00     0.062 H 
ATOM     51  C   LIG d   1       2.053  -0.565 -10.525  0.00  0.00    -0.060 A 
ATOM     52  H   LIG d   1       0.997  -2.410 -10.391  0.00  0.00     0.062 H 
ATOM     53  H   LIG d   1       1.307  -0.131 -11.174  0.00  0.00     0.062 H 
ATOM     54  H   LIG d   1       3.280   1.207 -10.525  0.00  0.00     0.064 H 
ATOM     55  C   LIG d   1       5.310  -3.328  -7.293  0.00  0.00    -0.009 C 
ATOM     56  H   LIG d   1       5.119  -4.171  -7.957  0.00  0.00     0.033 H 
ATOM     57  H   LIG d   1       4.646  -3.393  -6.430  0.00  0.00     0.033 H 
ATOM     58  H   LIG d   1       7.416  -3.685  -7.637  0.00  0.00     0.047 H 
ATOM     59  H   LIG d   1       6.863  -4.080  -5.987  0.00  0.00     0.047 H 
BRANCH  37  60
ATOM     60  C   LIG d   1       8.347  -0.859  -8.216  0.00  0.00    -0.029 C 
ATOM     61  H   LIG d   1       8.314   0.027  -8.850  0.00  0.00     0.026 H 
ATOM     62  H   LIG d   1       9.263  -0.849  -7.626  0.00  0.00     0.026 H 
ATOM     63  H   LIG d   1       8.328  -1.752  -8.841  0.00  0.00     0.026 H 
ENDBRANCH  37  60
ENDBRANCH   1  33
TORSDOF 11
ENDMDL
MODEL 6
REMARK VINA RESULT:      -5.7      3.285      5.854
REMARK  11 active torsions:
REMARK  status: ('A' for Active; 'I' for Inactive)
REMARK    1  A    between atoms: C_1  and  C_2 
REMARK    2  A    between atoms: C_2  and  C_3 
REMARK    3  A    between atoms: C_2  and  C_4 
REMARK    4  A    between atoms: C_4  and  C_5 
REMARK    5  A    between atoms: C_5  and  C_7 
REMARK    6  A    between atoms: C_5  and  N_14 
REMARK       I    between atoms: C_7  and  N_9 
REMARK    7  A    between atoms: N_9  and  C_10 
REMARK    8  A    between atoms: C_10  and  C_11 
REMARK    9  A    between atoms: C_11  and  C_12 
REMARK   10  A    between atoms: C_11  and  C_13 
REMARK   11  A    between atoms: C_17  and  C_33 
ROOT
ATOM      1  C   LIG d   1       4.151  -0.792  -4.932  0.00  0.00     0.111 C 
ATOM      2  H   LIG d   1       3.533  -1.533  -4.425  0.00  0.00     0.060 H 
ENDROOT
BRANCH   1   3
ATOM      3  C   LIG d   1       4.619   0.258  -3.922  0.00  0.00    -0.023 C 
ATOM      4  H   LIG d   1       4.351   1.252  -4.281  0.00  0.00     0.029 H 
ATOM      5  H   LIG d   1       5.701   0.193  -3.806  0.00  0.00     0.029 H 
BRANCH   3   6
ATOM      6  C   LIG d   1       3.944   0.004  -2.573  0.00  0.00    -0.045 C 
ATOM      7  H   LIG d   1       2.868   0.143  -2.672  0.00  0.00     0.030 H 
BRANCH   6   8
ATOM      8  C   LIG d   1       4.492   0.987  -1.536  0.00  0.00    -0.063 C 
ATOM      9  H   LIG d   1       4.482   0.519  -0.551  0.00  0.00     0.023 H 
ATOM     10  H   LIG d   1       3.870   1.882  -1.519  0.00  0.00     0.023 H 
ATOM     11  H   LIG d   1       5.514   1.259  -1.798  0.00  0.00     0.023 H 
ENDBRANCH   6   8
BRANCH   6  12
ATOM     12  C   LIG d   1       4.233  -1.428  -2.121  0.00  0.00    -0.063 C 
ATOM     13  H   LIG d   1       5.309  -1.606  -2.144  0.00  0.00     0.023 H 
ATOM     14  H   LIG d   1       3.864  -1.571  -1.105  0.00  0.00     0.023 H 
ATOM     15  H   LIG d   1       3.735  -2.128  -2.791  0.00  0.00     0.023 H 
ENDBRANCH   6  12
ENDBRANCH   3   6
ENDBRANCH   1   3
BRANCH   1  16
ATOM     16  C   LIG d   1       3.346  -0.123  -6.017  0.00  0.00     0.234 C 
ATOM     17  O   LIG d   1       2.903   0.992  -5.842  0.00  0.00    -0.274 OA
ATOM     18  N   LIG d   1       3.120  -0.765  -7.180  0.00  0.00    -0.314 N 
ATOM     19  H   LIG d   1       3.475  -1.657  -7.320  0.00  0.00     0.149 HD
BRANCH  18  20
ATOM     20  C   LIG d   1       2.338  -0.115  -8.235  0.00  0.00     0.014 C 
ATOM     21  H   LIG d   1       1.275  -0.232  -8.024  0.00  0.00     0.046 H 
ATOM     22  H   LIG d   1       2.586   0.947  -8.270  0.00  0.00     0.046 H 
BRANCH  20  23
ATOM     23  C   LIG d   1       2.665  -0.759  -9.583  0.00  0.00    -0.031 C 
ATOM     24  H   LIG d   1       1.754  -1.171 -10.019  0.00  0.00     0.031 H 
BRANCH  23  25
ATOM     25  C   LIG d   1       3.250   0.296 -10.524  0.00  0.00    -0.061 C 
ATOM     26  H   LIG d   1       4.085   0.796 -10.034  0.00  0.00     0.023 H 
ATOM     27  H   LIG d   1       3.598  -0.185 -11.437  0.00  0.00     0.023 H 
ATOM     28  H   LIG d   1       2.481   1.029 -10.770  0.00  0.00     0.023 H 
ENDBRANCH  23  25
BRANCH  23  29
ATOM     29  C   LIG d   1       3.684  -1.882  -9.377  0.00  0.00    -0.061 C 
ATOM     30  H   LIG d   1       3.165  -2.839  -9.322  0.00  0.00     0.023 H 
ATOM     31  H   LIG d   1       4.384  -1.895 -10.214  0.00  0.00     0.023 H 
ATOM     32  H   LIG d   1       4.230  -1.711  -8.450  0.00  0.00     0.023 H 
ENDBRANCH  23  29
ENDBRANCH  20  23
ENDBRANCH  18  20
ENDBRANCH   1  16
BRANCH   1  33
ATOM     33  N   LIG d   1       5.317  -1.452  -5.525  0.00  0.00    -0.212 N 
ATOM     34  C   LIG d   1       6.250  -0.823  -6.258  0.00  0.00     0.313 C 
ATOM     35  N   LIG d   1       7.255  -1.636  -6.583  0.00  0.00    -0.266 N 
ATOM     36  O   LIG d   1       6.186   0.348  -6.581  0.00  0.00    -0.252 OA
ATOM     37  C   LIG d   1       6.815  -3.011  -6.249  0.00  0.00     0.153 C 
ATOM     38  C   LIG d   1       8.598  -1.338  -7.086  0.00  0.00     0.022 C 
ATOM     39  C   LIG d   1       5.583  -2.772  -5.409  0.00  0.00     0.253 C 
ATOM     40  C   LIG d   1       7.934  -3.619  -5.436  0.00  0.00     0.053 A 
ATOM     41  O   LIG d   1       4.964  -3.592  -4.765  0.00  0.00    -0.272 OA
ATOM     42  N   LIG d   1       7.894  -4.754  -4.691  0.00  0.00    -0.356 N 
ATOM     43  C   LIG d   1       9.163  -3.040  -5.346  0.00  0.00    -0.015 A 
ATOM     44  C   LIG d   1       9.109  -4.973  -4.109  0.00  0.00     0.047 A 
ATOM     45  H   LIG d   1       7.117  -5.326  -4.593  0.00  0.00     0.166 HD
ATOM     46  C   LIG d   1       9.960  -3.907  -4.498  0.00  0.00     0.003 A 
ATOM     47  C   LIG d   1       9.578  -5.988  -3.278  0.00  0.00    -0.038 A 
ATOM     48  C   LIG d   1      11.288  -3.843  -4.065  0.00  0.00    -0.052 A 
ATOM     49  C   LIG d   1      11.723  -4.856  -3.247  0.00  0.00    -0.061 A 
ATOM     50  H   LIG d   1      11.940  -3.035  -4.360  0.00  0.00     0.062 H 
ATOM     51  C   LIG d   1      10.896  -5.898  -2.862  0.00  0.00    -0.060 A 
ATOM     52  H   LIG d   1      12.744  -4.840  -2.893  0.00  0.00     0.062 H 
ATOM     53  H   LIG d   1      11.292  -6.668  -2.217  0.00  0.00     0.062 H 
ATOM     54  H   LIG d   1       8.944  -6.806  -2.971  0.00  0.00     0.064 H 
ATOM     55  C   LIG d   1       9.604  -1.757  -6.004  0.00  0.00    -0.009 C 
ATOM     56  H   LIG d   1      10.584  -1.903  -6.460  0.00  0.00     0.033 H 
ATOM     57  H   LIG d   1       9.673  -0.970  -5.251  0.00  0.00     0.033 H 
ATOM     58  H   LIG d   1       8.782  -1.901  -8.001  0.00  0.00     0.047 H 
ATOM     59  H   LIG d   1       8.690  -0.270  -7.283  0.00  0.00     0.047 H 
BRANCH  37  60
ATOM     60  C   LIG d   1       6.504  -3.837  -7.499  0.00  0.00    -0.029 C 
ATOM     61  H   LIG d   1       5.848  -4.666  -7.233  0.00  0.00     0.026 H 
ATOM     62  H   LIG d   1       6.009  -3.207  -8.238  0.00  0.00     0.026 H 
ATOM     63  H   LIG d   1       7.432  -4.227  -7.917  0.00  0.00     0.026 H 
ENDBRANCH  37  60
ENDBRANCH   1  33
TORSDOF 11
ENDMDL
MODEL 7
REMARK VINA RESULT:      -5.7      3.682      5.883
REMARK  11 active torsions:
REMARK  status: ('A' for Active; 'I' for Inactive)
REMARK    1  A    between atoms: C_1  and  C_2 
REMARK    2  A    between atoms: C_2  and  C_3 
REMARK    3  A    between atoms: C_2  and  C_4 
REMARK    4  A    between atoms: C_4  and  C_5 
REMARK    5  A    between atoms: C_5  and  C_7 
REMARK    6  A    between atoms: C_5  and  N_14 
REMARK       I    between atoms: C_7  and  N_9 
REMARK    7  A    between atoms: N_9  and  C_10 
REMARK    8  A    between atoms: C_10  and  C_11 
REMARK    9  A    between atoms: C_11  and  C_12 
REMARK   10  A    between atoms: C_11  and  C_13 
REMARK   11  A    between atoms: C_17  and  C_33 
ROOT
ATOM      1  C   LIG d   1       4.153  -5.068  -8.269  0.00  0.00     0.111 C 
ATOM      2  H   LIG d   1       3.206  -5.249  -8.778  0.00  0.00     0.060 H 
ENDROOT
BRANCH   1   3
ATOM      3  C   LIG d   1       5.305  -5.570  -9.142  0.00  0.00    -0.023 C 
ATOM      4  H   LIG d   1       5.930  -6.249  -8.563  0.00  0.00     0.029 H 
ATOM      5  H   LIG d   1       5.903  -4.722  -9.477  0.00  0.00     0.029 H 
BRANCH   3   6
ATOM      6  C   LIG d   1       4.740  -6.307 -10.357  0.00  0.00    -0.045 C 
ATOM      7  H   LIG d   1       3.745  -6.686 -10.123  0.00  0.00     0.030 H 
BRANCH   6   8
ATOM      8  C   LIG d   1       5.659  -7.477 -10.716  0.00  0.00    -0.063 C 
ATOM      9  H   LIG d   1       5.375  -7.876 -11.690  0.00  0.00     0.023 H 
ATOM     10  H   LIG d   1       5.565  -8.258  -9.962  0.00  0.00     0.023 H 
ATOM     11  H   LIG d   1       6.692  -7.129 -10.753  0.00  0.00     0.023 H 
ENDBRANCH   6   8
BRANCH   6  12
ATOM     12  C   LIG d   1       4.653  -5.344 -11.542  0.00  0.00    -0.063 C 
ATOM     13  H   LIG d   1       5.072  -5.820 -12.428  0.00  0.00     0.023 H 
ATOM     14  H   LIG d   1       3.610  -5.088 -11.727  0.00  0.00     0.023 H 
ATOM     15  H   LIG d   1       5.215  -4.438 -11.316  0.00  0.00     0.023 H 
ENDBRANCH   6  12
ENDBRANCH   3   6
ENDBRANCH   1   3
BRANCH   1  16
ATOM     16  C   LIG d   1       4.163  -5.801  -6.952  0.00  0.00     0.234 C 
ATOM     17  O   LIG d   1       3.336  -5.538  -6.105  0.00  0.00    -0.274 OA
ATOM     18  N   LIG d   1       5.091  -6.750  -6.717  0.00  0.00    -0.314 N 
ATOM     19  H   LIG d   1       5.753  -6.960  -7.394  0.00  0.00     0.149 HD
BRANCH  18  20
ATOM     20  C   LIG d   1       5.102  -7.463  -5.437  0.00  0.00     0.014 C 
ATOM     21  H   LIG d   1       6.092  -7.388  -4.987  0.00  0.00     0.046 H 
ATOM     22  H   LIG d   1       4.365  -7.018  -4.767  0.00  0.00     0.046 H 
BRANCH  20  23
ATOM     23  C   LIG d   1       4.757  -8.934  -5.670  0.00  0.00    -0.031 C 
ATOM     24  H   LIG d   1       3.766  -9.144  -5.267  0.00  0.00     0.031 H 
BRANCH  23  25
ATOM     25  C   LIG d   1       4.770  -9.229  -7.171  0.00  0.00    -0.061 C 
ATOM     26  H   LIG d   1       3.791  -9.597  -7.477  0.00  0.00     0.023 H 
ATOM     27  H   LIG d   1       5.003  -8.317  -7.718  0.00  0.00     0.023 H 
ATOM     28  H   LIG d   1       5.525  -9.985  -7.386  0.00  0.00     0.023 H 
ENDBRANCH  23  25
BRANCH  23  29
ATOM     29  C   LIG d   1       5.790  -9.818  -4.967  0.00  0.00    -0.061 C 
ATOM     30  H   LIG d   1       6.682  -9.899  -5.589  0.00  0.00     0.023 H 
ATOM     31  H   LIG d   1       6.055  -9.373  -4.007  0.00  0.00     0.023 H 
ATOM     32  H   LIG d   1       5.369 -10.810  -4.804  0.00  0.00     0.023 H 
ENDBRANCH  23  29
ENDBRANCH  20  23
ENDBRANCH  18  20
ENDBRANCH   1  16
BRANCH   1  33
ATOM     33  N   LIG d   1       4.312  -3.631  -8.029  0.00  0.00    -0.212 N 
ATOM     34  C   LIG d   1       3.528  -2.684  -8.568  0.00  0.00     0.313 C 
ATOM     35  N   LIG d   1       3.823  -1.471  -8.099  0.00  0.00    -0.266 N 
ATOM     36  O   LIG d   1       2.653  -2.906  -9.383  0.00  0.00    -0.252 OA
ATOM     37  C   LIG d   1       5.107  -1.599  -7.368  0.00  0.00     0.153 C 
ATOM     38  C   LIG d   1       3.068  -0.218  -8.153  0.00  0.00     0.022 C 
ATOM     39  C   LIG d   1       5.270  -3.095  -7.241  0.00  0.00     0.253 C 
ATOM     40  C   LIG d   1       4.884  -0.948  -6.024  0.00  0.00     0.053 A 
ATOM     41  O   LIG d   1       6.089  -3.689  -6.574  0.00  0.00    -0.272 OA
ATOM     42  N   LIG d   1       5.670  -1.038  -4.919  0.00  0.00    -0.356 N 
ATOM     43  C   LIG d   1       3.793  -0.176  -5.762  0.00  0.00    -0.015 A 
ATOM     44  C   LIG d   1       5.133  -0.302  -3.903  0.00  0.00     0.047 A 
ATOM     45  H   LIG d   1       6.494  -1.547  -4.865  0.00  0.00     0.166 HD
ATOM     46  C   LIG d   1       3.932   0.274  -4.389  0.00  0.00     0.003 A 
ATOM     47  C   LIG d   1       5.556  -0.063  -2.597  0.00  0.00    -0.038 A 
ATOM     48  C   LIG d   1       3.141   1.095  -3.581  0.00  0.00    -0.052 A 
ATOM     49  C   LIG d   1       3.582   1.314  -2.299  0.00  0.00    -0.061 A 
ATOM     50  H   LIG d   1       2.227   1.538  -3.947  0.00  0.00     0.062 H 
ATOM     51  C   LIG d   1       4.753   0.751  -1.817  0.00  0.00    -0.060 A 
ATOM     52  H   LIG d   1       2.996   1.943  -1.644  0.00  0.00     0.062 H 
ATOM     53  H   LIG d   1       5.050   0.957  -0.800  0.00  0.00     0.062 H 
ATOM     54  H   LIG d   1       6.467  -0.495  -2.210  0.00  0.00     0.064 H 
ATOM     55  C   LIG d   1       2.670   0.148  -6.715  0.00  0.00    -0.009 C 
ATOM     56  H   LIG d   1       2.449   1.214  -6.663  0.00  0.00     0.033 H 
ATOM     57  H   LIG d   1       1.782  -0.418  -6.432  0.00  0.00     0.033 H 
ATOM     58  H   LIG d   1       3.690   0.570  -8.576  0.00  0.00     0.047 H 
ATOM     59  H   LIG d   1       2.174  -0.352  -8.761  0.00  0.00     0.047 H 
BRANCH  37  60
ATOM     60  C   LIG d   1       6.270  -0.958  -8.127  0.00  0.00    -0.029 C 
ATOM     61  H   LIG d   1       6.733  -1.700  -8.777  0.00  0.00     0.026 H 
ATOM     62  H   LIG d   1       5.898  -0.130  -8.730  0.00  0.00     0.026 H 
ATOM     63  H   LIG d   1       7.008  -0.587  -7.416  0.00  0.00     0.026 H 
ENDBRANCH  37  60
ENDBRANCH   1  33
TORSDOF 11
ENDMDL
MODEL 8
REMARK VINA RESULT:      -5.7      3.997      5.919
REMARK  11 active torsions:
REMARK  status: ('A' for Active; 'I' for Inactive)
REMARK    1  A    between atoms: C_1  and  C_2 
REMARK    2  A    between atoms: C_2  and  C_3 
REMARK    3  A    between atoms: C_2  and  C_4 
REMARK    4  A    between atoms: C_4  and  C_5 
REMARK    5  A    between atoms: C_5  and  C_7 
REMARK    6  A    between atoms: C_5  and  N_14 
REMARK       I    between atoms: C_7  and  N_9 
REMARK    7  A    between atoms: N_9  and  C_10 
REMARK    8  A    between atoms: C_10  and  C_11 
REMARK    9  A    between atoms: C_11  and  C_12 
REMARK   10  A    between atoms: C_11  and  C_13 
REMARK   11  A    between atoms: C_17  and  C_33 
ROOT
ATOM      1  C   LIG d   1       6.036  -3.547  -9.441  0.00  0.00     0.111 C 
ATOM      2  H   LIG d   1       7.064  -3.633  -9.794  0.00  0.00     0.060 H 
ENDROOT
BRANCH   1   3
ATOM      3  C   LIG d   1       5.190  -4.664 -10.056  0.00  0.00    -0.023 C 
ATOM      4  H   LIG d   1       4.592  -4.260 -10.872  0.00  0.00     0.029 H 
ATOM      5  H   LIG d   1       4.531  -5.082  -9.294  0.00  0.00     0.029 H 
BRANCH   3   6
ATOM      6  C   LIG d   1       6.109  -5.763 -10.593  0.00  0.00    -0.045 C 
ATOM      7  H   LIG d   1       5.654  -6.221 -11.471  0.00  0.00     0.030 H 
BRANCH   6   8
ATOM      8  C   LIG d   1       6.317  -6.827  -9.513  0.00  0.00    -0.063 C 
ATOM      9  H   LIG d   1       5.348  -7.202  -9.182  0.00  0.00     0.023 H 
ATOM     10  H   LIG d   1       6.844  -6.387  -8.666  0.00  0.00     0.023 H 
ATOM     11  H   LIG d   1       6.905  -7.649  -9.920  0.00  0.00     0.023 H 
ENDBRANCH   6   8
BRANCH   6  12
ATOM     12  C   LIG d   1       7.459  -5.156 -10.977  0.00  0.00    -0.063 C 
ATOM     13  H   LIG d   1       7.340  -4.085 -11.146  0.00  0.00     0.023 H 
ATOM     14  H   LIG d   1       8.174  -5.318 -10.170  0.00  0.00     0.023 H 
ATOM     15  H   LIG d   1       7.825  -5.629 -11.887  0.00  0.00     0.023 H 
ENDBRANCH   6  12
ENDBRANCH   3   6
ENDBRANCH   1   3
BRANCH   1  16
ATOM     16  C   LIG d   1       5.475  -2.209  -9.850  0.00  0.00     0.234 C 
ATOM     17  O   LIG d   1       6.124  -1.200  -9.672  0.00  0.00    -0.274 OA
ATOM     18  N   LIG d   1       4.253  -2.135 -10.412  0.00  0.00    -0.314 N 
ATOM     19  H   LIG d   1       3.733  -2.942 -10.554  0.00  0.00     0.149 HD
BRANCH  18  20
ATOM     20  C   LIG d   1       3.707  -0.834 -10.809  0.00  0.00     0.014 C 
ATOM     21  H   LIG d   1       4.345  -0.039 -10.423  0.00  0.00     0.046 H 
ATOM     22  H   LIG d   1       3.669  -0.773 -11.898  0.00  0.00     0.046 H 
BRANCH  20  23
ATOM     23  C   LIG d   1       2.296  -0.678 -10.240  0.00  0.00    -0.031 C 
ATOM     24  H   LIG d   1       1.710  -0.032 -10.895  0.00  0.00     0.031 H 
BRANCH  23  25
ATOM     25  C   LIG d   1       1.628  -2.052 -10.148  0.00  0.00    -0.061 C 
ATOM     26  H   LIG d   1       2.355  -2.785  -9.801  0.00  0.00     0.023 H 
ATOM     27  H   LIG d   1       0.796  -2.004  -9.447  0.00  0.00     0.023 H 
ATOM     28  H   LIG d   1       1.259  -2.342 -11.131  0.00  0.00     0.023 H 
ENDBRANCH  23  25
BRANCH  23  29
ATOM     29  C   LIG d   1       2.375  -0.053  -8.846  0.00  0.00    -0.061 C 
ATOM     30  H   LIG d   1       2.622  -0.824  -8.115  0.00  0.00     0.023 H 
ATOM     31  H   LIG d   1       3.146   0.718  -8.836  0.00  0.00     0.023 H 
ATOM     32  H   LIG d   1       1.413   0.393  -8.592  0.00  0.00     0.023 H 
ENDBRANCH  23  29
ENDBRANCH  20  23
ENDBRANCH  18  20
ENDBRANCH   1  16
BRANCH   1  33
ATOM     33  N   LIG d   1       6.009  -3.663  -7.981  0.00  0.00    -0.212 N 
ATOM     34  C   LIG d   1       7.095  -3.874  -7.220  0.00  0.00     0.313 C 
ATOM     35  N   LIG d   1       6.805  -3.828  -5.919  0.00  0.00    -0.266 N 
ATOM     36  O   LIG d   1       8.208  -4.079  -7.664  0.00  0.00    -0.252 OA
ATOM     37  C   LIG d   1       5.326  -3.845  -5.813  0.00  0.00     0.153 C 
ATOM     38  C   LIG d   1       7.678  -3.695  -4.751  0.00  0.00     0.022 C 
ATOM     39  C   LIG d   1       4.887  -3.575  -7.232  0.00  0.00     0.253 C 
ATOM     40  C   LIG d   1       4.964  -2.703  -4.892  0.00  0.00     0.053 A 
ATOM     41  O   LIG d   1       3.764  -3.331  -7.619  0.00  0.00    -0.272 OA
ATOM     42  N   LIG d   1       3.737  -2.157  -4.693  0.00  0.00    -0.356 N 
ATOM     43  C   LIG d   1       5.896  -2.053  -4.141  0.00  0.00    -0.015 A 
ATOM     44  C   LIG d   1       3.818  -1.147  -3.780  0.00  0.00     0.047 A 
ATOM     45  H   LIG d   1       2.922  -2.449  -5.133  0.00  0.00     0.166 HD
ATOM     46  C   LIG d   1       5.177  -1.039  -3.390  0.00  0.00     0.003 A 
ATOM     47  C   LIG d   1       2.855  -0.299  -3.234  0.00  0.00    -0.038 A 
ATOM     48  C   LIG d   1       5.592  -0.089  -2.453  0.00  0.00    -0.052 A 
ATOM     49  C   LIG d   1       4.623   0.733  -1.933  0.00  0.00    -0.061 A 
ATOM     50  H   LIG d   1       6.625  -0.004  -2.152  0.00  0.00     0.062 H 
ATOM     51  C   LIG d   1       3.293   0.634  -2.311  0.00  0.00    -0.060 A 
ATOM     52  H   LIG d   1       4.906   1.480  -1.205  0.00  0.00     0.062 H 
ATOM     53  H   LIG d   1       2.574   1.308  -1.869  0.00  0.00     0.062 H 
ATOM     54  H   LIG d   1       1.816  -0.366  -3.520  0.00  0.00     0.064 H 
ATOM     55  C   LIG d   1       7.376  -2.338  -4.097  0.00  0.00    -0.009 C 
ATOM     56  H   LIG d   1       7.709  -2.357  -3.059  0.00  0.00     0.033 H 
ATOM     57  H   LIG d   1       7.911  -1.553  -4.632  0.00  0.00     0.033 H 
ATOM     58  H   LIG d   1       7.475  -4.500  -4.045  0.00  0.00     0.047 H 
ATOM     59  H   LIG d   1       8.721  -3.730  -5.064  0.00  0.00     0.047 H 
BRANCH  37  60
ATOM     60  C   LIG d   1       4.799  -5.184  -5.296  0.00  0.00    -0.029 C 
ATOM     61  H   LIG d   1       3.774  -5.062  -4.947  0.00  0.00     0.026 H 
ATOM     62  H   LIG d   1       4.824  -5.920  -6.099  0.00  0.00     0.026 H 
ATOM     63  H   LIG d   1       5.424  -5.527  -4.471  0.00  0.00     0.026 H 
ENDBRANCH  37  60
ENDBRANCH   1  33
TORSDOF 11
ENDMDL
MODEL 9
REMARK VINA RESULT:      -5.7      2.017      7.197
REMARK  11 active torsions:
REMARK  status: ('A' for Active; 'I' for Inactive)
REMARK    1  A    between atoms: C_1  and  C_2 
REMARK    2  A    between atoms: C_2  and  C_3 
REMARK    3  A    between atoms: C_2  and  C_4 
REMARK    4  A    between atoms: C_4  and  C_5 
REMARK    5  A    between atoms: C_5  and  C_7 
REMARK    6  A    between atoms: C_5  and  N_14 
REMARK       I    between atoms: C_7  and  N_9 
REMARK    7  A    between atoms: N_9  and  C_10 
REMARK    8  A    between atoms: C_10  and  C_11 
REMARK    9  A    between atoms: C_11  and  C_12 
REMARK   10  A    between atoms: C_11  and  C_13 
REMARK   11  A    between atoms: C_17  and  C_33 
ROOT
ATOM      1  C   LIG d   1       5.345  -0.344  -4.212  0.00  0.00     0.111 C 
ATOM      2  H   LIG d   1       4.702   0.525  -4.359  0.00  0.00     0.060 H 
ENDROOT
BRANCH   1   3
ATOM      3  C   LIG d   1       4.791  -1.201  -3.072  0.00  0.00    -0.023 C 
ATOM      4  H   LIG d   1       5.555  -1.322  -2.304  0.00  0.00     0.029 H 
ATOM      5  H   LIG d   1       4.506  -2.180  -3.459  0.00  0.00     0.029 H 
BRANCH   3   6
ATOM      6  C   LIG d   1       3.564  -0.515  -2.468  0.00  0.00    -0.045 C 
ATOM      7  H   LIG d   1       3.256  -1.046  -1.568  0.00  0.00     0.030 H 
BRANCH   6   8
ATOM      8  C   LIG d   1       2.421  -0.528  -3.485  0.00  0.00    -0.063 C 
ATOM      9  H   LIG d   1       2.241  -1.551  -3.816  0.00  0.00     0.023 H 
ATOM     10  H   LIG d   1       2.689   0.089  -4.343  0.00  0.00     0.023 H 
ATOM     11  H   LIG d   1       1.517  -0.132  -3.021  0.00  0.00     0.023 H 
ENDBRANCH   6   8
BRANCH   6  12
ATOM     12  C   LIG d   1       3.913   0.931  -2.112  0.00  0.00    -0.063 C 
ATOM     13  H   LIG d   1       3.002   1.528  -2.084  0.00  0.00     0.023 H 
ATOM     14  H   LIG d   1       4.396   0.959  -1.135  0.00  0.00     0.023 H 
ATOM     15  H   LIG d   1       4.590   1.337  -2.863  0.00  0.00     0.023 H 
ENDBRANCH   6  12
ENDBRANCH   3   6
ENDBRANCH   1   3
BRANCH   1  16
ATOM     16  C   LIG d   1       6.738   0.114  -3.865  0.00  0.00     0.234 C 
ATOM     17  O   LIG d   1       7.485  -0.624  -3.259  0.00  0.00    -0.274 OA
ATOM     18  N   LIG d   1       7.153   1.344  -4.230  0.00  0.00    -0.314 N 
ATOM     19  H   LIG d   1       6.555   1.934  -4.715  0.00  0.00     0.149 HD
BRANCH  18  20
ATOM     20  C   LIG d   1       8.507   1.790  -3.893  0.00  0.00     0.014 C 
ATOM     21  H   LIG d   1       8.622   1.816  -2.809  0.00  0.00     0.046 H 
ATOM     22  H   LIG d   1       9.234   1.097  -4.318  0.00  0.00     0.046 H 
BRANCH  20  23
ATOM     23  C   LIG d   1       8.740   3.189  -4.464  0.00  0.00    -0.031 C 
ATOM     24  H   LIG d   1       7.786   3.711  -4.549  0.00  0.00     0.031 H 
BRANCH  23  25
ATOM     25  C   LIG d   1       9.669   3.972  -3.534  0.00  0.00    -0.061 C 
ATOM     26  H   LIG d   1       9.215   4.046  -2.546  0.00  0.00     0.023 H 
ATOM     27  H   LIG d   1      10.625   3.456  -3.457  0.00  0.00     0.023 H 
ATOM     28  H   LIG d   1       9.827   4.972  -3.937  0.00  0.00     0.023 H 
ENDBRANCH  23  25
BRANCH  23  29
ATOM     29  C   LIG d   1       9.382   3.074  -5.848  0.00  0.00    -0.061 C 
ATOM     30  H   LIG d   1      10.174   3.817  -5.945  0.00  0.00     0.023 H 
ATOM     31  H   LIG d   1       9.803   2.076  -5.972  0.00  0.00     0.023 H 
ATOM     32  H   LIG d   1       8.626   3.246  -6.615  0.00  0.00     0.023 H 
ENDBRANCH  23  29
ENDBRANCH  20  23
ENDBRANCH  18  20
ENDBRANCH   1  16
BRANCH   1  33
ATOM     33  N   LIG d   1       5.384  -1.137  -5.444  0.00  0.00    -0.212 N 
ATOM     34  C   LIG d   1       5.427  -2.478  -5.478  0.00  0.00     0.313 C 
ATOM     35  N   LIG d   1       5.346  -2.944  -6.725  0.00  0.00    -0.266 N 
ATOM     36  O   LIG d   1       5.523  -3.182  -4.491  0.00  0.00    -0.252 OA
ATOM     37  C   LIG d   1       5.529  -1.782  -7.626  0.00  0.00     0.153 C 
ATOM     38  C   LIG d   1       5.049  -4.289  -7.223  0.00  0.00     0.022 C 
ATOM     39  C   LIG d   1       5.388  -0.607  -6.687  0.00  0.00     0.253 C 
ATOM     40  C   LIG d   1       4.390  -1.842  -8.616  0.00  0.00     0.053 A 
ATOM     41  O   LIG d   1       5.298   0.564  -6.987  0.00  0.00    -0.272 OA
ATOM     42  N   LIG d   1       3.981  -0.867  -9.469  0.00  0.00    -0.356 N 
ATOM     43  C   LIG d   1       3.597  -2.942  -8.745  0.00  0.00    -0.015 A 
ATOM     44  C   LIG d   1       2.921  -1.306 -10.207  0.00  0.00     0.047 A 
ATOM     45  H   LIG d   1       4.388   0.011  -9.544  0.00  0.00     0.166 HD
ATOM     46  C   LIG d   1       2.634  -2.630  -9.787  0.00  0.00     0.003 A 
ATOM     47  C   LIG d   1       2.163  -0.701 -11.208  0.00  0.00    -0.038 A 
ATOM     48  C   LIG d   1       1.593  -3.365 -10.360  0.00  0.00    -0.052 A 
ATOM     49  C   LIG d   1       0.864  -2.745 -11.344  0.00  0.00    -0.061 A 
ATOM     50  H   LIG d   1       1.373  -4.375 -10.044  0.00  0.00     0.062 H 
ATOM     51  C   LIG d   1       1.137  -1.451 -11.757  0.00  0.00    -0.060 A 
ATOM     52  H   LIG d   1       0.051  -3.283 -11.810  0.00  0.00     0.062 H 
ATOM     53  H   LIG d   1       0.530  -1.013 -12.535  0.00  0.00     0.062 H 
ATOM     54  H   LIG d   1       2.366   0.307 -11.540  0.00  0.00     0.064 H 
ATOM     55  C   LIG d   1       3.704  -4.226  -7.962  0.00  0.00    -0.009 C 
ATOM     56  H   LIG d   1       3.628  -5.072  -8.645  0.00  0.00     0.033 H 
ATOM     57  H   LIG d   1       2.891  -4.276  -7.237  0.00  0.00     0.033 H 
ATOM     58  H   LIG d   1       5.833  -4.610  -7.908  0.00  0.00     0.047 H 
ATOM     59  H   LIG d   1       4.979  -4.985  -6.387  0.00  0.00     0.047 H 
BRANCH  37  60
ATOM     60  C   LIG d   1       6.891  -1.799  -8.321  0.00  0.00    -0.029 C 
ATOM     61  H   LIG d   1       7.314  -0.795  -8.318  0.00  0.00     0.026 H 
ATOM     62  H   LIG d   1       7.561  -2.476  -7.792  0.00  0.00     0.026 H 
ATOM     63  H   LIG d   1       6.771  -2.139  -9.350  0.00  0.00     0.026 H 
ENDBRANCH  37  60
ENDBRANCH   1  33
TORSDOF 11
ENDMDL
MODEL 10
REMARK VINA RESULT:      -5.6      2.379      5.353
REMARK  11 active torsions:
REMARK  status: ('A' for Active; 'I' for Inactive)
REMARK    1  A    between atoms: C_1  and  C_2 
REMARK    2  A    between atoms: C_2  and  C_3 
REMARK    3  A    between atoms: C_2  and  C_4 
REMARK    4  A    between atoms: C_4  and  C_5 
REMARK    5  A    between atoms: C_5  and  C_7 
REMARK    6  A    between atoms: C_5  and  N_14 
REMARK       I    between atoms: C_7  and  N_9 
REMARK    7  A    between atoms: N_9  and  C_10 
REMARK    8  A    between atoms: C_10  and  C_11 
REMARK    9  A    between atoms: C_11  and  C_12 
REMARK   10  A    between atoms: C_11  and  C_13 
REMARK   11  A    between atoms: C_17  and  C_33 
ROOT
ATOM      1  C   LIG d   1       7.036   0.915  -9.748  0.00  0.00     0.111 C 
ATOM      2  H   LIG d   1       7.543   1.829 -10.059  0.00  0.00     0.060 H 
ENDROOT
BRANCH   1   3
ATOM      3  C   LIG d   1       7.411  -0.224 -10.697  0.00  0.00    -0.023 C 
ATOM      4  H   LIG d   1       6.871  -0.108 -11.636  0.00  0.00     0.029 H 
ATOM      5  H   LIG d   1       7.145  -1.179 -10.241  0.00  0.00     0.029 H 
BRANCH   3   6
ATOM      6  C   LIG d   1       8.917  -0.190 -10.967  0.00  0.00    -0.045 C 
ATOM      7  H   LIG d   1       9.360   0.657 -10.444  0.00  0.00     0.030 H 
BRANCH   6   8
ATOM      8  C   LIG d   1       9.162  -0.046 -12.470  0.00  0.00    -0.063 C 
ATOM      9  H   LIG d   1       9.944   0.693 -12.642  0.00  0.00     0.023 H 
ATOM     10  H   LIG d   1       8.243   0.277 -12.960  0.00  0.00     0.023 H 
ATOM     11  H   LIG d   1       9.473  -1.007 -12.881  0.00  0.00     0.023 H 
ENDBRANCH   6   8
BRANCH   6  12
ATOM     12  C   LIG d   1       9.554  -1.487 -10.468  0.00  0.00    -0.063 C 
ATOM     13  H   LIG d   1       8.948  -2.335 -10.788  0.00  0.00     0.023 H 
ATOM     14  H   LIG d   1      10.558  -1.582 -10.880  0.00  0.00     0.023 H 
ATOM     15  H   LIG d   1       9.608  -1.470  -9.379  0.00  0.00     0.023 H 
ENDBRANCH   6  12
ENDBRANCH   3   6
ENDBRANCH   1   3
BRANCH   1  16
ATOM     16  C   LIG d   1       5.545   1.131  -9.785  0.00  0.00     0.234 C 
ATOM     17  O   LIG d   1       4.949   1.064 -10.839  0.00  0.00    -0.274 OA
ATOM     18  N   LIG d   1       4.875   1.396  -8.646  0.00  0.00    -0.314 N 
ATOM     19  H   LIG d   1       5.352   1.450  -7.803  0.00  0.00     0.149 HD
BRANCH  18  20
ATOM     20  C   LIG d   1       3.425   1.606  -8.682  0.00  0.00     0.014 C 
ATOM     21  H   LIG d   1       3.181   2.544  -8.185  0.00  0.00     0.046 H 
ATOM     22  H   LIG d   1       3.089   1.647  -9.719  0.00  0.00     0.046 H 
BRANCH  20  23
ATOM     23  C   LIG d   1       2.725   0.451  -7.964  0.00  0.00    -0.031 C 
ATOM     24  H   LIG d   1       1.773   0.797  -7.561  0.00  0.00     0.031 H 
BRANCH  23  25
ATOM     25  C   LIG d   1       2.476  -0.689  -8.954  0.00  0.00    -0.061 C 
ATOM     26  H   LIG d   1       1.422  -0.962  -8.935  0.00  0.00     0.023 H 
ATOM     27  H   LIG d   1       2.751  -0.365  -9.957  0.00  0.00     0.023 H 
ATOM     28  H   LIG d   1       3.080  -1.552  -8.673  0.00  0.00     0.023 H 
ENDBRANCH  23  25
BRANCH  23  29
ATOM     29  C   LIG d   1       3.610  -0.050  -6.821  0.00  0.00    -0.061 C 
ATOM     30  H   LIG d   1       2.986  -0.325  -5.971  0.00  0.00     0.023 H 
ATOM     31  H   LIG d   1       4.177  -0.920  -7.154  0.00  0.00     0.023 H 
ATOM     32  H   LIG d   1       4.301   0.740  -6.523  0.00  0.00     0.023 H 
ENDBRANCH  23  29
ENDBRANCH  20  23
ENDBRANCH  18  20
ENDBRANCH   1  16
BRANCH   1  33
ATOM     33  N   LIG d   1       7.446   0.570  -8.384  0.00  0.00    -0.212 N 
ATOM     34  C   LIG d   1       8.120   1.394  -7.567  0.00  0.00     0.313 C 
ATOM     35  N   LIG d   1       8.269   0.871  -6.349  0.00  0.00    -0.266 N 
ATOM     36  O   LIG d   1       8.540   2.487  -7.896  0.00  0.00    -0.252 OA
ATOM     37  C   LIG d   1       7.879  -0.555  -6.449  0.00  0.00     0.153 C 
ATOM     38  C   LIG d   1       8.646   1.498  -5.081  0.00  0.00     0.022 C 
ATOM     39  C   LIG d   1       7.198  -0.621  -7.796  0.00  0.00     0.253 C 
ATOM     40  C   LIG d   1       6.904  -0.798  -5.321  0.00  0.00     0.053 A 
ATOM     41  O   LIG d   1       6.563  -1.547  -8.252  0.00  0.00    -0.272 OA
ATOM     42  N   LIG d   1       6.080  -1.865  -5.153  0.00  0.00    -0.356 N 
ATOM     43  C   LIG d   1       6.727   0.096  -4.309  0.00  0.00    -0.015 A 
ATOM     44  C   LIG d   1       5.355  -1.719  -4.006  0.00  0.00     0.047 A 
ATOM     45  H   LIG d   1       6.023  -2.622  -5.757  0.00  0.00     0.166 HD
ATOM     46  C   LIG d   1       5.731  -0.482  -3.425  0.00  0.00     0.003 A 
ATOM     47  C   LIG d   1       4.401  -2.529  -3.394  0.00  0.00    -0.038 A 
ATOM     48  C   LIG d   1       5.164  -0.039  -2.227  0.00  0.00    -0.052 A 
ATOM     49  C   LIG d   1       4.227  -0.857  -1.645  0.00  0.00    -0.061 A 
ATOM     50  H   LIG d   1       5.449   0.901  -1.779  0.00  0.00     0.062 H 
ATOM     51  C   LIG d   1       3.853  -2.066  -2.210  0.00  0.00    -0.060 A 
ATOM     52  H   LIG d   1       3.765  -0.548  -0.718  0.00  0.00     0.062 H 
ATOM     53  H   LIG d   1       3.110  -2.668  -1.708  0.00  0.00     0.062 H 
ATOM     54  H   LIG d   1       4.101  -3.474  -3.823  0.00  0.00     0.064 H 
ATOM     55  C   LIG d   1       7.432   1.419  -4.144  0.00  0.00    -0.009 C 
ATOM     56  H   LIG d   1       7.766   1.523  -3.111  0.00  0.00     0.033 H 
ATOM     57  H   LIG d   1       6.740   2.229  -4.380  0.00  0.00     0.033 H 
ATOM     58  H   LIG d   1       9.488   0.964  -4.641  0.00  0.00     0.047 H 
ATOM     59  H   LIG d   1       8.915   2.540  -5.250  0.00  0.00     0.047 H 
BRANCH  37  60
ATOM     60  C   LIG d   1       9.086  -1.492  -6.372  0.00  0.00    -0.029 C 
ATOM     61  H   LIG d   1       9.522  -1.606  -7.364  0.00  0.00     0.026 H 
ATOM     62  H   LIG d   1       9.829  -1.072  -5.695  0.00  0.00     0.026 H 
ATOM     63  H   LIG d   1       8.767  -2.467  -6.001  0.00  0.00     0.026 H 
ENDBRANCH  37  60
ENDBRANCH   1  33
TORSDOF 11
ENDMDL
