MODEL 1
REMARK VINA RESULT:      -7.5      0.000      0.000
REMARK  2 active torsions:
REMARK  status: ('A' for Active; 'I' for Inactive)
REMARK    1  A    between atoms: C_1  and  C_2 
REMARK       I    between atoms: C_2  and  N_4 
REMARK    2  A    between atoms: N_4  and  C_5 
ROOT
ATOM      1  C   LIG d   1       4.797  -3.059  -5.719  0.00  0.00     0.039 A 
ATOM      2  C   LIG d   1       4.723  -3.014  -4.331  0.00  0.00    -0.035 A 
ATOM      3  C   LIG d   1       4.257  -1.879  -3.700  0.00  0.00    -0.022 A 
ATOM      4  C   LIG d   1       3.858  -0.779  -4.447  0.00  0.00     0.058 A 
ATOM      5  C   LIG d   1       3.939  -0.818  -5.837  0.00  0.00     0.060 A 
ATOM      6  C   LIG d   1       4.406  -1.962  -6.470  0.00  0.00    -0.003 A 
ATOM      7  C   LIG d   1       4.474  -2.003  -7.975  0.00  0.00    -0.016 C 
ATOM      8  C   LIG d   1       3.298  -1.210  -8.551  0.00  0.00     0.028 C 
ATOM      9  C   LIG d   1       3.236   0.146  -7.898  0.00  0.00     0.218 C 
ATOM     10  O   LIG d   1       2.883   1.111  -8.543  0.00  0.00    -0.276 OA
ATOM     11  N   LIG d   1       3.570   0.296  -6.601  0.00  0.00    -0.284 N 
ATOM     12  N   LIG d   1       3.372   0.364  -3.797  0.00  0.00    -0.284 N 
ATOM     13  C   LIG d   1       3.679   0.589  -2.505  0.00  0.00     0.218 C 
ATOM     14  O   LIG d   1       3.283   1.599  -1.961  0.00  0.00    -0.276 OA
ATOM     15  C   LIG d   1       4.509  -0.400  -1.731  0.00  0.00     0.028 C 
ATOM     16  C   LIG d   1       4.179  -1.821  -2.195  0.00  0.00    -0.018 C 
ATOM     17  H   LIG d   1       5.031  -3.869  -3.746  0.00  0.00     0.064 H 
ATOM     18  H   LIG d   1       5.412  -1.561  -8.310  0.00  0.00     0.032 H 
ATOM     19  H   LIG d   1       4.416  -3.037  -8.314  0.00  0.00     0.032 H 
ATOM     20  H   LIG d   1       3.434  -1.089  -9.626  0.00  0.00     0.036 H 
ATOM     21  H   LIG d   1       2.369  -1.747  -8.361  0.00  0.00     0.036 H 
ATOM     22  H   LIG d   1       3.554   1.177  -6.196  0.00  0.00     0.155 HD
ATOM     23  H   LIG d   1       2.812   0.993  -4.279  0.00  0.00     0.155 HD
ATOM     24  H   LIG d   1       4.291  -0.304  -0.668  0.00  0.00     0.036 H 
ATOM     25  H   LIG d   1       5.567  -0.200  -1.904  0.00  0.00     0.036 H 
ATOM     26  H   LIG d   1       3.172  -2.084  -1.873  0.00  0.00     0.032 H 
ATOM     27  H   LIG d   1       4.894  -2.523  -1.766  0.00  0.00     0.032 H 
ENDROOT
BRANCH   1  28
ATOM     28  N   LIG d   1       5.267  -4.214  -6.357  0.00  0.00    -0.285 N 
ATOM     29  C   LIG d   1       4.473  -5.298  -6.462  0.00  0.00     0.214 C 
ATOM     30  O   LIG d   1       3.318  -5.241  -6.093  0.00  0.00    -0.276 OA
ATOM     31  H   LIG d   1       6.164  -4.233  -6.726  0.00  0.00     0.155 HD
BRANCH  29  32
ATOM     32  C   LIG d   1       5.018  -6.579  -7.038  0.00  0.00     0.013 C 
ATOM     33  H   LIG d   1       4.471  -6.831  -7.947  0.00  0.00     0.032 H 
ATOM     34  H   LIG d   1       6.074  -6.451  -7.274  0.00  0.00     0.032 H 
ATOM     35  H   LIG d   1       4.904  -7.382  -6.310  0.00  0.00     0.032 H 
ENDBRANCH  29  32
ENDBRANCH   1  28
TORSDOF 2
ENDMDL
MODEL 2
REMARK VINA RESULT:      -6.5      2.734      5.716
REMARK  2 active torsions:
REMARK  status: ('A' for Active; 'I' for Inactive)
REMARK    1  A    between atoms: C_1  and  C_2 
REMARK       I    between atoms: C_2  and  N_4 
REMARK    2  A    between atoms: N_4  and  C_5 
ROOT
ATOM      1  C   LIG d   1       6.883  -1.001  -3.883  0.00  0.00     0.039 A 
ATOM      2  C   LIG d   1       7.312  -2.031  -4.712  0.00  0.00    -0.035 A 
ATOM      3  C   LIG d   1       6.413  -2.980  -5.156  0.00  0.00    -0.022 A 
ATOM      4  C   LIG d   1       5.079  -2.908  -4.780  0.00  0.00     0.058 A 
ATOM      5  C   LIG d   1       4.648  -1.881  -3.943  0.00  0.00     0.060 A 
ATOM      6  C   LIG d   1       5.553  -0.927  -3.499  0.00  0.00    -0.003 A 
ATOM      7  C   LIG d   1       5.077   0.191  -2.608  0.00  0.00    -0.016 C 
ATOM      8  C   LIG d   1       3.655   0.585  -3.017  0.00  0.00     0.028 C 
ATOM      9  C   LIG d   1       2.794  -0.649  -3.101  0.00  0.00     0.218 C 
ATOM     10  O   LIG d   1       1.626  -0.591  -2.779  0.00  0.00    -0.276 OA
ATOM     11  N   LIG d   1       3.313  -1.815  -3.530  0.00  0.00    -0.284 N 
ATOM     12  N   LIG d   1       4.172  -3.868  -5.249  0.00  0.00    -0.284 N 
ATOM     13  C   LIG d   1       4.615  -5.065  -5.679  0.00  0.00     0.218 C 
ATOM     14  O   LIG d   1       3.819  -5.902  -6.050  0.00  0.00    -0.276 OA
ATOM     15  C   LIG d   1       6.089  -5.372  -5.703  0.00  0.00     0.028 C 
ATOM     16  C   LIG d   1       6.872  -4.104  -6.051  0.00  0.00    -0.018 C 
ATOM     17  H   LIG d   1       8.349  -2.091  -5.008  0.00  0.00     0.064 H 
ATOM     18  H   LIG d   1       5.079  -0.143  -1.571  0.00  0.00     0.032 H 
ATOM     19  H   LIG d   1       5.738   1.050  -2.716  0.00  0.00     0.032 H 
ATOM     20  H   LIG d   1       3.240   1.267  -2.274  0.00  0.00     0.036 H 
ATOM     21  H   LIG d   1       3.679   1.077  -3.988  0.00  0.00     0.036 H 
ATOM     22  H   LIG d   1       2.758  -2.611  -3.555  0.00  0.00     0.155 HD
ATOM     23  H   LIG d   1       3.222  -3.669  -5.265  0.00  0.00     0.155 HD
ATOM     24  H   LIG d   1       6.288  -6.140  -6.450  0.00  0.00     0.036 H 
ATOM     25  H   LIG d   1       6.400  -5.732  -4.721  0.00  0.00     0.036 H 
ATOM     26  H   LIG d   1       6.690  -3.838  -7.092  0.00  0.00     0.032 H 
ATOM     27  H   LIG d   1       7.937  -4.278  -5.900  0.00  0.00     0.032 H 
ENDROOT
BRANCH   1  28
ATOM     28  N   LIG d   1       7.796  -0.037  -3.436  0.00  0.00    -0.285 N 
ATOM     29  C   LIG d   1       8.009   1.078  -4.161  0.00  0.00     0.214 C 
ATOM     30  O   LIG d   1       7.339   1.295  -5.150  0.00  0.00    -0.276 OA
ATOM     31  H   LIG d   1       8.274  -0.172  -2.602  0.00  0.00     0.155 HD
BRANCH  29  32
ATOM     32  C   LIG d   1       9.079   2.055  -3.746  0.00  0.00     0.013 C 
ATOM     33  H   LIG d   1       8.677   3.068  -3.774  0.00  0.00     0.032 H 
ATOM     34  H   LIG d   1       9.408   1.824  -2.733  0.00  0.00     0.032 H 
ATOM     35  H   LIG d   1       9.925   1.980  -4.429  0.00  0.00     0.032 H 
ENDBRANCH  29  32
ENDBRANCH   1  28
TORSDOF 2
ENDMDL
MODEL 3
REMARK VINA RESULT:      -6.5      3.047      4.432
REMARK  2 active torsions:
REMARK  status: ('A' for Active; 'I' for Inactive)
REMARK    1  A    between atoms: C_1  and  C_2 
REMARK       I    between atoms: C_2  and  N_4 
REMARK    2  A    between atoms: N_4  and  C_5 
ROOT
ATOM      1  C   LIG d   1       7.519  -2.864  -4.276  0.00  0.00     0.039 A 
ATOM      2  C   LIG d   1       7.121  -1.819  -3.451  0.00  0.00    -0.035 A 
ATOM      3  C   LIG d   1       5.779  -1.548  -3.275  0.00  0.00    -0.022 A 
ATOM      4  C   LIG d   1       4.822  -2.320  -3.920  0.00  0.00     0.058 A 
ATOM      5  C   LIG d   1       5.217  -3.364  -4.753  0.00  0.00     0.060 A 
ATOM      6  C   LIG d   1       6.568  -3.634  -4.927  0.00  0.00    -0.003 A 
ATOM      7  C   LIG d   1       6.988  -4.777  -5.817  0.00  0.00    -0.016 C 
ATOM      8  C   LIG d   1       5.967  -5.910  -5.691  0.00  0.00     0.028 C 
ATOM      9  C   LIG d   1       4.577  -5.361  -5.879  0.00  0.00     0.218 C 
ATOM     10  O   LIG d   1       3.734  -6.032  -6.436  0.00  0.00    -0.276 OA
ATOM     11  N   LIG d   1       4.264  -4.129  -5.434  0.00  0.00    -0.284 N 
ATOM     12  N   LIG d   1       3.461  -2.047  -3.722  0.00  0.00    -0.284 N 
ATOM     13  C   LIG d   1       3.070  -0.832  -3.295  0.00  0.00     0.218 C 
ATOM     14  O   LIG d   1       1.888  -0.593  -3.161  0.00  0.00    -0.276 OA
ATOM     15  C   LIG d   1       4.087   0.234  -2.982  0.00  0.00     0.028 C 
ATOM     16  C   LIG d   1       5.341  -0.412  -2.386  0.00  0.00    -0.018 C 
ATOM     17  H   LIG d   1       7.863  -1.216  -2.947  0.00  0.00     0.064 H 
ATOM     18  H   LIG d   1       7.030  -4.436  -6.851  0.00  0.00     0.032 H 
ATOM     19  H   LIG d   1       7.970  -5.134  -5.510  0.00  0.00     0.032 H 
ATOM     20  H   LIG d   1       6.166  -6.663  -6.454  0.00  0.00     0.036 H 
ATOM     21  H   LIG d   1       6.048  -6.364  -4.704  0.00  0.00     0.036 H 
ATOM     22  H   LIG d   1       3.374  -3.773  -5.584  0.00  0.00     0.155 HD
ATOM     23  H   LIG d   1       2.800  -2.736  -3.894  0.00  0.00     0.155 HD
ATOM     24  H   LIG d   1       3.666   0.939  -2.266  0.00  0.00     0.036 H 
ATOM     25  H   LIG d   1       4.353   0.763  -3.898  0.00  0.00     0.036 H 
ATOM     26  H   LIG d   1       5.115  -0.795  -1.391  0.00  0.00     0.032 H 
ATOM     27  H   LIG d   1       6.138   0.327  -2.320  0.00  0.00     0.032 H 
ENDROOT
BRANCH   1  28
ATOM     28  N   LIG d   1       8.881  -3.139  -4.450  0.00  0.00    -0.285 N 
ATOM     29  C   LIG d   1       9.580  -3.739  -3.466  0.00  0.00     0.214 C 
ATOM     30  O   LIG d   1       9.008  -4.131  -2.470  0.00  0.00    -0.276 OA
ATOM     31  H   LIG d   1       9.322  -2.899  -5.280  0.00  0.00     0.155 HD
BRANCH  29  32
ATOM     32  C   LIG d   1      11.069  -3.923  -3.602  0.00  0.00     0.013 C 
ATOM     33  H   LIG d   1      11.358  -4.881  -3.172  0.00  0.00     0.032 H 
ATOM     34  H   LIG d   1      11.342  -3.903  -4.657  0.00  0.00     0.032 H 
ATOM     35  H   LIG d   1      11.584  -3.118  -3.079  0.00  0.00     0.032 H 
ENDBRANCH  29  32
ENDBRANCH   1  28
TORSDOF 2
ENDMDL
MODEL 4
REMARK VINA RESULT:      -6.4      1.475      4.246
REMARK  2 active torsions:
REMARK  status: ('A' for Active; 'I' for Inactive)
REMARK    1  A    between atoms: C_1  and  C_2 
REMARK       I    between atoms: C_2  and  N_4 
REMARK    2  A    between atoms: N_4  and  C_5 
ROOT
ATOM      1  C   LIG d   1       5.018  -3.205  -6.421  0.00  0.00     0.039 A 
ATOM      2  C   LIG d   1       4.502  -2.856  -7.664  0.00  0.00    -0.035 A 
ATOM      3  C   LIG d   1       4.106  -1.556  -7.908  0.00  0.00    -0.022 A 
ATOM      4  C   LIG d   1       4.224  -0.593  -6.916  0.00  0.00     0.058 A 
ATOM      5  C   LIG d   1       4.734  -0.941  -5.667  0.00  0.00     0.060 A 
ATOM      6  C   LIG d   1       5.133  -2.248  -5.424  0.00  0.00    -0.003 A 
ATOM      7  C   LIG d   1       5.700  -2.614  -4.076  0.00  0.00    -0.016 C 
ATOM      8  C   LIG d   1       6.507  -1.431  -3.536  0.00  0.00     0.028 C 
ATOM      9  C   LIG d   1       5.680  -0.175  -3.622  0.00  0.00     0.218 C 
ATOM     10  O   LIG d   1       5.782   0.674  -2.761  0.00  0.00    -0.276 OA
ATOM     11  N   LIG d   1       4.828   0.013  -4.648  0.00  0.00    -0.284 N 
ATOM     12  N   LIG d   1       3.834   0.727  -7.179  0.00  0.00    -0.284 N 
ATOM     13  C   LIG d   1       2.971   0.991  -8.179  0.00  0.00     0.218 C 
ATOM     14  O   LIG d   1       2.610   2.132  -8.376  0.00  0.00    -0.276 OA
ATOM     15  C   LIG d   1       2.448  -0.120  -9.052  0.00  0.00     0.028 C 
ATOM     16  C   LIG d   1       3.540  -1.173  -9.252  0.00  0.00    -0.018 C 
ATOM     17  H   LIG d   1       4.410  -3.603  -8.439  0.00  0.00     0.064 H 
ATOM     18  H   LIG d   1       4.886  -2.845  -3.389  0.00  0.00     0.032 H 
ATOM     19  H   LIG d   1       6.349  -3.482  -4.178  0.00  0.00     0.032 H 
ATOM     20  H   LIG d   1       6.774  -1.619  -2.495  0.00  0.00     0.036 H 
ATOM     21  H   LIG d   1       7.414  -1.310  -4.127  0.00  0.00     0.036 H 
ATOM     22  H   LIG d   1       4.279   0.813  -4.681  0.00  0.00     0.155 HD
ATOM     23  H   LIG d   1       4.187   1.453  -6.641  0.00  0.00     0.155 HD
ATOM     24  H   LIG d   1       2.153   0.287 -10.019  0.00  0.00     0.036 H 
ATOM     25  H   LIG d   1       1.583  -0.581  -8.574  0.00  0.00     0.036 H 
ATOM     26  H   LIG d   1       4.333  -0.761  -9.876  0.00  0.00     0.032 H 
ATOM     27  H   LIG d   1       3.117  -2.054  -9.734  0.00  0.00     0.032 H 
ENDROOT
BRANCH   1  28
ATOM     28  N   LIG d   1       5.423  -4.523  -6.176  0.00  0.00    -0.285 N 
ATOM     29  C   LIG d   1       4.503  -5.475  -5.921  0.00  0.00     0.214 C 
ATOM     30  O   LIG d   1       3.321  -5.212  -6.002  0.00  0.00    -0.276 OA
ATOM     31  H   LIG d   1       6.365  -4.753  -6.191  0.00  0.00     0.155 HD
BRANCH  29  32
ATOM     32  C   LIG d   1       4.942  -6.864  -5.537  0.00  0.00     0.013 C 
ATOM     33  H   LIG d   1       4.809  -7.004  -4.464  0.00  0.00     0.032 H 
ATOM     34  H   LIG d   1       4.341  -7.597  -6.075  0.00  0.00     0.032 H 
ATOM     35  H   LIG d   1       5.993  -6.998  -5.793  0.00  0.00     0.032 H 
ENDBRANCH  29  32
ENDBRANCH   1  28
TORSDOF 2
ENDMDL
MODEL 5
REMARK VINA RESULT:      -6.1      1.979      5.808
REMARK  2 active torsions:
REMARK  status: ('A' for Active; 'I' for Inactive)
REMARK    1  A    between atoms: C_1  and  C_2 
REMARK       I    between atoms: C_2  and  N_4 
REMARK    2  A    between atoms: N_4  and  C_5 
ROOT
ATOM      1  C   LIG d   1       3.605  -0.270  -5.587  0.00  0.00     0.039 A 
ATOM      2  C   LIG d   1       3.094   0.768  -6.358  0.00  0.00    -0.035 A 
ATOM      3  C   LIG d   1       3.243   0.748  -7.730  0.00  0.00    -0.022 A 
ATOM      4  C   LIG d   1       3.901  -0.308  -8.345  0.00  0.00     0.058 A 
ATOM      5  C   LIG d   1       4.422  -1.344  -7.575  0.00  0.00     0.060 A 
ATOM      6  C   LIG d   1       4.269  -1.323  -6.196  0.00  0.00    -0.003 A 
ATOM      7  C   LIG d   1       4.820  -2.458  -5.369  0.00  0.00    -0.016 C 
ATOM      8  C   LIG d   1       4.682  -3.763  -6.157  0.00  0.00     0.028 C 
ATOM      9  C   LIG d   1       5.244  -3.578  -7.542  0.00  0.00     0.218 C 
ATOM     10  O   LIG d   1       5.816  -4.498  -8.088  0.00  0.00    -0.276 OA
ATOM     11  N   LIG d   1       5.116  -2.399  -8.180  0.00  0.00    -0.284 N 
ATOM     12  N   LIG d   1       4.034  -0.326  -9.741  0.00  0.00    -0.284 N 
ATOM     13  C   LIG d   1       3.935   0.818 -10.444  0.00  0.00     0.218 C 
ATOM     14  O   LIG d   1       4.088   0.799 -11.648  0.00  0.00    -0.276 OA
ATOM     15  C   LIG d   1       3.640   2.122  -9.750  0.00  0.00     0.028 C 
ATOM     16  C   LIG d   1       2.695   1.873  -8.572  0.00  0.00    -0.018 C 
ATOM     17  H   LIG d   1       2.579   1.591  -5.883  0.00  0.00     0.064 H 
ATOM     18  H   LIG d   1       5.872  -2.272  -5.152  0.00  0.00     0.032 H 
ATOM     19  H   LIG d   1       4.262  -2.533  -4.437  0.00  0.00     0.032 H 
ATOM     20  H   LIG d   1       5.230  -4.555  -5.646  0.00  0.00     0.036 H 
ATOM     21  H   LIG d   1       3.629  -4.036  -6.226  0.00  0.00     0.036 H 
ATOM     22  H   LIG d   1       5.506  -2.280  -9.061  0.00  0.00     0.155 HD
ATOM     23  H   LIG d   1       4.196  -1.164 -10.201  0.00  0.00     0.155 HD
ATOM     24  H   LIG d   1       3.172   2.810 -10.454  0.00  0.00     0.036 H 
ATOM     25  H   LIG d   1       4.570   2.556  -9.383  0.00  0.00     0.036 H 
ATOM     26  H   LIG d   1       1.709   1.599  -8.948  0.00  0.00     0.032 H 
ATOM     27  H   LIG d   1       2.617   2.776  -7.967  0.00  0.00     0.032 H 
ENDROOT
BRANCH   1  28
ATOM     28  N   LIG d   1       3.450  -0.249  -4.195  0.00  0.00    -0.285 N 
ATOM     29  C   LIG d   1       4.359   0.378  -3.424  0.00  0.00     0.214 C 
ATOM     30  O   LIG d   1       5.258   1.010  -3.939  0.00  0.00    -0.276 OA
ATOM     31  H   LIG d   1       2.686  -0.686  -3.786  0.00  0.00     0.155 HD
BRANCH  29  32
ATOM     32  C   LIG d   1       4.260   0.296  -1.923  0.00  0.00     0.013 C 
ATOM     33  H   LIG d   1       4.279  -0.750  -1.614  0.00  0.00     0.032 H 
ATOM     34  H   LIG d   1       5.103   0.821  -1.474  0.00  0.00     0.032 H 
ATOM     35  H   LIG d   1       3.329   0.756  -1.594  0.00  0.00     0.032 H 
ENDBRANCH  29  32
ENDBRANCH   1  28
TORSDOF 2
ENDMDL
MODEL 6
REMARK VINA RESULT:      -5.8      3.010      6.025
REMARK  2 active torsions:
REMARK  status: ('A' for Active; 'I' for Inactive)
REMARK    1  A    between atoms: C_1  and  C_2 
REMARK       I    between atoms: C_2  and  N_4 
REMARK    2  A    between atoms: N_4  and  C_5 
ROOT
ATOM      1  C   LIG d   1       6.987   0.012  -4.782  0.00  0.00     0.039 A 
ATOM      2  C   LIG d   1       7.145  -0.191  -6.148  0.00  0.00    -0.035 A 
ATOM      3  C   LIG d   1       6.095  -0.675  -6.901  0.00  0.00    -0.022 A 
ATOM      4  C   LIG d   1       4.877  -0.960  -6.299  0.00  0.00     0.058 A 
ATOM      5  C   LIG d   1       4.718  -0.765  -4.929  0.00  0.00     0.060 A 
ATOM      6  C   LIG d   1       5.775  -0.276  -4.174  0.00  0.00    -0.003 A 
ATOM      7  C   LIG d   1       5.590  -0.051  -2.695  0.00  0.00    -0.016 C 
ATOM      8  C   LIG d   1       4.155   0.415  -2.435  0.00  0.00     0.028 C 
ATOM      9  C   LIG d   1       3.191  -0.518  -3.120  0.00  0.00     0.218 C 
ATOM     10  O   LIG d   1       2.122  -0.766  -2.602  0.00  0.00    -0.276 OA
ATOM     11  N   LIG d   1       3.506  -1.078  -4.303  0.00  0.00    -0.284 N 
ATOM     12  N   LIG d   1       3.812  -1.437  -7.075  0.00  0.00    -0.284 N 
ATOM     13  C   LIG d   1       4.051  -2.025  -8.263  0.00  0.00     0.218 C 
ATOM     14  O   LIG d   1       3.126  -2.467  -8.912  0.00  0.00    -0.276 OA
ATOM     15  C   LIG d   1       5.457  -2.139  -8.792  0.00  0.00     0.028 C 
ATOM     16  C   LIG d   1       6.261  -0.903  -8.383  0.00  0.00    -0.018 C 
ATOM     17  H   LIG d   1       8.091   0.030  -6.621  0.00  0.00     0.064 H 
ATOM     18  H   LIG d   1       5.775  -0.982  -2.159  0.00  0.00     0.032 H 
ATOM     19  H   LIG d   1       6.289   0.712  -2.353  0.00  0.00     0.032 H 
ATOM     20  H   LIG d   1       3.962   0.413  -1.362  0.00  0.00     0.036 H 
ATOM     21  H   LIG d   1       4.025   1.423  -2.826  0.00  0.00     0.036 H 
ATOM     22  H   LIG d   1       2.890  -1.699  -4.724  0.00  0.00     0.155 HD
ATOM     23  H   LIG d   1       2.900  -1.342  -6.757  0.00  0.00     0.155 HD
ATOM     24  H   LIG d   1       5.430  -2.213  -9.879  0.00  0.00     0.036 H 
ATOM     25  H   LIG d   1       5.928  -3.032  -8.379  0.00  0.00     0.036 H 
ATOM     26  H   LIG d   1       5.894  -0.033  -8.928  0.00  0.00     0.032 H 
ATOM     27  H   LIG d   1       7.315  -1.059  -8.611  0.00  0.00     0.032 H 
ENDROOT
BRANCH   1  28
ATOM     28  N   LIG d   1       8.053   0.507  -4.020  0.00  0.00    -0.285 N 
ATOM     29  C   LIG d   1       8.397   1.807  -4.106  0.00  0.00     0.214 C 
ATOM     30  O   LIG d   1       7.722   2.570  -4.766  0.00  0.00    -0.276 OA
ATOM     31  H   LIG d   1       8.543  -0.086  -3.429  0.00  0.00     0.155 HD
BRANCH  29  32
ATOM     32  C   LIG d   1       9.618   2.314  -3.383  0.00  0.00     0.013 C 
ATOM     33  H   LIG d   1       9.371   3.233  -2.851  0.00  0.00     0.032 H 
ATOM     34  H   LIG d   1       9.955   1.562  -2.670  0.00  0.00     0.032 H 
ATOM     35  H   LIG d   1      10.411   2.512  -4.104  0.00  0.00     0.032 H 
ENDBRANCH  29  32
ENDBRANCH   1  28
TORSDOF 2
ENDMDL
MODEL 7
REMARK VINA RESULT:      -5.8      4.059      4.310
REMARK  2 active torsions:
REMARK  status: ('A' for Active; 'I' for Inactive)
REMARK    1  A    between atoms: C_1  and  C_2 
REMARK       I    between atoms: C_2  and  N_4 
REMARK    2  A    between atoms: N_4  and  C_5 
ROOT
ATOM      1  C   LIG d   1       7.800  -2.152  -4.698  0.00  0.00     0.039 A 
ATOM      2  C   LIG d   1       6.613  -2.505  -4.066  0.00  0.00    -0.035 A 
ATOM      3  C   LIG d   1       5.755  -1.524  -3.610  0.00  0.00    -0.022 A 
ATOM      4  C   LIG d   1       6.072  -0.184  -3.782  0.00  0.00     0.058 A 
ATOM      5  C   LIG d   1       7.265   0.172  -4.408  0.00  0.00     0.060 A 
ATOM      6  C   LIG d   1       8.125  -0.816  -4.868  0.00  0.00    -0.003 A 
ATOM      7  C   LIG d   1       9.405  -0.423  -5.560  0.00  0.00    -0.016 C 
ATOM      8  C   LIG d   1       9.164   0.851  -6.373  0.00  0.00     0.028 C 
ATOM      9  C   LIG d   1       8.501   1.887  -5.503  0.00  0.00     0.218 C 
ATOM     10  O   LIG d   1       8.769   3.060  -5.652  0.00  0.00    -0.276 OA
ATOM     11  N   LIG d   1       7.612   1.519  -4.560  0.00  0.00    -0.284 N 
ATOM     12  N   LIG d   1       5.187   0.804  -3.330  0.00  0.00    -0.284 N 
ATOM     13  C   LIG d   1       4.282   0.515  -2.376  0.00  0.00     0.218 C 
ATOM     14  O   LIG d   1       3.544   1.385  -1.964  0.00  0.00    -0.276 OA
ATOM     15  C   LIG d   1       4.179  -0.879  -1.814  0.00  0.00     0.028 C 
ATOM     16  C   LIG d   1       4.469  -1.899  -2.918  0.00  0.00    -0.018 C 
ATOM     17  H   LIG d   1       6.362  -3.547  -3.930  0.00  0.00     0.064 H 
ATOM     18  H   LIG d   1      10.180  -0.240  -4.816  0.00  0.00     0.032 H 
ATOM     19  H   LIG d   1       9.720  -1.226  -6.225  0.00  0.00     0.032 H 
ATOM     20  H   LIG d   1      10.117   1.237  -6.735  0.00  0.00     0.036 H 
ATOM     21  H   LIG d   1       8.519   0.624  -7.222  0.00  0.00     0.036 H 
ATOM     22  H   LIG d   1       7.210   2.191  -3.986  0.00  0.00     0.155 HD
ATOM     23  H   LIG d   1       5.226   1.698  -3.705  0.00  0.00     0.155 HD
ATOM     24  H   LIG d   1       3.174  -1.040  -1.425  0.00  0.00     0.036 H 
ATOM     25  H   LIG d   1       4.904  -1.001  -1.009  0.00  0.00     0.036 H 
ATOM     26  H   LIG d   1       3.653  -1.896  -3.641  0.00  0.00     0.032 H 
ATOM     27  H   LIG d   1       4.566  -2.893  -2.482  0.00  0.00     0.032 H 
ENDROOT
BRANCH   1  28
ATOM     28  N   LIG d   1       8.667  -3.149  -5.163  0.00  0.00    -0.285 N 
ATOM     29  C   LIG d   1       9.433  -3.837  -4.293  0.00  0.00     0.214 C 
ATOM     30  O   LIG d   1       9.300  -3.663  -3.099  0.00  0.00    -0.276 OA
ATOM     31  H   LIG d   1       8.716  -3.345  -6.112  0.00  0.00     0.155 HD
BRANCH  29  32
ATOM     32  C   LIG d   1      10.455  -4.821  -4.802  0.00  0.00     0.013 C 
ATOM     33  H   LIG d   1      10.145  -5.195  -5.778  0.00  0.00     0.032 H 
ATOM     34  H   LIG d   1      11.421  -4.326  -4.894  0.00  0.00     0.032 H 
ATOM     35  H   LIG d   1      10.538  -5.652  -4.103  0.00  0.00     0.032 H 
ENDBRANCH  29  32
ENDBRANCH   1  28
TORSDOF 2
ENDMDL
MODEL 8
REMARK VINA RESULT:      -5.6      2.918      5.908
REMARK  2 active torsions:
REMARK  status: ('A' for Active; 'I' for Inactive)
REMARK    1  A    between atoms: C_1  and  C_2 
REMARK       I    between atoms: C_2  and  N_4 
REMARK    2  A    between atoms: N_4  and  C_5 
ROOT
ATOM      1  C   LIG d   1       7.260  -0.572  -6.034  0.00  0.00     0.039 A 
ATOM      2  C   LIG d   1       6.940  -1.446  -7.067  0.00  0.00    -0.035 A 
ATOM      3  C   LIG d   1       5.955  -2.397  -6.887  0.00  0.00    -0.022 A 
ATOM      4  C   LIG d   1       5.280  -2.483  -5.677  0.00  0.00     0.058 A 
ATOM      5  C   LIG d   1       5.604  -1.613  -4.638  0.00  0.00     0.060 A 
ATOM      6  C   LIG d   1       6.593  -0.657  -4.822  0.00  0.00    -0.003 A 
ATOM      7  C   LIG d   1       6.927   0.292  -3.699  0.00  0.00    -0.016 C 
ATOM      8  C   LIG d   1       5.647   0.621  -2.925  0.00  0.00     0.028 C 
ATOM      9  C   LIG d   1       4.934  -0.656  -2.565  0.00  0.00     0.218 C 
ATOM     10  O   LIG d   1       4.337  -0.736  -1.512  0.00  0.00    -0.276 OA
ATOM     11  N   LIG d   1       4.954  -1.710  -3.403  0.00  0.00    -0.284 N 
ATOM     12  N   LIG d   1       4.271  -3.441  -5.511  0.00  0.00    -0.284 N 
ATOM     13  C   LIG d   1       4.237  -4.532  -6.301  0.00  0.00     0.218 C 
ATOM     14  O   LIG d   1       3.382  -5.374  -6.126  0.00  0.00    -0.276 OA
ATOM     15  C   LIG d   1       5.252  -4.714  -7.399  0.00  0.00     0.028 C 
ATOM     16  C   LIG d   1       5.607  -3.352  -8.001  0.00  0.00    -0.018 C 
ATOM     17  H   LIG d   1       7.462  -1.382  -8.010  0.00  0.00     0.064 H 
ATOM     18  H   LIG d   1       7.648  -0.175  -3.029  0.00  0.00     0.032 H 
ATOM     19  H   LIG d   1       7.350   1.208  -4.110  0.00  0.00     0.032 H 
ATOM     20  H   LIG d   1       5.903   1.163  -2.015  0.00  0.00     0.036 H 
ATOM     21  H   LIG d   1       4.997   1.238  -3.545  0.00  0.00     0.036 H 
ATOM     22  H   LIG d   1       4.514  -2.538  -3.150  0.00  0.00     0.155 HD
ATOM     23  H   LIG d   1       3.596  -3.319  -4.825  0.00  0.00     0.155 HD
ATOM     24  H   LIG d   1       4.836  -5.358  -8.174  0.00  0.00     0.036 H 
ATOM     25  H   LIG d   1       6.151  -5.175  -6.989  0.00  0.00     0.036 H 
ATOM     26  H   LIG d   1       4.752  -2.966  -8.557  0.00  0.00     0.032 H 
ATOM     27  H   LIG d   1       6.460  -3.458  -8.670  0.00  0.00     0.032 H 
ENDROOT
BRANCH   1  28
ATOM     28  N   LIG d   1       8.257   0.394  -6.220  0.00  0.00    -0.285 N 
ATOM     29  C   LIG d   1       8.017   1.471  -6.993  0.00  0.00     0.214 C 
ATOM     30  O   LIG d   1       6.907   1.656  -7.448  0.00  0.00    -0.276 OA
ATOM     31  H   LIG d   1       9.120   0.289  -5.790  0.00  0.00     0.155 HD
BRANCH  29  32
ATOM     32  C   LIG d   1       9.125   2.447  -7.293  0.00  0.00     0.013 C 
ATOM     33  H   LIG d   1       9.858   2.424  -6.486  0.00  0.00     0.032 H 
ATOM     34  H   LIG d   1       9.609   2.169  -8.229  0.00  0.00     0.032 H 
ATOM     35  H   LIG d   1       8.712   3.451  -7.381  0.00  0.00     0.032 H 
ENDBRANCH  29  32
ENDBRANCH   1  28
TORSDOF 2
ENDMDL
MODEL 9
REMARK VINA RESULT:      -5.5      3.878      5.564
REMARK  2 active torsions:
REMARK  status: ('A' for Active; 'I' for Inactive)
REMARK    1  A    between atoms: C_1  and  C_2 
REMARK       I    between atoms: C_2  and  N_4 
REMARK    2  A    between atoms: N_4  and  C_5 
ROOT
ATOM      1  C   LIG d   1       8.050   0.301  -4.172  0.00  0.00     0.039 A 
ATOM      2  C   LIG d   1       7.098   1.080  -3.526  0.00  0.00    -0.035 A 
ATOM      3  C   LIG d   1       5.848   0.560  -3.254  0.00  0.00    -0.022 A 
ATOM      4  C   LIG d   1       5.539  -0.743  -3.621  0.00  0.00     0.058 A 
ATOM      5  C   LIG d   1       6.490  -1.523  -4.275  0.00  0.00     0.060 A 
ATOM      6  C   LIG d   1       7.746  -0.999  -4.546  0.00  0.00    -0.003 A 
ATOM      7  C   LIG d   1       8.775  -1.855  -5.239  0.00  0.00    -0.016 C 
ATOM      8  C   LIG d   1       8.610  -3.306  -4.778  0.00  0.00     0.028 C 
ATOM      9  C   LIG d   1       7.167  -3.715  -4.909  0.00  0.00     0.218 C 
ATOM     10  O   LIG d   1       6.889  -4.854  -5.224  0.00  0.00    -0.276 OA
ATOM     11  N   LIG d   1       6.181  -2.827  -4.679  0.00  0.00    -0.284 N 
ATOM     12  N   LIG d   1       4.273  -1.266  -3.326  0.00  0.00    -0.284 N 
ATOM     13  C   LIG d   1       3.235  -0.439  -3.101  0.00  0.00     0.218 C 
ATOM     14  O   LIG d   1       2.135  -0.901  -2.882  0.00  0.00    -0.276 OA
ATOM     15  C   LIG d   1       3.427   1.055  -3.121  0.00  0.00     0.028 C 
ATOM     16  C   LIG d   1       4.808   1.402  -2.559  0.00  0.00    -0.018 C 
ATOM     17  H   LIG d   1       7.334   2.094  -3.238  0.00  0.00     0.064 H 
ATOM     18  H   LIG d   1       8.632  -1.796  -6.317  0.00  0.00     0.032 H 
ATOM     19  H   LIG d   1       9.774  -1.503  -4.983  0.00  0.00     0.032 H 
ATOM     20  H   LIG d   1       9.229  -3.955  -5.398  0.00  0.00     0.036 H 
ATOM     21  H   LIG d   1       8.919  -3.394  -3.737  0.00  0.00     0.036 H 
ATOM     22  H   LIG d   1       5.254  -3.092  -4.793  0.00  0.00     0.155 HD
ATOM     23  H   LIG d   1       4.145  -2.227  -3.283  0.00  0.00     0.155 HD
ATOM     24  H   LIG d   1       2.657   1.528  -2.512  0.00  0.00     0.036 H 
ATOM     25  H   LIG d   1       3.352   1.417  -4.147  0.00  0.00     0.036 H 
ATOM     26  H   LIG d   1       4.828   1.195  -1.489  0.00  0.00     0.032 H 
ATOM     27  H   LIG d   1       5.019   2.457  -2.730  0.00  0.00     0.032 H 
ENDROOT
BRANCH   1  28
ATOM     28  N   LIG d   1       9.319   0.829  -4.444  0.00  0.00    -0.285 N 
ATOM     29  C   LIG d   1       9.505   1.615  -5.523  0.00  0.00     0.214 C 
ATOM     30  O   LIG d   1       8.555   1.946  -6.202  0.00  0.00    -0.276 OA
ATOM     31  H   LIG d   1      10.064   0.631  -3.855  0.00  0.00     0.155 HD
BRANCH  29  32
ATOM     32  C   LIG d   1      10.891   2.082  -5.885  0.00  0.00     0.013 C 
ATOM     33  H   LIG d   1      11.179   2.906  -5.233  0.00  0.00     0.032 H 
ATOM     34  H   LIG d   1      11.595   1.260  -5.763  0.00  0.00     0.032 H 
ATOM     35  H   LIG d   1      10.902   2.418  -6.922  0.00  0.00     0.032 H 
ENDBRANCH  29  32
ENDBRANCH   1  28
TORSDOF 2
ENDMDL
MODEL 10
REMARK VINA RESULT:      -5.5      9.830     12.853
REMARK  2 active torsions:
REMARK  status: ('A' for Active; 'I' for Inactive)
REMARK    1  A    between atoms: C_1  and  C_2 
REMARK       I    between atoms: C_2  and  N_4 
REMARK    2  A    between atoms: N_4  and  C_5 
ROOT
ATOM      1  C   LIG d   1      10.870   8.381  -2.435  0.00  0.00     0.039 A 
ATOM      2  C   LIG d   1      10.322   7.772  -3.558  0.00  0.00    -0.035 A 
ATOM      3  C   LIG d   1       9.970   6.438  -3.519  0.00  0.00    -0.022 A 
ATOM      4  C   LIG d   1      10.160   5.700  -2.358  0.00  0.00     0.058 A 
ATOM      5  C   LIG d   1      10.717   6.305  -1.234  0.00  0.00     0.060 A 
ATOM      6  C   LIG d   1      11.068   7.647  -1.275  0.00  0.00    -0.003 A 
ATOM      7  C   LIG d   1      11.654   8.300  -0.049  0.00  0.00    -0.016 C 
ATOM      8  C   LIG d   1      11.006   7.693   1.198  0.00  0.00     0.028 C 
ATOM      9  C   LIG d   1      11.066   6.190   1.118  0.00  0.00     0.218 C 
ATOM     10  O   LIG d   1      11.226   5.539   2.128  0.00  0.00    -0.276 OA
ATOM     11  N   LIG d   1      10.943   5.564  -0.069  0.00  0.00    -0.284 N 
ATOM     12  N   LIG d   1       9.785   4.350  -2.325  0.00  0.00    -0.284 N 
ATOM     13  C   LIG d   1       9.659   3.654  -3.471  0.00  0.00     0.218 C 
ATOM     14  O   LIG d   1       9.369   2.476  -3.430  0.00  0.00    -0.276 OA
ATOM     15  C   LIG d   1       9.876   4.324  -4.802  0.00  0.00     0.028 C 
ATOM     16  C   LIG d   1       9.379   5.770  -4.735  0.00  0.00    -0.018 C 
ATOM     17  H   LIG d   1      10.171   8.344  -4.462  0.00  0.00     0.064 H 
ATOM     18  H   LIG d   1      12.729   8.126  -0.023  0.00  0.00     0.032 H 
ATOM     19  H   LIG d   1      11.457   9.371  -0.078  0.00  0.00     0.032 H 
ATOM     20  H   LIG d   1      11.541   8.031   2.086  0.00  0.00     0.036 H 
ATOM     21  H   LIG d   1       9.966   8.012   1.259  0.00  0.00     0.036 H 
ATOM     22  H   LIG d   1      11.011   4.597  -0.114  0.00  0.00     0.155 HD
ATOM     23  H   LIG d   1       9.615   3.916  -1.473  0.00  0.00     0.155 HD
ATOM     24  H   LIG d   1       9.326   3.785  -5.573  0.00  0.00     0.036 H 
ATOM     25  H   LIG d   1      10.939   4.317  -5.043  0.00  0.00     0.036 H 
ATOM     26  H   LIG d   1       8.292   5.779  -4.663  0.00  0.00     0.032 H 
ATOM     27  H   LIG d   1       9.690   6.306  -5.632  0.00  0.00     0.032 H 
ENDROOT
BRANCH   1  28
ATOM     28  N   LIG d   1      11.223   9.736  -2.475  0.00  0.00    -0.285 N 
ATOM     29  C   LIG d   1      10.287  10.683  -2.274  0.00  0.00     0.214 C 
ATOM     30  O   LIG d   1       9.159  10.364  -1.960  0.00  0.00    -0.276 OA
ATOM     31  H   LIG d   1      12.143   9.992  -2.647  0.00  0.00     0.155 HD
BRANCH  29  32
ATOM     32  C   LIG d   1      10.639  12.139  -2.439  0.00  0.00     0.013 C 
ATOM     33  H   LIG d   1      11.634  12.321  -2.033  0.00  0.00     0.032 H 
ATOM     34  H   LIG d   1      10.628  12.397  -3.498  0.00  0.00     0.032 H 
ATOM     35  H   LIG d   1       9.911  12.752  -1.908  0.00  0.00     0.032 H 
ENDBRANCH  29  32
ENDBRANCH   1  28
TORSDOF 2
ENDMDL
