MODEL 1
REMARK VINA RESULT:      -4.4      0.000      0.000
REMARK  1 active torsions:
REMARK  status: ('A' for Active; 'I' for Inactive)
REMARK    1  A    between atoms: C_6  and  C_10 
ROOT
ATOM      1  C   LIG d   1       7.140   1.440  -3.632  0.00  0.00     0.019 A 
ATOM      2  C   LIG d   1       8.165   1.400  -4.485  0.00  0.00    -0.004 A 
ATOM      3  S   LIG d   1       8.102  -0.293  -5.050  0.00  0.00    -0.058 SA
ATOM      4  C   LIG d   1       6.696  -0.807  -4.088  0.00  0.00     0.179 A 
ATOM      5  N   LIG d   1       6.369   0.325  -3.408  0.00  0.00    -0.290 N 
ATOM      6  C   LIG d   1       5.253  -0.037  -2.627  0.00  0.00     0.125 A 
ATOM      7  C   LIG d   1       4.990  -1.372  -2.897  0.00  0.00     0.159 A 
ATOM      8  N   LIG d   1       5.885  -1.791  -3.784  0.00  0.00    -0.209 NA
ATOM      9 CL   LIG d   1       3.716  -2.324  -2.202  0.00  0.00    -0.060 Cl
ATOM     10  H   LIG d   1       6.916   2.358  -3.109  0.00  0.00     0.082 H 
ATOM     11  H   LIG d   1       8.853   2.186  -4.761  0.00  0.00     0.071 H 
ENDROOT
BRANCH   6  12
ATOM     12  C   LIG d   1       4.545   0.794  -1.745  0.00  0.00     0.170 C 
ATOM     13  O   LIG d   1       3.505   1.312  -2.103  0.00  0.00    -0.294 OA
ATOM     14  H   LIG d   1       4.924   0.972  -0.750  0.00  0.00     0.110 H 
ENDBRANCH   6  12
TORSDOF 1
ENDMDL
MODEL 2
REMARK VINA RESULT:      -4.3      1.915      2.644
REMARK  1 active torsions:
REMARK  status: ('A' for Active; 'I' for Inactive)
REMARK    1  A    between atoms: C_6  and  C_10 
ROOT
ATOM      1  C   LIG d   1       7.102  -2.227  -3.764  0.00  0.00     0.019 A 
ATOM      2  C   LIG d   1       8.196  -2.136  -4.522  0.00  0.00    -0.004 A 
ATOM      3  S   LIG d   1       8.224  -0.392  -4.909  0.00  0.00    -0.058 SA
ATOM      4  C   LIG d   1       6.757   0.068  -4.014  0.00  0.00     0.179 A 
ATOM      5  N   LIG d   1       6.344  -1.116  -3.486  0.00  0.00    -0.290 N 
ATOM      6  C   LIG d   1       5.176  -0.798  -2.765  0.00  0.00     0.125 A 
ATOM      7  C   LIG d   1       4.971   0.565  -2.914  0.00  0.00     0.159 A 
ATOM      8  N   LIG d   1       5.949   1.043  -3.673  0.00  0.00    -0.209 NA
ATOM      9 CL   LIG d   1       3.668   1.484  -2.227  0.00  0.00    -0.060 Cl
ATOM     10  H   LIG d   1       6.807  -3.188  -3.367  0.00  0.00     0.082 H 
ATOM     11  H   LIG d   1       8.884  -2.911  -4.823  0.00  0.00     0.071 H 
ENDROOT
BRANCH   6  12
ATOM     12  C   LIG d   1       4.375  -1.691  -2.036  0.00  0.00     0.170 C 
ATOM     13  O   LIG d   1       3.680  -2.499  -2.621  0.00  0.00    -0.294 OA
ATOM     14  H   LIG d   1       4.377  -1.660  -0.957  0.00  0.00     0.110 H 
ENDBRANCH   6  12
TORSDOF 1
ENDMDL
MODEL 3
REMARK VINA RESULT:      -4.2      3.791      4.349
REMARK  1 active torsions:
REMARK  status: ('A' for Active; 'I' for Inactive)
REMARK    1  A    between atoms: C_6  and  C_10 
ROOT
ATOM      1  C   LIG d   1       4.255  -1.644  -7.069  0.00  0.00     0.019 A 
ATOM      2  C   LIG d   1       3.891  -1.270  -8.296  0.00  0.00    -0.004 A 
ATOM      3  S   LIG d   1       2.968   0.223  -7.962  0.00  0.00    -0.058 SA
ATOM      4  C   LIG d   1       3.151   0.217  -6.192  0.00  0.00     0.179 A 
ATOM      5  N   LIG d   1       3.891  -0.903  -5.971  0.00  0.00    -0.290 N 
ATOM      6  C   LIG d   1       4.061  -0.949  -4.573  0.00  0.00     0.125 A 
ATOM      7  C   LIG d   1       3.404   0.156  -4.052  0.00  0.00     0.159 A 
ATOM      8  N   LIG d   1       2.873   0.828  -5.066  0.00  0.00    -0.209 NA
ATOM      9 CL   LIG d   1       3.298   0.586  -2.373  0.00  0.00    -0.060 Cl
ATOM     10  H   LIG d   1       4.840  -2.542  -6.936  0.00  0.00     0.082 H 
ATOM     11  H   LIG d   1       4.100  -1.744  -9.244  0.00  0.00     0.071 H 
ENDROOT
BRANCH   6  12
ATOM     12  C   LIG d   1       4.761  -1.925  -3.848  0.00  0.00     0.170 C 
ATOM     13  O   LIG d   1       4.207  -2.961  -3.533  0.00  0.00    -0.294 OA
ATOM     14  H   LIG d   1       5.791  -1.757  -3.569  0.00  0.00     0.110 H 
ENDBRANCH   6  12
TORSDOF 1
ENDMDL
MODEL 4
REMARK VINA RESULT:      -4.0      2.398      3.070
REMARK  1 active torsions:
REMARK  status: ('A' for Active; 'I' for Inactive)
REMARK    1  A    between atoms: C_6  and  C_10 
ROOT
ATOM      1  C   LIG d   1       4.666  -2.077  -5.861  0.00  0.00     0.019 A 
ATOM      2  C   LIG d   1       5.587  -2.948  -6.274  0.00  0.00    -0.004 A 
ATOM      3  S   LIG d   1       6.810  -2.826  -4.977  0.00  0.00    -0.058 SA
ATOM      4  C   LIG d   1       5.974  -1.608  -3.985  0.00  0.00     0.179 A 
ATOM      5  N   LIG d   1       4.836  -1.375  -4.692  0.00  0.00    -0.290 N 
ATOM      6  C   LIG d   1       4.138  -0.411  -3.939  0.00  0.00     0.125 A 
ATOM      7  C   LIG d   1       4.915  -0.131  -2.825  0.00  0.00     0.159 A 
ATOM      8  N   LIG d   1       6.010  -0.878  -2.896  0.00  0.00    -0.209 NA
ATOM      9 CL   LIG d   1       4.525   0.992  -1.560  0.00  0.00    -0.060 Cl
ATOM     10  H   LIG d   1       3.777  -1.918  -6.454  0.00  0.00     0.082 H 
ATOM     11  H   LIG d   1       5.594  -3.566  -7.160  0.00  0.00     0.071 H 
ENDROOT
BRANCH   6  12
ATOM     12  C   LIG d   1       2.895   0.159  -4.256  0.00  0.00     0.170 C 
ATOM     13  O   LIG d   1       2.844   1.259  -4.770  0.00  0.00    -0.294 OA
ATOM     14  H   LIG d   1       1.984  -0.381  -4.044  0.00  0.00     0.110 H 
ENDBRANCH   6  12
TORSDOF 1
ENDMDL
MODEL 5
REMARK VINA RESULT:      -3.9      3.046      3.228
REMARK  1 active torsions:
REMARK  status: ('A' for Active; 'I' for Inactive)
REMARK    1  A    between atoms: C_6  and  C_10 
ROOT
ATOM      1  C   LIG d   1       4.097  -0.146  -7.074  0.00  0.00     0.019 A 
ATOM      2  C   LIG d   1       4.681  -0.622  -8.175  0.00  0.00    -0.004 A 
ATOM      3  S   LIG d   1       5.364  -2.164  -7.586  0.00  0.00    -0.058 SA
ATOM      4  C   LIG d   1       4.803  -2.038  -5.902  0.00  0.00     0.179 A 
ATOM      5  N   LIG d   1       4.142  -0.850  -5.894  0.00  0.00    -0.290 N 
ATOM      6  C   LIG d   1       3.678  -0.707  -4.572  0.00  0.00     0.125 A 
ATOM      7  C   LIG d   1       4.098  -1.830  -3.875  0.00  0.00     0.159 A 
ATOM      8  N   LIG d   1       4.771  -2.603  -4.719  0.00  0.00    -0.209 NA
ATOM      9 CL   LIG d   1       3.796  -2.167  -2.199  0.00  0.00    -0.060 Cl
ATOM     10  H   LIG d   1       3.585   0.804  -7.109  0.00  0.00     0.082 H 
ATOM     11  H   LIG d   1       4.729  -0.189  -9.163  0.00  0.00     0.071 H 
ENDROOT
BRANCH   6  12
ATOM     12  C   LIG d   1       2.934   0.366  -4.058  0.00  0.00     0.170 C 
ATOM     13  O   LIG d   1       3.462   1.449  -3.894  0.00  0.00    -0.294 OA
ATOM     14  H   LIG d   1       1.891   0.231  -3.809  0.00  0.00     0.110 H 
ENDBRANCH   6  12
TORSDOF 1
ENDMDL
MODEL 6
REMARK VINA RESULT:      -3.9      2.193      2.894
REMARK  1 active torsions:
REMARK  status: ('A' for Active; 'I' for Inactive)
REMARK    1  A    between atoms: C_6  and  C_10 
ROOT
ATOM      1  C   LIG d   1       5.806  -1.666  -5.967  0.00  0.00     0.019 A 
ATOM      2  C   LIG d   1       6.747  -1.423  -6.881  0.00  0.00    -0.004 A 
ATOM      3  S   LIG d   1       7.513   0.054  -6.230  0.00  0.00    -0.058 SA
ATOM      4  C   LIG d   1       6.500   0.219  -4.776  0.00  0.00     0.179 A 
ATOM      5  N   LIG d   1       5.656  -0.843  -4.877  0.00  0.00    -0.290 N 
ATOM      6  C   LIG d   1       4.829  -0.752  -3.740  0.00  0.00     0.125 A 
ATOM      7  C   LIG d   1       5.240   0.368  -3.033  0.00  0.00     0.159 A 
ATOM      8  N   LIG d   1       6.249   0.918  -3.696  0.00  0.00    -0.209 NA
ATOM      9 CL   LIG d   1       4.558   0.946  -1.545  0.00  0.00    -0.060 Cl
ATOM     10  H   LIG d   1       5.154  -2.519  -6.086  0.00  0.00     0.082 H 
ATOM     11  H   LIG d   1       6.983  -1.973  -7.780  0.00  0.00     0.071 H 
ENDROOT
BRANCH   6  12
ATOM     12  C   LIG d   1       3.789  -1.627  -3.391  0.00  0.00     0.170 C 
ATOM     13  O   LIG d   1       4.015  -2.813  -3.246  0.00  0.00    -0.294 OA
ATOM     14  H   LIG d   1       2.787  -1.247  -3.250  0.00  0.00     0.110 H 
ENDBRANCH   6  12
TORSDOF 1
ENDMDL
MODEL 7
REMARK VINA RESULT:      -3.9      2.122      2.541
REMARK  1 active torsions:
REMARK  status: ('A' for Active; 'I' for Inactive)
REMARK    1  A    between atoms: C_6  and  C_10 
ROOT
ATOM      1  C   LIG d   1       7.566  -1.687  -4.150  0.00  0.00     0.019 A 
ATOM      2  C   LIG d   1       8.144  -2.729  -4.750  0.00  0.00    -0.004 A 
ATOM      3  S   LIG d   1       6.743  -3.795  -5.056  0.00  0.00    -0.058 SA
ATOM      4  C   LIG d   1       5.493  -2.744  -4.349  0.00  0.00     0.179 A 
ATOM      5  N   LIG d   1       6.210  -1.666  -3.931  0.00  0.00    -0.290 N 
ATOM      6  C   LIG d   1       5.255  -0.802  -3.359  0.00  0.00     0.125 A 
ATOM      7  C   LIG d   1       4.024  -1.430  -3.477  0.00  0.00     0.159 A 
ATOM      8  N   LIG d   1       4.219  -2.596  -4.080  0.00  0.00    -0.209 NA
ATOM      9 CL   LIG d   1       2.499  -0.803  -2.934  0.00  0.00    -0.060 Cl
ATOM     10  H   LIG d   1       8.171  -0.852  -3.829  0.00  0.00     0.082 H 
ATOM     11  H   LIG d   1       9.186  -2.887  -4.988  0.00  0.00     0.071 H 
ENDROOT
BRANCH   6  12
ATOM     12  C   LIG d   1       5.502   0.453  -2.782  0.00  0.00     0.170 C 
ATOM     13  O   LIG d   1       5.925   1.364  -3.467  0.00  0.00    -0.294 OA
ATOM     14  H   LIG d   1       5.316   0.610  -1.730  0.00  0.00     0.110 H 
ENDBRANCH   6  12
TORSDOF 1
ENDMDL
MODEL 8
REMARK VINA RESULT:      -3.7      4.267      5.014
REMARK  1 active torsions:
REMARK  status: ('A' for Active; 'I' for Inactive)
REMARK    1  A    between atoms: C_6  and  C_10 
ROOT
ATOM      1  C   LIG d   1       4.616  -1.721  -3.972  0.00  0.00     0.019 A 
ATOM      2  C   LIG d   1       4.421  -1.485  -2.673  0.00  0.00    -0.004 A 
ATOM      3  S   LIG d   1       3.356  -0.051  -2.721  0.00  0.00    -0.058 SA
ATOM      4  C   LIG d   1       3.262   0.110  -4.490  0.00  0.00     0.179 A 
ATOM      5  N   LIG d   1       4.035  -0.921  -4.927  0.00  0.00    -0.290 N 
ATOM      6  C   LIG d   1       3.991  -0.832  -6.332  0.00  0.00     0.125 A 
ATOM      7  C   LIG d   1       3.188   0.256  -6.640  0.00  0.00     0.159 A 
ATOM      8  N   LIG d   1       2.772   0.790  -5.498  0.00  0.00    -0.209 NA
ATOM      9 CL   LIG d   1       2.794   0.819  -8.234  0.00  0.00    -0.060 Cl
ATOM     10  H   LIG d   1       5.240  -2.548  -4.276  0.00  0.00     0.082 H 
ATOM     11  H   LIG d   1       4.806  -2.020  -1.818  0.00  0.00     0.071 H 
ENDROOT
BRANCH   6  12
ATOM     12  C   LIG d   1       4.635  -1.681  -7.244  0.00  0.00     0.170 C 
ATOM     13  O   LIG d   1       4.238  -2.819  -7.400  0.00  0.00    -0.294 OA
ATOM     14  H   LIG d   1       5.484  -1.323  -7.808  0.00  0.00     0.110 H 
ENDBRANCH   6  12
TORSDOF 1
ENDMDL
MODEL 9
REMARK VINA RESULT:      -3.7      7.558      7.930
REMARK  1 active torsions:
REMARK  status: ('A' for Active; 'I' for Inactive)
REMARK    1  A    between atoms: C_6  and  C_10 
ROOT
ATOM      1  C   LIG d   1       9.378   6.560  -4.015  0.00  0.00     0.019 A 
ATOM      2  C   LIG d   1       9.500   5.754  -5.071  0.00  0.00    -0.004 A 
ATOM      3  S   LIG d   1      10.413   4.384  -4.378  0.00  0.00    -0.058 SA
ATOM      4  C   LIG d   1      10.553   5.013  -2.719  0.00  0.00     0.179 A 
ATOM      5  N   LIG d   1       9.906   6.207  -2.796  0.00  0.00    -0.290 N 
ATOM      6  C   LIG d   1       9.993   6.745  -1.497  0.00  0.00     0.125 A 
ATOM      7  C   LIG d   1      10.692   5.827  -0.728  0.00  0.00     0.159 A 
ATOM      8  N   LIG d   1      11.006   4.800  -1.508  0.00  0.00    -0.209 NA
ATOM      9 CL   LIG d   1      11.083   5.989   0.955  0.00  0.00    -0.060 Cl
ATOM     10  H   LIG d   1       8.860   7.502  -4.119  0.00  0.00     0.082 H 
ATOM     11  H   LIG d   1       9.142   5.894  -6.080  0.00  0.00     0.071 H 
ENDROOT
BRANCH   6  12
ATOM     12  C   LIG d   1       9.472   7.975  -1.065  0.00  0.00     0.170 C 
ATOM     13  O   LIG d   1       8.287   8.079  -0.817  0.00  0.00    -0.294 OA
ATOM     14  H   LIG d   1      10.125   8.828  -0.953  0.00  0.00     0.110 H 
ENDBRANCH   6  12
TORSDOF 1
ENDMDL
MODEL 10
REMARK VINA RESULT:      -3.6     10.519     11.399
REMARK  1 active torsions:
REMARK  status: ('A' for Active; 'I' for Inactive)
REMARK    1  A    between atoms: C_6  and  C_10 
ROOT
ATOM      1  C   LIG d   1      11.129  10.682  -0.259  0.00  0.00     0.019 A 
ATOM      2  C   LIG d   1      11.632  11.793   0.283  0.00  0.00    -0.004 A 
ATOM      3  S   LIG d   1      12.263  11.183   1.839  0.00  0.00    -0.058 SA
ATOM      4  C   LIG d   1      11.795   9.479   1.628  0.00  0.00     0.179 A 
ATOM      5  N   LIG d   1      11.197   9.482   0.406  0.00  0.00    -0.290 N 
ATOM      6  C   LIG d   1      10.807   8.145   0.195  0.00  0.00     0.125 A 
ATOM      7  C   LIG d   1      11.203   7.430   1.316  0.00  0.00     0.159 A 
ATOM      8  N   LIG d   1      11.794   8.277   2.150  0.00  0.00    -0.209 NA
ATOM      9 CL   LIG d   1      10.968   5.730   1.581  0.00  0.00    -0.060 Cl
ATOM     10  H   LIG d   1      10.658  10.728  -1.230  0.00  0.00     0.082 H 
ATOM     11  H   LIG d   1      11.652  12.796  -0.114  0.00  0.00     0.071 H 
ENDROOT
BRANCH   6  12
ATOM     12  C   LIG d   1      10.146   7.634  -0.932  0.00  0.00     0.170 C 
ATOM     13  O   LIG d   1       8.934   7.537  -0.933  0.00  0.00    -0.294 OA
ATOM     14  H   LIG d   1      10.713   7.329  -1.799  0.00  0.00     0.110 H 
ENDBRANCH   6  12
TORSDOF 1
ENDMDL
