MODEL 1
REMARK VINA RESULT:      -5.5      0.000      0.000
REMARK  10 active torsions:
REMARK  status: ('A' for Active; 'I' for Inactive)
REMARK    1  A    between atoms: C_1  and  C_2 
REMARK    2  A    between atoms: C_3  and  C_9 
REMARK    3  A    between atoms: C_4  and  C_8 
REMARK    4  A    between atoms: N_5  and  C_7 
REMARK    5  A    between atoms: C_9  and  C_10 
REMARK    6  A    between atoms: C_10  and  C_11 
REMARK       I    between atoms: C_11  and  N_13 
REMARK    7  A    between atoms: N_13  and  C_14 
REMARK    8  A    between atoms: C_17  and  O_23 
REMARK    9  A    between atoms: O_23  and  C_24 
REMARK   10  A    between atoms: N_26  and  C_29 
ROOT
ATOM      1  C   LIG d   1       9.685   9.048  -5.139  0.00  0.00     0.083 A 
ATOM      2  C   LIG d   1       9.997   8.559  -6.404  0.00  0.00    -0.013 A 
ATOM      3  C   LIG d   1      10.152   9.432  -7.459  0.00  0.00     0.017 A 
ATOM      4  C   LIG d   1      10.003  10.800  -7.254  0.00  0.00     0.170 A 
ATOM      5  C   LIG d   1       9.694  11.293  -5.993  0.00  0.00     0.210 A 
ATOM      6  C   LIG d   1       9.534  10.413  -4.930  0.00  0.00     0.191 A 
ATOM      7  O   LIG d   1       9.237  11.133  -3.808  0.00  0.00    -0.451 OA
ATOM      8  C   LIG d   1       9.619  12.488  -4.108  0.00  0.00     0.234 C 
ATOM      9  O   LIG d   1       9.499  12.567  -5.541  0.00  0.00    -0.449 OA
ATOM     10  C   LIG d   1      10.479   8.949  -8.848  0.00  0.00     0.028 C 
ATOM     11  N   LIG d   1      10.999   7.578  -8.806  0.00  0.00    -0.301 N 
ATOM     12  C   LIG d   1      10.076   6.707  -8.061  0.00  0.00     0.003 C 
ATOM     13  C   LIG d   1      10.156   7.070  -6.579  0.00  0.00    -0.013 C 
ATOM     14  H   LIG d   1       8.940  13.184  -3.594  0.00  0.00     0.117 H 
ATOM     15  H   LIG d   1      10.650  12.662  -3.766  0.00  0.00     0.117 H 
ATOM     16  H   LIG d   1       9.569   8.967  -9.467  0.00  0.00     0.048 H 
ATOM     17  H   LIG d   1      11.239   9.606  -9.296  0.00  0.00     0.048 H 
ATOM     18  H   LIG d   1       9.051   6.857  -8.430  0.00  0.00     0.043 H 
ATOM     19  H   LIG d   1      10.367   5.656  -8.206  0.00  0.00     0.043 H 
ATOM     20  H   LIG d   1      11.132   6.756  -6.181  0.00  0.00     0.033 H 
ATOM     21  H   LIG d   1       9.354   6.550  -6.035  0.00  0.00     0.033 H 
ENDROOT
BRANCH   1  22
ATOM     22  N   LIG d   1       9.524   8.156  -4.067  0.00  0.00    -0.282 N 
ATOM     23  C   LIG d   1      10.558   7.904  -3.239  0.00  0.00     0.218 C 
ATOM     24  O   LIG d   1      11.600   8.511  -3.367  0.00  0.00    -0.276 OA
ATOM     25  H   LIG d   1       8.554   7.664  -3.903  0.00  0.00     0.155 HD
BRANCH  23  26
ATOM     26  C   LIG d   1      10.418   6.867  -2.155  0.00  0.00     0.028 C 
ATOM     27  H   LIG d   1      11.414   6.610  -1.762  0.00  0.00     0.036 H 
ATOM     28  H   LIG d   1       9.945   5.964  -2.570  0.00  0.00     0.036 H 
BRANCH  26  29
ATOM     29  C   LIG d   1       9.552   7.424  -1.024  0.00  0.00    -0.016 C 
ATOM     30  H   LIG d   1       8.936   6.616  -0.602  0.00  0.00     0.032 H 
ATOM     31  H   LIG d   1       8.898   8.215  -1.419  0.00  0.00     0.032 H 
BRANCH  29  32
ATOM     32  C   LIG d   1      10.438   7.994   0.054  0.00  0.00    -0.004 A 
ATOM     33  C   LIG d   1      11.134   7.261   1.021  0.00  0.00     0.063 A 
ATOM     34  N   LIG d   1      11.794   8.103   1.774  0.00  0.00    -0.176 NA
ATOM     35  N   LIG d   1      11.531   9.400   1.316  0.00  0.00    -0.271 N 
ATOM     36  C   LIG d   1      10.697   9.306   0.259  0.00  0.00     0.039 A 
BRANCH  33  37
ATOM     37  C   LIG d   1      11.126   5.762   1.167  0.00  0.00    -0.020 C 
ATOM     38  H   LIG d   1      11.755   5.313   0.385  0.00  0.00     0.029 H 
ATOM     39  H   LIG d   1      10.096   5.389   1.068  0.00  0.00     0.029 H 
ATOM     40  H   LIG d   1      11.522   5.488   2.157  0.00  0.00     0.029 H 
ENDBRANCH  33  37
BRANCH  35  41
ATOM     41  C   LIG d   1      12.067  10.639   1.884  0.00  0.00     0.030 C 
ATOM     42  H   LIG d   1      12.080  10.565   2.981  0.00  0.00     0.047 H 
ATOM     43  H   LIG d   1      11.433  11.486   1.582  0.00  0.00     0.047 H 
ATOM     44  H   LIG d   1      13.092  10.799   1.515  0.00  0.00     0.047 H 
ENDBRANCH  35  41
BRANCH  36  45
ATOM     45  C   LIG d   1      10.152  10.457  -0.547  0.00  0.00    -0.022 C 
ATOM     46  H   LIG d   1       9.697  11.195   0.129  0.00  0.00     0.029 H 
ATOM     47  H   LIG d   1       9.391  10.085  -1.249  0.00  0.00     0.029 H 
ATOM     48  H   LIG d   1      10.971  10.931  -1.109  0.00  0.00     0.029 H 
ENDBRANCH  36  45
ENDBRANCH  29  32
ENDBRANCH  26  29
ENDBRANCH  23  26
ENDBRANCH   1  22
BRANCH   4  49
ATOM     49  O   LIG d   1      10.160  11.660  -8.296  0.00  0.00    -0.491 OA
BRANCH  49  50
ATOM     50  C   LIG d   1      11.386  12.391  -8.356  0.00  0.00     0.079 C 
ATOM     51  H   LIG d   1      11.980  12.041  -9.213  0.00  0.00     0.066 H 
ATOM     52  H   LIG d   1      11.953  12.234  -7.427  0.00  0.00     0.066 H 
ATOM     53  H   LIG d   1      11.168  13.462  -8.476  0.00  0.00     0.066 H 
ENDBRANCH  49  50
ENDBRANCH   4  49
BRANCH  11  54
ATOM     54  C   LIG d   1      11.233   7.062 -10.161  0.00  0.00    -0.012 C 
ATOM     55  H   LIG d   1      10.943   7.824 -10.899  0.00  0.00     0.039 H 
ATOM     56  H   LIG d   1      10.632   6.154 -10.316  0.00  0.00     0.039 H 
ATOM     57  H   LIG d   1      12.299   6.821 -10.283  0.00  0.00     0.039 H 
ENDBRANCH  11  54
TORSDOF 10
ENDMDL
MODEL 2
REMARK VINA RESULT:      -5.5      1.547      3.671
REMARK  10 active torsions:
REMARK  status: ('A' for Active; 'I' for Inactive)
REMARK    1  A    between atoms: C_1  and  C_2 
REMARK    2  A    between atoms: C_3  and  C_9 
REMARK    3  A    between atoms: C_4  and  C_8 
REMARK    4  A    between atoms: N_5  and  C_7 
REMARK    5  A    between atoms: C_9  and  C_10 
REMARK    6  A    between atoms: C_10  and  C_11 
REMARK       I    between atoms: C_11  and  N_13 
REMARK    7  A    between atoms: N_13  and  C_14 
REMARK    8  A    between atoms: C_17  and  O_23 
REMARK    9  A    between atoms: O_23  and  C_24 
REMARK   10  A    between atoms: N_26  and  C_29 
ROOT
ATOM      1  C   LIG d   1       9.605   9.454  -5.171  0.00  0.00     0.083 A 
ATOM      2  C   LIG d   1       9.565  10.810  -4.859  0.00  0.00    -0.013 A 
ATOM      3  C   LIG d   1       9.707  11.750  -5.856  0.00  0.00     0.017 A 
ATOM      4  C   LIG d   1       9.884  11.340  -7.174  0.00  0.00     0.170 A 
ATOM      5  C   LIG d   1       9.923   9.988  -7.492  0.00  0.00     0.210 A 
ATOM      6  C   LIG d   1       9.784   9.040  -6.485  0.00  0.00     0.191 A 
ATOM      7  O   LIG d   1       9.856   7.796  -7.044  0.00  0.00    -0.451 OA
ATOM      8  C   LIG d   1       9.632   7.994  -8.453  0.00  0.00     0.234 C 
ATOM      9  O   LIG d   1      10.082   9.342  -8.684  0.00  0.00    -0.449 OA
ATOM     10  C   LIG d   1       9.681  13.228  -5.565  0.00  0.00     0.028 C 
ATOM     11  N   LIG d   1       9.087  13.481  -4.249  0.00  0.00    -0.301 N 
ATOM     12  C   LIG d   1       9.762  12.671  -3.221  0.00  0.00     0.003 C 
ATOM     13  C   LIG d   1       9.365  11.209  -3.419  0.00  0.00    -0.013 C 
ATOM     14  H   LIG d   1      10.214   7.255  -9.024  0.00  0.00     0.117 H 
ATOM     15  H   LIG d   1       8.563   7.868  -8.675  0.00  0.00     0.117 H 
ATOM     16  H   LIG d   1      10.708  13.622  -5.576  0.00  0.00     0.048 H 
ATOM     17  H   LIG d   1       9.083  13.742  -6.332  0.00  0.00     0.048 H 
ATOM     18  H   LIG d   1      10.851  12.782  -3.325  0.00  0.00     0.043 H 
ATOM     19  H   LIG d   1       9.451  13.013  -2.223  0.00  0.00     0.043 H 
ATOM     20  H   LIG d   1       8.306  11.081  -3.147  0.00  0.00     0.033 H 
ATOM     21  H   LIG d   1       9.988  10.573  -2.772  0.00  0.00     0.033 H 
ENDROOT
BRANCH   1  22
ATOM     22  N   LIG d   1       9.464   8.499  -4.152  0.00  0.00    -0.282 N 
ATOM     23  C   LIG d   1      10.555   8.018  -3.524  0.00  0.00     0.218 C 
ATOM     24  O   LIG d   1      11.651   8.473  -3.776  0.00  0.00    -0.276 OA
ATOM     25  H   LIG d   1       8.462   8.143  -3.868  0.00  0.00     0.155 HD
BRANCH  23  26
ATOM     26  C   LIG d   1      10.413   6.915  -2.507  0.00  0.00     0.028 C 
ATOM     27  H   LIG d   1      11.410   6.614  -2.150  0.00  0.00     0.036 H 
ATOM     28  H   LIG d   1       9.916   6.050  -2.971  0.00  0.00     0.036 H 
BRANCH  26  29
ATOM     29  C   LIG d   1       9.577   7.413  -1.327  0.00  0.00    -0.016 C 
ATOM     30  H   LIG d   1       8.880   6.622  -1.013  0.00  0.00     0.032 H 
ATOM     31  H   LIG d   1       9.008   8.303  -1.631  0.00  0.00     0.032 H 
BRANCH  29  32
ATOM     32  C   LIG d   1      10.487   7.765  -0.179  0.00  0.00    -0.004 A 
ATOM     33  C   LIG d   1      11.213   6.861   0.604  0.00  0.00     0.063 A 
ATOM     34  N   LIG d   1      11.887   7.542   1.494  0.00  0.00    -0.176 NA
ATOM     35  N   LIG d   1      11.604   8.901   1.313  0.00  0.00    -0.271 N 
ATOM     36  C   LIG d   1      10.744   9.012   0.279  0.00  0.00     0.039 A 
BRANCH  33  37
ATOM     37  C   LIG d   1      11.218   5.363   0.446  0.00  0.00    -0.020 C 
ATOM     38  H   LIG d   1      11.178   5.106  -0.622  0.00  0.00     0.029 H 
ATOM     39  H   LIG d   1      10.343   4.937   0.959  0.00  0.00     0.029 H 
ATOM     40  H   LIG d   1      12.138   4.951   0.888  0.00  0.00     0.029 H 
ENDBRANCH  33  37
BRANCH  35  41
ATOM     41  C   LIG d   1      12.147  10.008   2.105  0.00  0.00     0.030 C 
ATOM     42  H   LIG d   1      11.505  10.183   2.980  0.00  0.00     0.047 H 
ATOM     43  H   LIG d   1      12.182  10.918   1.488  0.00  0.00     0.047 H 
ATOM     44  H   LIG d   1      13.164   9.754   2.442  0.00  0.00     0.047 H 
ENDBRANCH  35  41
BRANCH  36  45
ATOM     45  C   LIG d   1      10.170  10.295  -0.265  0.00  0.00    -0.022 C 
ATOM     46  H   LIG d   1       9.845  10.934   0.568  0.00  0.00     0.029 H 
ATOM     47  H   LIG d   1       9.309  10.067  -0.911  0.00  0.00     0.029 H 
ATOM     48  H   LIG d   1      10.940  10.820  -0.852  0.00  0.00     0.029 H 
ENDBRANCH  36  45
ENDBRANCH  29  32
ENDBRANCH  26  29
ENDBRANCH  23  26
ENDBRANCH   1  22
BRANCH   4  49
ATOM     49  O   LIG d   1      10.022  12.269  -8.158  0.00  0.00    -0.491 OA
BRANCH  49  50
ATOM     50  C   LIG d   1      11.348  12.538  -8.617  0.00  0.00     0.079 C 
ATOM     51  H   LIG d   1      11.369  13.512  -9.128  0.00  0.00     0.066 H 
ATOM     52  H   LIG d   1      11.660  11.750  -9.317  0.00  0.00     0.066 H 
ATOM     53  H   LIG d   1      12.035  12.560  -7.759  0.00  0.00     0.066 H 
ENDBRANCH  49  50
ENDBRANCH   4  49
BRANCH  11  54
ATOM     54  C   LIG d   1       9.141  14.910  -3.913  0.00  0.00    -0.012 C 
ATOM     55  H   LIG d   1       8.127  15.334  -3.947  0.00  0.00     0.039 H 
ATOM     56  H   LIG d   1       9.782  15.433  -4.637  0.00  0.00     0.039 H 
ATOM     57  H   LIG d   1       9.556  15.033  -2.901  0.00  0.00     0.039 H 
ENDBRANCH  11  54
TORSDOF 10
ENDMDL
MODEL 3
REMARK VINA RESULT:      -5.5      9.689     11.591
REMARK  10 active torsions:
REMARK  status: ('A' for Active; 'I' for Inactive)
REMARK    1  A    between atoms: C_1  and  C_2 
REMARK    2  A    between atoms: C_3  and  C_9 
REMARK    3  A    between atoms: C_4  and  C_8 
REMARK    4  A    between atoms: N_5  and  C_7 
REMARK    5  A    between atoms: C_9  and  C_10 
REMARK    6  A    between atoms: C_10  and  C_11 
REMARK       I    between atoms: C_11  and  N_13 
REMARK    7  A    between atoms: N_13  and  C_14 
REMARK    8  A    between atoms: C_17  and  O_23 
REMARK    9  A    between atoms: O_23  and  C_24 
REMARK   10  A    between atoms: N_26  and  C_29 
ROOT
ATOM      1  C   LIG d   1       4.600  -0.095  -7.837  0.00  0.00     0.083 A 
ATOM      2  C   LIG d   1       3.728  -0.367  -8.886  0.00  0.00    -0.013 A 
ATOM      3  C   LIG d   1       4.185  -0.341 -10.186  0.00  0.00     0.017 A 
ATOM      4  C   LIG d   1       5.521  -0.048 -10.443  0.00  0.00     0.170 A 
ATOM      5  C   LIG d   1       6.396   0.223  -9.400  0.00  0.00     0.210 A 
ATOM      6  C   LIG d   1       5.933   0.200  -8.090  0.00  0.00     0.191 A 
ATOM      7  O   LIG d   1       6.973   0.496  -7.254  0.00  0.00    -0.451 OA
ATOM      8  C   LIG d   1       8.165   0.299  -8.038  0.00  0.00     0.234 C 
ATOM      9  O   LIG d   1       7.726   0.532  -9.390  0.00  0.00    -0.449 OA
ATOM     10  C   LIG d   1       3.276  -0.620 -11.354  0.00  0.00     0.028 C 
ATOM     11  N   LIG d   1       2.056  -1.299 -10.905  0.00  0.00    -0.301 N 
ATOM     12  C   LIG d   1       1.426  -0.541  -9.812  0.00  0.00     0.003 C 
ATOM     13  C   LIG d   1       2.290  -0.687  -8.560  0.00  0.00    -0.013 C 
ATOM     14  H   LIG d   1       8.936   1.016  -7.720  0.00  0.00     0.117 H 
ATOM     15  H   LIG d   1       8.534  -0.726  -7.891  0.00  0.00     0.117 H 
ATOM     16  H   LIG d   1       3.000   0.329 -11.838  0.00  0.00     0.048 H 
ATOM     17  H   LIG d   1       3.797  -1.262 -12.080  0.00  0.00     0.048 H 
ATOM     18  H   LIG d   1       1.351   0.518 -10.095  0.00  0.00     0.043 H 
ATOM     19  H   LIG d   1       0.420  -0.943  -9.621  0.00  0.00     0.043 H 
ATOM     20  H   LIG d   1       2.220  -1.721  -8.188  0.00  0.00     0.033 H 
ATOM     21  H   LIG d   1       1.928   0.005  -7.786  0.00  0.00     0.033 H 
ENDROOT
BRANCH   1  22
ATOM     22  N   LIG d   1       4.130  -0.119  -6.514  0.00  0.00    -0.282 N 
ATOM     23  C   LIG d   1       4.272  -1.233  -5.769  0.00  0.00     0.218 C 
ATOM     24  O   LIG d   1       4.882  -2.184  -6.210  0.00  0.00    -0.276 OA
ATOM     25  H   LIG d   1       3.645   0.772  -6.087  0.00  0.00     0.155 HD
BRANCH  23  26
ATOM     26  C   LIG d   1       3.672  -1.297  -4.388  0.00  0.00     0.028 C 
ATOM     27  H   LIG d   1       2.984  -2.153  -4.326  0.00  0.00     0.036 H 
ATOM     28  H   LIG d   1       3.118  -0.368  -4.186  0.00  0.00     0.036 H 
BRANCH  26  29
ATOM     29  C   LIG d   1       4.788  -1.463  -3.354  0.00  0.00    -0.016 C 
ATOM     30  H   LIG d   1       5.408  -2.331  -3.621  0.00  0.00     0.032 H 
ATOM     31  H   LIG d   1       4.346  -1.620  -2.360  0.00  0.00     0.032 H 
BRANCH  29  32
ATOM     32  C   LIG d   1       5.642  -0.223  -3.335  0.00  0.00    -0.004 A 
ATOM     33  C   LIG d   1       5.257   1.037  -2.866  0.00  0.00     0.063 A 
ATOM     34  N   LIG d   1       6.268   1.854  -3.009  0.00  0.00    -0.176 NA
ATOM     35  N   LIG d   1       7.328   1.143  -3.586  0.00  0.00    -0.271 N 
ATOM     36  C   LIG d   1       6.919  -0.130  -3.775  0.00  0.00     0.039 A 
BRANCH  33  37
ATOM     37  C   LIG d   1       3.910   1.390  -2.291  0.00  0.00    -0.020 C 
ATOM     38  H   LIG d   1       3.988   2.326  -1.720  0.00  0.00     0.029 H 
ATOM     39  H   LIG d   1       3.572   0.582  -1.626  0.00  0.00     0.029 H 
ATOM     40  H   LIG d   1       3.184   1.519  -3.108  0.00  0.00     0.029 H 
ENDBRANCH  33  37
BRANCH  35  41
ATOM     41  C   LIG d   1       8.647   1.684  -3.922  0.00  0.00     0.030 C 
ATOM     42  H   LIG d   1       8.932   2.444  -3.181  0.00  0.00     0.047 H 
ATOM     43  H   LIG d   1       8.611   2.142  -4.922  0.00  0.00     0.047 H 
ATOM     44  H   LIG d   1       9.389   0.871  -3.918  0.00  0.00     0.047 H 
ENDBRANCH  35  41
BRANCH  36  45
ATOM     45  C   LIG d   1       7.738  -1.246  -4.370  0.00  0.00    -0.022 C 
ATOM     46  H   LIG d   1       8.559  -0.821  -4.965  0.00  0.00     0.029 H 
ATOM     47  H   LIG d   1       7.099  -1.865  -5.016  0.00  0.00     0.029 H 
ATOM     48  H   LIG d   1       8.154  -1.867  -3.561  0.00  0.00     0.029 H 
ENDBRANCH  36  45
ENDBRANCH  29  32
ENDBRANCH  26  29
ENDBRANCH  23  26
ENDBRANCH   1  22
BRANCH   4  49
ATOM     49  O   LIG d   1       5.971  -0.025 -11.726  0.00  0.00    -0.491 OA
BRANCH  49  50
ATOM     50  C   LIG d   1       6.743  -1.145 -12.164  0.00  0.00     0.079 C 
ATOM     51  H   LIG d   1       6.606  -1.286 -13.246  0.00  0.00     0.066 H 
ATOM     52  H   LIG d   1       6.412  -2.049 -11.632  0.00  0.00     0.066 H 
ATOM     53  H   LIG d   1       7.806  -0.964 -11.950  0.00  0.00     0.066 H 
ENDBRANCH  49  50
ENDBRANCH   4  49
BRANCH  11  54
ATOM     54  C   LIG d   1       1.120  -1.491 -12.020  0.00  0.00    -0.012 C 
ATOM     55  H   LIG d   1       0.112  -1.180 -11.710  0.00  0.00     0.039 H 
ATOM     56  H   LIG d   1       1.104  -2.552 -12.308  0.00  0.00     0.039 H 
ATOM     57  H   LIG d   1       1.443  -0.884 -12.879  0.00  0.00     0.039 H 
ENDBRANCH  11  54
TORSDOF 10
ENDMDL
MODEL 4
REMARK VINA RESULT:      -5.5      2.773      8.018
REMARK  10 active torsions:
REMARK  status: ('A' for Active; 'I' for Inactive)
REMARK    1  A    between atoms: C_1  and  C_2 
REMARK    2  A    between atoms: C_3  and  C_9 
REMARK    3  A    between atoms: C_4  and  C_8 
REMARK    4  A    between atoms: N_5  and  C_7 
REMARK    5  A    between atoms: C_9  and  C_10 
REMARK    6  A    between atoms: C_10  and  C_11 
REMARK       I    between atoms: C_11  and  N_13 
REMARK    7  A    between atoms: N_13  and  C_14 
REMARK    8  A    between atoms: C_17  and  O_23 
REMARK    9  A    between atoms: O_23  and  C_24 
REMARK   10  A    between atoms: N_26  and  C_29 
ROOT
ATOM      1  C   LIG d   1       9.969   8.160  -1.329  0.00  0.00     0.083 A 
ATOM      2  C   LIG d   1      10.180   9.535  -1.376  0.00  0.00    -0.013 A 
ATOM      3  C   LIG d   1      10.804  10.171  -0.324  0.00  0.00     0.017 A 
ATOM      4  C   LIG d   1      11.225   9.434   0.779  0.00  0.00     0.170 A 
ATOM      5  C   LIG d   1      11.019   8.062   0.830  0.00  0.00     0.210 A 
ATOM      6  C   LIG d   1      10.387   7.421  -0.229  0.00  0.00     0.191 A 
ATOM      7  O   LIG d   1      10.301   6.088   0.055  0.00  0.00    -0.451 OA
ATOM      8  C   LIG d   1      11.251   5.859   1.113  0.00  0.00     0.234 C 
ATOM      9  O   LIG d   1      11.332   7.133   1.780  0.00  0.00    -0.449 OA
ATOM     10  C   LIG d   1      11.045  11.658  -0.325  0.00  0.00     0.028 C 
ATOM     11  N   LIG d   1      10.930  12.196  -1.684  0.00  0.00    -0.301 N 
ATOM     12  C   LIG d   1       9.649  11.788  -2.286  0.00  0.00     0.003 C 
ATOM     13  C   LIG d   1       9.714  10.292  -2.593  0.00  0.00    -0.013 C 
ATOM     14  H   LIG d   1      10.877   5.064   1.776  0.00  0.00     0.117 H 
ATOM     15  H   LIG d   1      12.214   5.553   0.681  0.00  0.00     0.117 H 
ATOM     16  H   LIG d   1      10.301  12.151   0.319  0.00  0.00     0.048 H 
ATOM     17  H   LIG d   1      12.056  11.866   0.058  0.00  0.00     0.048 H 
ATOM     18  H   LIG d   1       8.831  11.991  -1.580  0.00  0.00     0.043 H 
ATOM     19  H   LIG d   1       9.484  12.355  -3.213  0.00  0.00     0.043 H 
ATOM     20  H   LIG d   1      10.417  10.122  -3.423  0.00  0.00     0.033 H 
ATOM     21  H   LIG d   1       8.714   9.938  -2.883  0.00  0.00     0.033 H 
ENDROOT
BRANCH   1  22
ATOM     22  N   LIG d   1       9.331   7.516  -2.400  0.00  0.00    -0.282 N 
ATOM     23  C   LIG d   1      10.065   6.942  -3.375  0.00  0.00     0.218 C 
ATOM     24  O   LIG d   1      11.273   6.906  -3.283  0.00  0.00    -0.276 OA
ATOM     25  H   LIG d   1       8.232   7.480  -2.444  0.00  0.00     0.155 HD
BRANCH  23  26
ATOM     26  C   LIG d   1       9.382   6.345  -4.579  0.00  0.00     0.028 C 
ATOM     27  H   LIG d   1       8.608   7.038  -4.943  0.00  0.00     0.036 H 
ATOM     28  H   LIG d   1       8.915   5.389  -4.300  0.00  0.00     0.036 H 
BRANCH  26  29
ATOM     29  C   LIG d   1      10.414   6.106  -5.684  0.00  0.00    -0.016 C 
ATOM     30  H   LIG d   1      10.660   5.035  -5.729  0.00  0.00     0.032 H 
ATOM     31  H   LIG d   1      11.324   6.683  -5.465  0.00  0.00     0.032 H 
BRANCH  29  32
ATOM     32  C   LIG d   1       9.844   6.547  -7.007  0.00  0.00    -0.004 A 
ATOM     33  C   LIG d   1       9.457   7.848  -7.346  0.00  0.00     0.063 A 
ATOM     34  N   LIG d   1       9.017   7.835  -8.577  0.00  0.00    -0.176 NA
ATOM     35  N   LIG d   1       9.099   6.523  -9.059  0.00  0.00    -0.271 N 
ATOM     36  C   LIG d   1       9.611   5.751  -8.077  0.00  0.00     0.039 A 
BRANCH  33  37
ATOM     37  C   LIG d   1       9.538   9.054  -6.447  0.00  0.00    -0.020 C 
ATOM     38  H   LIG d   1       8.601   9.155  -5.881  0.00  0.00     0.029 H 
ATOM     39  H   LIG d   1       9.696   9.956  -7.058  0.00  0.00     0.029 H 
ATOM     40  H   LIG d   1      10.378   8.934  -5.746  0.00  0.00     0.029 H 
ENDBRANCH  33  37
BRANCH  35  41
ATOM     41  C   LIG d   1       8.701   6.068 -10.393  0.00  0.00     0.030 C 
ATOM     42  H   LIG d   1       7.662   6.371 -10.590  0.00  0.00     0.047 H 
ATOM     43  H   LIG d   1       8.779   4.972 -10.446  0.00  0.00     0.047 H 
ATOM     44  H   LIG d   1       9.362   6.520 -11.148  0.00  0.00     0.047 H 
ENDBRANCH  35  41
BRANCH  36  45
ATOM     45  C   LIG d   1       9.874   4.270  -8.157  0.00  0.00    -0.022 C 
ATOM     46  H   LIG d   1      10.327   4.030  -9.129  0.00  0.00     0.029 H 
ATOM     47  H   LIG d   1       8.926   3.722  -8.051  0.00  0.00     0.029 H 
ATOM     48  H   LIG d   1      10.561   3.975  -7.349  0.00  0.00     0.029 H 
ENDBRANCH  36  45
ENDBRANCH  29  32
ENDBRANCH  26  29
ENDBRANCH  23  26
ENDBRANCH   1  22
BRANCH   4  49
ATOM     49  O   LIG d   1      11.843  10.063   1.815  0.00  0.00    -0.491 OA
BRANCH  49  50
ATOM     50  C   LIG d   1      13.263   9.933   1.900  0.00  0.00     0.079 C 
ATOM     51  H   LIG d   1      13.522   8.895   2.155  0.00  0.00     0.066 H 
ATOM     52  H   LIG d   1      13.647  10.609   2.679  0.00  0.00     0.066 H 
ATOM     53  H   LIG d   1      13.714  10.196   0.932  0.00  0.00     0.066 H 
ENDBRANCH  49  50
ENDBRANCH   4  49
BRANCH  11  54
ATOM     54  C   LIG d   1      11.069  13.658  -1.685  0.00  0.00    -0.012 C 
ATOM     55  H   LIG d   1      11.643  13.972  -0.801  0.00  0.00     0.039 H 
ATOM     56  H   LIG d   1      10.072  14.122  -1.659  0.00  0.00     0.039 H 
ATOM     57  H   LIG d   1      11.597  13.975  -2.597  0.00  0.00     0.039 H 
ENDBRANCH  11  54
TORSDOF 10
ENDMDL
MODEL 5
REMARK VINA RESULT:      -5.5      7.615     10.101
REMARK  10 active torsions:
REMARK  status: ('A' for Active; 'I' for Inactive)
REMARK    1  A    between atoms: C_1  and  C_2 
REMARK    2  A    between atoms: C_3  and  C_9 
REMARK    3  A    between atoms: C_4  and  C_8 
REMARK    4  A    between atoms: N_5  and  C_7 
REMARK    5  A    between atoms: C_9  and  C_10 
REMARK    6  A    between atoms: C_10  and  C_11 
REMARK       I    between atoms: C_11  and  N_13 
REMARK    7  A    between atoms: N_13  and  C_14 
REMARK    8  A    between atoms: C_17  and  O_23 
REMARK    9  A    between atoms: O_23  and  C_24 
REMARK   10  A    between atoms: N_26  and  C_29 
ROOT
ATOM      1  C   LIG d   1       8.101   1.789  -5.263  0.00  0.00     0.083 A 
ATOM      2  C   LIG d   1       9.280   2.425  -4.888  0.00  0.00    -0.013 A 
ATOM      3  C   LIG d   1      10.119   2.943  -5.851  0.00  0.00     0.017 A 
ATOM      4  C   LIG d   1       9.779   2.833  -7.196  0.00  0.00     0.170 A 
ATOM      5  C   LIG d   1       8.602   2.201  -7.576  0.00  0.00     0.210 A 
ATOM      6  C   LIG d   1       7.759   1.675  -6.605  0.00  0.00     0.191 A 
ATOM      7  O   LIG d   1       6.680   1.110  -7.222  0.00  0.00    -0.451 OA
ATOM      8  C   LIG d   1       6.671   1.655  -8.555  0.00  0.00     0.234 C 
ATOM      9  O   LIG d   1       8.054   1.968  -8.805  0.00  0.00    -0.449 OA
ATOM     10  C   LIG d   1      11.410   3.631  -5.495  0.00  0.00     0.028 C 
ATOM     11  N   LIG d   1      11.410   4.022  -4.081  0.00  0.00    -0.301 N 
ATOM     12  C   LIG d   1      11.084   2.863  -3.233  0.00  0.00     0.003 C 
ATOM     13  C   LIG d   1       9.605   2.527  -3.419  0.00  0.00    -0.013 C 
ATOM     14  H   LIG d   1       6.280   0.903  -9.257  0.00  0.00     0.117 H 
ATOM     15  H   LIG d   1       6.030   2.548  -8.582  0.00  0.00     0.117 H 
ATOM     16  H   LIG d   1      12.253   2.947  -5.677  0.00  0.00     0.048 H 
ATOM     17  H   LIG d   1      11.530   4.532  -6.114  0.00  0.00     0.048 H 
ATOM     18  H   LIG d   1      11.704   2.005  -3.530  0.00  0.00     0.043 H 
ATOM     19  H   LIG d   1      11.283   3.112  -2.181  0.00  0.00     0.043 H 
ATOM     20  H   LIG d   1       8.993   3.320  -2.963  0.00  0.00     0.033 H 
ATOM     21  H   LIG d   1       9.387   1.568  -2.928  0.00  0.00     0.033 H 
ENDROOT
BRANCH   1  22
ATOM     22  N   LIG d   1       7.251   1.259  -4.280  0.00  0.00    -0.282 N 
ATOM     23  C   LIG d   1       7.267  -0.064  -4.017  0.00  0.00     0.218 C 
ATOM     24  O   LIG d   1       8.075  -0.782  -4.566  0.00  0.00    -0.276 OA
ATOM     25  H   LIG d   1       6.572   1.923  -3.724  0.00  0.00     0.155 HD
BRANCH  23  26
ATOM     26  C   LIG d   1       6.280  -0.649  -3.040  0.00  0.00     0.028 C 
ATOM     27  H   LIG d   1       5.703   0.162  -2.571  0.00  0.00     0.036 H 
ATOM     28  H   LIG d   1       6.821  -1.209  -2.263  0.00  0.00     0.036 H 
BRANCH  26  29
ATOM     29  C   LIG d   1       5.328  -1.591  -3.780  0.00  0.00    -0.016 C 
ATOM     30  H   LIG d   1       4.754  -2.179  -3.049  0.00  0.00     0.032 H 
ATOM     31  H   LIG d   1       5.909  -2.270  -4.421  0.00  0.00     0.032 H 
BRANCH  29  32
ATOM     32  C   LIG d   1       4.381  -0.783  -4.629  0.00  0.00    -0.004 A 
ATOM     33  C   LIG d   1       3.502   0.204  -4.172  0.00  0.00     0.063 A 
ATOM     34  N   LIG d   1       2.852   0.681  -5.202  0.00  0.00    -0.176 NA
ATOM     35  N   LIG d   1       3.289   0.004  -6.347  0.00  0.00    -0.271 N 
ATOM     36  C   LIG d   1       4.229  -0.889  -5.970  0.00  0.00     0.039 A 
BRANCH  33  37
ATOM     37  C   LIG d   1       3.337   0.644  -2.740  0.00  0.00    -0.020 C 
ATOM     38  H   LIG d   1       2.352   1.116  -2.613  0.00  0.00     0.029 H 
ATOM     39  H   LIG d   1       4.126   1.366  -2.485  0.00  0.00     0.029 H 
ATOM     40  H   LIG d   1       3.412  -0.231  -2.077  0.00  0.00     0.029 H 
ENDBRANCH  33  37
BRANCH  35  41
ATOM     41  C   LIG d   1       2.811   0.226  -7.714  0.00  0.00     0.030 C 
ATOM     42  H   LIG d   1       3.577  -0.108  -8.430  0.00  0.00     0.047 H 
ATOM     43  H   LIG d   1       2.612   1.298  -7.864  0.00  0.00     0.047 H 
ATOM     44  H   LIG d   1       1.885  -0.345  -7.877  0.00  0.00     0.047 H 
ENDBRANCH  35  41
BRANCH  36  45
ATOM     45  C   LIG d   1       4.972  -1.833  -6.878  0.00  0.00    -0.022 C 
ATOM     46  H   LIG d   1       4.715  -2.870  -6.619  0.00  0.00     0.029 H 
ATOM     47  H   LIG d   1       6.055  -1.683  -6.757  0.00  0.00     0.029 H 
ATOM     48  H   LIG d   1       4.689  -1.635  -7.923  0.00  0.00     0.029 H 
ENDBRANCH  36  45
ENDBRANCH  29  32
ENDBRANCH  26  29
ENDBRANCH  23  26
ENDBRANCH   1  22
BRANCH   4  49
ATOM     49  O   LIG d   1      10.606   3.348  -8.146  0.00  0.00    -0.491 OA
BRANCH  49  50
ATOM     50  C   LIG d   1      10.215   4.583  -8.747  0.00  0.00     0.079 C 
ATOM     51  H   LIG d   1       9.274   4.442  -9.299  0.00  0.00     0.066 H 
ATOM     52  H   LIG d   1      11.001   4.918  -9.441  0.00  0.00     0.066 H 
ATOM     53  H   LIG d   1      10.070   5.342  -7.965  0.00  0.00     0.066 H 
ENDBRANCH  49  50
ENDBRANCH   4  49
BRANCH  11  54
ATOM     54  C   LIG d   1      12.700   4.609  -3.697  0.00  0.00    -0.012 C 
ATOM     55  H   LIG d   1      12.570   5.223  -2.794  0.00  0.00     0.039 H 
ATOM     56  H   LIG d   1      13.077   5.237  -4.517  0.00  0.00     0.039 H 
ATOM     57  H   LIG d   1      13.422   3.804  -3.491  0.00  0.00     0.039 H 
ENDBRANCH  11  54
TORSDOF 10
ENDMDL
MODEL 6
REMARK VINA RESULT:      -5.5     12.806     14.967
REMARK  10 active torsions:
REMARK  status: ('A' for Active; 'I' for Inactive)
REMARK    1  A    between atoms: C_1  and  C_2 
REMARK    2  A    between atoms: C_3  and  C_9 
REMARK    3  A    between atoms: C_4  and  C_8 
REMARK    4  A    between atoms: N_5  and  C_7 
REMARK    5  A    between atoms: C_9  and  C_10 
REMARK    6  A    between atoms: C_10  and  C_11 
REMARK       I    between atoms: C_11  and  N_13 
REMARK    7  A    between atoms: N_13  and  C_14 
REMARK    8  A    between atoms: C_17  and  O_23 
REMARK    9  A    between atoms: O_23  and  C_24 
REMARK   10  A    between atoms: N_26  and  C_29 
ROOT
ATOM      1  C   LIG d   1       4.101  -4.991  -6.803  0.00  0.00     0.083 A 
ATOM      2  C   LIG d   1       3.957  -4.688  -8.154  0.00  0.00    -0.013 A 
ATOM      3  C   LIG d   1       4.221  -5.649  -9.106  0.00  0.00     0.017 A 
ATOM      4  C   LIG d   1       4.625  -6.921  -8.713  0.00  0.00     0.170 A 
ATOM      5  C   LIG d   1       4.768  -7.229  -7.366  0.00  0.00     0.210 A 
ATOM      6  C   LIG d   1       4.506  -6.259  -6.406  0.00  0.00     0.191 A 
ATOM      7  O   LIG d   1       4.717  -6.799  -5.170  0.00  0.00    -0.451 OA
ATOM      8  C   LIG d   1       4.715  -8.226  -5.368  0.00  0.00     0.234 C 
ATOM      9  O   LIG d   1       5.143  -8.380  -6.735  0.00  0.00    -0.449 OA
ATOM     10  C   LIG d   1       4.089  -5.365 -10.580  0.00  0.00     0.028 C 
ATOM     11  N   LIG d   1       3.280  -4.162 -10.800  0.00  0.00    -0.301 N 
ATOM     12  C   LIG d   1       3.813  -3.039 -10.010  0.00  0.00     0.003 C 
ATOM     13  C   LIG d   1       3.511  -3.299  -8.535  0.00  0.00    -0.013 C 
ATOM     14  H   LIG d   1       5.411  -8.696  -4.658  0.00  0.00     0.117 H 
ATOM     15  H   LIG d   1       3.702  -8.618  -5.202  0.00  0.00     0.117 H 
ATOM     16  H   LIG d   1       5.088  -5.209 -11.014  0.00  0.00     0.048 H 
ATOM     17  H   LIG d   1       3.603  -6.218 -11.076  0.00  0.00     0.048 H 
ATOM     18  H   LIG d   1       4.899  -2.965 -10.164  0.00  0.00     0.043 H 
ATOM     19  H   LIG d   1       3.332  -2.104 -10.333  0.00  0.00     0.043 H 
ATOM     20  H   LIG d   1       2.428  -3.202  -8.363  0.00  0.00     0.033 H 
ATOM     21  H   LIG d   1       4.047  -2.561  -7.920  0.00  0.00     0.033 H 
ENDROOT
BRANCH   1  22
ATOM     22  N   LIG d   1       3.835  -4.009  -5.836  0.00  0.00    -0.282 N 
ATOM     23  C   LIG d   1       4.852  -3.331  -5.266  0.00  0.00     0.218 C 
ATOM     24  O   LIG d   1       5.989  -3.508  -5.650  0.00  0.00    -0.276 OA
ATOM     25  H   LIG d   1       2.797  -3.793  -5.543  0.00  0.00     0.155 HD
BRANCH  23  26
ATOM     26  C   LIG d   1       4.576  -2.356  -4.152  0.00  0.00     0.028 C 
ATOM     27  H   LIG d   1       3.807  -2.770  -3.483  0.00  0.00     0.036 H 
ATOM     28  H   LIG d   1       4.218  -1.406  -4.576  0.00  0.00     0.036 H 
BRANCH  26  29
ATOM     29  C   LIG d   1       5.862  -2.110  -3.359  0.00  0.00    -0.016 C 
ATOM     30  H   LIG d   1       6.677  -2.710  -3.789  0.00  0.00     0.032 H 
ATOM     31  H   LIG d   1       5.707  -2.399  -2.310  0.00  0.00     0.032 H 
BRANCH  29  32
ATOM     32  C   LIG d   1       6.223  -0.649  -3.430  0.00  0.00    -0.004 A 
ATOM     33  C   LIG d   1       5.581   0.393  -2.754  0.00  0.00     0.063 A 
ATOM     34  N   LIG d   1       6.181   1.513  -3.064  0.00  0.00    -0.176 NA
ATOM     35  N   LIG d   1       7.219   1.221  -3.957  0.00  0.00    -0.271 N 
ATOM     36  C   LIG d   1       7.226  -0.112  -4.165  0.00  0.00     0.039 A 
BRANCH  33  37
ATOM     37  C   LIG d   1       4.403   0.248  -1.825  0.00  0.00    -0.020 C 
ATOM     38  H   LIG d   1       4.045  -0.791  -1.845  0.00  0.00     0.029 H 
ATOM     39  H   LIG d   1       3.596   0.921  -2.150  0.00  0.00     0.029 H 
ATOM     40  H   LIG d   1       4.709   0.511  -0.801  0.00  0.00     0.029 H 
ENDBRANCH  33  37
BRANCH  35  41
ATOM     41  C   LIG d   1       8.137   2.192  -4.558  0.00  0.00     0.030 C 
ATOM     42  H   LIG d   1       8.554   1.776  -5.487  0.00  0.00     0.047 H 
ATOM     43  H   LIG d   1       8.955   2.408  -3.855  0.00  0.00     0.047 H 
ATOM     44  H   LIG d   1       7.593   3.121  -4.785  0.00  0.00     0.047 H 
ENDBRANCH  35  41
BRANCH  36  45
ATOM     45  C   LIG d   1       8.177  -0.867  -5.057  0.00  0.00    -0.022 C 
ATOM     46  H   LIG d   1       8.366  -0.283  -5.969  0.00  0.00     0.029 H 
ATOM     47  H   LIG d   1       7.734  -1.837  -5.329  0.00  0.00     0.029 H 
ATOM     48  H   LIG d   1       9.125  -1.033  -4.524  0.00  0.00     0.029 H 
ENDBRANCH  36  45
ENDBRANCH  29  32
ENDBRANCH  26  29
ENDBRANCH  23  26
ENDBRANCH   1  22
BRANCH   4  49
ATOM     49  O   LIG d   1       4.882  -7.869  -9.653  0.00  0.00    -0.491 OA
BRANCH  49  50
ATOM     50  C   LIG d   1       3.892  -8.882  -9.843  0.00  0.00     0.079 C 
ATOM     51  H   LIG d   1       4.049  -9.371 -10.815  0.00  0.00     0.066 H 
ATOM     52  H   LIG d   1       2.891  -8.426  -9.818  0.00  0.00     0.066 H 
ATOM     53  H   LIG d   1       3.974  -9.629  -9.039  0.00  0.00     0.066 H 
ENDBRANCH  49  50
ENDBRANCH   4  49
BRANCH  11  54
ATOM     54  C   LIG d   1       3.223  -3.820 -12.228  0.00  0.00    -0.012 C 
ATOM     55  H   LIG d   1       2.600  -2.925 -12.366  0.00  0.00     0.039 H 
ATOM     56  H   LIG d   1       2.788  -4.660 -12.789  0.00  0.00     0.039 H 
ATOM     57  H   LIG d   1       4.240  -3.619 -12.598  0.00  0.00     0.039 H 
ENDBRANCH  11  54
TORSDOF 10
ENDMDL
MODEL 7
REMARK VINA RESULT:      -5.4      1.815      3.499
REMARK  10 active torsions:
REMARK  status: ('A' for Active; 'I' for Inactive)
REMARK    1  A    between atoms: C_1  and  C_2 
REMARK    2  A    between atoms: C_3  and  C_9 
REMARK    3  A    between atoms: C_4  and  C_8 
REMARK    4  A    between atoms: N_5  and  C_7 
REMARK    5  A    between atoms: C_9  and  C_10 
REMARK    6  A    between atoms: C_10  and  C_11 
REMARK       I    between atoms: C_11  and  N_13 
REMARK    7  A    between atoms: N_13  and  C_14 
REMARK    8  A    between atoms: C_17  and  O_23 
REMARK    9  A    between atoms: O_23  and  C_24 
REMARK   10  A    between atoms: N_26  and  C_29 
ROOT
ATOM      1  C   LIG d   1       9.658   7.992  -5.518  0.00  0.00     0.083 A 
ATOM      2  C   LIG d   1       9.731   9.367  -5.719  0.00  0.00    -0.013 A 
ATOM      3  C   LIG d   1       9.962   9.865  -6.983  0.00  0.00     0.017 A 
ATOM      4  C   LIG d   1      10.115   8.991  -8.055  0.00  0.00     0.170 A 
ATOM      5  C   LIG d   1      10.041   7.618  -7.860  0.00  0.00     0.210 A 
ATOM      6  C   LIG d   1       9.812   7.116  -6.584  0.00  0.00     0.191 A 
ATOM      7  O   LIG d   1       9.783   5.752  -6.651  0.00  0.00    -0.451 OA
ATOM      8  C   LIG d   1       9.590   5.439  -8.043  0.00  0.00     0.234 C 
ATOM      9  O   LIG d   1      10.156   6.572  -8.729  0.00  0.00    -0.449 OA
ATOM     10  C   LIG d   1      10.059  11.345  -7.249  0.00  0.00     0.028 C 
ATOM     11  N   LIG d   1       9.476  12.105  -6.138  0.00  0.00    -0.301 N 
ATOM     12  C   LIG d   1      10.071  11.676  -4.861  0.00  0.00     0.003 C 
ATOM     13  C   LIG d   1       9.552  10.277  -4.531  0.00  0.00    -0.013 C 
ATOM     14  H   LIG d   1      10.112   4.501  -8.285  0.00  0.00     0.117 H 
ATOM     15  H   LIG d   1       8.516   5.323  -8.247  0.00  0.00     0.117 H 
ATOM     16  H   LIG d   1      11.117  11.629  -7.360  0.00  0.00     0.048 H 
ATOM     17  H   LIG d   1       9.515  11.589  -8.173  0.00  0.00     0.048 H 
ATOM     18  H   LIG d   1      11.166  11.658  -4.954  0.00  0.00     0.043 H 
ATOM     19  H   LIG d   1       9.781  12.381  -4.068  0.00  0.00     0.043 H 
ATOM     20  H   LIG d   1       8.483  10.338  -4.273  0.00  0.00     0.033 H 
ATOM     21  H   LIG d   1      10.112   9.875  -3.674  0.00  0.00     0.033 H 
ENDROOT
BRANCH   1  22
ATOM     22  N   LIG d   1       9.426   7.487  -4.229  0.00  0.00    -0.282 N 
ATOM     23  C   LIG d   1      10.463   7.098  -3.460  0.00  0.00     0.218 C 
ATOM     24  O   LIG d   1      11.600   7.265  -3.847  0.00  0.00    -0.276 OA
ATOM     25  H   LIG d   1       8.397   7.409  -3.846  0.00  0.00     0.155 HD
BRANCH  23  26
ATOM     26  C   LIG d   1      10.209   6.456  -2.121  0.00  0.00     0.028 C 
ATOM     27  H   LIG d   1      11.170   6.210  -1.644  0.00  0.00     0.036 H 
ATOM     28  H   LIG d   1       9.625   5.534  -2.261  0.00  0.00     0.036 H 
BRANCH  26  29
ATOM     29  C   LIG d   1       9.430   7.425  -1.230  0.00  0.00    -0.016 C 
ATOM     30  H   LIG d   1       8.623   6.882  -0.716  0.00  0.00     0.032 H 
ATOM     31  H   LIG d   1       8.997   8.224  -1.849  0.00  0.00     0.032 H 
BRANCH  29  32
ATOM     32  C   LIG d   1      10.360   8.027  -0.209  0.00  0.00    -0.004 A 
ATOM     33  C   LIG d   1      11.077   7.327   0.767  0.00  0.00     0.063 A 
ATOM     34  N   LIG d   1      11.774   8.190   1.459  0.00  0.00    -0.176 NA
ATOM     35  N   LIG d   1      11.516   9.470   0.953  0.00  0.00    -0.271 N 
ATOM     36  C   LIG d   1      10.645   9.343  -0.072  0.00  0.00     0.039 A 
BRANCH  33  37
ATOM     37  C   LIG d   1      11.051   5.836   0.980  0.00  0.00    -0.020 C 
ATOM     38  H   LIG d   1      10.116   5.423   0.577  0.00  0.00     0.029 H 
ATOM     39  H   LIG d   1      11.115   5.619   2.056  0.00  0.00     0.029 H 
ATOM     40  H   LIG d   1      11.907   5.377   0.462  0.00  0.00     0.029 H 
ENDBRANCH  33  37
BRANCH  35  41
ATOM     41  C   LIG d   1      12.089  10.724   1.446  0.00  0.00     0.030 C 
ATOM     42  H   LIG d   1      11.571  11.027   2.369  0.00  0.00     0.047 H 
ATOM     43  H   LIG d   1      11.967  11.508   0.684  0.00  0.00     0.047 H 
ATOM     44  H   LIG d   1      13.159  10.581   1.657  0.00  0.00     0.047 H 
ENDBRANCH  35  41
BRANCH  36  45
ATOM     45  C   LIG d   1      10.091  10.466  -0.910  0.00  0.00    -0.022 C 
ATOM     46  H   LIG d   1      10.321  11.429  -0.431  0.00  0.00     0.029 H 
ATOM     47  H   LIG d   1       9.000  10.353  -1.000  0.00  0.00     0.029 H 
ATOM     48  H   LIG d   1      10.547  10.435  -1.911  0.00  0.00     0.029 H 
ENDBRANCH  36  45
ENDBRANCH  29  32
ENDBRANCH  26  29
ENDBRANCH  23  26
ENDBRANCH   1  22
BRANCH   4  49
ATOM     49  O   LIG d   1      10.341   9.485  -9.302  0.00  0.00    -0.491 OA
BRANCH  49  50
ATOM     50  C   LIG d   1      11.679   9.412  -9.798  0.00  0.00     0.079 C 
ATOM     51  H   LIG d   1      11.661   9.143 -10.864  0.00  0.00     0.066 H 
ATOM     52  H   LIG d   1      12.237   8.649  -9.235  0.00  0.00     0.066 H 
ATOM     53  H   LIG d   1      12.169  10.389  -9.675  0.00  0.00     0.066 H 
ENDBRANCH  49  50
ENDBRANCH   4  49
BRANCH  11  54
ATOM     54  C   LIG d   1       9.650  13.549  -6.340  0.00  0.00    -0.012 C 
ATOM     55  H   LIG d   1      10.723  13.792  -6.351  0.00  0.00     0.039 H 
ATOM     56  H   LIG d   1       9.159  14.096  -5.522  0.00  0.00     0.039 H 
ATOM     57  H   LIG d   1       9.198  13.842  -7.299  0.00  0.00     0.039 H 
ENDBRANCH  11  54
TORSDOF 10
ENDMDL
MODEL 8
REMARK VINA RESULT:      -5.4     11.460     13.541
REMARK  10 active torsions:
REMARK  status: ('A' for Active; 'I' for Inactive)
REMARK    1  A    between atoms: C_1  and  C_2 
REMARK    2  A    between atoms: C_3  and  C_9 
REMARK    3  A    between atoms: C_4  and  C_8 
REMARK    4  A    between atoms: N_5  and  C_7 
REMARK    5  A    between atoms: C_9  and  C_10 
REMARK    6  A    between atoms: C_10  and  C_11 
REMARK       I    between atoms: C_11  and  N_13 
REMARK    7  A    between atoms: N_13  and  C_14 
REMARK    8  A    between atoms: C_17  and  O_23 
REMARK    9  A    between atoms: O_23  and  C_24 
REMARK   10  A    between atoms: N_26  and  C_29 
ROOT
ATOM      1  C   LIG d   1       3.741  -2.795  -8.122  0.00  0.00     0.083 A 
ATOM      2  C   LIG d   1       3.764  -1.480  -8.576  0.00  0.00    -0.013 A 
ATOM      3  C   LIG d   1       3.593  -1.212  -9.917  0.00  0.00     0.017 A 
ATOM      4  C   LIG d   1       3.393  -2.259 -10.812  0.00  0.00     0.170 A 
ATOM      5  C   LIG d   1       3.367  -3.573 -10.364  0.00  0.00     0.210 A 
ATOM      6  C   LIG d   1       3.543  -3.843  -9.012  0.00  0.00     0.191 A 
ATOM      7  O   LIG d   1       3.478  -5.194  -8.824  0.00  0.00    -0.451 OA
ATOM      8  C   LIG d   1       2.855  -5.718 -10.012  0.00  0.00     0.234 C 
ATOM      9  O   LIG d   1       3.191  -4.754 -11.027  0.00  0.00    -0.449 OA
ATOM     10  C   LIG d   1       3.621   0.194 -10.457  0.00  0.00     0.028 C 
ATOM     11  N   LIG d   1       3.424   1.163  -9.374  0.00  0.00    -0.301 N 
ATOM     12  C   LIG d   1       4.383   0.911  -8.285  0.00  0.00     0.003 C 
ATOM     13  C   LIG d   1       3.977  -0.377  -7.570  0.00  0.00    -0.013 C 
ATOM     14  H   LIG d   1       3.264  -6.715 -10.232  0.00  0.00     0.117 H 
ATOM     15  H   LIG d   1       1.769  -5.794  -9.853  0.00  0.00     0.117 H 
ATOM     16  H   LIG d   1       4.593   0.384 -10.935  0.00  0.00     0.048 H 
ATOM     17  H   LIG d   1       2.817   0.318 -11.198  0.00  0.00     0.048 H 
ATOM     18  H   LIG d   1       5.394   0.805  -8.704  0.00  0.00     0.043 H 
ATOM     19  H   LIG d   1       4.365   1.754  -7.579  0.00  0.00     0.043 H 
ATOM     20  H   LIG d   1       3.044  -0.203  -7.013  0.00  0.00     0.033 H 
ATOM     21  H   LIG d   1       4.773  -0.669  -6.869  0.00  0.00     0.033 H 
ENDROOT
BRANCH   1  22
ATOM     22  N   LIG d   1       3.918  -3.065  -6.755  0.00  0.00    -0.282 N 
ATOM     23  C   LIG d   1       5.139  -3.389  -6.286  0.00  0.00     0.218 C 
ATOM     24  O   LIG d   1       6.100  -3.362  -7.025  0.00  0.00    -0.276 OA
ATOM     25  H   LIG d   1       3.060  -3.012  -6.069  0.00  0.00     0.155 HD
BRANCH  23  26
ATOM     26  C   LIG d   1       5.310  -3.784  -4.841  0.00  0.00     0.028 C 
ATOM     27  H   LIG d   1       5.644  -4.831  -4.784  0.00  0.00     0.036 H 
ATOM     28  H   LIG d   1       4.349  -3.677  -4.316  0.00  0.00     0.036 H 
BRANCH  26  29
ATOM     29  C   LIG d   1       6.355  -2.879  -4.185  0.00  0.00    -0.016 C 
ATOM     30  H   LIG d   1       7.252  -2.835  -4.820  0.00  0.00     0.032 H 
ATOM     31  H   LIG d   1       6.623  -3.284  -3.199  0.00  0.00     0.032 H 
BRANCH  29  32
ATOM     32  C   LIG d   1       5.787  -1.493  -4.022  0.00  0.00    -0.004 A 
ATOM     33  C   LIG d   1       6.229  -0.339  -4.677  0.00  0.00     0.063 A 
ATOM     34  N   LIG d   1       5.489   0.665  -4.281  0.00  0.00    -0.176 NA
ATOM     35  N   LIG d   1       4.558   0.183  -3.353  0.00  0.00    -0.271 N 
ATOM     36  C   LIG d   1       4.760  -1.144  -3.211  0.00  0.00     0.039 A 
BRANCH  33  37
ATOM     37  C   LIG d   1       7.360  -0.266  -5.670  0.00  0.00    -0.020 C 
ATOM     38  H   LIG d   1       8.038   0.554  -5.394  0.00  0.00     0.029 H 
ATOM     39  H   LIG d   1       6.954  -0.084  -6.675  0.00  0.00     0.029 H 
ATOM     40  H   LIG d   1       7.914  -1.217  -5.664  0.00  0.00     0.029 H 
ENDBRANCH  33  37
BRANCH  35  41
ATOM     41  C   LIG d   1       3.543   0.979  -2.658  0.00  0.00     0.030 C 
ATOM     42  H   LIG d   1       3.570   0.750  -1.582  0.00  0.00     0.047 H 
ATOM     43  H   LIG d   1       2.548   0.735  -3.058  0.00  0.00     0.047 H 
ATOM     44  H   LIG d   1       3.748   2.049  -2.810  0.00  0.00     0.047 H 
ENDBRANCH  35  41
BRANCH  36  45
ATOM     45  C   LIG d   1       3.983  -2.070  -2.312  0.00  0.00    -0.022 C 
ATOM     46  H   LIG d   1       4.386  -3.089  -2.400  0.00  0.00     0.029 H 
ATOM     47  H   LIG d   1       2.924  -2.068  -2.609  0.00  0.00     0.029 H 
ATOM     48  H   LIG d   1       4.073  -1.729  -1.269  0.00  0.00     0.029 H 
ENDBRANCH  36  45
ENDBRANCH  29  32
ENDBRANCH  26  29
ENDBRANCH  23  26
ENDBRANCH   1  22
BRANCH   4  49
ATOM     49  O   LIG d   1       3.222  -1.993 -12.134  0.00  0.00    -0.491 OA
BRANCH  49  50
ATOM     50  C   LIG d   1       4.335  -2.241 -12.996  0.00  0.00     0.079 C 
ATOM     51  H   LIG d   1       5.016  -2.960 -12.518  0.00  0.00     0.066 H 
ATOM     52  H   LIG d   1       4.869  -1.299 -13.186  0.00  0.00     0.066 H 
ATOM     53  H   LIG d   1       3.975  -2.657 -13.949  0.00  0.00     0.066 H 
ENDBRANCH  49  50
ENDBRANCH   4  49
BRANCH  11  54
ATOM     54  C   LIG d   1       3.543   2.540  -9.871  0.00  0.00    -0.012 C 
ATOM     55  H   LIG d   1       4.568   2.902  -9.707  0.00  0.00     0.039 H 
ATOM     56  H   LIG d   1       2.835   3.187  -9.333  0.00  0.00     0.039 H 
ATOM     57  H   LIG d   1       3.314   2.562 -10.947  0.00  0.00     0.039 H 
ENDBRANCH  11  54
TORSDOF 10
ENDMDL
MODEL 9
REMARK VINA RESULT:      -5.3     13.284     15.704
REMARK  10 active torsions:
REMARK  status: ('A' for Active; 'I' for Inactive)
REMARK    1  A    between atoms: C_1  and  C_2 
REMARK    2  A    between atoms: C_3  and  C_9 
REMARK    3  A    between atoms: C_4  and  C_8 
REMARK    4  A    between atoms: N_5  and  C_7 
REMARK    5  A    between atoms: C_9  and  C_10 
REMARK    6  A    between atoms: C_10  and  C_11 
REMARK       I    between atoms: C_11  and  N_13 
REMARK    7  A    between atoms: N_13  and  C_14 
REMARK    8  A    between atoms: C_17  and  O_23 
REMARK    9  A    between atoms: O_23  and  C_24 
REMARK   10  A    between atoms: N_26  and  C_29 
ROOT
ATOM      1  C   LIG d   1       4.134  -5.305  -6.746  0.00  0.00     0.083 A 
ATOM      2  C   LIG d   1       3.944  -4.890  -8.060  0.00  0.00    -0.013 A 
ATOM      3  C   LIG d   1       4.123  -5.781  -9.096  0.00  0.00     0.017 A 
ATOM      4  C   LIG d   1       4.487  -7.096  -8.823  0.00  0.00     0.170 A 
ATOM      5  C   LIG d   1       4.676  -7.517  -7.513  0.00  0.00     0.210 A 
ATOM      6  C   LIG d   1       4.500  -6.617  -6.469  0.00  0.00     0.191 A 
ATOM      7  O   LIG d   1       4.741  -7.263  -5.290  0.00  0.00    -0.451 OA
ATOM      8  C   LIG d   1       4.668  -8.667  -5.599  0.00  0.00     0.234 C 
ATOM      9  O   LIG d   1       5.028  -8.729  -6.992  0.00  0.00    -0.449 OA
ATOM     10  C   LIG d   1       3.939  -5.375 -10.535  0.00  0.00     0.028 C 
ATOM     11  N   LIG d   1       3.175  -4.126 -10.622  0.00  0.00    -0.301 N 
ATOM     12  C   LIG d   1       3.791  -3.093  -9.773  0.00  0.00     0.003 C 
ATOM     13  C   LIG d   1       3.543  -3.458  -8.310  0.00  0.00    -0.013 C 
ATOM     14  H   LIG d   1       5.373  -9.221  -4.961  0.00  0.00     0.117 H 
ATOM     15  H   LIG d   1       3.646  -9.030  -5.416  0.00  0.00     0.117 H 
ATOM     16  H   LIG d   1       4.924  -5.226 -11.003  0.00  0.00     0.048 H 
ATOM     17  H   LIG d   1       3.395  -6.165 -11.073  0.00  0.00     0.048 H 
ATOM     18  H   LIG d   1       4.871  -3.051  -9.972  0.00  0.00     0.043 H 
ATOM     19  H   LIG d   1       3.338  -2.117  -9.998  0.00  0.00     0.043 H 
ATOM     20  H   LIG d   1       2.475  -3.331  -8.080  0.00  0.00     0.033 H 
ATOM     21  H   LIG d   1       4.138  -2.794  -7.665  0.00  0.00     0.033 H 
ENDROOT
BRANCH   1  22
ATOM     22  N   LIG d   1       3.955  -4.394  -5.693  0.00  0.00    -0.282 N 
ATOM     23  C   LIG d   1       5.027  -3.842  -5.091  0.00  0.00     0.218 C 
ATOM     24  O   LIG d   1       6.142  -4.064  -5.513  0.00  0.00    -0.276 OA
ATOM     25  H   LIG d   1       2.939  -4.132  -5.361  0.00  0.00     0.155 HD
BRANCH  23  26
ATOM     26  C   LIG d   1       4.839  -2.949  -3.891  0.00  0.00     0.028 C 
ATOM     27  H   LIG d   1       5.343  -3.393  -3.020  0.00  0.00     0.036 H 
ATOM     28  H   LIG d   1       3.765  -2.844  -3.677  0.00  0.00     0.036 H 
BRANCH  26  29
ATOM     29  C   LIG d   1       5.440  -1.572  -4.182  0.00  0.00    -0.016 C 
ATOM     30  H   LIG d   1       6.367  -1.692  -4.761  0.00  0.00     0.032 H 
ATOM     31  H   LIG d   1       5.663  -1.062  -3.234  0.00  0.00     0.032 H 
BRANCH  29  32
ATOM     32  C   LIG d   1       4.456  -0.752  -4.975  0.00  0.00    -0.004 A 
ATOM     33  C   LIG d   1       3.287  -0.162  -4.481  0.00  0.00     0.063 A 
ATOM     34  N   LIG d   1       2.700   0.468  -5.465  0.00  0.00    -0.176 NA
ATOM     35  N   LIG d   1       3.471   0.292  -6.620  0.00  0.00    -0.271 N 
ATOM     36  C   LIG d   1       4.544  -0.460  -6.294  0.00  0.00     0.039 A 
BRANCH  33  37
ATOM     37  C   LIG d   1       2.793  -0.238  -3.059  0.00  0.00    -0.020 C 
ATOM     38  H   LIG d   1       3.097   0.668  -2.516  0.00  0.00     0.029 H 
ATOM     39  H   LIG d   1       3.225  -1.123  -2.568  0.00  0.00     0.029 H 
ATOM     40  H   LIG d   1       1.696  -0.317  -3.057  0.00  0.00     0.029 H 
ENDBRANCH  33  37
BRANCH  35  41
ATOM     41  C   LIG d   1       3.168   0.828  -7.949  0.00  0.00     0.030 C 
ATOM     42  H   LIG d   1       2.092   1.046  -8.021  0.00  0.00     0.047 H 
ATOM     43  H   LIG d   1       3.444   0.089  -8.715  0.00  0.00     0.047 H 
ATOM     44  H   LIG d   1       3.741   1.754  -8.111  0.00  0.00     0.047 H 
ENDBRANCH  35  41
BRANCH  36  45
ATOM     45  C   LIG d   1       5.641  -0.896  -7.229  0.00  0.00    -0.022 C 
ATOM     46  H   LIG d   1       6.445  -0.146  -7.227  0.00  0.00     0.029 H 
ATOM     47  H   LIG d   1       5.237  -0.997  -8.247  0.00  0.00     0.029 H 
ATOM     48  H   LIG d   1       6.043  -1.866  -6.896  0.00  0.00     0.029 H 
ENDBRANCH  36  45
ENDBRANCH  29  32
ENDBRANCH  26  29
ENDBRANCH  23  26
ENDBRANCH   1  22
BRANCH   4  49
ATOM     49  O   LIG d   1       4.660  -7.975  -9.846  0.00  0.00    -0.491 OA
BRANCH  49  50
ATOM     50  C   LIG d   1       6.004  -8.256 -10.241  0.00  0.00     0.079 C 
ATOM     51  H   LIG d   1       6.376  -7.444 -10.884  0.00  0.00     0.066 H 
ATOM     52  H   LIG d   1       6.033  -9.206 -10.796  0.00  0.00     0.066 H 
ATOM     53  H   LIG d   1       6.640  -8.335  -9.347  0.00  0.00     0.066 H 
ENDBRANCH  49  50
ENDBRANCH   4  49
BRANCH  11  54
ATOM     54  C   LIG d   1       3.070  -3.669 -12.014  0.00  0.00    -0.012 C 
ATOM     55  H   LIG d   1       2.012  -3.505 -12.268  0.00  0.00     0.039 H 
ATOM     56  H   LIG d   1       3.493  -4.432 -12.684  0.00  0.00     0.039 H 
ATOM     57  H   LIG d   1       3.626  -2.728 -12.134  0.00  0.00     0.039 H 
ENDBRANCH  11  54
TORSDOF 10
ENDMDL
MODEL 10
REMARK VINA RESULT:      -5.3      4.665      7.279
REMARK  10 active torsions:
REMARK  status: ('A' for Active; 'I' for Inactive)
REMARK    1  A    between atoms: C_1  and  C_2 
REMARK    2  A    between atoms: C_3  and  C_9 
REMARK    3  A    between atoms: C_4  and  C_8 
REMARK    4  A    between atoms: N_5  and  C_7 
REMARK    5  A    between atoms: C_9  and  C_10 
REMARK    6  A    between atoms: C_10  and  C_11 
REMARK       I    between atoms: C_11  and  N_13 
REMARK    7  A    between atoms: N_13  and  C_14 
REMARK    8  A    between atoms: C_17  and  O_23 
REMARK    9  A    between atoms: O_23  and  C_24 
REMARK   10  A    between atoms: N_26  and  C_29 
ROOT
ATOM      1  C   LIG d   1       9.949   6.280  -2.392  0.00  0.00     0.083 A 
ATOM      2  C   LIG d   1       9.948   7.181  -3.452  0.00  0.00    -0.013 A 
ATOM      3  C   LIG d   1      10.274   8.502  -3.233  0.00  0.00     0.017 A 
ATOM      4  C   LIG d   1      10.608   8.929  -1.951  0.00  0.00     0.170 A 
ATOM      5  C   LIG d   1      10.613   8.033  -0.890  0.00  0.00     0.210 A 
ATOM      6  C   LIG d   1      10.281   6.702  -1.111  0.00  0.00     0.191 A 
ATOM      7  O   LIG d   1      10.357   6.030   0.076  0.00  0.00    -0.451 OA
ATOM      8  C   LIG d   1      11.133   6.874   0.947  0.00  0.00     0.234 C 
ATOM      9  O   LIG d   1      10.898   8.200   0.435  0.00  0.00    -0.449 OA
ATOM     10  C   LIG d   1      10.277   9.516  -4.347  0.00  0.00     0.028 C 
ATOM     11  N   LIG d   1      10.315   8.845  -5.651  0.00  0.00    -0.301 N 
ATOM     12  C   LIG d   1       9.237   7.846  -5.741  0.00  0.00     0.003 C 
ATOM     13  C   LIG d   1       9.586   6.673  -4.825  0.00  0.00    -0.013 C 
ATOM     14  H   LIG d   1      10.780   6.758   1.982  0.00  0.00     0.117 H 
ATOM     15  H   LIG d   1      12.193   6.586   0.887  0.00  0.00     0.117 H 
ATOM     16  H   LIG d   1       9.365  10.129  -4.287  0.00  0.00     0.048 H 
ATOM     17  H   LIG d   1      11.161  10.163  -4.252  0.00  0.00     0.048 H 
ATOM     18  H   LIG d   1       8.288   8.301  -5.423  0.00  0.00     0.043 H 
ATOM     19  H   LIG d   1       9.148   7.497  -6.780  0.00  0.00     0.043 H 
ATOM     20  H   LIG d   1      10.440   6.123  -5.250  0.00  0.00     0.033 H 
ATOM     21  H   LIG d   1       8.719   6.001  -4.750  0.00  0.00     0.033 H 
ENDROOT
BRANCH   1  22
ATOM     22  N   LIG d   1       9.614   4.936  -2.618  0.00  0.00    -0.282 N 
ATOM     23  C   LIG d   1      10.587   4.017  -2.781  0.00  0.00     0.218 C 
ATOM     24  O   LIG d   1      11.750   4.334  -2.646  0.00  0.00    -0.276 OA
ATOM     25  H   LIG d   1       8.557   4.633  -2.663  0.00  0.00     0.155 HD
BRANCH  23  26
ATOM     26  C   LIG d   1      10.229   2.595  -3.132  0.00  0.00     0.028 C 
ATOM     27  H   LIG d   1       9.765   2.108  -2.261  0.00  0.00     0.036 H 
ATOM     28  H   LIG d   1      11.141   2.047  -3.414  0.00  0.00     0.036 H 
BRANCH  26  29
ATOM     29  C   LIG d   1       9.246   2.591  -4.304  0.00  0.00    -0.016 C 
ATOM     30  H   LIG d   1       9.727   3.037  -5.187  0.00  0.00     0.032 H 
ATOM     31  H   LIG d   1       8.355   3.178  -4.037  0.00  0.00     0.032 H 
BRANCH  29  32
ATOM     32  C   LIG d   1       8.841   1.174  -4.614  0.00  0.00    -0.004 A 
ATOM     33  C   LIG d   1       9.572   0.256  -5.375  0.00  0.00     0.063 A 
ATOM     34  N   LIG d   1       8.901  -0.866  -5.418  0.00  0.00    -0.176 NA
ATOM     35  N   LIG d   1       7.714  -0.695  -4.694  0.00  0.00    -0.271 N 
ATOM     36  C   LIG d   1       7.701   0.565  -4.210  0.00  0.00     0.039 A 
BRANCH  33  37
ATOM     37  C   LIG d   1      10.905   0.514  -6.029  0.00  0.00    -0.020 C 
ATOM     38  H   LIG d   1      10.894   1.504  -6.506  0.00  0.00     0.029 H 
ATOM     39  H   LIG d   1      11.096  -0.258  -6.789  0.00  0.00     0.029 H 
ATOM     40  H   LIG d   1      11.699   0.484  -5.267  0.00  0.00     0.029 H 
ENDBRANCH  33  37
BRANCH  35  41
ATOM     41  C   LIG d   1       6.672  -1.704  -4.496  0.00  0.00     0.030 C 
ATOM     42  H   LIG d   1       6.444  -2.190  -5.457  0.00  0.00     0.047 H 
ATOM     43  H   LIG d   1       5.763  -1.222  -4.105  0.00  0.00     0.047 H 
ATOM     44  H   LIG d   1       7.024  -2.461  -3.778  0.00  0.00     0.047 H 
ENDBRANCH  35  41
BRANCH  36  45
ATOM     45  C   LIG d   1       6.613   1.183  -3.371  0.00  0.00    -0.022 C 
ATOM     46  H   LIG d   1       7.064   1.726  -2.528  0.00  0.00     0.029 H 
ATOM     47  H   LIG d   1       5.953   0.392  -2.986  0.00  0.00     0.029 H 
ATOM     48  H   LIG d   1       6.028   1.883  -3.987  0.00  0.00     0.029 H 
ENDBRANCH  36  45
ENDBRANCH  29  32
ENDBRANCH  26  29
ENDBRANCH  23  26
ENDBRANCH   1  22
BRANCH   4  49
ATOM     49  O   LIG d   1      10.932  10.232  -1.737  0.00  0.00    -0.491 OA
BRANCH  49  50
ATOM     50  C   LIG d   1       9.944  11.052  -1.108  0.00  0.00     0.079 C 
ATOM     51  H   LIG d   1      10.410  11.985  -0.760  0.00  0.00     0.066 H 
ATOM     52  H   LIG d   1       9.513  10.514  -0.251  0.00  0.00     0.066 H 
ATOM     53  H   LIG d   1       9.149  11.287  -1.831  0.00  0.00     0.066 H 
ENDBRANCH  49  50
ENDBRANCH   4  49
BRANCH  11  54
ATOM     54  C   LIG d   1      10.222   9.819  -6.746  0.00  0.00    -0.012 C 
ATOM     55  H   LIG d   1       9.233  10.300  -6.727  0.00  0.00     0.039 H 
ATOM     56  H   LIG d   1      10.361   9.304  -7.708  0.00  0.00     0.039 H 
ATOM     57  H   LIG d   1      11.004  10.584  -6.624  0.00  0.00     0.039 H 
ENDBRANCH  11  54
TORSDOF 10
ENDMDL
