MODEL 1
REMARK VINA RESULT:      -8.0      0.000      0.000
REMARK  9 active torsions:
REMARK  status: ('A' for Active; 'I' for Inactive)
REMARK    1  A    between atoms: C_7  and  C_11 
REMARK    2  A    between atoms: C_11  and  C_12 
REMARK    3  A    between atoms: C_12  and  C_13 
REMARK       I    between atoms: C_13  and  N_15 
REMARK    4  A    between atoms: N_15  and  C_16 
REMARK    5  A    between atoms: C_16  and  C_17 
REMARK    6  A    between atoms: C_17  and  N_18 
REMARK       I    between atoms: N_18  and  C_19 
REMARK    7  A    between atoms: C_19  and  C_21 
REMARK    8  A    between atoms: C_21  and  C_22 
REMARK    9  A    between atoms: C_22  and  C_23 
ROOT
ATOM      1  C   LIG d   1       3.692  -6.097  -8.620  0.00  0.00     0.027 C 
ATOM      2  H   LIG d   1       4.498  -6.763  -8.930  0.00  0.00     0.048 H 
ATOM      3  H   LIG d   1       3.064  -6.603  -7.886  0.00  0.00     0.048 H 
ENDROOT
BRANCH   1   4
ATOM      4  N   LIG d   1       4.262  -4.886  -8.023  0.00  0.00    -0.314 N 
ATOM      5  C   LIG d   1       4.137  -4.664  -6.700  0.00  0.00     0.213 C 
ATOM      6  O   LIG d   1       3.553  -5.466  -6.003  0.00  0.00    -0.276 OA
ATOM      7  H   LIG d   1       4.729  -4.245  -8.581  0.00  0.00     0.149 HD
BRANCH   5   8
ATOM      8  C   LIG d   1       4.728  -3.422  -6.086  0.00  0.00     0.028 C 
ATOM      9  H   LIG d   1       5.614  -3.125  -6.647  0.00  0.00     0.036 H 
ATOM     10  H   LIG d   1       3.994  -2.617  -6.115  0.00  0.00     0.036 H 
BRANCH   8  11
ATOM     11  C   LIG d   1       5.117  -3.706  -4.633  0.00  0.00    -0.017 C 
ATOM     12  H   LIG d   1       4.244  -4.060  -4.087  0.00  0.00     0.032 H 
ATOM     13  H   LIG d   1       5.896  -4.469  -4.608  0.00  0.00     0.032 H 
BRANCH  11  14
ATOM     14  C   LIG d   1       5.632  -2.442  -3.994  0.00  0.00    -0.022 A 
ATOM     15  C   LIG d   1       4.823  -1.361  -3.427  0.00  0.00     0.003 A 
ATOM     16  C   LIG d   1       5.736  -0.401  -2.951  0.00  0.00     0.047 A 
ATOM     17  C   LIG d   1       3.450  -1.143  -3.293  0.00  0.00    -0.052 A 
ATOM     18  C   LIG d   1       5.255   0.758  -2.350  0.00  0.00    -0.038 A 
ATOM     19  N   LIG d   1       7.001  -0.877  -3.216  0.00  0.00    -0.360 N 
ATOM     20  C   LIG d   1       3.897   0.953  -2.229  0.00  0.00    -0.060 A 
ATOM     21  H   LIG d   1       5.944   1.503  -1.981  0.00  0.00     0.064 H 
ATOM     22  C   LIG d   1       3.001   0.003  -2.700  0.00  0.00    -0.061 A 
ATOM     23  H   LIG d   1       3.525   1.853  -1.762  0.00  0.00     0.062 H 
ATOM     24  H   LIG d   1       1.938   0.171  -2.598  0.00  0.00     0.062 H 
ATOM     25  C   LIG d   1       6.919  -2.096  -3.832  0.00  0.00     0.006 A 
ATOM     26  H   LIG d   1       7.826  -0.419  -2.994  0.00  0.00     0.165 HD
ATOM     27  H   LIG d   1       7.765  -2.690  -4.144  0.00  0.00     0.081 H 
ATOM     28  H   LIG d   1       2.748  -1.876  -3.658  0.00  0.00     0.062 H 
ENDBRANCH  11  14
ENDBRANCH   8  11
ENDBRANCH   5   8
ENDBRANCH   1   4
BRANCH   1  29
ATOM     29  C   LIG d   1       2.848  -5.716  -9.838  0.00  0.00     0.027 C 
ATOM     30  H   LIG d   1       3.484  -5.675 -10.722  0.00  0.00     0.048 H 
ATOM     31  H   LIG d   1       2.066  -6.461  -9.986  0.00  0.00     0.048 H 
BRANCH  29  32
ATOM     32  N   LIG d   1       2.236  -4.404  -9.615  0.00  0.00    -0.314 N 
ATOM     33  C   LIG d   1       1.745  -3.704 -10.658  0.00  0.00     0.213 C 
ATOM     34  O   LIG d   1       1.811  -4.160 -11.779  0.00  0.00    -0.276 OA
ATOM     35  H   LIG d   1       2.184  -4.038  -8.719  0.00  0.00     0.149 HD
BRANCH  33  36
ATOM     36  C   LIG d   1       1.115  -2.354 -10.429  0.00  0.00     0.028 C 
ATOM     37  H   LIG d   1       0.055  -2.480 -10.210  0.00  0.00     0.036 H 
ATOM     38  H   LIG d   1       1.604  -1.863  -9.587  0.00  0.00     0.036 H 
BRANCH  36  39
ATOM     39  C   LIG d   1       1.279  -1.496 -11.684  0.00  0.00    -0.017 C 
ATOM     40  H   LIG d   1       1.327  -2.140 -12.562  0.00  0.00     0.032 H 
ATOM     41  H   LIG d   1       0.429  -0.820 -11.776  0.00  0.00     0.032 H 
BRANCH  39  42
ATOM     42  C   LIG d   1       2.549  -0.692 -11.582  0.00  0.00    -0.022 A 
ATOM     43  C   LIG d   1       2.894   0.262 -10.524  0.00  0.00     0.003 A 
ATOM     44  C   LIG d   1       4.168   0.761 -10.852  0.00  0.00     0.047 A 
ATOM     45  C   LIG d   1       2.244   0.712  -9.374  0.00  0.00    -0.052 A 
ATOM     46  N   LIG d   1       4.557   0.149 -12.022  0.00  0.00    -0.360 N 
ATOM     47  C   LIG d   1       4.766   1.701 -10.019  0.00  0.00    -0.038 A 
ATOM     48  C   LIG d   1       3.582  -0.718 -12.439  0.00  0.00     0.006 A 
ATOM     49  H   LIG d   1       5.397   0.304 -12.480  0.00  0.00     0.165 HD
ATOM     50  H   LIG d   1       3.636  -1.329 -13.327  0.00  0.00     0.081 H 
ATOM     51  C   LIG d   1       4.107   2.130  -8.888  0.00  0.00    -0.060 A 
ATOM     52  H   LIG d   1       5.744   2.094 -10.257  0.00  0.00     0.064 H 
ATOM     53  C   LIG d   1       2.850   1.635  -8.570  0.00  0.00    -0.061 A 
ATOM     54  H   LIG d   1       4.573   2.861  -8.243  0.00  0.00     0.062 H 
ATOM     55  H   LIG d   1       2.347   1.983  -7.679  0.00  0.00     0.062 H 
ATOM     56  H   LIG d   1       1.266   0.329  -9.120  0.00  0.00     0.062 H 
ENDBRANCH  39  42
ENDBRANCH  36  39
ENDBRANCH  33  36
ENDBRANCH  29  32
ENDBRANCH   1  29
TORSDOF 9
ENDMDL
MODEL 2
REMARK VINA RESULT:      -7.8      2.585      4.434
REMARK  9 active torsions:
REMARK  status: ('A' for Active; 'I' for Inactive)
REMARK    1  A    between atoms: C_7  and  C_11 
REMARK    2  A    between atoms: C_11  and  C_12 
REMARK    3  A    between atoms: C_12  and  C_13 
REMARK       I    between atoms: C_13  and  N_15 
REMARK    4  A    between atoms: N_15  and  C_16 
REMARK    5  A    between atoms: C_16  and  C_17 
REMARK    6  A    between atoms: C_17  and  N_18 
REMARK       I    between atoms: N_18  and  C_19 
REMARK    7  A    between atoms: C_19  and  C_21 
REMARK    8  A    between atoms: C_21  and  C_22 
REMARK    9  A    between atoms: C_22  and  C_23 
ROOT
ATOM      1  C   LIG d   1       6.876  -1.065  -9.104  0.00  0.00     0.027 C 
ATOM      2  H   LIG d   1       7.603  -1.810  -9.425  0.00  0.00     0.048 H 
ATOM      3  H   LIG d   1       5.872  -1.483  -9.171  0.00  0.00     0.048 H 
ENDROOT
BRANCH   1   4
ATOM      4  N   LIG d   1       7.153  -0.679  -7.718  0.00  0.00    -0.314 N 
ATOM      5  C   LIG d   1       7.580  -1.603  -6.833  0.00  0.00     0.213 C 
ATOM      6  O   LIG d   1       7.733  -2.753  -7.185  0.00  0.00    -0.276 OA
ATOM      7  H   LIG d   1       7.030   0.241  -7.436  0.00  0.00     0.149 HD
BRANCH   5   8
ATOM      8  C   LIG d   1       7.869  -1.205  -5.410  0.00  0.00     0.028 C 
ATOM      9  H   LIG d   1       8.946  -1.099  -5.274  0.00  0.00     0.036 H 
ATOM     10  H   LIG d   1       7.381  -0.255  -5.190  0.00  0.00     0.036 H 
BRANCH   8  11
ATOM     11  C   LIG d   1       7.339  -2.282  -4.461  0.00  0.00    -0.017 C 
ATOM     12  H   LIG d   1       7.491  -3.264  -4.906  0.00  0.00     0.032 H 
ATOM     13  H   LIG d   1       7.874  -2.226  -3.512  0.00  0.00     0.032 H 
BRANCH  11  14
ATOM     14  C   LIG d   1       5.868  -2.061  -4.222  0.00  0.00    -0.022 A 
ATOM     15  C   LIG d   1       5.261  -0.940  -3.500  0.00  0.00     0.003 A 
ATOM     16  C   LIG d   1       3.872  -1.162  -3.534  0.00  0.00     0.047 A 
ATOM     17  C   LIG d   1       5.770   0.189  -2.855  0.00  0.00    -0.052 A 
ATOM     18  C   LIG d   1       3.020  -0.249  -2.920  0.00  0.00    -0.038 A 
ATOM     19  N   LIG d   1       3.664  -2.334  -4.227  0.00  0.00    -0.360 N 
ATOM     20  C   LIG d   1       3.545   0.858  -2.288  0.00  0.00    -0.060 A 
ATOM     21  H   LIG d   1       1.952  -0.407  -2.937  0.00  0.00     0.064 H 
ATOM     22  C   LIG d   1       4.916   1.072  -2.258  0.00  0.00    -0.061 A 
ATOM     23  H   LIG d   1       2.883   1.565  -1.813  0.00  0.00     0.062 H 
ATOM     24  H   LIG d   1       5.311   1.945  -1.759  0.00  0.00     0.062 H 
ATOM     25  C   LIG d   1       4.863  -2.852  -4.633  0.00  0.00     0.006 A 
ATOM     26  H   LIG d   1       2.798  -2.730  -4.404  0.00  0.00     0.165 HD
ATOM     27  H   LIG d   1       4.985  -3.764  -5.199  0.00  0.00     0.081 H 
ATOM     28  H   LIG d   1       6.836   0.362  -2.827  0.00  0.00     0.062 H 
ENDBRANCH  11  14
ENDBRANCH   8  11
ENDBRANCH   5   8
ENDBRANCH   1   4
BRANCH   1  29
ATOM     29  C   LIG d   1       6.976   0.168 -10.005  0.00  0.00     0.027 C 
ATOM     30  H   LIG d   1       7.634   0.904  -9.543  0.00  0.00     0.048 H 
ATOM     31  H   LIG d   1       7.380  -0.123 -10.975  0.00  0.00     0.048 H 
BRANCH  29  32
ATOM     32  N   LIG d   1       5.644   0.749 -10.186  0.00  0.00    -0.314 N 
ATOM     33  C   LIG d   1       5.226   1.741  -9.374  0.00  0.00     0.213 C 
ATOM     34  O   LIG d   1       5.953   2.151  -8.494  0.00  0.00    -0.276 OA
ATOM     35  H   LIG d   1       5.062   0.420 -10.888  0.00  0.00     0.149 HD
BRANCH  33  36
ATOM     36  C   LIG d   1       3.855   2.340  -9.559  0.00  0.00     0.028 C 
ATOM     37  H   LIG d   1       3.921   3.426  -9.493  0.00  0.00     0.036 H 
ATOM     38  H   LIG d   1       3.466   2.059 -10.538  0.00  0.00     0.036 H 
BRANCH  36  39
ATOM     39  C   LIG d   1       2.919   1.818  -8.469  0.00  0.00    -0.017 C 
ATOM     40  H   LIG d   1       3.234   2.208  -7.501  0.00  0.00     0.032 H 
ATOM     41  H   LIG d   1       1.900   2.143  -8.678  0.00  0.00     0.032 H 
BRANCH  39  42
ATOM     42  C   LIG d   1       2.968   0.312  -8.442  0.00  0.00    -0.022 A 
ATOM     43  C   LIG d   1       2.427  -0.595  -9.458  0.00  0.00     0.003 A 
ATOM     44  C   LIG d   1       2.707  -1.898  -9.004  0.00  0.00     0.047 A 
ATOM     45  C   LIG d   1       1.753  -0.409 -10.666  0.00  0.00    -0.052 A 
ATOM     46  N   LIG d   1       3.369  -1.776  -7.803  0.00  0.00    -0.360 N 
ATOM     47  C   LIG d   1       2.307  -2.987  -9.771  0.00  0.00    -0.038 A 
ATOM     48  C   LIG d   1       3.520  -0.453  -7.487  0.00  0.00     0.006 A 
ATOM     49  H   LIG d   1       3.685  -2.517  -7.264  0.00  0.00     0.165 HD
ATOM     50  H   LIG d   1       4.010  -0.080  -6.600  0.00  0.00     0.081 H 
ATOM     51  C   LIG d   1       1.644  -2.779 -10.960  0.00  0.00    -0.060 A 
ATOM     52  H   LIG d   1       2.515  -3.992  -9.436  0.00  0.00     0.064 H 
ATOM     53  C   LIG d   1       1.369  -1.493 -11.403  0.00  0.00    -0.061 A 
ATOM     54  H   LIG d   1       1.333  -3.627 -11.554  0.00  0.00     0.062 H 
ATOM     55  H   LIG d   1       0.848  -1.348 -12.338  0.00  0.00     0.062 H 
ATOM     56  H   LIG d   1       1.537   0.590 -11.017  0.00  0.00     0.062 H 
ENDBRANCH  39  42
ENDBRANCH  36  39
ENDBRANCH  33  36
ENDBRANCH  29  32
ENDBRANCH   1  29
TORSDOF 9
ENDMDL
MODEL 3
REMARK VINA RESULT:      -7.7      1.820      2.411
REMARK  9 active torsions:
REMARK  status: ('A' for Active; 'I' for Inactive)
REMARK    1  A    between atoms: C_7  and  C_11 
REMARK    2  A    between atoms: C_11  and  C_12 
REMARK    3  A    between atoms: C_12  and  C_13 
REMARK       I    between atoms: C_13  and  N_15 
REMARK    4  A    between atoms: N_15  and  C_16 
REMARK    5  A    between atoms: C_16  and  C_17 
REMARK    6  A    between atoms: C_17  and  N_18 
REMARK       I    between atoms: N_18  and  C_19 
REMARK    7  A    between atoms: C_19  and  C_21 
REMARK    8  A    between atoms: C_21  and  C_22 
REMARK    9  A    between atoms: C_22  and  C_23 
ROOT
ATOM      1  C   LIG d   1       3.125  -5.558  -8.923  0.00  0.00     0.027 C 
ATOM      2  H   LIG d   1       3.701  -6.405  -9.297  0.00  0.00     0.048 H 
ATOM      3  H   LIG d   1       2.386  -5.909  -8.204  0.00  0.00     0.048 H 
ENDROOT
BRANCH   1   4
ATOM      4  N   LIG d   1       4.027  -4.605  -8.271  0.00  0.00    -0.314 N 
ATOM      5  C   LIG d   1       4.094  -4.554  -6.925  0.00  0.00     0.213 C 
ATOM      6  O   LIG d   1       3.407  -5.296  -6.256  0.00  0.00    -0.276 OA
ATOM      7  H   LIG d   1       4.576  -4.012  -8.806  0.00  0.00     0.149 HD
BRANCH   5   8
ATOM      8  C   LIG d   1       5.025  -3.578  -6.254  0.00  0.00     0.028 C 
ATOM      9  H   LIG d   1       6.041  -3.739  -6.614  0.00  0.00     0.036 H 
ATOM     10  H   LIG d   1       4.714  -2.559  -6.488  0.00  0.00     0.036 H 
BRANCH   8  11
ATOM     11  C   LIG d   1       4.981  -3.790  -4.740  0.00  0.00    -0.017 C 
ATOM     12  H   LIG d   1       3.950  -3.951  -4.425  0.00  0.00     0.032 H 
ATOM     13  H   LIG d   1       5.582  -4.662  -4.477  0.00  0.00     0.032 H 
BRANCH  11  14
ATOM     14  C   LIG d   1       5.533  -2.572  -4.045  0.00  0.00    -0.022 A 
ATOM     15  C   LIG d   1       4.758  -1.468  -3.475  0.00  0.00     0.003 A 
ATOM     16  C   LIG d   1       5.698  -0.569  -2.937  0.00  0.00     0.047 A 
ATOM     17  C   LIG d   1       3.394  -1.185  -3.383  0.00  0.00    -0.052 A 
ATOM     18  C   LIG d   1       5.254   0.595  -2.320  0.00  0.00    -0.038 A 
ATOM     19  N   LIG d   1       6.947  -1.100  -3.172  0.00  0.00    -0.360 N 
ATOM     20  C   LIG d   1       3.902   0.854  -2.241  0.00  0.00    -0.060 A 
ATOM     21  H   LIG d   1       5.964   1.294  -1.904  0.00  0.00     0.064 H 
ATOM     22  C   LIG d   1       2.979  -0.036  -2.772  0.00  0.00    -0.061 A 
ATOM     23  H   LIG d   1       3.559   1.758  -1.761  0.00  0.00     0.062 H 
ATOM     24  H   LIG d   1       1.923   0.182  -2.703  0.00  0.00     0.062 H 
ATOM     25  C   LIG d   1       6.829  -2.296  -3.826  0.00  0.00     0.006 A 
ATOM     26  H   LIG d   1       7.785  -0.691  -2.907  0.00  0.00     0.165 HD
ATOM     27  H   LIG d   1       7.656  -2.923  -4.126  0.00  0.00     0.081 H 
ATOM     28  H   LIG d   1       2.670  -1.872  -3.794  0.00  0.00     0.062 H 
ENDBRANCH  11  14
ENDBRANCH   8  11
ENDBRANCH   5   8
ENDBRANCH   1   4
BRANCH   1  29
ATOM     29  C   LIG d   1       2.415  -4.869 -10.091  0.00  0.00     0.027 C 
ATOM     30  H   LIG d   1       3.121  -4.717 -10.907  0.00  0.00     0.048 H 
ATOM     31  H   LIG d   1       1.591  -5.494 -10.434  0.00  0.00     0.048 H 
BRANCH  29  32
ATOM     32  N   LIG d   1       1.894  -3.573  -9.648  0.00  0.00    -0.314 N 
ATOM     33  C   LIG d   1       2.004  -2.494 -10.449  0.00  0.00     0.213 C 
ATOM     34  O   LIG d   1       2.534  -2.597 -11.535  0.00  0.00    -0.276 OA
ATOM     35  H   LIG d   1       1.472  -3.491  -8.779  0.00  0.00     0.149 HD
BRANCH  33  36
ATOM     36  C   LIG d   1       1.468  -1.161  -9.994  0.00  0.00     0.028 C 
ATOM     37  H   LIG d   1       0.621  -0.877 -10.619  0.00  0.00     0.036 H 
ATOM     38  H   LIG d   1       1.144  -1.235  -8.956  0.00  0.00     0.036 H 
BRANCH  36  39
ATOM     39  C   LIG d   1       2.566  -0.103 -10.111  0.00  0.00    -0.017 C 
ATOM     40  H   LIG d   1       3.263  -0.388 -10.900  0.00  0.00     0.032 H 
ATOM     41  H   LIG d   1       2.118   0.861 -10.352  0.00  0.00     0.032 H 
BRANCH  39  42
ATOM     42  C   LIG d   1       3.306   0.001  -8.802  0.00  0.00    -0.022 A 
ATOM     43  C   LIG d   1       4.735  -0.240  -8.587  0.00  0.00     0.003 A 
ATOM     44  C   LIG d   1       4.963  -0.024  -7.216  0.00  0.00     0.047 A 
ATOM     45  C   LIG d   1       5.793  -0.609  -9.420  0.00  0.00    -0.052 A 
ATOM     46  N   LIG d   1       3.756   0.323  -6.652  0.00  0.00    -0.360 N 
ATOM     47  C   LIG d   1       6.248  -0.180  -6.706  0.00  0.00    -0.038 A 
ATOM     48  C   LIG d   1       2.782   0.338  -7.613  0.00  0.00     0.006 A 
ATOM     49  H   LIG d   1       3.618   0.530  -5.715  0.00  0.00     0.165 HD
ATOM     50  H   LIG d   1       1.744   0.582  -7.439  0.00  0.00     0.081 H 
ATOM     51  C   LIG d   1       7.277  -0.545  -7.546  0.00  0.00    -0.060 A 
ATOM     52  H   LIG d   1       6.439  -0.018  -5.655  0.00  0.00     0.064 H 
ATOM     53  C   LIG d   1       7.047  -0.758  -8.898  0.00  0.00    -0.061 A 
ATOM     54  H   LIG d   1       8.274  -0.667  -7.148  0.00  0.00     0.062 H 
ATOM     55  H   LIG d   1       7.865  -1.043  -9.543  0.00  0.00     0.062 H 
ATOM     56  H   LIG d   1       5.620  -0.775 -10.473  0.00  0.00     0.062 H 
ENDBRANCH  39  42
ENDBRANCH  36  39
ENDBRANCH  33  36
ENDBRANCH  29  32
ENDBRANCH   1  29
TORSDOF 9
ENDMDL
MODEL 4
REMARK VINA RESULT:      -7.7      2.592      3.877
REMARK  9 active torsions:
REMARK  status: ('A' for Active; 'I' for Inactive)
REMARK    1  A    between atoms: C_7  and  C_11 
REMARK    2  A    between atoms: C_11  and  C_12 
REMARK    3  A    between atoms: C_12  and  C_13 
REMARK       I    between atoms: C_13  and  N_15 
REMARK    4  A    between atoms: N_15  and  C_16 
REMARK    5  A    between atoms: C_16  and  C_17 
REMARK    6  A    between atoms: C_17  and  N_18 
REMARK       I    between atoms: N_18  and  C_19 
REMARK    7  A    between atoms: C_19  and  C_21 
REMARK    8  A    between atoms: C_21  and  C_22 
REMARK    9  A    between atoms: C_22  and  C_23 
ROOT
ATOM      1  C   LIG d   1       7.396  -5.873  -5.340  0.00  0.00     0.027 C 
ATOM      2  H   LIG d   1       8.121  -6.078  -6.127  0.00  0.00     0.048 H 
ATOM      3  H   LIG d   1       7.566  -6.550  -4.503  0.00  0.00     0.048 H 
ENDROOT
BRANCH   1   4
ATOM      4  N   LIG d   1       7.545  -4.488  -4.886  0.00  0.00    -0.314 N 
ATOM      5  C   LIG d   1       8.659  -3.794  -5.197  0.00  0.00     0.213 C 
ATOM      6  O   LIG d   1       9.536  -4.317  -5.851  0.00  0.00    -0.276 OA
ATOM      7  H   LIG d   1       6.844  -4.071  -4.363  0.00  0.00     0.149 HD
BRANCH   5   8
ATOM      8  C   LIG d   1       8.810  -2.368  -4.735  0.00  0.00     0.028 C 
ATOM      9  H   LIG d   1       8.519  -2.293  -3.687  0.00  0.00     0.036 H 
ATOM     10  H   LIG d   1       9.849  -2.058  -4.847  0.00  0.00     0.036 H 
BRANCH   8  11
ATOM     11  C   LIG d   1       7.913  -1.461  -5.580  0.00  0.00    -0.017 C 
ATOM     12  H   LIG d   1       8.511  -0.974  -6.349  0.00  0.00     0.032 H 
ATOM     13  H   LIG d   1       7.132  -2.059  -6.050  0.00  0.00     0.032 H 
BRANCH  11  14
ATOM     14  C   LIG d   1       7.282  -0.415  -4.697  0.00  0.00    -0.022 A 
ATOM     15  C   LIG d   1       6.217  -0.632  -3.714  0.00  0.00     0.003 A 
ATOM     16  C   LIG d   1       5.957   0.626  -3.139  0.00  0.00     0.047 A 
ATOM     17  C   LIG d   1       5.495  -1.751  -3.297  0.00  0.00    -0.052 A 
ATOM     18  C   LIG d   1       4.978   0.737  -2.157  0.00  0.00    -0.038 A 
ATOM     19  N   LIG d   1       6.807   1.529  -3.737  0.00  0.00    -0.360 N 
ATOM     20  C   LIG d   1       4.277  -0.380  -1.761  0.00  0.00    -0.060 A 
ATOM     21  H   LIG d   1       4.767   1.696  -1.708  0.00  0.00     0.064 H 
ATOM     22  C   LIG d   1       4.537  -1.619  -2.332  0.00  0.00    -0.061 A 
ATOM     23  H   LIG d   1       3.517  -0.292  -0.999  0.00  0.00     0.062 H 
ATOM     24  H   LIG d   1       3.978  -2.486  -2.010  0.00  0.00     0.062 H 
ATOM     25  C   LIG d   1       7.593   0.891  -4.657  0.00  0.00     0.006 A 
ATOM     26  H   LIG d   1       6.847   2.476  -3.532  0.00  0.00     0.165 HD
ATOM     27  H   LIG d   1       8.348   1.367  -5.264  0.00  0.00     0.081 H 
ATOM     28  H   LIG d   1       5.692  -2.718  -3.737  0.00  0.00     0.062 H 
ENDBRANCH  11  14
ENDBRANCH   8  11
ENDBRANCH   5   8
ENDBRANCH   1   4
BRANCH   1  29
ATOM     29  C   LIG d   1       5.980  -6.080  -5.884  0.00  0.00     0.027 C 
ATOM     30  H   LIG d   1       5.954  -6.983  -6.495  0.00  0.00     0.048 H 
ATOM     31  H   LIG d   1       5.283  -6.182  -5.054  0.00  0.00     0.048 H 
BRANCH  29  32
ATOM     32  N   LIG d   1       5.600  -4.926  -6.703  0.00  0.00    -0.314 N 
ATOM     33  C   LIG d   1       4.299  -4.598  -6.841  0.00  0.00     0.213 C 
ATOM     34  O   LIG d   1       3.446  -5.258  -6.289  0.00  0.00    -0.276 OA
ATOM     35  H   LIG d   1       6.282  -4.399  -7.146  0.00  0.00     0.149 HD
BRANCH  33  36
ATOM     36  C   LIG d   1       3.907  -3.411  -7.683  0.00  0.00     0.028 C 
ATOM     37  H   LIG d   1       3.863  -3.707  -8.732  0.00  0.00     0.036 H 
ATOM     38  H   LIG d   1       2.928  -3.050  -7.367  0.00  0.00     0.036 H 
BRANCH  36  39
ATOM     39  C   LIG d   1       4.941  -2.298  -7.509  0.00  0.00    -0.017 C 
ATOM     40  H   LIG d   1       5.517  -2.476  -6.600  0.00  0.00     0.032 H 
ATOM     41  H   LIG d   1       5.612  -2.288  -8.368  0.00  0.00     0.032 H 
BRANCH  39  42
ATOM     42  C   LIG d   1       4.238  -0.970  -7.407  0.00  0.00    -0.022 A 
ATOM     43  C   LIG d   1       4.092   0.023  -8.474  0.00  0.00     0.003 A 
ATOM     44  C   LIG d   1       3.369   1.092  -7.914  0.00  0.00     0.047 A 
ATOM     45  C   LIG d   1       4.505   0.084  -9.806  0.00  0.00    -0.052 A 
ATOM     46  N   LIG d   1       3.101   0.760  -6.605  0.00  0.00    -0.360 N 
ATOM     47  C   LIG d   1       3.072   2.201  -8.701  0.00  0.00    -0.038 A 
ATOM     48  C   LIG d   1       3.621  -0.473  -6.322  0.00  0.00     0.006 A 
ATOM     49  H   LIG d   1       2.612   1.316  -5.978  0.00  0.00     0.165 HD
ATOM     50  H   LIG d   1       3.549  -0.972  -5.368  0.00  0.00     0.081 H 
ATOM     51  C   LIG d   1       3.489   2.239 -10.013  0.00  0.00    -0.060 A 
ATOM     52  H   LIG d   1       2.517   3.029  -8.285  0.00  0.00     0.064 H 
ATOM     53  C   LIG d   1       4.203   1.182 -10.561  0.00  0.00    -0.061 A 
ATOM     54  H   LIG d   1       3.259   3.101 -10.623  0.00  0.00     0.062 H 
ATOM     55  H   LIG d   1       4.523   1.228 -11.592  0.00  0.00     0.062 H 
ATOM     56  H   LIG d   1       5.061  -0.736 -10.239  0.00  0.00     0.062 H 
ENDBRANCH  39  42
ENDBRANCH  36  39
ENDBRANCH  33  36
ENDBRANCH  29  32
ENDBRANCH   1  29
TORSDOF 9
ENDMDL
MODEL 5
REMARK VINA RESULT:      -7.5      5.449      8.553
REMARK  9 active torsions:
REMARK  status: ('A' for Active; 'I' for Inactive)
REMARK    1  A    between atoms: C_7  and  C_11 
REMARK    2  A    between atoms: C_11  and  C_12 
REMARK    3  A    between atoms: C_12  and  C_13 
REMARK       I    between atoms: C_13  and  N_15 
REMARK    4  A    between atoms: N_15  and  C_16 
REMARK    5  A    between atoms: C_16  and  C_17 
REMARK    6  A    between atoms: C_17  and  N_18 
REMARK       I    between atoms: N_18  and  C_19 
REMARK    7  A    between atoms: C_19  and  C_21 
REMARK    8  A    between atoms: C_21  and  C_22 
REMARK    9  A    between atoms: C_22  and  C_23 
ROOT
ATOM      1  C   LIG d   1      10.413  -1.269  -6.163  0.00  0.00     0.027 C 
ATOM      2  H   LIG d   1      11.412  -1.051  -5.785  0.00  0.00     0.048 H 
ATOM      3  H   LIG d   1      10.480  -1.997  -6.970  0.00  0.00     0.048 H 
ENDROOT
BRANCH   1   4
ATOM      4  N   LIG d   1       9.590  -1.814  -5.080  0.00  0.00    -0.314 N 
ATOM      5  C   LIG d   1       8.792  -2.876  -5.310  0.00  0.00     0.213 C 
ATOM      6  O   LIG d   1       8.756  -3.379  -6.412  0.00  0.00    -0.276 OA
ATOM      7  H   LIG d   1       9.619  -1.411  -4.198  0.00  0.00     0.149 HD
BRANCH   5   8
ATOM      8  C   LIG d   1       7.950  -3.440  -4.195  0.00  0.00     0.028 C 
ATOM      9  H   LIG d   1       7.106  -3.984  -4.618  0.00  0.00     0.036 H 
ATOM     10  H   LIG d   1       8.552  -4.117  -3.589  0.00  0.00     0.036 H 
BRANCH   8  11
ATOM     11  C   LIG d   1       7.432  -2.297  -3.320  0.00  0.00    -0.017 C 
ATOM     12  H   LIG d   1       7.609  -2.533  -2.271  0.00  0.00     0.032 H 
ATOM     13  H   LIG d   1       7.955  -1.375  -3.578  0.00  0.00     0.032 H 
BRANCH  11  14
ATOM     14  C   LIG d   1       5.954  -2.116  -3.551  0.00  0.00    -0.022 A 
ATOM     15  C   LIG d   1       5.136  -0.982  -3.114  0.00  0.00     0.003 A 
ATOM     16  C   LIG d   1       3.827  -1.253  -3.555  0.00  0.00     0.047 A 
ATOM     17  C   LIG d   1       5.404   0.195  -2.413  0.00  0.00    -0.052 A 
ATOM     18  C   LIG d   1       2.813  -0.342  -3.283  0.00  0.00    -0.038 A 
ATOM     19  N   LIG d   1       3.862  -2.465  -4.208  0.00  0.00    -0.360 N 
ATOM     20  C   LIG d   1       3.099   0.813  -2.588  0.00  0.00    -0.060 A 
ATOM     21  H   LIG d   1       1.804  -0.538  -3.614  0.00  0.00     0.064 H 
ATOM     22  C   LIG d   1       4.392   1.076  -2.156  0.00  0.00    -0.061 A 
ATOM     23  H   LIG d   1       2.311   1.520  -2.378  0.00  0.00     0.062 H 
ATOM     24  H   LIG d   1       4.600   1.986  -1.611  0.00  0.00     0.062 H 
ATOM     25  C   LIG d   1       5.137  -2.961  -4.201  0.00  0.00     0.006 A 
ATOM     26  H   LIG d   1       3.098  -2.900  -4.617  0.00  0.00     0.165 HD
ATOM     27  H   LIG d   1       5.442  -3.895  -4.649  0.00  0.00     0.081 H 
ATOM     28  H   LIG d   1       6.406   0.406  -2.073  0.00  0.00     0.062 H 
ENDBRANCH  11  14
ENDBRANCH   8  11
ENDBRANCH   5   8
ENDBRANCH   1   4
BRANCH   1  29
ATOM     29  C   LIG d   1       9.775   0.019  -6.688  0.00  0.00     0.027 C 
ATOM     30  H   LIG d   1      10.443   0.485  -7.413  0.00  0.00     0.048 H 
ATOM     31  H   LIG d   1       8.825  -0.216  -7.167  0.00  0.00     0.048 H 
BRANCH  29  32
ATOM     32  N   LIG d   1       9.546   0.940  -5.572  0.00  0.00    -0.314 N 
ATOM     33  C   LIG d   1       8.467   1.749  -5.578  0.00  0.00     0.213 C 
ATOM     34  O   LIG d   1       7.688   1.715  -6.506  0.00  0.00    -0.276 OA
ATOM     35  H   LIG d   1      10.169   0.968  -4.830  0.00  0.00     0.149 HD
BRANCH  33  36
ATOM     36  C   LIG d   1       8.230   2.697  -4.430  0.00  0.00     0.028 C 
ATOM     37  H   LIG d   1       7.189   3.019  -4.433  0.00  0.00     0.036 H 
ATOM     38  H   LIG d   1       8.450   2.190  -3.490  0.00  0.00     0.036 H 
BRANCH  36  39
ATOM     39  C   LIG d   1       9.142   3.915  -4.578  0.00  0.00    -0.017 C 
ATOM     40  H   LIG d   1       9.839   3.751  -5.399  0.00  0.00     0.032 H 
ATOM     41  H   LIG d   1       8.538   4.799  -4.785  0.00  0.00     0.032 H 
BRANCH  39  42
ATOM     42  C   LIG d   1       9.913   4.124  -3.300  0.00  0.00    -0.022 A 
ATOM     43  C   LIG d   1       9.940   5.344  -2.488  0.00  0.00     0.003 A 
ATOM     44  C   LIG d   1      10.790   5.068  -1.401  0.00  0.00     0.047 A 
ATOM     45  C   LIG d   1       9.333   6.596  -2.597  0.00  0.00    -0.052 A 
ATOM     46  N   LIG d   1      11.238   3.775  -1.553  0.00  0.00    -0.360 N 
ATOM     47  C   LIG d   1      11.014   6.053  -0.444  0.00  0.00    -0.038 A 
ATOM     48  C   LIG d   1      10.702   3.227  -2.687  0.00  0.00     0.006 A 
ATOM     49  H   LIG d   1      11.841   3.320  -0.946  0.00  0.00     0.165 HD
ATOM     50  H   LIG d   1      10.887   2.223  -3.037  0.00  0.00     0.081 H 
ATOM     51  C   LIG d   1      10.404   7.281  -0.572  0.00  0.00    -0.060 A 
ATOM     52  H   LIG d   1      11.664   5.856   0.396  0.00  0.00     0.064 H 
ATOM     53  C   LIG d   1       9.567   7.549  -1.646  0.00  0.00    -0.061 A 
ATOM     54  H   LIG d   1      10.580   8.045   0.171  0.00  0.00     0.062 H 
ATOM     55  H   LIG d   1       9.097   8.517  -1.732  0.00  0.00     0.062 H 
ATOM     56  H   LIG d   1       8.679   6.810  -3.431  0.00  0.00     0.062 H 
ENDBRANCH  39  42
ENDBRANCH  36  39
ENDBRANCH  33  36
ENDBRANCH  29  32
ENDBRANCH   1  29
TORSDOF 9
ENDMDL
MODEL 6
REMARK VINA RESULT:      -7.5      2.933      6.204
REMARK  9 active torsions:
REMARK  status: ('A' for Active; 'I' for Inactive)
REMARK    1  A    between atoms: C_7  and  C_11 
REMARK    2  A    between atoms: C_11  and  C_12 
REMARK    3  A    between atoms: C_12  and  C_13 
REMARK       I    between atoms: C_13  and  N_15 
REMARK    4  A    between atoms: N_15  and  C_16 
REMARK    5  A    between atoms: C_16  and  C_17 
REMARK    6  A    between atoms: C_17  and  N_18 
REMARK       I    between atoms: N_18  and  C_19 
REMARK    7  A    between atoms: C_19  and  C_21 
REMARK    8  A    between atoms: C_21  and  C_22 
REMARK    9  A    between atoms: C_22  and  C_23 
ROOT
ATOM      1  C   LIG d   1       4.766  -7.434  -7.128  0.00  0.00     0.027 C 
ATOM      2  H   LIG d   1       4.067  -7.452  -6.293  0.00  0.00     0.048 H 
ATOM      3  H   LIG d   1       4.593  -8.300  -7.767  0.00  0.00     0.048 H 
ENDROOT
BRANCH   1   4
ATOM      4  N   LIG d   1       4.568  -6.207  -7.905  0.00  0.00    -0.314 N 
ATOM      5  C   LIG d   1       3.841  -5.195  -7.391  0.00  0.00     0.213 C 
ATOM      6  O   LIG d   1       3.351  -5.300  -6.287  0.00  0.00    -0.276 OA
ATOM      7  H   LIG d   1       4.959  -6.123  -8.788  0.00  0.00     0.149 HD
BRANCH   5   8
ATOM      8  C   LIG d   1       3.641  -3.932  -8.188  0.00  0.00     0.028 C 
ATOM      9  H   LIG d   1       3.070  -4.157  -9.089  0.00  0.00     0.036 H 
ATOM     10  H   LIG d   1       3.097  -3.204  -7.586  0.00  0.00     0.036 H 
BRANCH   8  11
ATOM     11  C   LIG d   1       5.003  -3.355  -8.579  0.00  0.00    -0.017 C 
ATOM     12  H   LIG d   1       5.791  -4.038  -8.263  0.00  0.00     0.032 H 
ATOM     13  H   LIG d   1       5.046  -3.226  -9.661  0.00  0.00     0.032 H 
BRANCH  11  14
ATOM     14  C   LIG d   1       5.196  -2.020  -7.906  0.00  0.00    -0.022 A 
ATOM     15  C   LIG d   1       6.475  -1.382  -7.587  0.00  0.00     0.003 A 
ATOM     16  C   LIG d   1       6.156  -0.159  -6.969  0.00  0.00     0.047 A 
ATOM     17  C   LIG d   1       7.812  -1.741  -7.771  0.00  0.00    -0.052 A 
ATOM     18  C   LIG d   1       7.182   0.681  -6.547  0.00  0.00    -0.038 A 
ATOM     19  N   LIG d   1       4.782  -0.073  -6.922  0.00  0.00    -0.360 N 
ATOM     20  C   LIG d   1       8.494   0.306  -6.738  0.00  0.00    -0.060 A 
ATOM     21  H   LIG d   1       6.952   1.621  -6.070  0.00  0.00     0.064 H 
ATOM     22  C   LIG d   1       8.803  -0.902  -7.349  0.00  0.00    -0.061 A 
ATOM     23  H   LIG d   1       9.289   0.958  -6.410  0.00  0.00     0.062 H 
ATOM     24  H   LIG d   1       9.837  -1.182  -7.491  0.00  0.00     0.062 H 
ATOM     25  C   LIG d   1       4.227  -1.188  -7.490  0.00  0.00     0.006 A 
ATOM     26  H   LIG d   1       4.283   0.668  -6.548  0.00  0.00     0.165 HD
ATOM     27  H   LIG d   1       3.168  -1.372  -7.586  0.00  0.00     0.081 H 
ATOM     28  H   LIG d   1       8.060  -2.679  -8.244  0.00  0.00     0.062 H 
ENDBRANCH  11  14
ENDBRANCH   8  11
ENDBRANCH   5   8
ENDBRANCH   1   4
BRANCH   1  29
ATOM     29  C   LIG d   1       6.200  -7.471  -6.594  0.00  0.00     0.027 C 
ATOM     30  H   LIG d   1       6.384  -8.432  -6.114  0.00  0.00     0.048 H 
ATOM     31  H   LIG d   1       6.899  -7.337  -7.420  0.00  0.00     0.048 H 
BRANCH  29  32
ATOM     32  N   LIG d   1       6.384  -6.394  -5.618  0.00  0.00    -0.314 N 
ATOM     33  C   LIG d   1       7.088  -5.294  -5.953  0.00  0.00     0.213 C 
ATOM     34  O   LIG d   1       7.567  -5.196  -7.062  0.00  0.00    -0.276 OA
ATOM     35  H   LIG d   1       6.001  -6.473  -4.731  0.00  0.00     0.149 HD
BRANCH  33  36
ATOM     36  C   LIG d   1       7.277  -4.186  -4.949  0.00  0.00     0.028 C 
ATOM     37  H   LIG d   1       7.699  -4.595  -4.031  0.00  0.00     0.036 H 
ATOM     38  H   LIG d   1       7.957  -3.438  -5.359  0.00  0.00     0.036 H 
BRANCH  36  39
ATOM     39  C   LIG d   1       5.927  -3.537  -4.645  0.00  0.00    -0.017 C 
ATOM     40  H   LIG d   1       5.375  -3.393  -5.574  0.00  0.00     0.032 H 
ATOM     41  H   LIG d   1       5.355  -4.182  -3.978  0.00  0.00     0.032 H 
BRANCH  39  42
ATOM     42  C   LIG d   1       6.149  -2.202  -3.982  0.00  0.00    -0.022 A 
ATOM     43  C   LIG d   1       5.113  -1.300  -3.470  0.00  0.00     0.003 A 
ATOM     44  C   LIG d   1       5.794  -0.186  -2.945  0.00  0.00     0.047 A 
ATOM     45  C   LIG d   1       3.719  -1.353  -3.420  0.00  0.00    -0.052 A 
ATOM     46  N   LIG d   1       7.140  -0.407  -3.130  0.00  0.00    -0.360 N 
ATOM     47  C   LIG d   1       5.063   0.853  -2.379  0.00  0.00    -0.038 A 
ATOM     48  C   LIG d   1       7.333  -1.615  -3.745  0.00  0.00     0.006 A 
ATOM     49  H   LIG d   1       7.846   0.201  -2.862  0.00  0.00     0.165 HD
ATOM     50  H   LIG d   1       8.295  -2.032  -4.002  0.00  0.00     0.081 H 
ATOM     51  C   LIG d   1       3.688   0.781  -2.340  0.00  0.00    -0.060 A 
ATOM     52  H   LIG d   1       5.571   1.715  -1.971  0.00  0.00     0.064 H 
ATOM     53  C   LIG d   1       3.022  -0.320  -2.860  0.00  0.00    -0.061 A 
ATOM     54  H   LIG d   1       3.122   1.590  -1.901  0.00  0.00     0.062 H 
ATOM     55  H   LIG d   1       1.943  -0.361  -2.822  0.00  0.00     0.062 H 
ATOM     56  H   LIG d   1       3.195  -2.207  -3.822  0.00  0.00     0.062 H 
ENDBRANCH  39  42
ENDBRANCH  36  39
ENDBRANCH  33  36
ENDBRANCH  29  32
ENDBRANCH   1  29
TORSDOF 9
ENDMDL
MODEL 7
REMARK VINA RESULT:      -7.4      7.559     11.845
REMARK  9 active torsions:
REMARK  status: ('A' for Active; 'I' for Inactive)
REMARK    1  A    between atoms: C_7  and  C_11 
REMARK    2  A    between atoms: C_11  and  C_12 
REMARK    3  A    between atoms: C_12  and  C_13 
REMARK       I    between atoms: C_13  and  N_15 
REMARK    4  A    between atoms: N_15  and  C_16 
REMARK    5  A    between atoms: C_16  and  C_17 
REMARK    6  A    between atoms: C_17  and  N_18 
REMARK       I    between atoms: N_18  and  C_19 
REMARK    7  A    between atoms: C_19  and  C_21 
REMARK    8  A    between atoms: C_21  and  C_22 
REMARK    9  A    between atoms: C_22  and  C_23 
ROOT
ATOM      1  C   LIG d   1      12.936   2.351  -3.812  0.00  0.00     0.027 C 
ATOM      2  H   LIG d   1      13.444   1.503  -3.353  0.00  0.00     0.048 H 
ATOM      3  H   LIG d   1      12.860   2.192  -4.887  0.00  0.00     0.048 H 
ENDROOT
BRANCH   1   4
ATOM      4  N   LIG d   1      11.593   2.483  -3.242  0.00  0.00    -0.314 N 
ATOM      5  C   LIG d   1      10.509   2.322  -4.028  0.00  0.00     0.213 C 
ATOM      6  O   LIG d   1      10.646   2.070  -5.206  0.00  0.00    -0.276 OA
ATOM      7  H   LIG d   1      11.483   2.685  -2.300  0.00  0.00     0.149 HD
BRANCH   5   8
ATOM      8  C   LIG d   1       9.128   2.453  -3.440  0.00  0.00     0.028 C 
ATOM      9  H   LIG d   1       9.031   1.781  -2.587  0.00  0.00     0.036 H 
ATOM     10  H   LIG d   1       8.966   3.480  -3.114  0.00  0.00     0.036 H 
BRANCH   8  11
ATOM     11  C   LIG d   1       8.087   2.084  -4.499  0.00  0.00    -0.017 C 
ATOM     12  H   LIG d   1       7.295   2.832  -4.506  0.00  0.00     0.032 H 
ATOM     13  H   LIG d   1       8.563   2.048  -5.480  0.00  0.00     0.032 H 
BRANCH  11  14
ATOM     14  C   LIG d   1       7.499   0.734  -4.178  0.00  0.00    -0.022 A 
ATOM     15  C   LIG d   1       6.335   0.471  -3.327  0.00  0.00     0.003 A 
ATOM     16  C   LIG d   1       6.165  -0.926  -3.323  0.00  0.00     0.047 A 
ATOM     17  C   LIG d   1       5.461   1.281  -2.600  0.00  0.00    -0.052 A 
ATOM     18  C   LIG d   1       5.123  -1.484  -2.589  0.00  0.00    -0.038 A 
ATOM     19  N   LIG d   1       7.158  -1.459  -4.115  0.00  0.00    -0.360 N 
ATOM     20  C   LIG d   1       4.273  -0.666  -1.878  0.00  0.00    -0.060 A 
ATOM     21  H   LIG d   1       4.981  -2.555  -2.576  0.00  0.00     0.064 H 
ATOM     22  C   LIG d   1       4.445   0.712  -1.886  0.00  0.00    -0.061 A 
ATOM     23  H   LIG d   1       3.465  -1.100  -1.309  0.00  0.00     0.062 H 
ATOM     24  H   LIG d   1       3.770   1.339  -1.322  0.00  0.00     0.062 H 
ATOM     25  C   LIG d   1       7.939  -0.456  -4.620  0.00  0.00     0.006 A 
ATOM     26  H   LIG d   1       7.282  -2.404  -4.293  0.00  0.00     0.165 HD
ATOM     27  H   LIG d   1       8.785  -0.598  -5.275  0.00  0.00     0.081 H 
ATOM     28  H   LIG d   1       5.590   2.353  -2.600  0.00  0.00     0.062 H 
ENDBRANCH  11  14
ENDBRANCH   8  11
ENDBRANCH   5   8
ENDBRANCH   1   4
BRANCH   1  29
ATOM     29  C   LIG d   1      13.732   3.630  -3.541  0.00  0.00     0.027 C 
ATOM     30  H   LIG d   1      14.797   3.422  -3.637  0.00  0.00     0.048 H 
ATOM     31  H   LIG d   1      13.444   4.396  -4.260  0.00  0.00     0.048 H 
BRANCH  29  32
ATOM     32  N   LIG d   1      13.447   4.102  -2.183  0.00  0.00    -0.314 N 
ATOM     33  C   LIG d   1      13.392   5.425  -1.928  0.00  0.00     0.213 C 
ATOM     34  O   LIG d   1      13.579   6.223  -2.822  0.00  0.00    -0.276 OA
ATOM     35  H   LIG d   1      13.298   3.464  -1.469  0.00  0.00     0.149 HD
BRANCH  33  36
ATOM     36  C   LIG d   1      13.099   5.911  -0.532  0.00  0.00     0.028 C 
ATOM     37  H   LIG d   1      13.829   5.492   0.161  0.00  0.00     0.036 H 
ATOM     38  H   LIG d   1      13.159   7.000  -0.507  0.00  0.00     0.036 H 
BRANCH  36  39
ATOM     39  C   LIG d   1      11.693   5.469  -0.122  0.00  0.00    -0.017 C 
ATOM     40  H   LIG d   1      11.495   4.473  -0.520  0.00  0.00     0.032 H 
ATOM     41  H   LIG d   1      11.622   5.447   0.965  0.00  0.00     0.032 H 
BRANCH  39  42
ATOM     42  C   LIG d   1      10.680   6.439  -0.672  0.00  0.00    -0.022 A 
ATOM     43  C   LIG d   1      10.517   7.842  -0.281  0.00  0.00     0.003 A 
ATOM     44  C   LIG d   1       9.453   8.340  -1.057  0.00  0.00     0.047 A 
ATOM     45  C   LIG d   1      11.164   8.678   0.631  0.00  0.00    -0.052 A 
ATOM     46  N   LIG d   1       9.014   7.308  -1.855  0.00  0.00    -0.360 N 
ATOM     47  C   LIG d   1       9.061   9.666  -0.904  0.00  0.00    -0.038 A 
ATOM     48  C   LIG d   1       9.760   6.185  -1.615  0.00  0.00     0.006 A 
ATOM     49  H   LIG d   1       8.287   7.368  -2.494  0.00  0.00     0.165 HD
ATOM     50  H   LIG d   1       9.626   5.235  -2.111  0.00  0.00     0.081 H 
ATOM     51  C   LIG d   1       9.714  10.472   0.001  0.00  0.00    -0.060 A 
ATOM     52  H   LIG d   1       8.246  10.062  -1.493  0.00  0.00     0.064 H 
ATOM     53  C   LIG d   1      10.762   9.976   0.765  0.00  0.00    -0.061 A 
ATOM     54  H   LIG d   1       9.407  11.501   0.120  0.00  0.00     0.062 H 
ATOM     55  H   LIG d   1      11.263  10.622   1.471  0.00  0.00     0.062 H 
ATOM     56  H   LIG d   1      11.981   8.298   1.227  0.00  0.00     0.062 H 
ENDBRANCH  39  42
ENDBRANCH  36  39
ENDBRANCH  33  36
ENDBRANCH  29  32
ENDBRANCH   1  29
TORSDOF 9
ENDMDL
MODEL 8
REMARK VINA RESULT:      -7.3      1.508      6.563
REMARK  9 active torsions:
REMARK  status: ('A' for Active; 'I' for Inactive)
REMARK    1  A    between atoms: C_7  and  C_11 
REMARK    2  A    between atoms: C_11  and  C_12 
REMARK    3  A    between atoms: C_12  and  C_13 
REMARK       I    between atoms: C_13  and  N_15 
REMARK    4  A    between atoms: N_15  and  C_16 
REMARK    5  A    between atoms: C_16  and  C_17 
REMARK    6  A    between atoms: C_17  and  N_18 
REMARK       I    between atoms: N_18  and  C_19 
REMARK    7  A    between atoms: C_19  and  C_21 
REMARK    8  A    between atoms: C_21  and  C_22 
REMARK    9  A    between atoms: C_22  and  C_23 
ROOT
ATOM      1  C   LIG d   1       4.242  -6.537  -9.908  0.00  0.00     0.027 C 
ATOM      2  H   LIG d   1       3.883  -7.483 -10.312  0.00  0.00     0.048 H 
ATOM      3  H   LIG d   1       5.298  -6.416 -10.148  0.00  0.00     0.048 H 
ENDROOT
BRANCH   1   4
ATOM      4  N   LIG d   1       3.477  -5.434 -10.496  0.00  0.00    -0.314 N 
ATOM      5  C   LIG d   1       4.112  -4.473 -11.198  0.00  0.00     0.213 C 
ATOM      6  O   LIG d   1       5.315  -4.522 -11.341  0.00  0.00    -0.276 OA
ATOM      7  H   LIG d   1       2.515  -5.395 -10.381  0.00  0.00     0.149 HD
BRANCH   5   8
ATOM      8  C   LIG d   1       3.325  -3.342 -11.807  0.00  0.00     0.028 C 
ATOM      9  H   LIG d   1       3.221  -3.508 -12.879  0.00  0.00     0.036 H 
ATOM     10  H   LIG d   1       2.337  -3.298 -11.348  0.00  0.00     0.036 H 
BRANCH   8  11
ATOM     11  C   LIG d   1       4.059  -2.022 -11.565  0.00  0.00    -0.017 C 
ATOM     12  H   LIG d   1       5.132  -2.206 -11.522  0.00  0.00     0.032 H 
ATOM     13  H   LIG d   1       3.841  -1.330 -12.379  0.00  0.00     0.032 H 
BRANCH  11  14
ATOM     14  C   LIG d   1       3.600  -1.423 -10.260  0.00  0.00    -0.022 A 
ATOM     15  C   LIG d   1       3.527   0.004  -9.935  0.00  0.00     0.003 A 
ATOM     16  C   LIG d   1       3.045   0.077  -8.615  0.00  0.00     0.047 A 
ATOM     17  C   LIG d   1       3.821   1.175 -10.635  0.00  0.00    -0.052 A 
ATOM     18  C   LIG d   1       2.868   1.323  -8.021  0.00  0.00    -0.038 A 
ATOM     19  N   LIG d   1       2.846  -1.215  -8.183  0.00  0.00    -0.360 N 
ATOM     20  C   LIG d   1       3.166   2.466  -8.730  0.00  0.00    -0.060 A 
ATOM     21  H   LIG d   1       2.501   1.394  -7.009  0.00  0.00     0.064 H 
ATOM     22  C   LIG d   1       3.640   2.388 -10.033  0.00  0.00    -0.061 A 
ATOM     23  H   LIG d   1       3.028   3.432  -8.269  0.00  0.00     0.062 H 
ATOM     24  H   LIG d   1       3.869   3.294 -10.575  0.00  0.00     0.062 H 
ATOM     25  C   LIG d   1       3.176  -2.095  -9.177  0.00  0.00     0.006 A 
ATOM     26  H   LIG d   1       2.516  -1.465  -7.306  0.00  0.00     0.165 HD
ATOM     27  H   LIG d   1       3.109  -3.170  -9.102  0.00  0.00     0.081 H 
ATOM     28  H   LIG d   1       4.191   1.122 -11.648  0.00  0.00     0.062 H 
ENDBRANCH  11  14
ENDBRANCH   8  11
ENDBRANCH   5   8
ENDBRANCH   1   4
BRANCH   1  29
ATOM     29  C   LIG d   1       4.060  -6.529  -8.388  0.00  0.00     0.027 C 
ATOM     30  H   LIG d   1       2.996  -6.521  -8.150  0.00  0.00     0.048 H 
ATOM     31  H   LIG d   1       4.521  -7.419  -7.962  0.00  0.00     0.048 H 
BRANCH  29  32
ATOM     32  N   LIG d   1       4.695  -5.333  -7.828  0.00  0.00    -0.314 N 
ATOM     33  C   LIG d   1       4.261  -4.826  -6.657  0.00  0.00     0.213 C 
ATOM     34  O   LIG d   1       3.345  -5.359  -6.068  0.00  0.00    -0.276 OA
ATOM     35  H   LIG d   1       5.427  -4.907  -8.299  0.00  0.00     0.149 HD
BRANCH  33  36
ATOM     36  C   LIG d   1       4.914  -3.597  -6.079  0.00  0.00     0.028 C 
ATOM     37  H   LIG d   1       5.917  -3.488  -6.495  0.00  0.00     0.036 H 
ATOM     38  H   LIG d   1       4.320  -2.718  -6.331  0.00  0.00     0.036 H 
BRANCH  36  39
ATOM     39  C   LIG d   1       5.004  -3.734  -4.559  0.00  0.00    -0.017 C 
ATOM     40  H   LIG d   1       4.009  -3.907  -4.150  0.00  0.00     0.032 H 
ATOM     41  H   LIG d   1       5.652  -4.573  -4.307  0.00  0.00     0.032 H 
BRANCH  39  42
ATOM     42  C   LIG d   1       5.574  -2.467  -3.973  0.00  0.00    -0.022 A 
ATOM     43  C   LIG d   1       4.813  -1.352  -3.404  0.00  0.00     0.003 A 
ATOM     44  C   LIG d   1       5.766  -0.404  -2.988  0.00  0.00     0.047 A 
ATOM     45  C   LIG d   1       3.452  -1.097  -3.223  0.00  0.00    -0.052 A 
ATOM     46  N   LIG d   1       7.008  -0.917  -3.288  0.00  0.00    -0.360 N 
ATOM     47  C   LIG d   1       5.337   0.781  -2.399  0.00  0.00    -0.038 A 
ATOM     48  C   LIG d   1       6.874  -2.149  -3.870  0.00  0.00     0.006 A 
ATOM     49  H   LIG d   1       7.852  -0.474  -3.111  0.00  0.00     0.165 HD
ATOM     50  H   LIG d   1       7.692  -2.771  -4.198  0.00  0.00     0.081 H 
ATOM     51  C   LIG d   1       3.989   1.012  -2.231  0.00  0.00    -0.060 A 
ATOM     52  H   LIG d   1       6.057   1.518  -2.076  0.00  0.00     0.064 H 
ATOM     53  C   LIG d   1       3.053   0.074  -2.643  0.00  0.00    -0.061 A 
ATOM     54  H   LIG d   1       3.657   1.933  -1.774  0.00  0.00     0.062 H 
ATOM     55  H   LIG d   1       2.000   0.270  -2.504  0.00  0.00     0.062 H 
ATOM     56  H   LIG d   1       2.719  -1.823  -3.541  0.00  0.00     0.062 H 
ENDBRANCH  39  42
ENDBRANCH  36  39
ENDBRANCH  33  36
ENDBRANCH  29  32
ENDBRANCH   1  29
TORSDOF 9
ENDMDL
MODEL 9
REMARK VINA RESULT:      -7.3      5.723      8.960
REMARK  9 active torsions:
REMARK  status: ('A' for Active; 'I' for Inactive)
REMARK    1  A    between atoms: C_7  and  C_11 
REMARK    2  A    between atoms: C_11  and  C_12 
REMARK    3  A    between atoms: C_12  and  C_13 
REMARK       I    between atoms: C_13  and  N_15 
REMARK    4  A    between atoms: N_15  and  C_16 
REMARK    5  A    between atoms: C_16  and  C_17 
REMARK    6  A    between atoms: C_17  and  N_18 
REMARK       I    between atoms: N_18  and  C_19 
REMARK    7  A    between atoms: C_19  and  C_21 
REMARK    8  A    between atoms: C_21  and  C_22 
REMARK    9  A    between atoms: C_22  and  C_23 
ROOT
ATOM      1  C   LIG d   1      11.544  -0.150  -5.329  0.00  0.00     0.027 C 
ATOM      2  H   LIG d   1      11.049   0.078  -6.273  0.00  0.00     0.048 H 
ATOM      3  H   LIG d   1      12.606   0.081  -5.410  0.00  0.00     0.048 H 
ENDROOT
BRANCH   1   4
ATOM      4  N   LIG d   1      10.949   0.655  -4.258  0.00  0.00    -0.314 N 
ATOM      5  C   LIG d   1      10.057   1.620  -4.558  0.00  0.00     0.213 C 
ATOM      6  O   LIG d   1       9.747   1.822  -5.712  0.00  0.00    -0.276 OA
ATOM      7  H   LIG d   1      11.197   0.493  -3.335  0.00  0.00     0.149 HD
BRANCH   5   8
ATOM      8  C   LIG d   1       9.442   2.443  -3.456  0.00  0.00     0.028 C 
ATOM      9  H   LIG d   1       8.660   3.079  -3.872  0.00  0.00     0.036 H 
ATOM     10  H   LIG d   1       9.011   1.782  -2.705  0.00  0.00     0.036 H 
BRANCH   8  11
ATOM     11  C   LIG d   1      10.519   3.317  -2.810  0.00  0.00    -0.017 C 
ATOM     12  H   LIG d   1      10.665   3.007  -1.776  0.00  0.00     0.032 H 
ATOM     13  H   LIG d   1      11.455   3.205  -3.359  0.00  0.00     0.032 H 
BRANCH  11  14
ATOM     14  C   LIG d   1      10.085   4.759  -2.846  0.00  0.00    -0.022 A 
ATOM     15  C   LIG d   1      10.267   5.751  -1.783  0.00  0.00     0.003 A 
ATOM     16  C   LIG d   1       9.707   6.947  -2.267  0.00  0.00     0.047 A 
ATOM     17  C   LIG d   1      10.840   5.715  -0.510  0.00  0.00    -0.052 A 
ATOM     18  C   LIG d   1       9.730   8.084  -1.466  0.00  0.00    -0.038 A 
ATOM     19  N   LIG d   1       9.223   6.688  -3.530  0.00  0.00    -0.360 N 
ATOM     20  C   LIG d   1      10.300   8.026  -0.213  0.00  0.00    -0.060 A 
ATOM     21  H   LIG d   1       9.303   9.009  -1.824  0.00  0.00     0.064 H 
ATOM     22  C   LIG d   1      10.852   6.843   0.260  0.00  0.00    -0.061 A 
ATOM     23  H   LIG d   1      10.317   8.909   0.408  0.00  0.00     0.062 H 
ATOM     24  H   LIG d   1      11.294   6.814   1.245  0.00  0.00     0.062 H 
ATOM     25  C   LIG d   1       9.463   5.382  -3.861  0.00  0.00     0.006 A 
ATOM     26  H   LIG d   1       8.784   7.335  -4.102  0.00  0.00     0.165 HD
ATOM     27  H   LIG d   1       9.189   4.919  -4.797  0.00  0.00     0.081 H 
ATOM     28  H   LIG d   1      11.270   4.798  -0.136  0.00  0.00     0.062 H 
ENDBRANCH  11  14
ENDBRANCH   8  11
ENDBRANCH   5   8
ENDBRANCH   1   4
BRANCH   1  29
ATOM     29  C   LIG d   1      11.369  -1.636  -5.007  0.00  0.00     0.027 C 
ATOM     30  H   LIG d   1      11.633  -2.231  -5.880  0.00  0.00     0.048 H 
ATOM     31  H   LIG d   1      12.016  -1.905  -4.173  0.00  0.00     0.048 H 
BRANCH  29  32
ATOM     32  N   LIG d   1       9.972  -1.894  -4.645  0.00  0.00    -0.314 N 
ATOM     33  C   LIG d   1       9.490  -3.152  -4.678  0.00  0.00     0.213 C 
ATOM     34  O   LIG d   1      10.211  -4.070  -5.007  0.00  0.00    -0.276 OA
ATOM     35  H   LIG d   1       9.395  -1.160  -4.382  0.00  0.00     0.149 HD
BRANCH  33  36
ATOM     36  C   LIG d   1       8.054  -3.419  -4.306  0.00  0.00     0.028 C 
ATOM     37  H   LIG d   1       7.457  -3.525  -5.212  0.00  0.00     0.036 H 
ATOM     38  H   LIG d   1       7.995  -4.339  -3.723  0.00  0.00     0.036 H 
BRANCH  36  39
ATOM     39  C   LIG d   1       7.518  -2.253  -3.474  0.00  0.00    -0.017 C 
ATOM     40  H   LIG d   1       7.741  -2.424  -2.421  0.00  0.00     0.032 H 
ATOM     41  H   LIG d   1       7.990  -1.327  -3.800  0.00  0.00     0.032 H 
BRANCH  39  42
ATOM     42  C   LIG d   1       6.026  -2.147  -3.661  0.00  0.00    -0.022 A 
ATOM     43  C   LIG d   1       5.162  -1.069  -3.172  0.00  0.00     0.003 A 
ATOM     44  C   LIG d   1       3.857  -1.401  -3.584  0.00  0.00     0.047 A 
ATOM     45  C   LIG d   1       5.386   0.102  -2.447  0.00  0.00    -0.052 A 
ATOM     46  N   LIG d   1       3.938  -2.592  -4.270  0.00  0.00    -0.360 N 
ATOM     47  C   LIG d   1       2.804  -0.551  -3.260  0.00  0.00    -0.038 A 
ATOM     48  C   LIG d   1       5.238  -3.018  -4.310  0.00  0.00     0.006 A 
ATOM     49  H   LIG d   1       3.186  -3.057  -4.668  0.00  0.00     0.165 HD
ATOM     50  H   LIG d   1       5.578  -3.923  -4.791  0.00  0.00     0.081 H 
ATOM     51  C   LIG d   1       3.049   0.599  -2.544  0.00  0.00    -0.060 A 
ATOM     52  H   LIG d   1       1.798  -0.793  -3.569  0.00  0.00     0.064 H 
ATOM     53  C   LIG d   1       4.337   0.921  -2.139  0.00  0.00    -0.061 A 
ATOM     54  H   LIG d   1       2.230   1.257  -2.293  0.00  0.00     0.062 H 
ATOM     55  H   LIG d   1       4.512   1.827  -1.578  0.00  0.00     0.062 H 
ATOM     56  H   LIG d   1       6.387   0.359  -2.130  0.00  0.00     0.062 H 
ENDBRANCH  39  42
ENDBRANCH  36  39
ENDBRANCH  33  36
ENDBRANCH  29  32
ENDBRANCH   1  29
TORSDOF 9
ENDMDL
