MODEL 1
REMARK VINA RESULT:      -7.4      0.000      0.000
REMARK  5 active torsions:
REMARK  status: ('A' for Active; 'I' for Inactive)
REMARK    1  A    between atoms: C_1  and  C_2 
REMARK    2  A    between atoms: C_7  and  N_8 
REMARK       I    between atoms: N_8  and  C_9 
REMARK    3  A    between atoms: C_9  and  C_11 
REMARK    4  A    between atoms: C_11  and  C_12 
REMARK    5  A    between atoms: C_11  and  C_16 
ROOT
ATOM      1  N   LIG d   1       4.480  -0.129  -5.784  0.00  0.00    -0.269 N 
ATOM      2  C   LIG d   1       3.764  -0.089  -4.642  0.00  0.00     0.253 C 
ATOM      3  O   LIG d   1       2.562   0.073  -4.685  0.00  0.00    -0.273 OA
ATOM      4  H   LIG d   1       5.440  -0.258  -5.749  0.00  0.00     0.156 HD
ENDROOT
BRANCH   1   5
ATOM      5  C   LIG d   1       3.839   0.017  -7.014  0.00  0.00     0.128 A 
ATOM      6  C   LIG d   1       3.669  -1.090  -7.837  0.00  0.00    -0.010 A 
ATOM      7  C   LIG d   1       3.026  -0.932  -9.052  0.00  0.00    -0.054 A 
ATOM      8  C   LIG d   1       2.578   0.333  -9.405  0.00  0.00    -0.043 A 
ATOM      9  H   LIG d   1       2.876  -1.775  -9.711  0.00  0.00     0.062 H 
ATOM     10  C   LIG d   1       2.786   1.389  -8.540  0.00  0.00     0.030 A 
ATOM     11  H   LIG d   1       2.072   0.490 -10.346  0.00  0.00     0.063 H 
ATOM     12  N   LIG d   1       3.403   1.209  -7.388  0.00  0.00    -0.240 NA
ATOM     13  H   LIG d   1       2.439   2.376  -8.811  0.00  0.00     0.083 H 
BRANCH   6  14
ATOM     14  C   LIG d   1       4.173  -2.444  -7.410  0.00  0.00    -0.036 C 
ATOM     15  H   LIG d   1       3.468  -2.890  -6.709  0.00  0.00     0.028 H 
ATOM     16  H   LIG d   1       4.273  -3.087  -8.284  0.00  0.00     0.028 H 
ATOM     17  H   LIG d   1       5.145  -2.334  -6.927  0.00  0.00     0.028 H 
ENDBRANCH   6  14
ENDBRANCH   1   5
BRANCH   2  18
ATOM     18  C   LIG d   1       4.456  -0.247  -3.313  0.00  0.00     0.289 C 
ATOM     19 BR   LIG d   1       6.399  -0.346  -3.594  0.00  0.00    -0.056 Br
BRANCH  18  20
ATOM     20  C   LIG d   1       4.130   0.955  -2.423  0.00  0.00     0.422 C 
ATOM     21  F   LIG d   1       4.939   0.922  -1.282  0.00  0.00    -0.168 F 
ATOM     22  F   LIG d   1       4.369   2.138  -3.131  0.00  0.00    -0.168 F 
ATOM     23  F   LIG d   1       2.785   0.902  -2.043  0.00  0.00    -0.168 F 
ENDBRANCH  18  20
BRANCH  18  24
ATOM     24  C   LIG d   1       3.972  -1.530  -2.636  0.00  0.00     0.422 C 
ATOM     25  F   LIG d   1       2.576  -1.510  -2.539  0.00  0.00    -0.168 F 
ATOM     26  F   LIG d   1       4.371  -2.636  -3.393  0.00  0.00    -0.168 F 
ATOM     27  F   LIG d   1       4.526  -1.619  -1.354  0.00  0.00    -0.168 F 
ENDBRANCH  18  24
ENDBRANCH   2  18
TORSDOF 5
ENDMDL
MODEL 2
REMARK VINA RESULT:      -6.8      1.487      2.650
REMARK  5 active torsions:
REMARK  status: ('A' for Active; 'I' for Inactive)
REMARK    1  A    between atoms: C_1  and  C_2 
REMARK    2  A    between atoms: C_7  and  N_8 
REMARK       I    between atoms: N_8  and  C_9 
REMARK    3  A    between atoms: C_9  and  C_11 
REMARK    4  A    between atoms: C_11  and  C_12 
REMARK    5  A    between atoms: C_11  and  C_16 
ROOT
ATOM      1  N   LIG d   1       3.384  -0.264  -5.641  0.00  0.00    -0.269 N 
ATOM      2  C   LIG d   1       4.452  -0.009  -4.860  0.00  0.00     0.253 C 
ATOM      3  O   LIG d   1       5.482   0.399  -5.355  0.00  0.00    -0.273 OA
ATOM      4  H   LIG d   1       2.561  -0.591  -5.246  0.00  0.00     0.156 HD
ENDROOT
BRANCH   1   5
ATOM      5  C   LIG d   1       3.463  -0.058  -7.018  0.00  0.00     0.128 A 
ATOM      6  C   LIG d   1       3.877  -1.094  -7.847  0.00  0.00    -0.010 A 
ATOM      7  C   LIG d   1       3.944  -0.879  -9.212  0.00  0.00    -0.054 A 
ATOM      8  C   LIG d   1       3.599   0.373  -9.702  0.00  0.00    -0.043 A 
ATOM      9  H   LIG d   1       4.258  -1.667  -9.881  0.00  0.00     0.062 H 
ATOM     10  C   LIG d   1       3.202   1.359  -8.820  0.00  0.00     0.030 A 
ATOM     11  H   LIG d   1       3.641   0.574 -10.762  0.00  0.00     0.063 H 
ATOM     12  N   LIG d   1       3.147   1.124  -7.523  0.00  0.00    -0.240 NA
ATOM     13  H   LIG d   1       2.932   2.335  -9.197  0.00  0.00     0.083 H 
BRANCH   6  14
ATOM     14  C   LIG d   1       4.241  -2.437  -7.267  0.00  0.00    -0.036 C 
ATOM     15  H   LIG d   1       5.213  -2.371  -6.781  0.00  0.00     0.028 H 
ATOM     16  H   LIG d   1       3.488  -2.734  -6.536  0.00  0.00     0.028 H 
ATOM     17  H   LIG d   1       4.283  -3.178  -8.066  0.00  0.00     0.028 H 
ENDBRANCH   6  14
ENDBRANCH   1   5
BRANCH   2  18
ATOM     18  C   LIG d   1       4.368  -0.232  -3.372  0.00  0.00     0.289 C 
ATOM     19 BR   LIG d   1       2.550  -0.813  -2.898  0.00  0.00    -0.056 Br
BRANCH  18  20
ATOM     20  C   LIG d   1       5.371  -1.312  -2.960  0.00  0.00     0.422 C 
ATOM     21  F   LIG d   1       4.968  -1.885  -1.750  0.00  0.00    -0.168 F 
ATOM     22  F   LIG d   1       5.424  -2.300  -3.949  0.00  0.00    -0.168 F 
ATOM     23  F   LIG d   1       6.637  -0.738  -2.807  0.00  0.00    -0.168 F 
ENDBRANCH  18  20
BRANCH  18  24
ATOM     24  C   LIG d   1       4.694   1.072  -2.642  0.00  0.00     0.422 C 
ATOM     25  F   LIG d   1       5.983   1.491  -2.988  0.00  0.00    -0.168 F 
ATOM     26  F   LIG d   1       3.770   2.056  -3.010  0.00  0.00    -0.168 F 
ATOM     27  F   LIG d   1       4.627   0.862  -1.260  0.00  0.00    -0.168 F 
ENDBRANCH  18  24
ENDBRANCH   2  18
TORSDOF 5
ENDMDL
MODEL 3
REMARK VINA RESULT:      -6.5      1.622      2.555
REMARK  5 active torsions:
REMARK  status: ('A' for Active; 'I' for Inactive)
REMARK    1  A    between atoms: C_1  and  C_2 
REMARK    2  A    between atoms: C_7  and  N_8 
REMARK       I    between atoms: N_8  and  C_9 
REMARK    3  A    between atoms: C_9  and  C_11 
REMARK    4  A    between atoms: C_11  and  C_12 
REMARK    5  A    between atoms: C_11  and  C_16 
ROOT
ATOM      1  N   LIG d   1       5.128  -0.026  -5.761  0.00  0.00    -0.269 N 
ATOM      2  C   LIG d   1       4.571  -0.834  -4.837  0.00  0.00     0.253 C 
ATOM      3  O   LIG d   1       4.168  -1.933  -5.157  0.00  0.00    -0.273 OA
ATOM      4  H   LIG d   1       5.451   0.852  -5.506  0.00  0.00     0.156 HD
ENDROOT
BRANCH   1   5
ATOM      5  C   LIG d   1       5.239  -0.453  -7.084  0.00  0.00     0.128 A 
ATOM      6  C   LIG d   1       4.261  -0.098  -8.006  0.00  0.00    -0.010 A 
ATOM      7  C   LIG d   1       4.387  -0.523  -9.317  0.00  0.00    -0.054 A 
ATOM      8  C   LIG d   1       5.488  -1.295  -9.660  0.00  0.00    -0.043 A 
ATOM      9  H   LIG d   1       3.644  -0.259 -10.056  0.00  0.00     0.062 H 
ATOM     10  C   LIG d   1       6.418  -1.615  -8.691  0.00  0.00     0.030 A 
ATOM     11  H   LIG d   1       5.615  -1.643 -10.675  0.00  0.00     0.063 H 
ATOM     12  N   LIG d   1       6.272  -1.196  -7.449  0.00  0.00    -0.240 NA
ATOM     13  H   LIG d   1       7.277  -2.216  -8.954  0.00  0.00     0.083 H 
BRANCH   6  14
ATOM     14  C   LIG d   1       3.083   0.743  -7.585  0.00  0.00    -0.036 C 
ATOM     15  H   LIG d   1       3.349   1.325  -6.703  0.00  0.00     0.028 H 
ATOM     16  H   LIG d   1       2.809   1.416  -8.396  0.00  0.00     0.028 H 
ATOM     17  H   LIG d   1       2.239   0.093  -7.351  0.00  0.00     0.028 H 
ENDBRANCH   6  14
ENDBRANCH   1   5
BRANCH   2  18
ATOM     18  C   LIG d   1       4.451  -0.374  -3.407  0.00  0.00     0.289 C 
ATOM     19 BR   LIG d   1       5.766   1.047  -3.064  0.00  0.00    -0.056 Br
BRANCH  18  20
ATOM     20  C   LIG d   1       3.040   0.167  -3.163  0.00  0.00     0.422 C 
ATOM     21  F   LIG d   1       2.559   0.758  -4.336  0.00  0.00    -0.168 F 
ATOM     22  F   LIG d   1       2.196  -0.884  -2.790  0.00  0.00    -0.168 F 
ATOM     23  F   LIG d   1       3.077   1.121  -2.141  0.00  0.00    -0.168 F 
ENDBRANCH  18  20
BRANCH  18  24
ATOM     24  C   LIG d   1       4.716  -1.551  -2.468  0.00  0.00     0.422 C 
ATOM     25  F   LIG d   1       6.022  -2.016  -2.659  0.00  0.00    -0.168 F 
ATOM     26  F   LIG d   1       4.558  -1.135  -1.142  0.00  0.00    -0.168 F 
ATOM     27  F   LIG d   1       3.810  -2.581  -2.744  0.00  0.00    -0.168 F 
ENDBRANCH  18  24
ENDBRANCH   2  18
TORSDOF 5
ENDMDL
MODEL 4
REMARK VINA RESULT:      -6.4      1.829      2.695
REMARK  5 active torsions:
REMARK  status: ('A' for Active; 'I' for Inactive)
REMARK    1  A    between atoms: C_1  and  C_2 
REMARK    2  A    between atoms: C_7  and  N_8 
REMARK       I    between atoms: N_8  and  C_9 
REMARK    3  A    between atoms: C_9  and  C_11 
REMARK    4  A    between atoms: C_11  and  C_12 
REMARK    5  A    between atoms: C_11  and  C_16 
ROOT
ATOM      1  N   LIG d   1       4.165  -1.472  -5.637  0.00  0.00    -0.269 N 
ATOM      2  C   LIG d   1       4.738  -0.541  -4.848  0.00  0.00     0.253 C 
ATOM      3  O   LIG d   1       5.615   0.171  -5.289  0.00  0.00    -0.273 OA
ATOM      4  H   LIG d   1       3.464  -2.042  -5.284  0.00  0.00     0.156 HD
ENDROOT
BRANCH   1   5
ATOM      5  C   LIG d   1       4.582  -1.616  -6.960  0.00  0.00     0.128 A 
ATOM      6  C   LIG d   1       3.880  -0.979  -7.976  0.00  0.00    -0.010 A 
ATOM      7  C   LIG d   1       4.308  -1.125  -9.284  0.00  0.00    -0.054 A 
ATOM      8  C   LIG d   1       5.425  -1.911  -9.531  0.00  0.00    -0.043 A 
ATOM      9  H   LIG d   1       3.784  -0.638 -10.094  0.00  0.00     0.062 H 
ATOM     10  C   LIG d   1       6.070  -2.520  -8.473  0.00  0.00     0.030 A 
ATOM     11  H   LIG d   1       5.784  -2.046 -10.541  0.00  0.00     0.063 H 
ATOM     12  N   LIG d   1       5.639  -2.362  -7.237  0.00  0.00    -0.240 NA
ATOM     13  H   LIG d   1       6.940  -3.133  -8.661  0.00  0.00     0.083 H 
BRANCH   6  14
ATOM     14  C   LIG d   1       2.673  -0.135  -7.657  0.00  0.00    -0.036 C 
ATOM     15  H   LIG d   1       1.831  -0.782  -7.413  0.00  0.00     0.028 H 
ATOM     16  H   LIG d   1       2.894   0.511  -6.808  0.00  0.00     0.028 H 
ATOM     17  H   LIG d   1       2.420   0.479  -8.523  0.00  0.00     0.028 H 
ENDBRANCH   6  14
ENDBRANCH   1   5
BRANCH   2  18
ATOM     18  C   LIG d   1       4.288  -0.385  -3.418  0.00  0.00     0.289 C 
ATOM     19 BR   LIG d   1       4.063  -2.161  -2.605  0.00  0.00    -0.056 Br
BRANCH  18  20
ATOM     20  C   LIG d   1       5.340   0.404  -2.636  0.00  0.00     0.422 C 
ATOM     21  F   LIG d   1       6.587  -0.213  -2.779  0.00  0.00    -0.168 F 
ATOM     22  F   LIG d   1       5.407   1.710  -3.132  0.00  0.00    -0.168 F 
ATOM     23  F   LIG d   1       4.988   0.436  -1.283  0.00  0.00    -0.168 F 
ENDBRANCH  18  20
BRANCH  18  24
ATOM     24  C   LIG d   1       2.956   0.365  -3.382  0.00  0.00     0.422 C 
ATOM     25  F   LIG d   1       2.850   1.184  -4.512  0.00  0.00    -0.168 F 
ATOM     26  F   LIG d   1       1.902  -0.555  -3.373  0.00  0.00    -0.168 F 
ATOM     27  F   LIG d   1       2.896   1.154  -2.228  0.00  0.00    -0.168 F 
ENDBRANCH  18  24
ENDBRANCH   2  18
TORSDOF 5
ENDMDL
MODEL 5
REMARK VINA RESULT:      -6.4      1.794      2.380
REMARK  5 active torsions:
REMARK  status: ('A' for Active; 'I' for Inactive)
REMARK    1  A    between atoms: C_1  and  C_2 
REMARK    2  A    between atoms: C_7  and  N_8 
REMARK       I    between atoms: N_8  and  C_9 
REMARK    3  A    between atoms: C_9  and  C_11 
REMARK    4  A    between atoms: C_11  and  C_12 
REMARK    5  A    between atoms: C_11  and  C_16 
ROOT
ATOM      1  N   LIG d   1       4.135  -1.807  -5.372  0.00  0.00    -0.269 N 
ATOM      2  C   LIG d   1       4.724  -0.708  -4.860  0.00  0.00     0.253 C 
ATOM      3  O   LIG d   1       5.448  -0.028  -5.556  0.00  0.00    -0.273 OA
ATOM      4  H   LIG d   1       3.557  -2.351  -4.815  0.00  0.00     0.156 HD
ENDROOT
BRANCH   1   5
ATOM      5  C   LIG d   1       4.359  -2.162  -6.702  0.00  0.00     0.128 A 
ATOM      6  C   LIG d   1       5.190  -3.236  -6.996  0.00  0.00    -0.010 A 
ATOM      7  C   LIG d   1       5.399  -3.582  -8.320  0.00  0.00    -0.054 A 
ATOM      8  C   LIG d   1       4.771  -2.835  -9.306  0.00  0.00    -0.043 A 
ATOM      9  H   LIG d   1       6.037  -4.415  -8.579  0.00  0.00     0.062 H 
ATOM     10  C   LIG d   1       3.963  -1.776  -8.941  0.00  0.00     0.030 A 
ATOM     11  H   LIG d   1       4.913  -3.078 -10.349  0.00  0.00     0.063 H 
ATOM     12  N   LIG d   1       3.782  -1.470  -7.671  0.00  0.00    -0.240 NA
ATOM     13  H   LIG d   1       3.471  -1.192  -9.706  0.00  0.00     0.083 H 
BRANCH   6  14
ATOM     14  C   LIG d   1       5.850  -4.018  -5.890  0.00  0.00    -0.036 C 
ATOM     15  H   LIG d   1       6.803  -3.555  -5.636  0.00  0.00     0.028 H 
ATOM     16  H   LIG d   1       5.203  -4.023  -5.013  0.00  0.00     0.028 H 
ATOM     17  H   LIG d   1       6.021  -5.042  -6.221  0.00  0.00     0.028 H 
ENDBRANCH   6  14
ENDBRANCH   1   5
BRANCH   2  18
ATOM     18  C   LIG d   1       4.483  -0.324  -3.423  0.00  0.00     0.289 C 
ATOM     19 BR   LIG d   1       5.729   1.108  -2.909  0.00  0.00    -0.056 Br
BRANCH  18  20
ATOM     20  C   LIG d   1       3.044   0.171  -3.262  0.00  0.00     0.422 C 
ATOM     21  F   LIG d   1       2.984   1.096  -2.214  0.00  0.00    -0.168 F 
ATOM     22  F   LIG d   1       2.626   0.783  -4.449  0.00  0.00    -0.168 F 
ATOM     23  F   LIG d   1       2.207  -0.913  -2.976  0.00  0.00    -0.168 F 
ENDBRANCH  18  20
BRANCH  18  24
ATOM     24  C   LIG d   1       4.707  -1.542  -2.525  0.00  0.00     0.422 C 
ATOM     25  F   LIG d   1       4.511  -1.178  -1.188  0.00  0.00    -0.168 F 
ATOM     26  F   LIG d   1       3.801  -2.550  -2.871  0.00  0.00    -0.168 F 
ATOM     27  F   LIG d   1       6.014  -2.011  -2.693  0.00  0.00    -0.168 F 
ENDBRANCH  18  24
ENDBRANCH   2  18
TORSDOF 5
ENDMDL
MODEL 6
REMARK VINA RESULT:      -6.4      3.286      4.689
REMARK  5 active torsions:
REMARK  status: ('A' for Active; 'I' for Inactive)
REMARK    1  A    between atoms: C_1  and  C_2 
REMARK    2  A    between atoms: C_7  and  N_8 
REMARK       I    between atoms: N_8  and  C_9 
REMARK    3  A    between atoms: C_9  and  C_11 
REMARK    4  A    between atoms: C_11  and  C_12 
REMARK    5  A    between atoms: C_11  and  C_16 
ROOT
ATOM      1  N   LIG d   1       6.175   0.096  -4.949  0.00  0.00    -0.269 N 
ATOM      2  C   LIG d   1       5.764  -0.415  -3.771  0.00  0.00     0.253 C 
ATOM      3  O   LIG d   1       6.537  -1.044  -3.080  0.00  0.00    -0.273 OA
ATOM      4  H   LIG d   1       5.556   0.599  -5.502  0.00  0.00     0.156 HD
ENDROOT
BRANCH   1   5
ATOM      5  C   LIG d   1       7.489  -0.099  -5.372  0.00  0.00     0.128 A 
ATOM      6  C   LIG d   1       8.446   0.876  -5.116  0.00  0.00    -0.010 A 
ATOM      7  C   LIG d   1       9.749   0.666  -5.536  0.00  0.00    -0.054 A 
ATOM      8  C   LIG d   1      10.047  -0.512  -6.205  0.00  0.00    -0.043 A 
ATOM      9  H   LIG d   1      10.515   1.405  -5.348  0.00  0.00     0.062 H 
ATOM     10  C   LIG d   1       9.044  -1.434  -6.431  0.00  0.00     0.030 A 
ATOM     11  H   LIG d   1      11.053  -0.706  -6.547  0.00  0.00     0.063 H 
ATOM     12  N   LIG d   1       7.812  -1.208  -6.019  0.00  0.00    -0.240 NA
ATOM     13  H   LIG d   1       9.272  -2.354  -6.951  0.00  0.00     0.083 H 
BRANCH   6  14
ATOM     14  C   LIG d   1       8.074   2.140  -4.386  0.00  0.00    -0.036 C 
ATOM     15  H   LIG d   1       8.977   2.634  -4.031  0.00  0.00     0.028 H 
ATOM     16  H   LIG d   1       7.536   2.805  -5.061  0.00  0.00     0.028 H 
ATOM     17  H   LIG d   1       7.436   1.893  -3.536  0.00  0.00     0.028 H 
ENDBRANCH   6  14
ENDBRANCH   1   5
BRANCH   2  18
ATOM     18  C   LIG d   1       4.344  -0.204  -3.313  0.00  0.00     0.289 C 
ATOM     19 BR   LIG d   1       3.207   0.197  -4.866  0.00  0.00    -0.056 Br
BRANCH  18  20
ATOM     20  C   LIG d   1       3.837  -1.474  -2.624  0.00  0.00     0.422 C 
ATOM     21  F   LIG d   1       4.150  -2.587  -3.411  0.00  0.00    -0.168 F 
ATOM     22  F   LIG d   1       4.449  -1.600  -1.373  0.00  0.00    -0.168 F 
ATOM     23  F   LIG d   1       2.450  -1.393  -2.460  0.00  0.00    -0.168 F 
ENDBRANCH  18  20
BRANCH  18  24
ATOM     24  C   LIG d   1       4.293   0.965  -2.329  0.00  0.00     0.422 C 
ATOM     25  F   LIG d   1       4.758   0.543  -1.078  0.00  0.00    -0.168 F 
ATOM     26  F   LIG d   1       5.102   2.006  -2.799  0.00  0.00    -0.168 F 
ATOM     27  F   LIG d   1       2.975   1.417  -2.207  0.00  0.00    -0.168 F 
ENDBRANCH  18  24
ENDBRANCH   2  18
TORSDOF 5
ENDMDL
MODEL 7
REMARK VINA RESULT:      -6.2      1.788      2.320
REMARK  5 active torsions:
REMARK  status: ('A' for Active; 'I' for Inactive)
REMARK    1  A    between atoms: C_1  and  C_2 
REMARK    2  A    between atoms: C_7  and  N_8 
REMARK       I    between atoms: N_8  and  C_9 
REMARK    3  A    between atoms: C_9  and  C_11 
REMARK    4  A    between atoms: C_11  and  C_12 
REMARK    5  A    between atoms: C_11  and  C_16 
ROOT
ATOM      1  N   LIG d   1       4.428  -0.926  -6.314  0.00  0.00    -0.269 N 
ATOM      2  C   LIG d   1       4.333  -0.488  -5.043  0.00  0.00     0.253 C 
ATOM      3  O   LIG d   1       3.961   0.645  -4.818  0.00  0.00    -0.273 OA
ATOM      4  H   LIG d   1       4.725  -1.832  -6.494  0.00  0.00     0.156 HD
ENDROOT
BRANCH   1   5
ATOM      5  C   LIG d   1       4.100  -0.077  -7.371  0.00  0.00     0.128 A 
ATOM      6  C   LIG d   1       5.107   0.607  -8.041  0.00  0.00    -0.010 A 
ATOM      7  C   LIG d   1       4.769   1.442  -9.092  0.00  0.00    -0.054 A 
ATOM      8  C   LIG d   1       3.430   1.568  -9.433  0.00  0.00    -0.043 A 
ATOM      9  H   LIG d   1       5.531   1.983  -9.635  0.00  0.00     0.062 H 
ATOM     10  C   LIG d   1       2.481   0.863  -8.718  0.00  0.00     0.030 A 
ATOM     11  H   LIG d   1       3.132   2.212 -10.247  0.00  0.00     0.063 H 
ATOM     12  N   LIG d   1       2.834   0.074  -7.721  0.00  0.00    -0.240 NA
ATOM     13  H   LIG d   1       1.437   0.958  -8.980  0.00  0.00     0.083 H 
BRANCH   6  14
ATOM     14  C   LIG d   1       6.549   0.437  -7.635  0.00  0.00    -0.036 C 
ATOM     15  H   LIG d   1       7.194   0.900  -8.380  0.00  0.00     0.028 H 
ATOM     16  H   LIG d   1       6.712   0.912  -6.667  0.00  0.00     0.028 H 
ATOM     17  H   LIG d   1       6.782  -0.626  -7.561  0.00  0.00     0.028 H 
ENDBRANCH   6  14
ENDBRANCH   1   5
BRANCH   2  18
ATOM     18  C   LIG d   1       4.687  -1.406  -3.901  0.00  0.00     0.289 C 
ATOM     19 BR   LIG d   1       4.854  -3.248  -4.568  0.00  0.00    -0.056 Br
BRANCH  18  20
ATOM     20  C   LIG d   1       6.017  -0.964  -3.286  0.00  0.00     0.422 C 
ATOM     21  F   LIG d   1       6.966  -0.796  -4.300  0.00  0.00    -0.168 F 
ATOM     22  F   LIG d   1       5.838   0.248  -2.610  0.00  0.00    -0.168 F 
ATOM     23  F   LIG d   1       6.462  -1.939  -2.388  0.00  0.00    -0.168 F 
ENDBRANCH  18  20
BRANCH  18  24
ATOM     24  C   LIG d   1       3.588  -1.345  -2.839  0.00  0.00     0.422 C 
ATOM     25  F   LIG d   1       2.349  -1.152  -3.459  0.00  0.00    -0.168 F 
ATOM     26  F   LIG d   1       3.567  -2.546  -2.121  0.00  0.00    -0.168 F 
ATOM     27  F   LIG d   1       3.842  -0.283  -1.965  0.00  0.00    -0.168 F 
ENDBRANCH  18  24
ENDBRANCH   2  18
TORSDOF 5
ENDMDL
MODEL 8
REMARK VINA RESULT:      -6.2      3.960      6.045
REMARK  5 active torsions:
REMARK  status: ('A' for Active; 'I' for Inactive)
REMARK    1  A    between atoms: C_1  and  C_2 
REMARK    2  A    between atoms: C_7  and  N_8 
REMARK       I    between atoms: N_8  and  C_9 
REMARK    3  A    between atoms: C_9  and  C_11 
REMARK    4  A    between atoms: C_11  and  C_12 
REMARK    5  A    between atoms: C_11  and  C_16 
ROOT
ATOM      1  N   LIG d   1       4.563  -0.104  -6.340  0.00  0.00    -0.269 N 
ATOM      2  C   LIG d   1       3.569   0.093  -7.229  0.00  0.00     0.253 C 
ATOM      3  O   LIG d   1       2.413   0.062  -6.862  0.00  0.00    -0.273 OA
ATOM      4  H   LIG d   1       5.488  -0.080  -6.633  0.00  0.00     0.156 HD
ENDROOT
BRANCH   1   5
ATOM      5  C   LIG d   1       4.262  -0.344  -5.000  0.00  0.00     0.128 A 
ATOM      6  C   LIG d   1       4.350  -1.636  -4.495  0.00  0.00    -0.010 A 
ATOM      7  C   LIG d   1       4.055  -1.858  -3.161  0.00  0.00    -0.054 A 
ATOM      8  C   LIG d   1       3.676  -0.778  -2.378  0.00  0.00    -0.043 A 
ATOM      9  H   LIG d   1       4.119  -2.852  -2.740  0.00  0.00     0.062 H 
ATOM     10  C   LIG d   1       3.604   0.478  -2.947  0.00  0.00     0.030 A 
ATOM     11  H   LIG d   1       3.439  -0.918  -1.333  0.00  0.00     0.063 H 
ATOM     12  N   LIG d   1       3.891   0.660  -4.222  0.00  0.00    -0.240 NA
ATOM     13  H   LIG d   1       3.309   1.323  -2.341  0.00  0.00     0.083 H 
BRANCH   6  14
ATOM     14  C   LIG d   1       4.768  -2.777  -5.386  0.00  0.00    -0.036 C 
ATOM     15  H   LIG d   1       5.834  -2.962  -5.265  0.00  0.00     0.028 H 
ATOM     16  H   LIG d   1       4.210  -3.673  -5.113  0.00  0.00     0.028 H 
ATOM     17  H   LIG d   1       4.559  -2.521  -6.425  0.00  0.00     0.028 H 
ENDBRANCH   6  14
ENDBRANCH   1   5
BRANCH   2  18
ATOM     18  C   LIG d   1       3.894   0.351  -8.678  0.00  0.00     0.289 C 
ATOM     19 BR   LIG d   1       5.713  -0.286  -9.066  0.00  0.00    -0.056 Br
BRANCH  18  20
ATOM     20  C   LIG d   1       2.893  -0.392  -9.565  0.00  0.00     0.422 C 
ATOM     21  F   LIG d   1       2.678  -1.675  -9.050  0.00  0.00    -0.168 F 
ATOM     22  F   LIG d   1       1.682   0.309  -9.591  0.00  0.00    -0.168 F 
ATOM     23  F   LIG d   1       3.403  -0.490 -10.863  0.00  0.00    -0.168 F 
ENDBRANCH  18  20
BRANCH  18  24
ATOM     24  C   LIG d   1       3.809   1.852  -8.959  0.00  0.00     0.422 C 
ATOM     25  F   LIG d   1       2.874   2.437  -8.097  0.00  0.00    -0.168 F 
ATOM     26  F   LIG d   1       5.063   2.438  -8.753  0.00  0.00    -0.168 F 
ATOM     27  F   LIG d   1       3.411   2.057 -10.285  0.00  0.00    -0.168 F 
ENDBRANCH  18  24
ENDBRANCH   2  18
TORSDOF 5
ENDMDL
MODEL 9
REMARK VINA RESULT:      -6.1      3.763      6.080
REMARK  5 active torsions:
REMARK  status: ('A' for Active; 'I' for Inactive)
REMARK    1  A    between atoms: C_1  and  C_2 
REMARK    2  A    between atoms: C_7  and  N_8 
REMARK       I    between atoms: N_8  and  C_9 
REMARK    3  A    between atoms: C_9  and  C_11 
REMARK    4  A    between atoms: C_11  and  C_12 
REMARK    5  A    between atoms: C_11  and  C_16 
ROOT
ATOM      1  N   LIG d   1       3.432  -0.646  -6.180  0.00  0.00    -0.269 N 
ATOM      2  C   LIG d   1       4.387  -0.141  -6.985  0.00  0.00     0.253 C 
ATOM      3  O   LIG d   1       5.460   0.185  -6.522  0.00  0.00    -0.273 OA
ATOM      4  H   LIG d   1       2.574  -0.906  -6.551  0.00  0.00     0.156 HD
ENDROOT
BRANCH   1   5
ATOM      5  C   LIG d   1       3.677  -0.794  -4.815  0.00  0.00     0.128 A 
ATOM      6  C   LIG d   1       3.262   0.194  -3.931  0.00  0.00    -0.010 A 
ATOM      7  C   LIG d   1       3.505   0.031  -2.578  0.00  0.00    -0.054 A 
ATOM      8  C   LIG d   1       4.163  -1.116  -2.157  0.00  0.00    -0.043 A 
ATOM      9  H   LIG d   1       3.191   0.781  -1.866  0.00  0.00     0.062 H 
ATOM     10  C   LIG d   1       4.552  -2.054  -3.093  0.00  0.00     0.030 A 
ATOM     11  H   LIG d   1       4.368  -1.273  -1.109  0.00  0.00     0.063 H 
ATOM     12  N   LIG d   1       4.306  -1.872  -4.376  0.00  0.00    -0.240 NA
ATOM     13  H   LIG d   1       5.064  -2.949  -2.769  0.00  0.00     0.083 H 
BRANCH   6  14
ATOM     14  C   LIG d   1       2.551   1.423  -4.437  0.00  0.00    -0.036 C 
ATOM     15  H   LIG d   1       1.589   1.137  -4.860  0.00  0.00     0.028 H 
ATOM     16  H   LIG d   1       2.393   2.117  -3.611  0.00  0.00     0.028 H 
ATOM     17  H   LIG d   1       3.158   1.903  -5.204  0.00  0.00     0.028 H 
ENDBRANCH   6  14
ENDBRANCH   1   5
BRANCH   2  18
ATOM     18  C   LIG d   1       4.123   0.020  -8.460  0.00  0.00     0.289 C 
ATOM     19 BR   LIG d   1       5.765  -0.377  -9.467  0.00  0.00    -0.056 Br
BRANCH  18  20
ATOM     20  C   LIG d   1       3.016  -0.947  -8.888  0.00  0.00     0.422 C 
ATOM     21  F   LIG d   1       3.239  -2.198  -8.303  0.00  0.00    -0.168 F 
ATOM     22  F   LIG d   1       1.777  -0.450  -8.470  0.00  0.00    -0.168 F 
ATOM     23  F   LIG d   1       3.022  -1.075 -10.281  0.00  0.00    -0.168 F 
ENDBRANCH  18  20
BRANCH  18  24
ATOM     24  C   LIG d   1       3.684   1.457  -8.746  0.00  0.00     0.422 C 
ATOM     25  F   LIG d   1       4.808   2.290  -8.782  0.00  0.00    -0.168 F 
ATOM     26  F   LIG d   1       3.027   1.508  -9.980  0.00  0.00    -0.168 F 
ATOM     27  F   LIG d   1       2.817   1.890  -7.738  0.00  0.00    -0.168 F 
ENDBRANCH  18  24
ENDBRANCH   2  18
TORSDOF 5
ENDMDL
