MODEL 1
REMARK VINA RESULT:      -7.6      0.000      0.000
REMARK  5 active torsions:
REMARK  status: ('A' for Active; 'I' for Inactive)
REMARK    1  A    between atoms: C_1  and  C_2 
REMARK    2  A    between atoms: C_6  and  N_8 
REMARK    3  A    between atoms: C_19  and  C_22 
REMARK    4  A    between atoms: C_20  and  C_21 
REMARK    5  A    between atoms: C_22  and  C_23 
ROOT
ATOM      1  N   LIG d   1       4.363  -8.193  -5.982  0.00  0.00    -0.293 NA
ATOM      2  C   LIG d   1       5.143  -6.977  -5.705  0.00  0.00     0.047 C 
ATOM      3  C   LIG d   1       4.706  -5.874  -6.634  0.00  0.00     0.054 A 
ATOM      4  C   LIG d   1       3.988  -6.155  -7.783  0.00  0.00     0.131 A 
ATOM      5  C   LIG d   1       3.596  -5.125  -8.640  0.00  0.00    -0.019 A 
ATOM      6  C   LIG d   1       3.912  -3.830  -8.355  0.00  0.00    -0.047 A 
ATOM      7  C   LIG d   1       4.634  -3.529  -7.196  0.00  0.00     0.021 A 
ATOM      8  C   LIG d   1       5.035  -4.559  -6.328  0.00  0.00     0.147 A 
ATOM      9  O   LIG d   1       5.731  -4.280  -5.208  0.00  0.00    -0.421 OA
ATOM     10  C   LIG d   1       6.050  -3.015  -4.911  0.00  0.00     0.341 A 
ATOM     11  O   LIG d   1       6.680  -2.796  -3.892  0.00  0.00    -0.245 OA
ATOM     12  C   LIG d   1       5.689  -1.925  -5.726  0.00  0.00     0.045 A 
ATOM     13  C   LIG d   1       4.986  -2.144  -6.869  0.00  0.00    -0.029 A 
ATOM     14  O   LIG d   1       3.655  -7.435  -8.097  0.00  0.00    -0.473 OA
ATOM     15  C   LIG d   1       4.364  -8.478  -7.426  0.00  0.00     0.157 C 
ATOM     16  H   LIG d   1       4.980  -6.669  -4.672  0.00  0.00     0.052 H 
ATOM     17  H   LIG d   1       6.202  -7.184  -5.859  0.00  0.00     0.052 H 
ATOM     18  H   LIG d   1       3.038  -5.358  -9.535  0.00  0.00     0.065 H 
ATOM     19  H   LIG d   1       3.604  -3.039  -9.023  0.00  0.00     0.063 H 
ATOM     20  H   LIG d   1       5.391  -8.515  -7.790  0.00  0.00     0.091 H 
ATOM     21  H   LIG d   1       3.873  -9.433  -7.611  0.00  0.00     0.091 H 
ENDROOT
BRANCH   1  22
ATOM     22  C   LIG d   1       4.856  -9.280  -5.256  0.00  0.00     0.033 A 
ATOM     23  C   LIG d   1       4.482 -10.573  -5.599  0.00  0.00    -0.041 A 
ATOM     24  C   LIG d   1       4.977 -11.646  -4.884  0.00  0.00    -0.060 A 
ATOM     25  H   LIG d   1       3.809 -10.739  -6.428  0.00  0.00     0.064 H 
ATOM     26  C   LIG d   1       5.833 -11.433  -3.820  0.00  0.00    -0.059 A 
ATOM     27  H   LIG d   1       4.691 -12.651  -5.153  0.00  0.00     0.062 H 
ATOM     28  C   LIG d   1       6.208 -10.147  -3.475  0.00  0.00    -0.049 A 
ATOM     29  H   LIG d   1       6.215 -12.273  -3.259  0.00  0.00     0.062 H 
ATOM     30  C   LIG d   1       5.721  -9.070  -4.190  0.00  0.00    -0.038 A 
ATOM     31  H   LIG d   1       6.013  -8.066  -3.921  0.00  0.00     0.064 H 
BRANCH  28  32
ATOM     32  C   LIG d   1       7.146  -9.920  -2.318  0.00  0.00    -0.040 C 
ATOM     33  H   LIG d   1       6.949 -10.658  -1.541  0.00  0.00     0.028 H 
ATOM     34  H   LIG d   1       8.176 -10.019  -2.661  0.00  0.00     0.028 H 
ATOM     35  H   LIG d   1       6.992  -8.919  -1.915  0.00  0.00     0.028 H 
ENDBRANCH  28  32
ENDBRANCH   1  22
BRANCH  13  36
ATOM     36  C   LIG d   1       4.581  -1.004  -7.766  0.00  0.00    -0.038 C 
ATOM     37  H   LIG d   1       5.450  -0.648  -8.318  0.00  0.00     0.028 H 
ATOM     38  H   LIG d   1       3.820  -1.345  -8.468  0.00  0.00     0.028 H 
ATOM     39  H   LIG d   1       4.177  -0.191  -7.161  0.00  0.00     0.028 H 
ENDBRANCH  13  36
BRANCH  12  40
ATOM     40  C   LIG d   1       6.080  -0.524  -5.335  0.00  0.00     0.005 C 
ATOM     41  H   LIG d   1       7.118  -0.515  -5.002  0.00  0.00     0.036 H 
ATOM     42  H   LIG d   1       5.968   0.139  -6.194  0.00  0.00     0.036 H 
BRANCH  40  43
ATOM     43  C   LIG d   1       5.190  -0.048  -4.216  0.00  0.00    -0.043 A 
ATOM     44  C   LIG d   1       3.819  -0.207  -4.307  0.00  0.00    -0.058 A 
ATOM     45  C   LIG d   1       3.003   0.229  -3.280  0.00  0.00    -0.061 A 
ATOM     46  H   LIG d   1       3.387  -0.672  -5.180  0.00  0.00     0.062 H 
ATOM     47  C   LIG d   1       3.556   0.823  -2.162  0.00  0.00    -0.062 A 
ATOM     48  H   LIG d   1       1.932   0.104  -3.352  0.00  0.00     0.062 H 
ATOM     49  C   LIG d   1       4.927   0.982  -2.070  0.00  0.00    -0.061 A 
ATOM     50  H   LIG d   1       2.919   1.164  -1.359  0.00  0.00     0.062 H 
ATOM     51  C   LIG d   1       5.744   0.541  -3.095  0.00  0.00    -0.058 A 
ATOM     52  H   LIG d   1       5.359   1.446  -1.196  0.00  0.00     0.062 H 
ATOM     53  H   LIG d   1       6.815   0.661  -3.022  0.00  0.00     0.062 H 
ENDBRANCH  40  43
ENDBRANCH  12  40
TORSDOF 5
ENDMDL
MODEL 2
REMARK VINA RESULT:      -7.4      6.673     10.022
REMARK  5 active torsions:
REMARK  status: ('A' for Active; 'I' for Inactive)
REMARK    1  A    between atoms: C_1  and  C_2 
REMARK    2  A    between atoms: C_6  and  N_8 
REMARK    3  A    between atoms: C_19  and  C_22 
REMARK    4  A    between atoms: C_20  and  C_21 
REMARK    5  A    between atoms: C_22  and  C_23 
ROOT
ATOM      1  N   LIG d   1       6.668   1.192  -4.554  0.00  0.00    -0.293 NA
ATOM      2  C   LIG d   1       7.734   1.887  -3.819  0.00  0.00     0.047 C 
ATOM      3  C   LIG d   1       8.694   2.517  -4.796  0.00  0.00     0.054 A 
ATOM      4  C   LIG d   1       8.724   2.115  -6.120  0.00  0.00     0.131 A 
ATOM      5  C   LIG d   1       9.623   2.700  -7.014  0.00  0.00    -0.019 A 
ATOM      6  C   LIG d   1      10.481   3.674  -6.596  0.00  0.00    -0.047 A 
ATOM      7  C   LIG d   1      10.460   4.093  -5.262  0.00  0.00     0.021 A 
ATOM      8  C   LIG d   1       9.559   3.509  -4.354  0.00  0.00     0.147 A 
ATOM      9  O   LIG d   1       9.532   3.906  -3.066  0.00  0.00    -0.421 OA
ATOM     10  C   LIG d   1      10.365   4.860  -2.637  0.00  0.00     0.341 A 
ATOM     11  O   LIG d   1      10.314   5.196  -1.467  0.00  0.00    -0.245 OA
ATOM     12  C   LIG d   1      11.297   5.495  -3.479  0.00  0.00     0.045 A 
ATOM     13  C   LIG d   1      11.372   5.138  -4.789  0.00  0.00    -0.029 A 
ATOM     14  O   LIG d   1       7.883   1.148  -6.572  0.00  0.00    -0.473 OA
ATOM     15  C   LIG d   1       7.250   0.324  -5.591  0.00  0.00     0.157 C 
ATOM     16  H   LIG d   1       7.296   2.663  -3.191  0.00  0.00     0.052 H 
ATOM     17  H   LIG d   1       8.269   1.173  -3.194  0.00  0.00     0.052 H 
ATOM     18  H   LIG d   1       9.639   2.377  -8.045  0.00  0.00     0.065 H 
ATOM     19  H   LIG d   1      11.173   4.121  -7.294  0.00  0.00     0.063 H 
ATOM     20  H   LIG d   1       7.987  -0.340  -5.140  0.00  0.00     0.091 H 
ATOM     21  H   LIG d   1       6.461  -0.264  -6.060  0.00  0.00     0.091 H 
ENDROOT
BRANCH   1  22
ATOM     22  C   LIG d   1       5.857   0.458  -3.684  0.00  0.00     0.033 A 
ATOM     23  C   LIG d   1       5.369   1.047  -2.525  0.00  0.00    -0.041 A 
ATOM     24  C   LIG d   1       4.562   0.322  -1.670  0.00  0.00    -0.060 A 
ATOM     25  H   LIG d   1       5.616   2.074  -2.295  0.00  0.00     0.064 H 
ATOM     26  C   LIG d   1       4.251  -0.993  -1.962  0.00  0.00    -0.059 A 
ATOM     27  H   LIG d   1       4.178   0.781  -0.772  0.00  0.00     0.062 H 
ATOM     28  C   LIG d   1       4.735  -1.583  -3.115  0.00  0.00    -0.049 A 
ATOM     29  H   LIG d   1       3.624  -1.560  -1.289  0.00  0.00     0.062 H 
ATOM     30  C   LIG d   1       5.538  -0.861  -3.977  0.00  0.00    -0.038 A 
ATOM     31  H   LIG d   1       5.916  -1.322  -4.877  0.00  0.00     0.064 H 
BRANCH  28  32
ATOM     32  C   LIG d   1       4.389  -3.015  -3.431  0.00  0.00    -0.040 C 
ATOM     33  H   LIG d   1       3.331  -3.085  -3.682  0.00  0.00     0.028 H 
ATOM     34  H   LIG d   1       4.986  -3.356  -4.277  0.00  0.00     0.028 H 
ATOM     35  H   LIG d   1       4.598  -3.640  -2.563  0.00  0.00     0.028 H 
ENDBRANCH  28  32
ENDBRANCH   1  22
BRANCH  13  36
ATOM     36  C   LIG d   1      12.357   5.794  -5.721  0.00  0.00    -0.038 C 
ATOM     37  H   LIG d   1      11.826   6.213  -6.575  0.00  0.00     0.028 H 
ATOM     38  H   LIG d   1      12.881   6.591  -5.193  0.00  0.00     0.028 H 
ATOM     39  H   LIG d   1      13.078   5.053  -6.069  0.00  0.00     0.028 H 
ENDBRANCH  13  36
BRANCH  12  40
ATOM     40  C   LIG d   1      12.208   6.564  -2.933  0.00  0.00     0.005 C 
ATOM     41  H   LIG d   1      12.607   6.244  -1.970  0.00  0.00     0.036 H 
ATOM     42  H   LIG d   1      13.029   6.734  -3.629  0.00  0.00     0.036 H 
BRANCH  40  43
ATOM     43  C   LIG d   1      11.430   7.842  -2.754  0.00  0.00    -0.043 A 
ATOM     44  C   LIG d   1      11.343   8.430  -1.506  0.00  0.00    -0.058 A 
ATOM     45  C   LIG d   1      10.630   9.603  -1.342  0.00  0.00    -0.061 A 
ATOM     46  H   LIG d   1      11.831   7.973  -0.659  0.00  0.00     0.062 H 
ATOM     47  C   LIG d   1      10.005  10.189  -2.426  0.00  0.00    -0.062 A 
ATOM     48  H   LIG d   1      10.562  10.062  -0.366  0.00  0.00     0.062 H 
ATOM     49  C   LIG d   1      10.093   9.602  -3.676  0.00  0.00    -0.061 A 
ATOM     50  H   LIG d   1       9.447  11.105  -2.299  0.00  0.00     0.062 H 
ATOM     51  C   LIG d   1      10.810   8.432  -3.840  0.00  0.00    -0.058 A 
ATOM     52  H   LIG d   1       9.604  10.061  -4.522  0.00  0.00     0.062 H 
ATOM     53  H   LIG d   1      10.882   7.975  -4.816  0.00  0.00     0.062 H 
ENDBRANCH  40  43
ENDBRANCH  12  40
TORSDOF 5
ENDMDL
MODEL 3
REMARK VINA RESULT:      -7.3      6.262     11.279
REMARK  5 active torsions:
REMARK  status: ('A' for Active; 'I' for Inactive)
REMARK    1  A    between atoms: C_1  and  C_2 
REMARK    2  A    between atoms: C_6  and  N_8 
REMARK    3  A    between atoms: C_19  and  C_22 
REMARK    4  A    between atoms: C_20  and  C_21 
REMARK    5  A    between atoms: C_22  and  C_23 
ROOT
ATOM      1  N   LIG d   1      10.384   5.355  -3.581  0.00  0.00    -0.293 NA
ATOM      2  C   LIG d   1       9.326   4.340  -3.483  0.00  0.00     0.047 C 
ATOM      3  C   LIG d   1       9.163   3.648  -4.812  0.00  0.00     0.054 A 
ATOM      4  C   LIG d   1       9.669   4.210  -5.971  0.00  0.00     0.131 A 
ATOM      5  C   LIG d   1       9.505   3.563  -7.198  0.00  0.00    -0.019 A 
ATOM      6  C   LIG d   1       8.848   2.371  -7.271  0.00  0.00    -0.047 A 
ATOM      7  C   LIG d   1       8.334   1.789  -6.108  0.00  0.00     0.021 A 
ATOM      8  C   LIG d   1       8.492   2.432  -4.867  0.00  0.00     0.147 A 
ATOM      9  O   LIG d   1       8.001   1.880  -3.740  0.00  0.00    -0.421 OA
ATOM     10  C   LIG d   1       7.353   0.710  -3.791  0.00  0.00     0.341 A 
ATOM     11  O   LIG d   1       6.922   0.238  -2.755  0.00  0.00    -0.245 OA
ATOM     12  C   LIG d   1       7.150   0.001  -4.990  0.00  0.00     0.045 A 
ATOM     13  C   LIG d   1       7.623   0.508  -6.159  0.00  0.00    -0.029 A 
ATOM     14  O   LIG d   1      10.330   5.396  -5.936  0.00  0.00    -0.473 OA
ATOM     15  C   LIG d   1      10.167   6.200  -4.766  0.00  0.00     0.157 C 
ATOM     16  H   LIG d   1       9.596   3.606  -2.723  0.00  0.00     0.052 H 
ATOM     17  H   LIG d   1       8.387   4.820  -3.207  0.00  0.00     0.052 H 
ATOM     18  H   LIG d   1       9.902   4.013  -8.097  0.00  0.00     0.065 H 
ATOM     19  H   LIG d   1       8.726   1.878  -8.224  0.00  0.00     0.063 H 
ATOM     20  H   LIG d   1       9.157   6.610  -4.743  0.00  0.00     0.091 H 
ATOM     21  H   LIG d   1      10.894   7.012  -4.775  0.00  0.00     0.091 H 
ENDROOT
BRANCH   1  22
ATOM     22  C   LIG d   1      10.446   6.128  -2.419  0.00  0.00     0.033 A 
ATOM     23  C   LIG d   1      10.239   7.499  -2.483  0.00  0.00    -0.041 A 
ATOM     24  C   LIG d   1      10.293   8.259  -1.332  0.00  0.00    -0.060 A 
ATOM     25  H   LIG d   1      10.029   7.970  -3.433  0.00  0.00     0.064 H 
ATOM     26  C   LIG d   1      10.567   7.658  -0.118  0.00  0.00    -0.059 A 
ATOM     27  H   LIG d   1      10.127   9.325  -1.381  0.00  0.00     0.062 H 
ATOM     28  C   LIG d   1      10.775   6.292  -0.049  0.00  0.00    -0.049 A 
ATOM     29  H   LIG d   1      10.615   8.255   0.781  0.00  0.00     0.062 H 
ATOM     30  C   LIG d   1      10.715   5.526  -1.197  0.00  0.00    -0.038 A 
ATOM     31  H   LIG d   1      10.878   4.459  -1.144  0.00  0.00     0.064 H 
BRANCH  28  32
ATOM     32  C   LIG d   1      11.067   5.640   1.277  0.00  0.00    -0.040 C 
ATOM     33  H   LIG d   1      11.602   6.342   1.916  0.00  0.00     0.028 H 
ATOM     34  H   LIG d   1      10.131   5.353   1.755  0.00  0.00     0.028 H 
ATOM     35  H   LIG d   1      11.681   4.753   1.119  0.00  0.00     0.028 H 
ENDBRANCH  28  32
ENDBRANCH   1  22
BRANCH  13  36
ATOM     36  C   LIG d   1       7.426  -0.222  -7.463  0.00  0.00    -0.038 C 
ATOM     37  H   LIG d   1       6.512   0.129  -7.942  0.00  0.00     0.028 H 
ATOM     38  H   LIG d   1       8.276  -0.032  -8.118  0.00  0.00     0.028 H 
ATOM     39  H   LIG d   1       7.348  -1.293  -7.271  0.00  0.00     0.028 H 
ENDBRANCH  13  36
BRANCH  12  40
ATOM     40  C   LIG d   1       6.412  -1.312  -4.978  0.00  0.00     0.005 C 
ATOM     41  H   LIG d   1       6.296  -1.673  -6.001  0.00  0.00     0.036 H 
ATOM     42  H   LIG d   1       6.976  -2.042  -4.397  0.00  0.00     0.036 H 
BRANCH  40  43
ATOM     43  C   LIG d   1       5.053  -1.119  -4.357  0.00  0.00    -0.043 A 
ATOM     44  C   LIG d   1       4.167  -0.209  -4.901  0.00  0.00    -0.058 A 
ATOM     45  C   LIG d   1       2.920  -0.032  -4.331  0.00  0.00    -0.061 A 
ATOM     46  H   LIG d   1       4.448   0.365  -5.772  0.00  0.00     0.062 H 
ATOM     47  C   LIG d   1       2.559  -0.765  -3.217  0.00  0.00    -0.062 A 
ATOM     48  H   LIG d   1       2.228   0.681  -4.757  0.00  0.00     0.062 H 
ATOM     49  C   LIG d   1       3.445  -1.677  -2.673  0.00  0.00    -0.061 A 
ATOM     50  H   LIG d   1       1.585  -0.627  -2.771  0.00  0.00     0.062 H 
ATOM     51  C   LIG d   1       4.690  -1.857  -3.246  0.00  0.00    -0.058 A 
ATOM     52  H   LIG d   1       3.162  -2.250  -1.802  0.00  0.00     0.062 H 
ATOM     53  H   LIG d   1       5.380  -2.572  -2.823  0.00  0.00     0.062 H 
ENDBRANCH  40  43
ENDBRANCH  12  40
TORSDOF 5
ENDMDL
MODEL 4
REMARK VINA RESULT:      -7.3      6.692     10.089
REMARK  5 active torsions:
REMARK  status: ('A' for Active; 'I' for Inactive)
REMARK    1  A    between atoms: C_1  and  C_2 
REMARK    2  A    between atoms: C_6  and  N_8 
REMARK    3  A    between atoms: C_19  and  C_22 
REMARK    4  A    between atoms: C_20  and  C_21 
REMARK    5  A    between atoms: C_22  and  C_23 
ROOT
ATOM      1  N   LIG d   1       6.605   1.143  -4.587  0.00  0.00    -0.293 NA
ATOM      2  C   LIG d   1       7.688   1.851  -3.889  0.00  0.00     0.047 C 
ATOM      3  C   LIG d   1       8.624   2.463  -4.899  0.00  0.00     0.054 A 
ATOM      4  C   LIG d   1       8.623   2.040  -6.216  0.00  0.00     0.131 A 
ATOM      5  C   LIG d   1       9.501   2.610  -7.142  0.00  0.00    -0.019 A 
ATOM      6  C   LIG d   1      10.367   3.590  -6.760  0.00  0.00    -0.047 A 
ATOM      7  C   LIG d   1      10.378   4.031  -5.433  0.00  0.00     0.021 A 
ATOM      8  C   LIG d   1       9.500   3.463  -4.494  0.00  0.00     0.147 A 
ATOM      9  O   LIG d   1       9.502   3.881  -3.212  0.00  0.00    -0.421 OA
ATOM     10  C   LIG d   1      10.345   4.843  -2.820  0.00  0.00     0.341 A 
ATOM     11  O   LIG d   1      10.322   5.198  -1.655  0.00  0.00    -0.245 OA
ATOM     12  C   LIG d   1      11.257   5.463  -3.695  0.00  0.00     0.045 A 
ATOM     13  C   LIG d   1      11.301   5.084  -4.999  0.00  0.00    -0.029 A 
ATOM     14  O   LIG d   1       7.772   1.065  -6.632  0.00  0.00    -0.473 OA
ATOM     15  C   LIG d   1       7.162   0.258  -5.622  0.00  0.00     0.157 C 
ATOM     16  H   LIG d   1       7.265   2.637  -3.263  0.00  0.00     0.052 H 
ATOM     17  H   LIG d   1       8.238   1.147  -3.265  0.00  0.00     0.052 H 
ATOM     18  H   LIG d   1       9.492   2.269  -8.167  0.00  0.00     0.065 H 
ATOM     19  H   LIG d   1      11.043   4.026  -7.482  0.00  0.00     0.063 H 
ATOM     20  H   LIG d   1       7.910  -0.399  -5.179  0.00  0.00     0.091 H 
ATOM     21  H   LIG d   1       6.363  -0.338  -6.063  0.00  0.00     0.091 H 
ENDROOT
BRANCH   1  22
ATOM     22  C   LIG d   1       5.815   0.424  -3.686  0.00  0.00     0.033 A 
ATOM     23  C   LIG d   1       5.366   1.028  -2.519  0.00  0.00    -0.041 A 
ATOM     24  C   LIG d   1       4.579   0.317  -1.633  0.00  0.00    -0.060 A 
ATOM     25  H   LIG d   1       5.626   2.055  -2.307  0.00  0.00     0.064 H 
ATOM     26  C   LIG d   1       4.251  -0.999  -1.902  0.00  0.00    -0.059 A 
ATOM     27  H   LIG d   1       4.225   0.788  -0.729  0.00  0.00     0.062 H 
ATOM     28  C   LIG d   1       4.697  -1.604  -3.063  0.00  0.00    -0.049 A 
ATOM     29  H   LIG d   1       3.640  -1.554  -1.205  0.00  0.00     0.062 H 
ATOM     30  C   LIG d   1       5.479  -0.896  -3.955  0.00  0.00    -0.038 A 
ATOM     31  H   LIG d   1       5.827  -1.369  -4.861  0.00  0.00     0.064 H 
BRANCH  28  32
ATOM     32  C   LIG d   1       4.331  -3.036  -3.354  0.00  0.00    -0.040 C 
ATOM     33  H   LIG d   1       5.077  -3.698  -2.914  0.00  0.00     0.028 H 
ATOM     34  H   LIG d   1       3.353  -3.256  -2.926  0.00  0.00     0.028 H 
ATOM     35  H   LIG d   1       4.299  -3.192  -4.433  0.00  0.00     0.028 H 
ENDBRANCH  28  32
ENDBRANCH   1  22
BRANCH  13  36
ATOM     36  C   LIG d   1      12.263   5.725  -5.966  0.00  0.00    -0.038 C 
ATOM     37  H   LIG d   1      13.091   5.045  -6.160  0.00  0.00     0.028 H 
ATOM     38  H   LIG d   1      11.747   5.945  -6.900  0.00  0.00     0.028 H 
ATOM     39  H   LIG d   1      12.646   6.652  -5.536  0.00  0.00     0.028 H 
ENDBRANCH  13  36
BRANCH  12  40
ATOM     40  C   LIG d   1      12.180   6.541  -3.188  0.00  0.00     0.005 C 
ATOM     41  H   LIG d   1      12.565   7.115  -4.031  0.00  0.00     0.036 H 
ATOM     42  H   LIG d   1      11.632   7.204  -2.517  0.00  0.00     0.036 H 
BRANCH  40  43
ATOM     43  C   LIG d   1      13.328   5.911  -2.444  0.00  0.00    -0.043 A 
ATOM     44  C   LIG d   1      13.702   6.400  -1.206  0.00  0.00    -0.058 A 
ATOM     45  C   LIG d   1      14.756   5.822  -0.523  0.00  0.00    -0.061 A 
ATOM     46  H   LIG d   1      13.172   7.235  -0.773  0.00  0.00     0.062 H 
ATOM     47  C   LIG d   1      15.434   4.753  -1.076  0.00  0.00    -0.062 A 
ATOM     48  H   LIG d   1      15.048   6.205   0.444  0.00  0.00     0.062 H 
ATOM     49  C   LIG d   1      15.060   4.262  -2.314  0.00  0.00    -0.061 A 
ATOM     50  H   LIG d   1      16.258   4.301  -0.543  0.00  0.00     0.062 H 
ATOM     51  C   LIG d   1      14.003   4.838  -2.995  0.00  0.00    -0.058 A 
ATOM     52  H   LIG d   1      15.591   3.427  -2.746  0.00  0.00     0.062 H 
ATOM     53  H   LIG d   1      13.708   4.452  -3.959  0.00  0.00     0.062 H 
ENDBRANCH  40  43
ENDBRANCH  12  40
TORSDOF 5
ENDMDL
MODEL 5
REMARK VINA RESULT:      -7.1      5.023      6.948
REMARK  5 active torsions:
REMARK  status: ('A' for Active; 'I' for Inactive)
REMARK    1  A    between atoms: C_1  and  C_2 
REMARK    2  A    between atoms: C_6  and  N_8 
REMARK    3  A    between atoms: C_19  and  C_22 
REMARK    4  A    between atoms: C_20  and  C_21 
REMARK    5  A    between atoms: C_22  and  C_23 
ROOT
ATOM      1  N   LIG d   1       1.852  -1.452 -10.969  0.00  0.00    -0.293 NA
ATOM      2  C   LIG d   1       2.710  -1.985  -9.901  0.00  0.00     0.047 C 
ATOM      3  C   LIG d   1       3.808  -1.000  -9.595  0.00  0.00     0.054 A 
ATOM      4  C   LIG d   1       4.124   0.010 -10.486  0.00  0.00     0.131 A 
ATOM      5  C   LIG d   1       5.149   0.913 -10.195  0.00  0.00    -0.019 A 
ATOM      6  C   LIG d   1       5.850   0.813  -9.030  0.00  0.00    -0.047 A 
ATOM      7  C   LIG d   1       5.540  -0.201  -8.117  0.00  0.00     0.021 A 
ATOM      8  C   LIG d   1       4.511  -1.115  -8.402  0.00  0.00     0.147 A 
ATOM      9  O   LIG d   1       4.204  -2.096  -7.529  0.00  0.00    -0.421 OA
ATOM     10  C   LIG d   1       4.881  -2.211  -6.380  0.00  0.00     0.341 A 
ATOM     11  O   LIG d   1       4.579  -3.107  -5.613  0.00  0.00    -0.245 OA
ATOM     12  C   LIG d   1       5.925  -1.339  -6.019  0.00  0.00     0.045 A 
ATOM     13  C   LIG d   1       6.279  -0.330  -6.858  0.00  0.00    -0.029 A 
ATOM     14  O   LIG d   1       3.445   0.141 -11.656  0.00  0.00    -0.473 OA
ATOM     15  C   LIG d   1       2.677  -0.981 -12.093  0.00  0.00     0.157 C 
ATOM     16  H   LIG d   1       2.112  -2.153  -9.004  0.00  0.00     0.052 H 
ATOM     17  H   LIG d   1       3.149  -2.929 -10.225  0.00  0.00     0.052 H 
ATOM     18  H   LIG d   1       5.388   1.696 -10.900  0.00  0.00     0.065 H 
ATOM     19  H   LIG d   1       6.641   1.515  -8.812  0.00  0.00     0.063 H 
ATOM     20  H   LIG d   1       3.345  -1.779 -12.416  0.00  0.00     0.091 H 
ATOM     21  H   LIG d   1       2.032  -0.684 -12.920  0.00  0.00     0.091 H 
ENDROOT
BRANCH   1  22
ATOM     22  C   LIG d   1       0.927  -2.410 -11.393  0.00  0.00     0.033 A 
ATOM     23  C   LIG d   1       0.252  -2.241 -12.595  0.00  0.00    -0.041 A 
ATOM     24  C   LIG d   1      -0.657  -3.193 -13.014  0.00  0.00    -0.060 A 
ATOM     25  H   LIG d   1       0.442  -1.369 -13.204  0.00  0.00     0.064 H 
ATOM     26  C   LIG d   1      -0.905  -4.305 -12.233  0.00  0.00    -0.059 A 
ATOM     27  H   LIG d   1      -1.177  -3.065 -13.952  0.00  0.00     0.062 H 
ATOM     28  C   LIG d   1      -0.235  -4.477 -11.034  0.00  0.00    -0.049 A 
ATOM     29  H   LIG d   1      -1.619  -5.046 -12.560  0.00  0.00     0.062 H 
ATOM     30  C   LIG d   1       0.680  -3.531 -10.613  0.00  0.00    -0.038 A 
ATOM     31  H   LIG d   1       1.202  -3.665  -9.677  0.00  0.00     0.064 H 
BRANCH  28  32
ATOM     32  C   LIG d   1      -0.504  -5.694 -10.189  0.00  0.00    -0.040 C 
ATOM     33  H   LIG d   1      -0.210  -5.493  -9.159  0.00  0.00     0.028 H 
ATOM     34  H   LIG d   1      -1.567  -5.933 -10.223  0.00  0.00     0.028 H 
ATOM     35  H   LIG d   1       0.070  -6.538 -10.572  0.00  0.00     0.028 H 
ENDBRANCH  28  32
ENDBRANCH   1  22
BRANCH  13  36
ATOM     36  C   LIG d   1       7.391   0.624  -6.506  0.00  0.00    -0.038 C 
ATOM     37  H   LIG d   1       7.081   1.644  -6.730  0.00  0.00     0.028 H 
ATOM     38  H   LIG d   1       7.620   0.539  -5.444  0.00  0.00     0.028 H 
ATOM     39  H   LIG d   1       8.280   0.377  -7.089  0.00  0.00     0.028 H 
ENDBRANCH  13  36
BRANCH  12  40
ATOM     40  C   LIG d   1       6.647  -1.522  -4.709  0.00  0.00     0.005 C 
ATOM     41  H   LIG d   1       6.732  -2.586  -4.487  0.00  0.00     0.036 H 
ATOM     42  H   LIG d   1       7.642  -1.083  -4.777  0.00  0.00     0.036 H 
BRANCH  40  43
ATOM     43  C   LIG d   1       5.873  -0.841  -3.610  0.00  0.00    -0.043 A 
ATOM     44  C   LIG d   1       5.070  -1.585  -2.765  0.00  0.00    -0.058 A 
ATOM     45  C   LIG d   1       4.361  -0.960  -1.757  0.00  0.00    -0.061 A 
ATOM     46  H   LIG d   1       4.997  -2.655  -2.894  0.00  0.00     0.062 H 
ATOM     47  C   LIG d   1       4.454   0.408  -1.592  0.00  0.00    -0.062 A 
ATOM     48  H   LIG d   1       3.733  -1.543  -1.097  0.00  0.00     0.062 H 
ATOM     49  C   LIG d   1       5.257   1.153  -2.436  0.00  0.00    -0.061 A 
ATOM     50  H   LIG d   1       3.899   0.897  -0.804  0.00  0.00     0.062 H 
ATOM     51  C   LIG d   1       5.971   0.528  -3.442  0.00  0.00    -0.058 A 
ATOM     52  H   LIG d   1       5.330   2.223  -2.306  0.00  0.00     0.062 H 
ATOM     53  H   LIG d   1       6.601   1.109  -4.098  0.00  0.00     0.062 H 
ENDBRANCH  40  43
ENDBRANCH  12  40
TORSDOF 5
ENDMDL
MODEL 6
REMARK VINA RESULT:      -7.0      2.356      8.647
REMARK  5 active torsions:
REMARK  status: ('A' for Active; 'I' for Inactive)
REMARK    1  A    between atoms: C_1  and  C_2 
REMARK    2  A    between atoms: C_6  and  N_8 
REMARK    3  A    between atoms: C_19  and  C_22 
REMARK    4  A    between atoms: C_20  and  C_21 
REMARK    5  A    between atoms: C_22  and  C_23 
ROOT
ATOM      1  N   LIG d   1       6.427  -1.357  -3.781  0.00  0.00    -0.293 NA
ATOM      2  C   LIG d   1       5.925  -2.553  -4.473  0.00  0.00     0.047 C 
ATOM      3  C   LIG d   1       7.085  -3.420  -4.891  0.00  0.00     0.054 A 
ATOM      4  C   LIG d   1       8.370  -2.909  -4.942  0.00  0.00     0.131 A 
ATOM      5  C   LIG d   1       9.436  -3.720  -5.339  0.00  0.00    -0.019 A 
ATOM      6  C   LIG d   1       9.226  -5.023  -5.677  0.00  0.00    -0.047 A 
ATOM      7  C   LIG d   1       7.933  -5.555  -5.627  0.00  0.00     0.021 A 
ATOM      8  C   LIG d   1       6.853  -4.747  -5.231  0.00  0.00     0.147 A 
ATOM      9  O   LIG d   1       5.603  -5.249  -5.179  0.00  0.00    -0.421 OA
ATOM     10  C   LIG d   1       5.377  -6.526  -5.507  0.00  0.00     0.341 A 
ATOM     11  O   LIG d   1       4.237  -6.949  -5.449  0.00  0.00    -0.245 OA
ATOM     12  C   LIG d   1       6.401  -7.403  -5.915  0.00  0.00     0.045 A 
ATOM     13  C   LIG d   1       7.682  -6.953  -5.987  0.00  0.00    -0.029 A 
ATOM     14  O   LIG d   1       8.617  -1.614  -4.610  0.00  0.00    -0.473 OA
ATOM     15  C   LIG d   1       7.497  -0.727  -4.570  0.00  0.00     0.157 C 
ATOM     16  H   LIG d   1       5.275  -3.115  -3.802  0.00  0.00     0.052 H 
ATOM     17  H   LIG d   1       5.361  -2.251  -5.355  0.00  0.00     0.052 H 
ATOM     18  H   LIG d   1      10.435  -3.309  -5.378  0.00  0.00     0.065 H 
ATOM     19  H   LIG d   1      10.055  -5.644  -5.983  0.00  0.00     0.063 H 
ATOM     20  H   LIG d   1       7.143  -0.539  -5.583  0.00  0.00     0.091 H 
ATOM     21  H   LIG d   1       7.792   0.213  -4.103  0.00  0.00     0.091 H 
ENDROOT
BRANCH   1  22
ATOM     22  C   LIG d   1       5.391  -0.453  -3.529  0.00  0.00     0.033 A 
ATOM     23  C   LIG d   1       5.456   0.389  -2.427  0.00  0.00    -0.041 A 
ATOM     24  C   LIG d   1       4.434   1.287  -2.185  0.00  0.00    -0.060 A 
ATOM     25  H   LIG d   1       6.307   0.346  -1.763  0.00  0.00     0.064 H 
ATOM     26  C   LIG d   1       3.343   1.338  -3.031  0.00  0.00    -0.059 A 
ATOM     27  H   LIG d   1       4.487   1.946  -1.331  0.00  0.00     0.062 H 
ATOM     28  C   LIG d   1       3.275   0.500  -4.130  0.00  0.00    -0.049 A 
ATOM     29  H   LIG d   1       2.542   2.037  -2.837  0.00  0.00     0.062 H 
ATOM     30  C   LIG d   1       4.296  -0.395  -4.380  0.00  0.00    -0.038 A 
ATOM     31  H   LIG d   1       4.243  -1.049  -5.238  0.00  0.00     0.064 H 
BRANCH  28  32
ATOM     32  C   LIG d   1       2.086   0.563  -5.052  0.00  0.00    -0.040 C 
ATOM     33  H   LIG d   1       1.623  -0.421  -5.117  0.00  0.00     0.028 H 
ATOM     34  H   LIG d   1       1.362   1.280  -4.664  0.00  0.00     0.028 H 
ATOM     35  H   LIG d   1       2.411   0.878  -6.044  0.00  0.00     0.028 H 
ENDBRANCH  28  32
ENDBRANCH   1  22
BRANCH  13  36
ATOM     36  C   LIG d   1       8.804  -7.861  -6.419  0.00  0.00    -0.038 C 
ATOM     37  H   LIG d   1       8.402  -8.842  -6.671  0.00  0.00     0.028 H 
ATOM     38  H   LIG d   1       9.300  -7.436  -7.291  0.00  0.00     0.028 H 
ATOM     39  H   LIG d   1       9.523  -7.962  -5.605  0.00  0.00     0.028 H 
ENDBRANCH  13  36
BRANCH  12  40
ATOM     40  C   LIG d   1       6.078  -8.831  -6.271  0.00  0.00     0.005 C 
ATOM     41  H   LIG d   1       5.233  -8.852  -6.959  0.00  0.00     0.036 H 
ATOM     42  H   LIG d   1       6.945  -9.292  -6.746  0.00  0.00     0.036 H 
BRANCH  40  43
ATOM     43  C   LIG d   1       5.727  -9.593  -5.020  0.00  0.00    -0.043 A 
ATOM     44  C   LIG d   1       6.581  -9.569  -3.933  0.00  0.00    -0.058 A 
ATOM     45  C   LIG d   1       6.258 -10.269  -2.784  0.00  0.00    -0.061 A 
ATOM     46  H   LIG d   1       7.500  -9.005  -3.981  0.00  0.00     0.062 H 
ATOM     47  C   LIG d   1       5.082 -10.991  -2.723  0.00  0.00    -0.062 A 
ATOM     48  H   LIG d   1       6.926 -10.250  -1.935  0.00  0.00     0.062 H 
ATOM     49  C   LIG d   1       4.227 -11.014  -3.810  0.00  0.00    -0.061 A 
ATOM     50  H   LIG d   1       4.830 -11.538  -1.826  0.00  0.00     0.062 H 
ATOM     51  C   LIG d   1       4.548 -10.311  -4.956  0.00  0.00    -0.058 A 
ATOM     52  H   LIG d   1       3.308 -11.579  -3.761  0.00  0.00     0.062 H 
ATOM     53  H   LIG d   1       3.878 -10.326  -5.803  0.00  0.00     0.062 H 
ENDBRANCH  40  43
ENDBRANCH  12  40
TORSDOF 5
ENDMDL
MODEL 7
REMARK VINA RESULT:      -6.9      3.819      5.052
REMARK  5 active torsions:
REMARK  status: ('A' for Active; 'I' for Inactive)
REMARK    1  A    between atoms: C_1  and  C_2 
REMARK    2  A    between atoms: C_6  and  N_8 
REMARK    3  A    between atoms: C_19  and  C_22 
REMARK    4  A    between atoms: C_20  and  C_21 
REMARK    5  A    between atoms: C_22  and  C_23 
ROOT
ATOM      1  N   LIG d   1       1.917  -4.995 -10.193  0.00  0.00    -0.293 NA
ATOM      2  C   LIG d   1       2.796  -4.974  -9.015  0.00  0.00     0.047 C 
ATOM      3  C   LIG d   1       3.575  -3.684  -8.989  0.00  0.00     0.054 A 
ATOM      4  C   LIG d   1       3.689  -2.900 -10.123  0.00  0.00     0.131 A 
ATOM      5  C   LIG d   1       4.420  -1.710 -10.089  0.00  0.00    -0.019 A 
ATOM      6  C   LIG d   1       5.028  -1.305  -8.938  0.00  0.00    -0.047 A 
ATOM      7  C   LIG d   1       4.920  -2.085  -7.782  0.00  0.00     0.021 A 
ATOM      8  C   LIG d   1       4.188  -3.285  -7.807  0.00  0.00     0.147 A 
ATOM      9  O   LIG d   1       4.077  -4.044  -6.698  0.00  0.00    -0.421 OA
ATOM     10  C   LIG d   1       4.667  -3.662  -5.560  0.00  0.00     0.341 A 
ATOM     11  O   LIG d   1       4.548  -4.370  -4.576  0.00  0.00    -0.245 OA
ATOM     12  C   LIG d   1       5.419  -2.477  -5.449  0.00  0.00     0.045 A 
ATOM     13  C   LIG d   1       5.566  -1.670  -6.534  0.00  0.00    -0.029 A 
ATOM     14  O   LIG d   1       3.094  -3.273 -11.287  0.00  0.00    -0.473 OA
ATOM     15  C   LIG d   1       2.678  -4.635 -11.400  0.00  0.00     0.157 C 
ATOM     16  H   LIG d   1       2.193  -5.052  -8.110  0.00  0.00     0.052 H 
ATOM     17  H   LIG d   1       3.488  -5.815  -9.064  0.00  0.00     0.052 H 
ATOM     18  H   LIG d   1       4.503  -1.108 -10.982  0.00  0.00     0.065 H 
ATOM     19  H   LIG d   1       5.592  -0.384  -8.920  0.00  0.00     0.063 H 
ATOM     20  H   LIG d   1       3.553  -5.279 -11.486  0.00  0.00     0.091 H 
ATOM     21  H   LIG d   1       2.046  -4.753 -12.280  0.00  0.00     0.091 H 
ENDROOT
BRANCH   1  22
ATOM     22  C   LIG d   1       1.306  -6.243 -10.339  0.00  0.00     0.033 A 
ATOM     23  C   LIG d   1       2.073  -7.362 -10.637  0.00  0.00    -0.041 A 
ATOM     24  C   LIG d   1       1.468  -8.596 -10.774  0.00  0.00    -0.060 A 
ATOM     25  H   LIG d   1       3.143  -7.268 -10.756  0.00  0.00     0.064 H 
ATOM     26  C   LIG d   1       0.099  -8.715 -10.628  0.00  0.00    -0.059 A 
ATOM     27  H   LIG d   1       2.064  -9.467 -11.001  0.00  0.00     0.062 H 
ATOM     28  C   LIG d   1      -0.669  -7.603 -10.331  0.00  0.00    -0.049 A 
ATOM     29  H   LIG d   1      -0.373  -9.680 -10.740  0.00  0.00     0.062 H 
ATOM     30  C   LIG d   1      -0.068  -6.368 -10.187  0.00  0.00    -0.038 A 
ATOM     31  H   LIG d   1      -0.667  -5.499  -9.955  0.00  0.00     0.064 H 
BRANCH  28  32
ATOM     32  C   LIG d   1      -2.160  -7.739 -10.166  0.00  0.00    -0.040 C 
ATOM     33  H   LIG d   1      -2.381  -8.639  -9.593  0.00  0.00     0.028 H 
ATOM     34  H   LIG d   1      -2.549  -6.868  -9.640  0.00  0.00     0.028 H 
ATOM     35  H   LIG d   1      -2.630  -7.810 -11.148  0.00  0.00     0.028 H 
ENDBRANCH  28  32
ENDBRANCH   1  22
BRANCH  13  36
ATOM     36  C   LIG d   1       6.363  -0.394  -6.454  0.00  0.00    -0.038 C 
ATOM     37  H   LIG d   1       7.357  -0.610  -6.065  0.00  0.00     0.028 H 
ATOM     38  H   LIG d   1       6.449   0.043  -7.448  0.00  0.00     0.028 H 
ATOM     39  H   LIG d   1       5.857   0.309  -5.791  0.00  0.00     0.028 H 
ENDBRANCH  13  36
BRANCH  12  40
ATOM     40  C   LIG d   1       6.058  -2.105  -4.137  0.00  0.00     0.005 C 
ATOM     41  H   LIG d   1       6.129  -2.989  -3.503  0.00  0.00     0.036 H 
ATOM     42  H   LIG d   1       7.057  -1.706  -4.318  0.00  0.00     0.036 H 
BRANCH  40  43
ATOM     43  C   LIG d   1       5.219  -1.060  -3.448  0.00  0.00    -0.043 A 
ATOM     44  C   LIG d   1       3.855  -1.244  -3.319  0.00  0.00    -0.058 A 
ATOM     45  C   LIG d   1       3.085  -0.285  -2.687  0.00  0.00    -0.061 A 
ATOM     46  H   LIG d   1       3.391  -2.136  -3.712  0.00  0.00     0.062 H 
ATOM     47  C   LIG d   1       3.678   0.857  -2.184  0.00  0.00    -0.062 A 
ATOM     48  H   LIG d   1       2.018  -0.429  -2.587  0.00  0.00     0.062 H 
ATOM     49  C   LIG d   1       5.043   1.041  -2.312  0.00  0.00    -0.061 A 
ATOM     50  H   LIG d   1       3.077   1.606  -1.690  0.00  0.00     0.062 H 
ATOM     51  C   LIG d   1       5.814   0.080  -2.940  0.00  0.00    -0.058 A 
ATOM     52  H   LIG d   1       5.506   1.933  -1.918  0.00  0.00     0.062 H 
ATOM     53  H   LIG d   1       6.880   0.221  -3.036  0.00  0.00     0.062 H 
ENDBRANCH  40  43
ENDBRANCH  12  40
TORSDOF 5
ENDMDL
MODEL 8
REMARK VINA RESULT:      -6.8      7.755     11.353
REMARK  5 active torsions:
REMARK  status: ('A' for Active; 'I' for Inactive)
REMARK    1  A    between atoms: C_1  and  C_2 
REMARK    2  A    between atoms: C_6  and  N_8 
REMARK    3  A    between atoms: C_19  and  C_22 
REMARK    4  A    between atoms: C_20  and  C_21 
REMARK    5  A    between atoms: C_22  and  C_23 
ROOT
ATOM      1  N   LIG d   1       7.821   2.039  -4.693  0.00  0.00    -0.293 NA
ATOM      2  C   LIG d   1       8.675   2.724  -3.712  0.00  0.00     0.047 C 
ATOM      3  C   LIG d   1       9.463   3.810  -4.398  0.00  0.00     0.054 A 
ATOM      4  C   LIG d   1       9.606   3.822  -5.774  0.00  0.00     0.131 A 
ATOM      5  C   LIG d   1      10.345   4.829  -6.398  0.00  0.00    -0.019 A 
ATOM      6  C   LIG d   1      10.932   5.815  -5.661  0.00  0.00    -0.047 A 
ATOM      7  C   LIG d   1      10.793   5.819  -4.270  0.00  0.00     0.021 A 
ATOM      8  C   LIG d   1      10.052   4.808  -3.632  0.00  0.00     0.147 A 
ATOM      9  O   LIG d   1       9.913   4.803  -2.291  0.00  0.00    -0.421 OA
ATOM     10  C   LIG d   1      10.481   5.761  -1.551  0.00  0.00     0.341 A 
ATOM     11  O   LIG d   1      10.335   5.728  -0.342  0.00  0.00    -0.245 OA
ATOM     12  C   LIG d   1      11.239   6.808  -2.109  0.00  0.00     0.045 A 
ATOM     13  C   LIG d   1      11.415   6.867  -3.456  0.00  0.00    -0.029 A 
ATOM     14  O   LIG d   1       9.034   2.856  -6.540  0.00  0.00    -0.473 OA
ATOM     15  C   LIG d   1       8.610   1.663  -5.877  0.00  0.00     0.157 C 
ATOM     16  H   LIG d   1       8.052   3.164  -2.933  0.00  0.00     0.052 H 
ATOM     17  H   LIG d   1       9.361   2.005  -3.265  0.00  0.00     0.052 H 
ATOM     18  H   LIG d   1      10.452   4.826  -7.473  0.00  0.00     0.065 H 
ATOM     19  H   LIG d   1      11.502   6.590  -6.151  0.00  0.00     0.063 H 
ATOM     20  H   LIG d   1       9.482   1.087  -5.567  0.00  0.00     0.091 H 
ATOM     21  H   LIG d   1       7.996   1.067  -6.552  0.00  0.00     0.091 H 
ENDROOT
BRANCH   1  22
ATOM     22  C   LIG d   1       7.204   0.920  -4.126  0.00  0.00     0.033 A 
ATOM     23  C   LIG d   1       7.652  -0.355  -4.441  0.00  0.00    -0.041 A 
ATOM     24  C   LIG d   1       7.045  -1.459  -3.874  0.00  0.00    -0.060 A 
ATOM     25  H   LIG d   1       8.478  -0.485  -5.126  0.00  0.00     0.064 H 
ATOM     26  C   LIG d   1       5.985  -1.294  -3.003  0.00  0.00    -0.059 A 
ATOM     27  H   LIG d   1       7.397  -2.451  -4.115  0.00  0.00     0.062 H 
ATOM     28  C   LIG d   1       5.536  -0.024  -2.686  0.00  0.00    -0.049 A 
ATOM     29  H   LIG d   1       5.509  -2.159  -2.564  0.00  0.00     0.062 H 
ATOM     30  C   LIG d   1       6.143   1.083  -3.246  0.00  0.00    -0.038 A 
ATOM     31  H   LIG d   1       5.792   2.074  -2.999  0.00  0.00     0.064 H 
BRANCH  28  32
ATOM     32  C   LIG d   1       4.384   0.150  -1.731  0.00  0.00    -0.040 C 
ATOM     33  H   LIG d   1       4.493  -0.545  -0.899  0.00  0.00     0.028 H 
ATOM     34  H   LIG d   1       4.378   1.172  -1.352  0.00  0.00     0.028 H 
ATOM     35  H   LIG d   1       3.447  -0.050  -2.251  0.00  0.00     0.028 H 
ENDBRANCH  28  32
ENDBRANCH   1  22
BRANCH  13  36
ATOM     36  C   LIG d   1      12.219   7.972  -4.089  0.00  0.00    -0.038 C 
ATOM     37  H   LIG d   1      12.355   8.781  -3.373  0.00  0.00     0.028 H 
ATOM     38  H   LIG d   1      13.193   7.586  -4.390  0.00  0.00     0.028 H 
ATOM     39  H   LIG d   1      11.691   8.348  -4.967  0.00  0.00     0.028 H 
ENDBRANCH  13  36
BRANCH  12  40
ATOM     40  C   LIG d   1      11.853   7.857  -1.219  0.00  0.00     0.005 C 
ATOM     41  H   LIG d   1      11.790   8.830  -1.707  0.00  0.00     0.036 H 
ATOM     42  H   LIG d   1      11.314   7.891  -0.271  0.00  0.00     0.036 H 
BRANCH  40  43
ATOM     43  C   LIG d   1      13.297   7.516  -0.962  0.00  0.00    -0.043 A 
ATOM     44  C   LIG d   1      13.665   6.207  -0.712  0.00  0.00    -0.058 A 
ATOM     45  C   LIG d   1      14.991   5.894  -0.477  0.00  0.00    -0.061 A 
ATOM     46  H   LIG d   1      12.916   5.429  -0.700  0.00  0.00     0.062 H 
ATOM     47  C   LIG d   1      15.949   6.889  -0.492  0.00  0.00    -0.062 A 
ATOM     48  H   LIG d   1      15.277   4.870  -0.281  0.00  0.00     0.062 H 
ATOM     49  C   LIG d   1      15.582   8.199  -0.743  0.00  0.00    -0.061 A 
ATOM     50  H   LIG d   1      16.986   6.644  -0.308  0.00  0.00     0.062 H 
ATOM     51  C   LIG d   1      14.257   8.511  -0.983  0.00  0.00    -0.058 A 
ATOM     52  H   LIG d   1      16.332   8.976  -0.755  0.00  0.00     0.062 H 
ATOM     53  H   LIG d   1      13.971   9.533  -1.183  0.00  0.00     0.062 H 
ENDBRANCH  40  43
ENDBRANCH  12  40
TORSDOF 5
ENDMDL
MODEL 9
REMARK VINA RESULT:      -6.7      6.340     11.303
REMARK  5 active torsions:
REMARK  status: ('A' for Active; 'I' for Inactive)
REMARK    1  A    between atoms: C_1  and  C_2 
REMARK    2  A    between atoms: C_6  and  N_8 
REMARK    3  A    between atoms: C_19  and  C_22 
REMARK    4  A    between atoms: C_20  and  C_21 
REMARK    5  A    between atoms: C_22  and  C_23 
ROOT
ATOM      1  N   LIG d   1      11.154   4.256  -2.565  0.00  0.00    -0.293 NA
ATOM      2  C   LIG d   1       9.856   3.625  -2.850  0.00  0.00     0.047 C 
ATOM      3  C   LIG d   1      10.006   2.656  -3.994  0.00  0.00     0.054 A 
ATOM      4  C   LIG d   1      11.102   2.715  -4.836  0.00  0.00     0.131 A 
ATOM      5  C   LIG d   1      11.225   1.817  -5.898  0.00  0.00    -0.019 A 
ATOM      6  C   LIG d   1      10.270   0.870  -6.118  0.00  0.00    -0.047 A 
ATOM      7  C   LIG d   1       9.158   0.795  -5.274  0.00  0.00     0.021 A 
ATOM      8  C   LIG d   1       9.023   1.696  -4.203  0.00  0.00     0.147 A 
ATOM      9  O   LIG d   1       7.955   1.632  -3.383  0.00  0.00    -0.421 OA
ATOM     10  C   LIG d   1       7.007   0.709  -3.583  0.00  0.00     0.341 A 
ATOM     11  O   LIG d   1       6.055   0.678  -2.824  0.00  0.00    -0.245 OA
ATOM     12  C   LIG d   1       7.064  -0.229  -4.631  0.00  0.00     0.045 A 
ATOM     13  C   LIG d   1       8.117  -0.214  -5.490  0.00  0.00    -0.029 A 
ATOM     14  O   LIG d   1      12.074   3.646  -4.646  0.00  0.00    -0.473 OA
ATOM     15  C   LIG d   1      11.756   4.760  -3.809  0.00  0.00     0.157 C 
ATOM     16  H   LIG d   1       9.510   3.091  -1.965  0.00  0.00     0.052 H 
ATOM     17  H   LIG d   1       9.131   4.394  -3.117  0.00  0.00     0.052 H 
ATOM     18  H   LIG d   1      12.085   1.875  -6.551  0.00  0.00     0.065 H 
ATOM     19  H   LIG d   1      10.373   0.178  -6.942  0.00  0.00     0.063 H 
ATOM     20  H   LIG d   1      11.047   5.411  -4.322  0.00  0.00     0.091 H 
ATOM     21  H   LIG d   1      12.665   5.315  -3.578  0.00  0.00     0.091 H 
ENDROOT
BRANCH   1  22
ATOM     22  C   LIG d   1      11.016   5.280  -1.624  0.00  0.00     0.033 A 
ATOM     23  C   LIG d   1      11.801   5.281  -0.478  0.00  0.00    -0.041 A 
ATOM     24  C   LIG d   1      11.668   6.299   0.446  0.00  0.00    -0.060 A 
ATOM     25  H   LIG d   1      12.519   4.490  -0.313  0.00  0.00     0.064 H 
ATOM     26  C   LIG d   1      10.746   7.307   0.239  0.00  0.00    -0.059 A 
ATOM     27  H   LIG d   1      12.282   6.303   1.335  0.00  0.00     0.062 H 
ATOM     28  C   LIG d   1       9.963   7.309  -0.902  0.00  0.00    -0.049 A 
ATOM     29  H   LIG d   1      10.641   8.099   0.966  0.00  0.00     0.062 H 
ATOM     30  C   LIG d   1      10.095   6.297  -1.833  0.00  0.00    -0.038 A 
ATOM     31  H   LIG d   1       9.483   6.299  -2.723  0.00  0.00     0.064 H 
BRANCH  28  32
ATOM     32  C   LIG d   1       8.964   8.413  -1.127  0.00  0.00    -0.040 C 
ATOM     33  H   LIG d   1       9.073   8.802  -2.139  0.00  0.00     0.028 H 
ATOM     34  H   LIG d   1       7.954   8.023  -0.994  0.00  0.00     0.028 H 
ATOM     35  H   LIG d   1       9.140   9.215  -0.409  0.00  0.00     0.028 H 
ENDBRANCH  28  32
ENDBRANCH   1  22
BRANCH  13  36
ATOM     36  C   LIG d   1       8.213  -1.203  -6.623  0.00  0.00    -0.038 C 
ATOM     37  H   LIG d   1       9.138  -1.037  -7.174  0.00  0.00     0.028 H 
ATOM     38  H   LIG d   1       8.204  -2.216  -6.223  0.00  0.00     0.028 H 
ATOM     39  H   LIG d   1       7.362  -1.069  -7.294  0.00  0.00     0.028 H 
ENDBRANCH  13  36
BRANCH  12  40
ATOM     40  C   LIG d   1       5.963  -1.243  -4.800  0.00  0.00     0.005 C 
ATOM     41  H   LIG d   1       6.341  -2.101  -5.357  0.00  0.00     0.036 H 
ATOM     42  H   LIG d   1       5.616  -1.571  -3.820  0.00  0.00     0.036 H 
BRANCH  40  43
ATOM     43  C   LIG d   1       4.817  -0.620  -5.555  0.00  0.00    -0.043 A 
ATOM     44  C   LIG d   1       3.676  -0.229  -4.881  0.00  0.00    -0.058 A 
ATOM     45  C   LIG d   1       2.625   0.343  -5.573  0.00  0.00    -0.061 A 
ATOM     46  H   LIG d   1       3.605  -0.370  -3.812  0.00  0.00     0.062 H 
ATOM     47  C   LIG d   1       2.716   0.525  -6.940  0.00  0.00    -0.062 A 
ATOM     48  H   LIG d   1       1.733   0.649  -5.045  0.00  0.00     0.062 H 
ATOM     49  C   LIG d   1       3.858   0.134  -7.615  0.00  0.00    -0.061 A 
ATOM     50  H   LIG d   1       1.894   0.971  -7.482  0.00  0.00     0.062 H 
ATOM     51  C   LIG d   1       4.910  -0.434  -6.922  0.00  0.00    -0.058 A 
ATOM     52  H   LIG d   1       3.927   0.276  -8.683  0.00  0.00     0.062 H 
ATOM     53  H   LIG d   1       5.804  -0.735  -7.448  0.00  0.00     0.062 H 
ENDBRANCH  40  43
ENDBRANCH  12  40
TORSDOF 5
ENDMDL
MODEL 10
REMARK VINA RESULT:      -6.7      6.606      9.782
REMARK  5 active torsions:
REMARK  status: ('A' for Active; 'I' for Inactive)
REMARK    1  A    between atoms: C_1  and  C_2 
REMARK    2  A    between atoms: C_6  and  N_8 
REMARK    3  A    between atoms: C_19  and  C_22 
REMARK    4  A    between atoms: C_20  and  C_21 
REMARK    5  A    between atoms: C_22  and  C_23 
ROOT
ATOM      1  N   LIG d   1       7.079   0.386  -4.543  0.00  0.00    -0.293 NA
ATOM      2  C   LIG d   1       7.851   1.593  -4.213  0.00  0.00     0.047 C 
ATOM      3  C   LIG d   1       9.051   1.690  -5.119  0.00  0.00     0.054 A 
ATOM      4  C   LIG d   1       9.498   0.587  -5.825  0.00  0.00     0.131 A 
ATOM      5  C   LIG d   1      10.616   0.687  -6.656  0.00  0.00    -0.019 A 
ATOM      6  C   LIG d   1      11.280   1.870  -6.783  0.00  0.00    -0.047 A 
ATOM      7  C   LIG d   1      10.839   2.995  -6.078  0.00  0.00     0.021 A 
ATOM      8  C   LIG d   1       9.715   2.904  -5.239  0.00  0.00     0.147 A 
ATOM      9  O   LIG d   1       9.282   3.982  -4.555  0.00  0.00    -0.421 OA
ATOM     10  C   LIG d   1       9.920   5.152  -4.667  0.00  0.00     0.341 A 
ATOM     11  O   LIG d   1       9.503   6.107  -4.036  0.00  0.00    -0.245 OA
ATOM     12  C   LIG d   1      11.053   5.329  -5.484  0.00  0.00     0.045 A 
ATOM     13  C   LIG d   1      11.537   4.278  -6.198  0.00  0.00    -0.029 A 
ATOM     14  O   LIG d   1       8.859  -0.608  -5.724  0.00  0.00    -0.473 OA
ATOM     15  C   LIG d   1       7.972  -0.781  -4.617  0.00  0.00     0.157 C 
ATOM     16  H   LIG d   1       7.222   2.474  -4.348  0.00  0.00     0.052 H 
ATOM     17  H   LIG d   1       8.181   1.539  -3.176  0.00  0.00     0.052 H 
ATOM     18  H   LIG d   1      10.957  -0.182  -7.201  0.00  0.00     0.065 H 
ATOM     19  H   LIG d   1      12.144   1.939  -7.428  0.00  0.00     0.063 H 
ATOM     20  H   LIG d   1       8.548  -0.860  -3.695  0.00  0.00     0.091 H 
ATOM     21  H   LIG d   1       7.380  -1.686  -4.759  0.00  0.00     0.091 H 
ENDROOT
BRANCH   1  22
ATOM     22  C   LIG d   1       6.055   0.177  -3.615  0.00  0.00     0.033 A 
ATOM     23  C   LIG d   1       5.626   1.220  -2.806  0.00  0.00    -0.041 A 
ATOM     24  C   LIG d   1       4.609   1.012  -1.894  0.00  0.00    -0.060 A 
ATOM     25  H   LIG d   1       6.084   2.195  -2.893  0.00  0.00     0.064 H 
ATOM     26  C   LIG d   1       4.028  -0.237  -1.779  0.00  0.00    -0.059 A 
ATOM     27  H   LIG d   1       4.272   1.824  -1.268  0.00  0.00     0.062 H 
ATOM     28  C   LIG d   1       4.453  -1.279  -2.584  0.00  0.00    -0.049 A 
ATOM     29  H   LIG d   1       3.237  -0.399  -1.062  0.00  0.00     0.062 H 
ATOM     30  C   LIG d   1       5.465  -1.075  -3.501  0.00  0.00    -0.038 A 
ATOM     31  H   LIG d   1       5.797  -1.888  -4.129  0.00  0.00     0.064 H 
BRANCH  28  32
ATOM     32  C   LIG d   1       3.813  -2.636  -2.459  0.00  0.00    -0.040 C 
ATOM     33  H   LIG d   1       3.155  -2.649  -1.590  0.00  0.00     0.028 H 
ATOM     34  H   LIG d   1       3.232  -2.849  -3.357  0.00  0.00     0.028 H 
ATOM     35  H   LIG d   1       4.587  -3.395  -2.339  0.00  0.00     0.028 H 
ENDBRANCH  28  32
ENDBRANCH   1  22
BRANCH  13  36
ATOM     36  C   LIG d   1      12.747   4.428  -7.084  0.00  0.00    -0.038 C 
ATOM     37  H   LIG d   1      13.577   3.861  -6.665  0.00  0.00     0.028 H 
ATOM     38  H   LIG d   1      12.516   4.053  -8.081  0.00  0.00     0.028 H 
ATOM     39  H   LIG d   1      13.022   5.482  -7.147  0.00  0.00     0.028 H 
ENDBRANCH  13  36
BRANCH  12  40
ATOM     40  C   LIG d   1      11.726   6.674  -5.566  0.00  0.00     0.005 C 
ATOM     41  H   LIG d   1      11.838   7.086  -4.563  0.00  0.00     0.036 H 
ATOM     42  H   LIG d   1      12.709   6.562  -6.026  0.00  0.00     0.036 H 
BRANCH  40  43
ATOM     43  C   LIG d   1      10.886   7.606  -6.401  0.00  0.00    -0.043 A 
ATOM     44  C   LIG d   1      10.427   7.200  -7.640  0.00  0.00    -0.058 A 
ATOM     45  C   LIG d   1       9.656   8.055  -8.406  0.00  0.00    -0.061 A 
ATOM     46  H   LIG d   1      10.671   6.216  -8.011  0.00  0.00     0.062 H 
ATOM     47  C   LIG d   1       9.343   9.314  -7.932  0.00  0.00    -0.062 A 
ATOM     48  H   LIG d   1       9.298   7.737  -9.375  0.00  0.00     0.062 H 
ATOM     49  C   LIG d   1       9.801   9.720  -6.692  0.00  0.00    -0.061 A 
ATOM     50  H   LIG d   1       8.741   9.983  -8.531  0.00  0.00     0.062 H 
ATOM     51  C   LIG d   1      10.568   8.864  -5.925  0.00  0.00    -0.058 A 
ATOM     52  H   LIG d   1       9.556  10.705  -6.323  0.00  0.00     0.062 H 
ATOM     53  H   LIG d   1      10.923   9.179  -4.955  0.00  0.00     0.062 H 
ENDBRANCH  40  43
ENDBRANCH  12  40
TORSDOF 5
ENDMDL
