MODEL 1
REMARK VINA RESULT:      -4.7      0.000      0.000
REMARK  9 active torsions:
REMARK  status: ('A' for Active; 'I' for Inactive)
REMARK    1  A    between atoms: C_1  and  N_2 
REMARK    2  A    between atoms: N_2  and  C_3 
REMARK    3  A    between atoms: N_5  and  C_6 
REMARK    4  A    between atoms: N_5  and  C_7 
REMARK    5  A    between atoms: C_7  and  C_8 
REMARK    6  A    between atoms: C_8  and  C_9 
REMARK    7  A    between atoms: C_13  and  O_17 
REMARK    8  A    between atoms: C_14  and  C_15 
REMARK    9  A    between atoms: O_17  and  C_18 
ROOT
ATOM      1  C   LIG d   1       6.191  -2.053  -4.261  0.00  0.00    -0.029 A 
ATOM      2  C   LIG d   1       7.252  -1.403  -4.820  0.00  0.00    -0.012 A 
ATOM      3  C   LIG d   1       7.561  -0.099  -4.444  0.00  0.00     0.170 A 
ATOM      4  C   LIG d   1       6.780   0.559  -3.499  0.00  0.00     0.208 A 
ATOM      5  C   LIG d   1       5.699  -0.091  -2.921  0.00  0.00     0.176 A 
ATOM      6  C   LIG d   1       5.396  -1.410  -3.302  0.00  0.00     0.063 A 
ATOM      7  O   LIG d   1       7.284   1.815  -3.313  0.00  0.00    -0.449 OA
ATOM      8  C   LIG d   1       8.126   2.062  -4.455  0.00  0.00     0.233 C 
ATOM      9  O   LIG d   1       8.547   0.746  -4.858  0.00  0.00    -0.453 OA
ATOM     10  H   LIG d   1       7.860  -1.906  -5.558  0.00  0.00     0.066 H 
ATOM     11  H   LIG d   1       7.560   2.544  -5.251  0.00  0.00     0.117 H 
ATOM     12  H   LIG d   1       8.985   2.671  -4.172  0.00  0.00     0.117 H 
ENDROOT
BRANCH   1  13
ATOM     13  C   LIG d   1       5.873  -3.468  -4.674  0.00  0.00    -0.011 C 
ATOM     14  H   LIG d   1       6.521  -4.158  -4.133  0.00  0.00     0.033 H 
ATOM     15  H   LIG d   1       4.831  -3.689  -4.440  0.00  0.00     0.033 H 
BRANCH  13  16
ATOM     16  C   LIG d   1       6.102  -3.625  -6.177  0.00  0.00     0.017 C 
ATOM     17  H   LIG d   1       6.584  -2.728  -6.568  0.00  0.00     0.047 H 
ATOM     18  H   LIG d   1       6.742  -4.489  -6.359  0.00  0.00     0.047 H 
BRANCH  16  19
ATOM     19  N   LIG d   1       4.815  -3.821  -6.851  0.00  0.00    -0.316 N 
ATOM     20  C   LIG d   1       4.389  -2.924  -7.761  0.00  0.00     0.132 C 
ATOM     21  S   LIG d   1       5.349  -1.556  -8.130  0.00  0.00    -0.019 SA
BRANCH  20  22
ATOM     22  N   LIG d   1       3.205  -3.103  -8.380  0.00  0.00    -0.330 N 
ATOM     23  H   LIG d   1       2.691  -3.909  -8.218  0.00  0.00     0.147 HD
BRANCH  22  24
ATOM     24  C   LIG d   1       2.695  -2.080  -9.296  0.00  0.00    -0.001 C 
ATOM     25  H   LIG d   1       1.842  -1.577  -8.840  0.00  0.00     0.043 H 
ATOM     26  H   LIG d   1       3.480  -1.352  -9.501  0.00  0.00     0.043 H 
ATOM     27  H   LIG d   1       2.384  -2.550 -10.229  0.00  0.00     0.043 H 
ENDBRANCH  22  24
ENDBRANCH  20  22
BRANCH  19  28
ATOM     28  C   LIG d   1       3.994  -4.992  -6.534  0.00  0.00     0.002 C 
ATOM     29  H   LIG d   1       4.547  -5.899  -6.773  0.00  0.00     0.043 H 
ATOM     30  H   LIG d   1       3.746  -4.984  -5.473  0.00  0.00     0.043 H 
ATOM     31  H   LIG d   1       3.077  -4.961  -7.122  0.00  0.00     0.043 H 
ENDBRANCH  19  28
ENDBRANCH  16  19
ENDBRANCH  13  16
ENDBRANCH   1  13
BRANCH   6  32
ATOM     32  C   LIG d   1       4.258  -2.109  -2.700  0.00  0.00     0.154 C 
ATOM     33  O   LIG d   1       3.140  -1.938  -3.139  0.00  0.00    -0.296 OA
ATOM     34  H   LIG d   1       4.414  -2.774  -1.864  0.00  0.00     0.108 H 
ENDBRANCH   6  32
BRANCH   5  35
ATOM     35  O   LIG d   1       4.937   0.543  -1.994  0.00  0.00    -0.491 OA
BRANCH  35  36
ATOM     36  C   LIG d   1       3.917   1.419  -2.480  0.00  0.00     0.079 C 
ATOM     37  H   LIG d   1       4.259   1.900  -3.396  0.00  0.00     0.066 H 
ATOM     38  H   LIG d   1       3.014   0.845  -2.687  0.00  0.00     0.066 H 
ATOM     39  H   LIG d   1       3.703   2.178  -1.729  0.00  0.00     0.066 H 
ENDBRANCH  35  36
ENDBRANCH   5  35
TORSDOF 9
ENDMDL
MODEL 2
REMARK VINA RESULT:      -4.6      3.399      5.592
REMARK  9 active torsions:
REMARK  status: ('A' for Active; 'I' for Inactive)
REMARK    1  A    between atoms: C_1  and  N_2 
REMARK    2  A    between atoms: N_2  and  C_3 
REMARK    3  A    between atoms: N_5  and  C_6 
REMARK    4  A    between atoms: N_5  and  C_7 
REMARK    5  A    between atoms: C_7  and  C_8 
REMARK    6  A    between atoms: C_8  and  C_9 
REMARK    7  A    between atoms: C_13  and  O_17 
REMARK    8  A    between atoms: C_14  and  C_15 
REMARK    9  A    between atoms: O_17  and  C_18 
ROOT
ATOM      1  C   LIG d   1       3.975  -1.486  -4.683  0.00  0.00    -0.029 A 
ATOM      2  C   LIG d   1       3.486  -0.305  -5.162  0.00  0.00    -0.012 A 
ATOM      3  C   LIG d   1       3.463  -0.053  -6.531  0.00  0.00     0.170 A 
ATOM      4  C   LIG d   1       3.950  -1.002  -7.425  0.00  0.00     0.208 A 
ATOM      5  C   LIG d   1       4.448  -2.207  -6.951  0.00  0.00     0.176 A 
ATOM      6  C   LIG d   1       4.464  -2.457  -5.568  0.00  0.00     0.063 A 
ATOM      7  O   LIG d   1       3.822  -0.514  -8.694  0.00  0.00    -0.449 OA
ATOM      8  C   LIG d   1       3.637   0.906  -8.541  0.00  0.00     0.233 C 
ATOM      9  O   LIG d   1       3.039   1.033  -7.238  0.00  0.00    -0.453 OA
ATOM     10  H   LIG d   1       3.110   0.438  -4.474  0.00  0.00     0.066 H 
ATOM     11  H   LIG d   1       4.595   1.423  -8.575  0.00  0.00     0.117 H 
ATOM     12  H   LIG d   1       2.967   1.290  -9.310  0.00  0.00     0.117 H 
ENDROOT
BRANCH   1  13
ATOM     13  C   LIG d   1       3.987  -1.747  -3.199  0.00  0.00    -0.011 C 
ATOM     14  H   LIG d   1       3.262  -1.095  -2.709  0.00  0.00     0.033 H 
ATOM     15  H   LIG d   1       3.723  -2.789  -3.011  0.00  0.00     0.033 H 
BRANCH  13  16
ATOM     16  C   LIG d   1       5.383  -1.466  -2.642  0.00  0.00     0.017 C 
ATOM     17  H   LIG d   1       5.425  -1.770  -1.595  0.00  0.00     0.047 H 
ATOM     18  H   LIG d   1       6.122  -2.029  -3.213  0.00  0.00     0.047 H 
BRANCH  16  19
ATOM     19  N   LIG d   1       5.673  -0.034  -2.747  0.00  0.00    -0.316 N 
ATOM     20  C   LIG d   1       6.685   0.392  -3.528  0.00  0.00     0.132 C 
ATOM     21  S   LIG d   1       7.631  -0.740  -4.397  0.00  0.00    -0.019 SA
BRANCH  20  22
ATOM     22  N   LIG d   1       6.953   1.709  -3.625  0.00  0.00    -0.330 N 
ATOM     23  H   LIG d   1       6.264   2.361  -3.422  0.00  0.00     0.147 HD
BRANCH  22  24
ATOM     24  C   LIG d   1       8.285   2.158  -4.037  0.00  0.00    -0.001 C 
ATOM     25  H   LIG d   1       8.859   2.448  -3.156  0.00  0.00     0.043 H 
ATOM     26  H   LIG d   1       8.798   1.345  -4.553  0.00  0.00     0.043 H 
ATOM     27  H   LIG d   1       8.191   3.011  -4.708  0.00  0.00     0.043 H 
ENDBRANCH  22  24
ENDBRANCH  20  22
BRANCH  19  28
ATOM     28  C   LIG d   1       4.864   0.935  -2.003  0.00  0.00     0.002 C 
ATOM     29  H   LIG d   1       5.469   1.385  -1.217  0.00  0.00     0.043 H 
ATOM     30  H   LIG d   1       4.511   1.711  -2.683  0.00  0.00     0.043 H 
ATOM     31  H   LIG d   1       4.009   0.427  -1.557  0.00  0.00     0.043 H 
ENDBRANCH  19  28
ENDBRANCH  16  19
ENDBRANCH  13  16
ENDBRANCH   1  13
BRANCH   6  32
ATOM     32  C   LIG d   1       4.986  -3.725  -5.053  0.00  0.00     0.154 C 
ATOM     33  O   LIG d   1       4.267  -4.701  -5.001  0.00  0.00    -0.296 OA
ATOM     34  H   LIG d   1       6.011  -3.791  -4.719  0.00  0.00     0.108 H 
ENDBRANCH   6  32
BRANCH   5  35
ATOM     35  O   LIG d   1       4.919  -3.139  -7.818  0.00  0.00    -0.491 OA
BRANCH  35  36
ATOM     36  C   LIG d   1       3.951  -3.937  -8.503  0.00  0.00     0.079 C 
ATOM     37  H   LIG d   1       3.228  -4.324  -7.786  0.00  0.00     0.066 H 
ATOM     38  H   LIG d   1       3.437  -3.326  -9.245  0.00  0.00     0.066 H 
ATOM     39  H   LIG d   1       4.452  -4.768  -8.999  0.00  0.00     0.066 H 
ENDBRANCH  35  36
ENDBRANCH   5  35
TORSDOF 9
ENDMDL
MODEL 3
REMARK VINA RESULT:      -4.5      2.628      3.543
REMARK  9 active torsions:
REMARK  status: ('A' for Active; 'I' for Inactive)
REMARK    1  A    between atoms: C_1  and  N_2 
REMARK    2  A    between atoms: N_2  and  C_3 
REMARK    3  A    between atoms: N_5  and  C_6 
REMARK    4  A    between atoms: N_5  and  C_7 
REMARK    5  A    between atoms: C_7  and  C_8 
REMARK    6  A    between atoms: C_8  and  C_9 
REMARK    7  A    between atoms: C_13  and  O_17 
REMARK    8  A    between atoms: C_14  and  C_15 
REMARK    9  A    between atoms: O_17  and  C_18 
ROOT
ATOM      1  C   LIG d   1       4.038  -0.713  -6.127  0.00  0.00    -0.029 A 
ATOM      2  C   LIG d   1       5.137  -1.519  -6.198  0.00  0.00    -0.012 A 
ATOM      3  C   LIG d   1       5.825  -1.880  -5.042  0.00  0.00     0.170 A 
ATOM      4  C   LIG d   1       5.403  -1.409  -3.802  0.00  0.00     0.208 A 
ATOM      5  C   LIG d   1       4.287  -0.590  -3.717  0.00  0.00     0.176 A 
ATOM      6  C   LIG d   1       3.594  -0.235  -4.887  0.00  0.00     0.063 A 
ATOM      7  O   LIG d   1       6.242  -1.897  -2.841  0.00  0.00    -0.449 OA
ATOM      8  C   LIG d   1       7.421  -2.329  -3.546  0.00  0.00     0.233 C 
ATOM      9  O   LIG d   1       6.933  -2.653  -4.861  0.00  0.00    -0.453 OA
ATOM     10  H   LIG d   1       5.473  -1.884  -7.157  0.00  0.00     0.066 H 
ATOM     11  H   LIG d   1       8.153  -1.523  -3.597  0.00  0.00     0.117 H 
ATOM     12  H   LIG d   1       7.852  -3.209  -3.068  0.00  0.00     0.117 H 
ENDROOT
BRANCH   1  13
ATOM     13  C   LIG d   1       3.300  -0.337  -7.386  0.00  0.00    -0.011 C 
ATOM     14  H   LIG d   1       2.388  -0.931  -7.464  0.00  0.00     0.033 H 
ATOM     15  H   LIG d   1       3.042   0.722  -7.354  0.00  0.00     0.033 H 
BRANCH  13  16
ATOM     16  C   LIG d   1       4.189  -0.608  -8.601  0.00  0.00     0.017 C 
ATOM     17  H   LIG d   1       4.598   0.334  -8.970  0.00  0.00     0.047 H 
ATOM     18  H   LIG d   1       5.007  -1.270  -8.312  0.00  0.00     0.047 H 
BRANCH  16  19
ATOM     19  N   LIG d   1       3.396  -1.244  -9.656  0.00  0.00    -0.316 N 
ATOM     20  C   LIG d   1       3.238  -0.626 -10.843  0.00  0.00     0.132 C 
ATOM     21  S   LIG d   1       3.962   0.900 -11.118  0.00  0.00    -0.019 SA
BRANCH  20  22
ATOM     22  N   LIG d   1       2.508  -1.210 -11.815  0.00  0.00    -0.330 N 
ATOM     23  H   LIG d   1       1.617  -1.540 -11.619  0.00  0.00     0.147 HD
BRANCH  22  24
ATOM     24  C   LIG d   1       3.060  -1.346 -13.164  0.00  0.00    -0.001 C 
ATOM     25  H   LIG d   1       3.437  -0.380 -13.501  0.00  0.00     0.043 H 
ATOM     26  H   LIG d   1       3.875  -2.070 -13.152  0.00  0.00     0.043 H 
ATOM     27  H   LIG d   1       2.280  -1.690 -13.843  0.00  0.00     0.043 H 
ENDBRANCH  22  24
ENDBRANCH  20  22
BRANCH  19  28
ATOM     28  C   LIG d   1       2.776  -2.550  -9.421  0.00  0.00     0.002 C 
ATOM     29  H   LIG d   1       1.719  -2.414  -9.195  0.00  0.00     0.043 H 
ATOM     30  H   LIG d   1       2.882  -3.168 -10.312  0.00  0.00     0.043 H 
ATOM     31  H   LIG d   1       3.266  -3.038  -8.579  0.00  0.00     0.043 H 
ENDBRANCH  19  28
ENDBRANCH  16  19
ENDBRANCH  13  16
ENDBRANCH   1  13
BRANCH   6  32
ATOM     32  C   LIG d   1       2.413   0.629  -4.811  0.00  0.00     0.154 C 
ATOM     33  O   LIG d   1       2.537   1.834  -4.881  0.00  0.00    -0.296 OA
ATOM     34  H   LIG d   1       1.432   0.193  -4.691  0.00  0.00     0.108 H 
ENDBRANCH   6  32
BRANCH   5  35
ATOM     35  O   LIG d   1       3.867  -0.133  -2.510  0.00  0.00    -0.491 OA
BRANCH  35  36
ATOM     36  C   LIG d   1       4.619   0.929  -1.920  0.00  0.00     0.079 C 
ATOM     37  H   LIG d   1       4.775   0.718  -0.862  0.00  0.00     0.066 H 
ATOM     38  H   LIG d   1       5.583   1.013  -2.421  0.00  0.00     0.066 H 
ATOM     39  H   LIG d   1       4.070   1.865  -2.026  0.00  0.00     0.066 H 
ENDBRANCH  35  36
ENDBRANCH   5  35
TORSDOF 9
ENDMDL
MODEL 4
REMARK VINA RESULT:      -4.5     10.987     13.329
REMARK  9 active torsions:
REMARK  status: ('A' for Active; 'I' for Inactive)
REMARK    1  A    between atoms: C_1  and  N_2 
REMARK    2  A    between atoms: N_2  and  C_3 
REMARK    3  A    between atoms: N_5  and  C_6 
REMARK    4  A    between atoms: N_5  and  C_7 
REMARK    5  A    between atoms: C_7  and  C_8 
REMARK    6  A    between atoms: C_8  and  C_9 
REMARK    7  A    between atoms: C_13  and  O_17 
REMARK    8  A    between atoms: C_14  and  C_15 
REMARK    9  A    between atoms: O_17  and  C_18 
ROOT
ATOM      1  C   LIG d   1      10.615  10.075  -0.235  0.00  0.00    -0.029 A 
ATOM      2  C   LIG d   1      10.132   8.835  -0.536  0.00  0.00    -0.012 A 
ATOM      3  C   LIG d   1      10.514   7.726   0.214  0.00  0.00     0.170 A 
ATOM      4  C   LIG d   1      11.405   7.872   1.274  0.00  0.00     0.208 A 
ATOM      5  C   LIG d   1      11.902   9.127   1.591  0.00  0.00     0.176 A 
ATOM      6  C   LIG d   1      11.507  10.243   0.833  0.00  0.00     0.063 A 
ATOM      7  O   LIG d   1      11.620   6.646   1.836  0.00  0.00    -0.449 OA
ATOM      8  C   LIG d   1      11.179   5.692   0.852  0.00  0.00     0.233 C 
ATOM      9  O   LIG d   1      10.180   6.409   0.105  0.00  0.00    -0.453 OA
ATOM     10  H   LIG d   1       9.445   8.714  -1.360  0.00  0.00     0.066 H 
ATOM     11  H   LIG d   1      12.005   5.399   0.204  0.00  0.00     0.117 H 
ATOM     12  H   LIG d   1      10.743   4.817   1.335  0.00  0.00     0.117 H 
ENDROOT
BRANCH   1  13
ATOM     13  C   LIG d   1      10.187  11.267  -1.051  0.00  0.00    -0.011 C 
ATOM     14  H   LIG d   1       9.104  11.251  -1.178  0.00  0.00     0.033 H 
ATOM     15  H   LIG d   1      10.479  12.184  -0.537  0.00  0.00     0.033 H 
BRANCH  13  16
ATOM     16  C   LIG d   1      10.862  11.216  -2.423  0.00  0.00     0.017 C 
ATOM     17  H   LIG d   1      11.269  12.199  -2.664  0.00  0.00     0.047 H 
ATOM     18  H   LIG d   1      11.669  10.483  -2.403  0.00  0.00     0.047 H 
BRANCH  16  19
ATOM     19  N   LIG d   1       9.878  10.832  -3.438  0.00  0.00    -0.316 N 
ATOM     20  C   LIG d   1      10.111   9.768  -4.232  0.00  0.00     0.132 C 
ATOM     21  S   LIG d   1      11.556   8.867  -4.055  0.00  0.00    -0.019 SA
BRANCH  20  22
ATOM     22  N   LIG d   1       9.207   9.414  -5.168  0.00  0.00    -0.330 N 
ATOM     23  H   LIG d   1       8.313   9.148  -4.901  0.00  0.00     0.147 HD
BRANCH  22  24
ATOM     24  C   LIG d   1       9.574   9.433  -6.585  0.00  0.00    -0.001 C 
ATOM     25  H   LIG d   1       9.993   8.465  -6.864  0.00  0.00     0.043 H 
ATOM     26  H   LIG d   1       8.687   9.632  -7.187  0.00  0.00     0.043 H 
ATOM     27  H   LIG d   1      10.315  10.214  -6.759  0.00  0.00     0.043 H 
ENDBRANCH  22  24
ENDBRANCH  20  22
BRANCH  19  28
ATOM     28  C   LIG d   1       8.642  11.603  -3.591  0.00  0.00     0.002 C 
ATOM     29  H   LIG d   1       8.121  11.280  -4.491  0.00  0.00     0.043 H 
ATOM     30  H   LIG d   1       8.004  11.441  -2.722  0.00  0.00     0.043 H 
ATOM     31  H   LIG d   1       8.883  12.663  -3.672  0.00  0.00     0.043 H 
ENDBRANCH  19  28
ENDBRANCH  16  19
ENDBRANCH  13  16
ENDBRANCH   1  13
BRANCH   6  32
ATOM     32  C   LIG d   1      12.024  11.575   1.158  0.00  0.00     0.154 C 
ATOM     33  O   LIG d   1      11.478  12.247   2.008  0.00  0.00    -0.296 OA
ATOM     34  H   LIG d   1      12.890  11.960   0.640  0.00  0.00     0.108 H 
ENDBRANCH   6  32
BRANCH   5  35
ATOM     35  O   LIG d   1      12.765   9.277   2.627  0.00  0.00    -0.491 OA
BRANCH  35  36
ATOM     36  C   LIG d   1      12.203   9.321   3.941  0.00  0.00     0.079 C 
ATOM     37  H   LIG d   1      11.476  10.131   3.997  0.00  0.00     0.066 H 
ATOM     38  H   LIG d   1      11.708   8.373   4.155  0.00  0.00     0.066 H 
ATOM     39  H   LIG d   1      12.995   9.492   4.669  0.00  0.00     0.066 H 
ENDBRANCH  35  36
ENDBRANCH   5  35
TORSDOF 9
ENDMDL
MODEL 5
REMARK VINA RESULT:      -4.3      3.254      4.709
REMARK  9 active torsions:
REMARK  status: ('A' for Active; 'I' for Inactive)
REMARK    1  A    between atoms: C_1  and  N_2 
REMARK    2  A    between atoms: N_2  and  C_3 
REMARK    3  A    between atoms: N_5  and  C_6 
REMARK    4  A    between atoms: N_5  and  C_7 
REMARK    5  A    between atoms: C_7  and  C_8 
REMARK    6  A    between atoms: C_8  and  C_9 
REMARK    7  A    between atoms: C_13  and  O_17 
REMARK    8  A    between atoms: C_14  and  C_15 
REMARK    9  A    between atoms: O_17  and  C_18 
ROOT
ATOM      1  C   LIG d   1       4.859  -2.334  -5.223  0.00  0.00    -0.029 A 
ATOM      2  C   LIG d   1       4.751  -1.909  -6.514  0.00  0.00    -0.012 A 
ATOM      3  C   LIG d   1       4.072  -0.732  -6.817  0.00  0.00     0.170 A 
ATOM      4  C   LIG d   1       3.484   0.017  -5.802  0.00  0.00     0.208 A 
ATOM      5  C   LIG d   1       3.587  -0.404  -4.484  0.00  0.00     0.176 A 
ATOM      6  C   LIG d   1       4.280  -1.590  -4.185  0.00  0.00     0.063 A 
ATOM      7  O   LIG d   1       2.880   1.109  -6.357  0.00  0.00    -0.449 OA
ATOM      8  C   LIG d   1       2.748   0.801  -7.758  0.00  0.00     0.233 C 
ATOM      9  O   LIG d   1       3.828  -0.116  -8.009  0.00  0.00    -0.453 OA
ATOM     10  H   LIG d   1       5.201  -2.487  -7.308  0.00  0.00     0.066 H 
ATOM     11  H   LIG d   1       1.788   0.327  -7.957  0.00  0.00     0.117 H 
ATOM     12  H   LIG d   1       2.862   1.703  -8.360  0.00  0.00     0.117 H 
ENDROOT
BRANCH   1  13
ATOM     13  C   LIG d   1       5.604  -3.607  -4.910  0.00  0.00    -0.011 C 
ATOM     14  H   LIG d   1       5.853  -3.630  -3.848  0.00  0.00     0.033 H 
ATOM     15  H   LIG d   1       4.976  -4.464  -5.155  0.00  0.00     0.033 H 
BRANCH  13  16
ATOM     16  C   LIG d   1       6.889  -3.663  -5.737  0.00  0.00     0.017 C 
ATOM     17  H   LIG d   1       7.097  -4.697  -6.016  0.00  0.00     0.047 H 
ATOM     18  H   LIG d   1       6.767  -3.062  -6.639  0.00  0.00     0.047 H 
BRANCH  16  19
ATOM     19  N   LIG d   1       8.004  -3.135  -4.946  0.00  0.00    -0.316 N 
ATOM     20  C   LIG d   1       8.895  -3.981  -4.392  0.00  0.00     0.132 C 
ATOM     21  S   LIG d   1       8.725  -5.669  -4.613  0.00  0.00    -0.019 SA
BRANCH  20  22
ATOM     22  N   LIG d   1       9.921  -3.496  -3.664  0.00  0.00    -0.330 N 
ATOM     23  H   LIG d   1      10.247  -2.597  -3.825  0.00  0.00     0.147 HD
BRANCH  22  24
ATOM     24  C   LIG d   1      10.542  -4.327  -2.630  0.00  0.00    -0.001 C 
ATOM     25  H   LIG d   1      11.256  -5.009  -3.093  0.00  0.00     0.043 H 
ATOM     26  H   LIG d   1      11.061  -3.688  -1.915  0.00  0.00     0.043 H 
ATOM     27  H   LIG d   1       9.772  -4.900  -2.113  0.00  0.00     0.043 H 
ENDBRANCH  22  24
ENDBRANCH  20  22
BRANCH  19  28
ATOM     28  C   LIG d   1       8.149  -1.690  -4.758  0.00  0.00     0.002 C 
ATOM     29  H   LIG d   1       7.895  -1.176  -5.684  0.00  0.00     0.043 H 
ATOM     30  H   LIG d   1       7.481  -1.359  -3.962  0.00  0.00     0.043 H 
ATOM     31  H   LIG d   1       9.179  -1.461  -4.486  0.00  0.00     0.043 H 
ENDBRANCH  19  28
ENDBRANCH  16  19
ENDBRANCH  13  16
ENDBRANCH   1  13
BRANCH   6  32
ATOM     32  C   LIG d   1       4.397  -2.046  -2.798  0.00  0.00     0.154 C 
ATOM     33  O   LIG d   1       3.489  -2.664  -2.283  0.00  0.00    -0.296 OA
ATOM     34  H   LIG d   1       5.292  -1.830  -2.233  0.00  0.00     0.108 H 
ENDBRANCH   6  32
BRANCH   5  35
ATOM     35  O   LIG d   1       3.022   0.325  -3.489  0.00  0.00    -0.491 OA
BRANCH  35  36
ATOM     36  C   LIG d   1       3.776   1.429  -2.984  0.00  0.00     0.079 C 
ATOM     37  H   LIG d   1       4.343   1.112  -2.109  0.00  0.00     0.066 H 
ATOM     38  H   LIG d   1       4.463   1.782  -3.754  0.00  0.00     0.066 H 
ATOM     39  H   LIG d   1       3.097   2.235  -2.704  0.00  0.00     0.066 H 
ENDBRANCH  35  36
ENDBRANCH   5  35
TORSDOF 9
ENDMDL
MODEL 6
REMARK VINA RESULT:      -4.3      9.434     12.156
REMARK  9 active torsions:
REMARK  status: ('A' for Active; 'I' for Inactive)
REMARK    1  A    between atoms: C_1  and  N_2 
REMARK    2  A    between atoms: N_2  and  C_3 
REMARK    3  A    between atoms: N_5  and  C_6 
REMARK    4  A    between atoms: N_5  and  C_7 
REMARK    5  A    between atoms: C_7  and  C_8 
REMARK    6  A    between atoms: C_8  and  C_9 
REMARK    7  A    between atoms: C_13  and  O_17 
REMARK    8  A    between atoms: C_14  and  C_15 
REMARK    9  A    between atoms: O_17  and  C_18 
ROOT
ATOM      1  C   LIG d   1       9.924   8.485  -1.208  0.00  0.00    -0.029 A 
ATOM      2  C   LIG d   1       9.590   7.617  -2.206  0.00  0.00    -0.012 A 
ATOM      3  C   LIG d   1       9.956   6.275  -2.129  0.00  0.00     0.170 A 
ATOM      4  C   LIG d   1      10.677   5.810  -1.033  0.00  0.00     0.208 A 
ATOM      5  C   LIG d   1      11.021   6.682  -0.010  0.00  0.00     0.176 A 
ATOM      6  C   LIG d   1      10.644   8.034  -0.093  0.00  0.00     0.063 A 
ATOM      7  O   LIG d   1      10.913   4.475  -1.200  0.00  0.00    -0.449 OA
ATOM      8  C   LIG d   1      10.691   4.220  -2.599  0.00  0.00     0.233 C 
ATOM      9  O   LIG d   1       9.749   5.237  -2.987  0.00  0.00    -0.453 OA
ATOM     10  H   LIG d   1       9.035   7.972  -3.062  0.00  0.00     0.066 H 
ATOM     11  H   LIG d   1      11.620   4.325  -3.160  0.00  0.00     0.117 H 
ATOM     12  H   LIG d   1      10.267   3.227  -2.745  0.00  0.00     0.117 H 
ENDROOT
BRANCH   1  13
ATOM     13  C   LIG d   1       9.515   9.933  -1.304  0.00  0.00    -0.011 C 
ATOM     14  H   LIG d   1       8.479   9.996  -1.638  0.00  0.00     0.033 H 
ATOM     15  H   LIG d   1       9.610  10.402  -0.324  0.00  0.00     0.033 H 
BRANCH  13  16
ATOM     16  C   LIG d   1      10.419  10.654  -2.303  0.00  0.00     0.017 C 
ATOM     17  H   LIG d   1      10.843  11.543  -1.835  0.00  0.00     0.047 H 
ATOM     18  H   LIG d   1      11.225   9.987  -2.612  0.00  0.00     0.047 H 
BRANCH  16  19
ATOM     19  N   LIG d   1       9.636  11.047  -3.478  0.00  0.00    -0.316 N 
ATOM     20  C   LIG d   1      10.055  10.705  -4.712  0.00  0.00     0.132 C 
ATOM     21  S   LIG d   1      11.503   9.813  -4.908  0.00  0.00    -0.019 SA
BRANCH  20  22
ATOM     22  N   LIG d   1       9.335  11.066  -5.792  0.00  0.00    -0.330 N 
ATOM     23  H   LIG d   1       8.436  10.723  -5.913  0.00  0.00     0.147 HD
BRANCH  22  24
ATOM     24  C   LIG d   1       9.910  11.977  -6.785  0.00  0.00    -0.001 C 
ATOM     25  H   LIG d   1      10.272  12.876  -6.285  0.00  0.00     0.043 H 
ATOM     26  H   LIG d   1      10.740  11.484  -7.291  0.00  0.00     0.043 H 
ATOM     27  H   LIG d   1       9.148  12.247  -7.516  0.00  0.00     0.043 H 
ENDBRANCH  22  24
ENDBRANCH  20  22
BRANCH  19  28
ATOM     28  C   LIG d   1       8.397  11.811  -3.310  0.00  0.00     0.002 C 
ATOM     29  H   LIG d   1       8.251  12.038  -2.255  0.00  0.00     0.043 H 
ATOM     30  H   LIG d   1       8.464  12.739  -3.877  0.00  0.00     0.043 H 
ATOM     31  H   LIG d   1       7.555  11.222  -3.674  0.00  0.00     0.043 H 
ENDBRANCH  19  28
ENDBRANCH  16  19
ENDBRANCH  13  16
ENDBRANCH   1  13
BRANCH   6  32
ATOM     32  C   LIG d   1      10.999   8.966   0.980  0.00  0.00     0.154 C 
ATOM     33  O   LIG d   1      12.097   9.484   0.995  0.00  0.00    -0.296 OA
ATOM     34  H   LIG d   1      10.285   9.191   1.759  0.00  0.00     0.108 H 
ENDBRANCH   6  32
BRANCH   5  35
ATOM     35  O   LIG d   1      11.718   6.233   1.064  0.00  0.00    -0.491 OA
BRANCH  35  36
ATOM     36  C   LIG d   1      10.970   5.612   2.111  0.00  0.00     0.079 C 
ATOM     37  H   LIG d   1      10.995   6.243   2.998  0.00  0.00     0.066 H 
ATOM     38  H   LIG d   1       9.937   5.478   1.789  0.00  0.00     0.066 H 
ATOM     39  H   LIG d   1      11.407   4.641   2.343  0.00  0.00     0.066 H 
ENDBRANCH  35  36
ENDBRANCH   5  35
TORSDOF 9
ENDMDL
MODEL 7
REMARK VINA RESULT:      -4.3      3.106      4.163
REMARK  9 active torsions:
REMARK  status: ('A' for Active; 'I' for Inactive)
REMARK    1  A    between atoms: C_1  and  N_2 
REMARK    2  A    between atoms: N_2  and  C_3 
REMARK    3  A    between atoms: N_5  and  C_6 
REMARK    4  A    between atoms: N_5  and  C_7 
REMARK    5  A    between atoms: C_7  and  C_8 
REMARK    6  A    between atoms: C_8  and  C_9 
REMARK    7  A    between atoms: C_13  and  O_17 
REMARK    8  A    between atoms: C_14  and  C_15 
REMARK    9  A    between atoms: O_17  and  C_18 
ROOT
ATOM      1  C   LIG d   1       6.668  -2.102  -4.408  0.00  0.00    -0.029 A 
ATOM      2  C   LIG d   1       7.808  -1.366  -4.546  0.00  0.00    -0.012 A 
ATOM      3  C   LIG d   1       7.816  -0.008  -4.236  0.00  0.00     0.170 A 
ATOM      4  C   LIG d   1       6.653   0.613  -3.791  0.00  0.00     0.208 A 
ATOM      5  C   LIG d   1       5.487  -0.124  -3.645  0.00  0.00     0.176 A 
ATOM      6  C   LIG d   1       5.488  -1.495  -3.955  0.00  0.00     0.063 A 
ATOM      7  O   LIG d   1       6.922   1.934  -3.565  0.00  0.00    -0.449 OA
ATOM      8  C   LIG d   1       8.149   2.199  -4.271  0.00  0.00     0.233 C 
ATOM      9  O   LIG d   1       8.811   0.922  -4.299  0.00  0.00    -0.453 OA
ATOM     10  H   LIG d   1       8.713  -1.841  -4.895  0.00  0.00     0.066 H 
ATOM     11  H   LIG d   1       7.942   2.546  -5.283  0.00  0.00     0.117 H 
ATOM     12  H   LIG d   1       8.750   2.932  -3.731  0.00  0.00     0.117 H 
ENDROOT
BRANCH   1  13
ATOM     13  C   LIG d   1       6.677  -3.572  -4.741  0.00  0.00    -0.011 C 
ATOM     14  H   LIG d   1       6.344  -4.143  -3.873  0.00  0.00     0.033 H 
ATOM     15  H   LIG d   1       6.003  -3.758  -5.579  0.00  0.00     0.033 H 
BRANCH  13  16
ATOM     16  C   LIG d   1       8.094  -4.001  -5.122  0.00  0.00     0.017 C 
ATOM     17  H   LIG d   1       8.205  -3.970  -6.207  0.00  0.00     0.047 H 
ATOM     18  H   LIG d   1       8.815  -3.322  -4.664  0.00  0.00     0.047 H 
BRANCH  16  19
ATOM     19  N   LIG d   1       8.338  -5.365  -4.645  0.00  0.00    -0.316 N 
ATOM     20  C   LIG d   1       9.174  -5.576  -3.609  0.00  0.00     0.132 C 
ATOM     21  S   LIG d   1       9.951  -4.252  -2.852  0.00  0.00    -0.019 SA
BRANCH  20  22
ATOM     22  N   LIG d   1       9.399  -6.830  -3.170  0.00  0.00    -0.330 N 
ATOM     23  H   LIG d   1       8.663  -7.367  -2.838  0.00  0.00     0.147 HD
BRANCH  22  24
ATOM     24  C   LIG d   1      10.755  -7.383  -3.195  0.00  0.00    -0.001 C 
ATOM     25  H   LIG d   1      11.188  -7.328  -2.196  0.00  0.00     0.043 H 
ATOM     26  H   LIG d   1      10.717  -8.423  -3.518  0.00  0.00     0.043 H 
ATOM     27  H   LIG d   1      11.369  -6.809  -3.890  0.00  0.00     0.043 H 
ENDBRANCH  22  24
ENDBRANCH  20  22
BRANCH  19  28
ATOM     28  C   LIG d   1       7.673  -6.498  -5.293  0.00  0.00     0.002 C 
ATOM     29  H   LIG d   1       6.604  -6.460  -5.083  0.00  0.00     0.043 H 
ATOM     30  H   LIG d   1       7.835  -6.446  -6.369  0.00  0.00     0.043 H 
ATOM     31  H   LIG d   1       8.085  -7.430  -4.907  0.00  0.00     0.043 H 
ENDBRANCH  19  28
ENDBRANCH  16  19
ENDBRANCH  13  16
ENDBRANCH   1  13
BRANCH   6  32
ATOM     32  C   LIG d   1       4.264  -2.286  -3.803  0.00  0.00     0.154 C 
ATOM     33  O   LIG d   1       3.918  -2.664  -2.704  0.00  0.00    -0.296 OA
ATOM     34  H   LIG d   1       3.671  -2.533  -4.671  0.00  0.00     0.108 H 
ENDBRANCH   6  32
BRANCH   5  35
ATOM     35  O   LIG d   1       4.352   0.475  -3.205  0.00  0.00    -0.491 OA
BRANCH  35  36
ATOM     36  C   LIG d   1       4.303   0.842  -1.825  0.00  0.00     0.079 C 
ATOM     37  H   LIG d   1       4.760   1.822  -1.693  0.00  0.00     0.066 H 
ATOM     38  H   LIG d   1       3.265   0.877  -1.495  0.00  0.00     0.066 H 
ATOM     39  H   LIG d   1       4.848   0.105  -1.234  0.00  0.00     0.066 H 
ENDBRANCH  35  36
ENDBRANCH   5  35
TORSDOF 9
ENDMDL
MODEL 8
REMARK VINA RESULT:      -4.2      8.366     10.634
REMARK  9 active torsions:
REMARK  status: ('A' for Active; 'I' for Inactive)
REMARK    1  A    between atoms: C_1  and  N_2 
REMARK    2  A    between atoms: N_2  and  C_3 
REMARK    3  A    between atoms: N_5  and  C_6 
REMARK    4  A    between atoms: N_5  and  C_7 
REMARK    5  A    between atoms: C_7  and  C_8 
REMARK    6  A    between atoms: C_8  and  C_9 
REMARK    7  A    between atoms: C_13  and  O_17 
REMARK    8  A    between atoms: C_14  and  C_15 
REMARK    9  A    between atoms: O_17  and  C_18 
ROOT
ATOM      1  C   LIG d   1       9.562   6.455  -4.109  0.00  0.00    -0.029 A 
ATOM      2  C   LIG d   1       9.670   5.292  -4.815  0.00  0.00    -0.012 A 
ATOM      3  C   LIG d   1      10.063   4.115  -4.184  0.00  0.00     0.170 A 
ATOM      4  C   LIG d   1      10.362   4.117  -2.824  0.00  0.00     0.208 A 
ATOM      5  C   LIG d   1      10.255   5.292  -2.095  0.00  0.00     0.176 A 
ATOM      6  C   LIG d   1       9.852   6.475  -2.738  0.00  0.00     0.063 A 
ATOM      7  O   LIG d   1      10.724   2.853  -2.454  0.00  0.00    -0.449 OA
ATOM      8  C   LIG d   1      11.044   2.173  -3.682  0.00  0.00     0.233 C 
ATOM      9  O   LIG d   1      10.248   2.854  -4.668  0.00  0.00    -0.453 OA
ATOM     10  H   LIG d   1       9.444   5.284  -5.871  0.00  0.00     0.066 H 
ATOM     11  H   LIG d   1      12.105   2.273  -3.910  0.00  0.00     0.117 H 
ATOM     12  H   LIG d   1      10.764   1.121  -3.621  0.00  0.00     0.117 H 
ENDROOT
BRANCH   1  13
ATOM     13  C   LIG d   1       9.128   7.719  -4.805  0.00  0.00    -0.011 C 
ATOM     14  H   LIG d   1       8.275   7.505  -5.450  0.00  0.00     0.033 H 
ATOM     15  H   LIG d   1       8.843   8.464  -4.061  0.00  0.00     0.033 H 
BRANCH  13  16
ATOM     16  C   LIG d   1      10.283   8.259  -5.649  0.00  0.00     0.017 C 
ATOM     17  H   LIG d   1      10.971   8.816  -5.012  0.00  0.00     0.047 H 
ATOM     18  H   LIG d   1      10.813   7.428  -6.115  0.00  0.00     0.047 H 
BRANCH  16  19
ATOM     19  N   LIG d   1       9.756   9.146  -6.690  0.00  0.00    -0.316 N 
ATOM     20  C   LIG d   1       9.993  10.471  -6.629  0.00  0.00     0.132 C 
ATOM     21  S   LIG d   1      10.911  11.118  -5.337  0.00  0.00    -0.019 SA
BRANCH  20  22
ATOM     22  N   LIG d   1       9.508  11.287  -7.586  0.00  0.00    -0.330 N 
ATOM     23  H   LIG d   1       9.085  10.912  -8.374  0.00  0.00     0.147 HD
BRANCH  22  24
ATOM     24  C   LIG d   1       9.618  12.740  -7.434  0.00  0.00    -0.001 C 
ATOM     25  H   LIG d   1       9.660  13.205  -8.419  0.00  0.00     0.043 H 
ATOM     26  H   LIG d   1       8.749  13.115  -6.892  0.00  0.00     0.043 H 
ATOM     27  H   LIG d   1      10.524  12.980  -6.878  0.00  0.00     0.043 H 
ENDBRANCH  22  24
ENDBRANCH  20  22
BRANCH  19  28
ATOM     28  C   LIG d   1       8.970   8.592  -7.795  0.00  0.00     0.002 C 
ATOM     29  H   LIG d   1       9.578   8.575  -8.700  0.00  0.00     0.043 H 
ATOM     30  H   LIG d   1       8.659   7.578  -7.547  0.00  0.00     0.043 H 
ATOM     31  H   LIG d   1       8.090   9.212  -7.962  0.00  0.00     0.043 H 
ENDBRANCH  19  28
ENDBRANCH  16  19
ENDBRANCH  13  16
ENDBRANCH   1  13
BRANCH   6  32
ATOM     32  C   LIG d   1       9.734   7.723  -1.979  0.00  0.00     0.154 C 
ATOM     33  O   LIG d   1       8.862   7.845  -1.144  0.00  0.00    -0.296 OA
ATOM     34  H   LIG d   1      10.422   8.535  -2.164  0.00  0.00     0.108 H 
ENDBRANCH   6  32
BRANCH   5  35
ATOM     35  O   LIG d   1      10.538   5.299  -0.768  0.00  0.00    -0.491 OA
BRANCH  35  36
ATOM     36  C   LIG d   1      11.917   5.377  -0.398  0.00  0.00     0.079 C 
ATOM     37  H   LIG d   1      12.331   4.372  -0.329  0.00  0.00     0.066 H 
ATOM     38  H   LIG d   1      12.463   5.944  -1.152  0.00  0.00     0.066 H 
ATOM     39  H   LIG d   1      12.006   5.875   0.567  0.00  0.00     0.066 H 
ENDBRANCH  35  36
ENDBRANCH   5  35
TORSDOF 9
ENDMDL
MODEL 9
REMARK VINA RESULT:      -4.2      3.481      5.109
REMARK  9 active torsions:
REMARK  status: ('A' for Active; 'I' for Inactive)
REMARK    1  A    between atoms: C_1  and  N_2 
REMARK    2  A    between atoms: N_2  and  C_3 
REMARK    3  A    between atoms: N_5  and  C_6 
REMARK    4  A    between atoms: N_5  and  C_7 
REMARK    5  A    between atoms: C_7  and  C_8 
REMARK    6  A    between atoms: C_8  and  C_9 
REMARK    7  A    between atoms: C_13  and  O_17 
REMARK    8  A    between atoms: C_14  and  C_15 
REMARK    9  A    between atoms: O_17  and  C_18 
ROOT
ATOM      1  C   LIG d   1       5.497  -2.522  -4.622  0.00  0.00    -0.029 A 
ATOM      2  C   LIG d   1       5.212  -2.124  -3.349  0.00  0.00    -0.012 A 
ATOM      3  C   LIG d   1       4.577  -0.907  -3.114  0.00  0.00     0.170 A 
ATOM      4  C   LIG d   1       4.238  -0.079  -4.180  0.00  0.00     0.208 A 
ATOM      5  C   LIG d   1       4.520  -0.473  -5.479  0.00  0.00     0.176 A 
ATOM      6  C   LIG d   1       5.156  -1.705  -5.709  0.00  0.00     0.063 A 
ATOM      7  O   LIG d   1       3.639   1.046  -3.686  0.00  0.00    -0.449 OA
ATOM      8  C   LIG d   1       3.990   1.084  -2.290  0.00  0.00     0.233 C 
ATOM      9  O   LIG d   1       4.202  -0.299  -1.953  0.00  0.00    -0.453 OA
ATOM     10  H   LIG d   1       5.477  -2.759  -2.517  0.00  0.00     0.066 H 
ATOM     11  H   LIG d   1       4.904   1.659  -2.141  0.00  0.00     0.117 H 
ATOM     12  H   LIG d   1       3.174   1.503  -1.701  0.00  0.00     0.117 H 
ENDROOT
BRANCH   1  13
ATOM     13  C   LIG d   1       6.178  -3.845  -4.861  0.00  0.00    -0.011 C 
ATOM     14  H   LIG d   1       5.705  -4.613  -4.248  0.00  0.00     0.033 H 
ATOM     15  H   LIG d   1       6.089  -4.115  -5.914  0.00  0.00     0.033 H 
BRANCH  13  16
ATOM     16  C   LIG d   1       7.657  -3.734  -4.488  0.00  0.00     0.017 C 
ATOM     17  H   LIG d   1       8.159  -3.062  -5.185  0.00  0.00     0.047 H 
ATOM     18  H   LIG d   1       7.747  -3.339  -3.475  0.00  0.00     0.047 H 
BRANCH  16  19
ATOM     19  N   LIG d   1       8.279  -5.059  -4.552  0.00  0.00    -0.316 N 
ATOM     20  C   LIG d   1       9.238  -5.395  -3.667  0.00  0.00     0.132 C 
ATOM     21  S   LIG d   1       9.729  -4.276  -2.469  0.00  0.00    -0.019 SA
BRANCH  20  22
ATOM     22  N   LIG d   1       9.812  -6.614  -3.726  0.00  0.00    -0.330 N 
ATOM     23  H   LIG d   1      10.345  -6.862  -4.498  0.00  0.00     0.147 HD
BRANCH  22  24
ATOM     24  C   LIG d   1       9.631  -7.563  -2.625  0.00  0.00    -0.001 C 
ATOM     25  H   LIG d   1       8.636  -8.005  -2.688  0.00  0.00     0.043 H 
ATOM     26  H   LIG d   1      10.383  -8.348  -2.696  0.00  0.00     0.043 H 
ATOM     27  H   LIG d   1       9.738  -7.041  -1.674  0.00  0.00     0.043 H 
ENDBRANCH  22  24
ENDBRANCH  20  22
BRANCH  19  28
ATOM     28  C   LIG d   1       7.859  -6.017  -5.577  0.00  0.00     0.002 C 
ATOM     29  H   LIG d   1       7.413  -5.480  -6.414  0.00  0.00     0.043 H 
ATOM     30  H   LIG d   1       8.726  -6.579  -5.925  0.00  0.00     0.043 H 
ATOM     31  H   LIG d   1       7.126  -6.703  -5.155  0.00  0.00     0.043 H 
ENDBRANCH  19  28
ENDBRANCH  16  19
ENDBRANCH  13  16
ENDBRANCH   1  13
BRANCH   6  32
ATOM     32  C   LIG d   1       5.460  -2.134  -7.077  0.00  0.00     0.154 C 
ATOM     33  O   LIG d   1       6.477  -1.755  -7.620  0.00  0.00    -0.296 OA
ATOM     34  H   LIG d   1       4.779  -2.787  -7.602  0.00  0.00     0.108 H 
ENDBRANCH   6  32
BRANCH   5  35
ATOM     35  O   LIG d   1       4.186   0.327  -6.523  0.00  0.00    -0.491 OA
BRANCH  35  36
ATOM     36  C   LIG d   1       2.844   0.237  -7.007  0.00  0.00     0.079 C 
ATOM     37  H   LIG d   1       2.843  -0.238  -7.987  0.00  0.00     0.066 H 
ATOM     38  H   LIG d   1       2.248  -0.357  -6.314  0.00  0.00     0.066 H 
ATOM     39  H   LIG d   1       2.419   1.237  -7.088  0.00  0.00     0.066 H 
ENDBRANCH  35  36
ENDBRANCH   5  35
TORSDOF 9
ENDMDL
MODEL 10
REMARK VINA RESULT:      -4.2      3.098      4.482
REMARK  9 active torsions:
REMARK  status: ('A' for Active; 'I' for Inactive)
REMARK    1  A    between atoms: C_1  and  N_2 
REMARK    2  A    between atoms: N_2  and  C_3 
REMARK    3  A    between atoms: N_5  and  C_6 
REMARK    4  A    between atoms: N_5  and  C_7 
REMARK    5  A    between atoms: C_7  and  C_8 
REMARK    6  A    between atoms: C_8  and  C_9 
REMARK    7  A    between atoms: C_13  and  O_17 
REMARK    8  A    between atoms: C_14  and  C_15 
REMARK    9  A    between atoms: O_17  and  C_18 
ROOT
ATOM      1  C   LIG d   1       5.005  -3.001  -5.236  0.00  0.00    -0.029 A 
ATOM      2  C   LIG d   1       4.530  -2.801  -3.973  0.00  0.00    -0.012 A 
ATOM      3  C   LIG d   1       3.958  -1.583  -3.617  0.00  0.00     0.170 A 
ATOM      4  C   LIG d   1       3.877  -0.550  -4.546  0.00  0.00     0.208 A 
ATOM      5  C   LIG d   1       4.356  -0.740  -5.835  0.00  0.00     0.176 A 
ATOM      6  C   LIG d   1       4.926  -1.975  -6.189  0.00  0.00     0.063 A 
ATOM      7  O   LIG d   1       3.288   0.529  -3.952  0.00  0.00    -0.449 OA
ATOM      8  C   LIG d   1       3.388   0.286  -2.536  0.00  0.00     0.233 C 
ATOM      9  O   LIG d   1       3.430  -1.149  -2.437  0.00  0.00    -0.453 OA
ATOM     10  H   LIG d   1       4.593  -3.596  -3.245  0.00  0.00     0.066 H 
ATOM     11  H   LIG d   1       4.302   0.725  -2.135  0.00  0.00     0.117 H 
ATOM     12  H   LIG d   1       2.514   0.682  -2.017  0.00  0.00     0.117 H 
ENDROOT
BRANCH   1  13
ATOM     13  C   LIG d   1       5.615  -4.328  -5.609  0.00  0.00    -0.011 C 
ATOM     14  H   LIG d   1       5.895  -4.315  -6.663  0.00  0.00     0.033 H 
ATOM     15  H   LIG d   1       6.502  -4.504  -4.999  0.00  0.00     0.033 H 
BRANCH  13  16
ATOM     16  C   LIG d   1       4.598  -5.444  -5.365  0.00  0.00     0.017 C 
ATOM     17  H   LIG d   1       4.995  -6.142  -4.627  0.00  0.00     0.047 H 
ATOM     18  H   LIG d   1       3.668  -5.013  -4.993  0.00  0.00     0.047 H 
BRANCH  16  19
ATOM     19  N   LIG d   1       4.340  -6.154  -6.620  0.00  0.00    -0.316 N 
ATOM     20  C   LIG d   1       4.587  -7.476  -6.708  0.00  0.00     0.132 C 
ATOM     21  S   LIG d   1       5.203  -8.324  -5.356  0.00  0.00    -0.019 SA
BRANCH  20  22
ATOM     22  N   LIG d   1       4.350  -8.130  -7.863  0.00  0.00    -0.330 N 
ATOM     23  H   LIG d   1       3.461  -8.120  -8.252  0.00  0.00     0.147 HD
BRANCH  22  24
ATOM     24  C   LIG d   1       5.434  -8.854  -8.531  0.00  0.00    -0.001 C 
ATOM     25  H   LIG d   1       6.009  -9.409  -7.789  0.00  0.00     0.043 H 
ATOM     26  H   LIG d   1       5.012  -9.548  -9.258  0.00  0.00     0.043 H 
ATOM     27  H   LIG d   1       6.085  -8.144  -9.041  0.00  0.00     0.043 H 
ENDBRANCH  22  24
ENDBRANCH  20  22
BRANCH  19  28
ATOM     28  C   LIG d   1       3.813  -5.428  -7.778  0.00  0.00     0.002 C 
ATOM     29  H   LIG d   1       4.225  -4.419  -7.792  0.00  0.00     0.043 H 
ATOM     30  H   LIG d   1       4.094  -5.950  -8.692  0.00  0.00     0.043 H 
ATOM     31  H   LIG d   1       2.727  -5.374  -7.709  0.00  0.00     0.043 H 
ENDBRANCH  19  28
ENDBRANCH  16  19
ENDBRANCH  13  16
ENDBRANCH   1  13
BRANCH   6  32
ATOM     32  C   LIG d   1       5.435  -2.190  -7.546  0.00  0.00     0.154 C 
ATOM     33  O   LIG d   1       6.550  -1.815  -7.843  0.00  0.00    -0.296 OA
ATOM     34  H   LIG d   1       4.816  -2.682  -8.283  0.00  0.00     0.108 H 
ENDBRANCH   6  32
BRANCH   5  35
ATOM     35  O   LIG d   1       4.274   0.260  -6.748  0.00  0.00    -0.491 OA
BRANCH  35  36
ATOM     36  C   LIG d   1       3.016   0.442  -7.402  0.00  0.00     0.079 C 
ATOM     37  H   LIG d   1       2.714   1.486  -7.324  0.00  0.00     0.066 H 
ATOM     38  H   LIG d   1       3.110   0.167  -8.453  0.00  0.00     0.066 H 
ATOM     39  H   LIG d   1       2.265  -0.190  -6.926  0.00  0.00     0.066 H 
ENDBRANCH  35  36
ENDBRANCH   5  35
TORSDOF 9
ENDMDL
