MODEL 1
REMARK VINA RESULT:      -7.3      0.000      0.000
REMARK  10 active torsions:
REMARK  status: ('A' for Active; 'I' for Inactive)
REMARK    1  A    between atoms: C_3  and  O_37 
REMARK    2  A    between atoms: C_6  and  C_7 
REMARK    3  A    between atoms: C_13  and  O_36 
REMARK    4  A    between atoms: C_15  and  O_19 
REMARK    5  A    between atoms: O_19  and  C_20 
REMARK    6  A    between atoms: C_22  and  O_35 
REMARK    7  A    between atoms: C_24  and  O_34 
REMARK    8  A    between atoms: C_26  and  O_33 
REMARK    9  A    between atoms: C_28  and  C_31 
REMARK   10  A    between atoms: C_31  and  O_32 
ROOT
ATOM      1  C   LIG d   1       9.704   5.414  -2.939  0.00  0.00     0.132 C 
ATOM      2  H   LIG d   1       8.724   5.841  -3.154  0.00  0.00     0.079 H 
ATOM      3  C   LIG d   1      10.656   5.708  -4.109  0.00  0.00     0.052 C 
ATOM      4  C   LIG d   1      10.072   5.043  -5.341  0.00  0.00     0.174 C 
ATOM      5  O   LIG d   1      10.092   5.583  -6.429  0.00  0.00    -0.292 OA
ATOM      6  C   LIG d   1       9.482   3.712  -5.153  0.00  0.00     0.101 A 
ATOM      7  C   LIG d   1       9.151   2.912  -6.258  0.00  0.00     0.134 A 
ATOM      8  C   LIG d   1       8.585   1.667  -6.052  0.00  0.00     0.023 A 
ATOM      9  C   LIG d   1       8.350   1.214  -4.759  0.00  0.00     0.131 A 
ATOM     10  C   LIG d   1       8.682   1.999  -3.662  0.00  0.00     0.023 A 
ATOM     11  C   LIG d   1       9.251   3.247  -3.845  0.00  0.00     0.139 A 
ATOM     12  O   LIG d   1       9.583   4.002  -2.772  0.00  0.00    -0.483 OA
ATOM     13  H   LIG d   1      10.728   6.784  -4.267  0.00  0.00     0.038 H 
ATOM     14  H   LIG d   1      11.642   5.296  -3.896  0.00  0.00     0.038 H 
ATOM     15  H   LIG d   1       8.325   1.046  -6.897  0.00  0.00     0.069 H 
ATOM     16  H   LIG d   1       8.494   1.634  -2.663  0.00  0.00     0.069 H 
ENDROOT
BRANCH   9  17
ATOM     17  O   LIG d   1       7.791  -0.008  -4.567  0.00  0.00    -0.461 OA
BRANCH  17  18
ATOM     18  C   LIG d   1       6.372  -0.099  -4.701  0.00  0.00     0.231 C 
ATOM     19  H   LIG d   1       6.056   0.432  -5.599  0.00  0.00     0.108 H 
ATOM     20  O   LIG d   1       5.745   0.485  -3.558  0.00  0.00    -0.331 OA
ATOM     21  C   LIG d   1       4.317   0.470  -3.602  0.00  0.00     0.114 C 
ATOM     22  C   LIG d   1       3.826  -0.979  -3.665  0.00  0.00     0.112 C 
ATOM     23  H   LIG d   1       3.975   1.008  -4.486  0.00  0.00     0.065 H 
ATOM     24  C   LIG d   1       4.437  -1.664  -4.892  0.00  0.00     0.115 C 
ATOM     25  H   LIG d   1       4.134  -1.507  -2.763  0.00  0.00     0.065 H 
ATOM     26  C   LIG d   1       5.963  -1.570  -4.809  0.00  0.00     0.145 C 
ATOM     27  H   LIG d   1       4.090  -1.166  -5.797  0.00  0.00     0.065 H 
ATOM     28  H   LIG d   1       6.314  -2.111  -3.929  0.00  0.00     0.068 H 
BRANCH  21  29
ATOM     29  C   LIG d   1       3.759   1.143  -2.346  0.00  0.00     0.073 C 
ATOM     30  H   LIG d   1       3.503   2.178  -2.573  0.00  0.00     0.058 H 
ATOM     31  H   LIG d   1       2.867   0.611  -2.014  0.00  0.00     0.058 H 
BRANCH  29  32
ATOM     32  O   LIG d   1       4.745   1.112  -1.312  0.00  0.00    -0.392 OA
ATOM     33  H   LIG d   1       5.094   0.229  -1.129  0.00  0.00     0.209 HD
ENDBRANCH  29  32
ENDBRANCH  21  29
BRANCH  22  34
ATOM     34  O   LIG d   1       2.401  -0.997  -3.767  0.00  0.00    -0.387 OA
ATOM     35  H   LIG d   1       2.069  -0.862  -4.665  0.00  0.00     0.210 HD
ENDBRANCH  22  34
BRANCH  24  36
ATOM     36  O   LIG d   1       4.042  -3.037  -4.920  0.00  0.00    -0.386 OA
ATOM     37  H   LIG d   1       4.568  -3.585  -5.519  0.00  0.00     0.210 HD
ENDBRANCH  24  36
BRANCH  26  38
ATOM     38  O   LIG d   1       6.543  -2.143  -5.983  0.00  0.00    -0.383 OA
ATOM     39  H   LIG d   1       7.442  -1.838  -6.167  0.00  0.00     0.210 HD
ENDBRANCH  26  38
ENDBRANCH  17  18
ENDBRANCH   9  17
BRANCH   7  40
ATOM     40  O   LIG d   1       9.383   3.357  -7.518  0.00  0.00    -0.506 OA
ATOM     41  H   LIG d   1       9.397   4.321  -7.598  0.00  0.00     0.292 HD
ENDBRANCH   7  40
BRANCH   1  42
ATOM     42  C   LIG d   1      10.254   6.026  -1.677  0.00  0.00    -0.007 A 
ATOM     43  C   LIG d   1       9.880   7.305  -1.310  0.00  0.00    -0.052 A 
ATOM     44  C   LIG d   1      10.382   7.868  -0.153  0.00  0.00    -0.020 A 
ATOM     45  H   LIG d   1       9.191   7.864  -1.926  0.00  0.00     0.062 H 
ATOM     46  C   LIG d   1      11.263   7.147   0.641  0.00  0.00     0.117 A 
ATOM     47  H   LIG d   1      10.090   8.867   0.133  0.00  0.00     0.065 H 
ATOM     48  C   LIG d   1      11.637   5.864   0.270  0.00  0.00    -0.020 A 
ATOM     49  C   LIG d   1      11.131   5.306  -0.888  0.00  0.00    -0.052 A 
ATOM     50  H   LIG d   1      12.322   5.302   0.887  0.00  0.00     0.065 H 
ATOM     51  H   LIG d   1      11.422   4.307  -1.177  0.00  0.00     0.062 H 
BRANCH  46  52
ATOM     52  O   LIG d   1      11.759   7.699   1.780  0.00  0.00    -0.507 OA
ATOM     53  H   LIG d   1      12.714   7.589   1.887  0.00  0.00     0.292 HD
ENDBRANCH  46  52
ENDBRANCH   1  42
TORSDOF 10
ENDMDL
MODEL 2
REMARK VINA RESULT:      -6.9      1.908      8.510
REMARK  10 active torsions:
REMARK  status: ('A' for Active; 'I' for Inactive)
REMARK    1  A    between atoms: C_3  and  O_37 
REMARK    2  A    between atoms: C_6  and  C_7 
REMARK    3  A    between atoms: C_13  and  O_36 
REMARK    4  A    between atoms: C_15  and  O_19 
REMARK    5  A    between atoms: O_19  and  C_20 
REMARK    6  A    between atoms: C_22  and  O_35 
REMARK    7  A    between atoms: C_24  and  O_34 
REMARK    8  A    between atoms: C_26  and  O_33 
REMARK    9  A    between atoms: C_28  and  C_31 
REMARK   10  A    between atoms: C_31  and  O_32 
ROOT
ATOM      1  C   LIG d   1       7.763   0.591  -4.343  0.00  0.00     0.132 C 
ATOM      2  H   LIG d   1       8.607  -0.079  -4.510  0.00  0.00     0.079 H 
ATOM      3  C   LIG d   1       7.293   1.165  -5.688  0.00  0.00     0.052 C 
ATOM      4  C   LIG d   1       8.454   1.947  -6.273  0.00  0.00     0.174 C 
ATOM      5  O   LIG d   1       8.717   1.910  -7.459  0.00  0.00    -0.292 OA
ATOM      6  C   LIG d   1       9.243   2.753  -5.334  0.00  0.00     0.101 A 
ATOM      7  C   LIG d   1      10.165   3.702  -5.804  0.00  0.00     0.134 A 
ATOM      8  C   LIG d   1      10.905   4.439  -4.896  0.00  0.00     0.023 A 
ATOM      9  C   LIG d   1      10.732   4.241  -3.532  0.00  0.00     0.131 A 
ATOM     10  C   LIG d   1       9.816   3.307  -3.062  0.00  0.00     0.023 A 
ATOM     11  C   LIG d   1       9.065   2.560  -3.952  0.00  0.00     0.139 A 
ATOM     12  O   LIG d   1       8.165   1.661  -3.488  0.00  0.00    -0.483 OA
ATOM     13  H   LIG d   1       7.016   0.353  -6.361  0.00  0.00     0.038 H 
ATOM     14  H   LIG d   1       6.440   1.826  -5.532  0.00  0.00     0.038 H 
ATOM     15  H   LIG d   1      11.618   5.170  -5.249  0.00  0.00     0.069 H 
ATOM     16  H   LIG d   1       9.692   3.164  -1.999  0.00  0.00     0.069 H 
ENDROOT
BRANCH   9  17
ATOM     17  O   LIG d   1      11.464   4.965  -2.650  0.00  0.00    -0.461 OA
BRANCH  17  18
ATOM     18  C   LIG d   1      10.759   5.911  -1.844  0.00  0.00     0.231 C 
ATOM     19  H   LIG d   1       9.734   5.569  -1.695  0.00  0.00     0.108 H 
ATOM     20  O   LIG d   1      10.746   7.180  -2.499  0.00  0.00    -0.331 OA
ATOM     21  C   LIG d   1      10.039   8.198  -1.787  0.00  0.00     0.114 C 
ATOM     22  C   LIG d   1      10.706   8.425  -0.428  0.00  0.00     0.112 C 
ATOM     23  H   LIG d   1       9.006   7.886  -1.637  0.00  0.00     0.065 H 
ATOM     24  C   LIG d   1      10.728   7.104   0.348  0.00  0.00     0.115 C 
ATOM     25  H   LIG d   1      11.727   8.775  -0.577  0.00  0.00     0.065 H 
ATOM     26  C   LIG d   1      11.454   6.045  -0.487  0.00  0.00     0.145 C 
ATOM     27  H   LIG d   1       9.706   6.778   0.541  0.00  0.00     0.065 H 
ATOM     28  H   LIG d   1      12.491   6.348  -0.637  0.00  0.00     0.068 H 
BRANCH  21  29
ATOM     29  C   LIG d   1      10.068   9.499  -2.592  0.00  0.00     0.073 C 
ATOM     30  H   LIG d   1      10.949  10.078  -2.316  0.00  0.00     0.058 H 
ATOM     31  H   LIG d   1      10.104   9.266  -3.657  0.00  0.00     0.058 H 
BRANCH  29  32
ATOM     32  O   LIG d   1       8.891  10.259  -2.311  0.00  0.00    -0.392 OA
ATOM     33  H   LIG d   1       8.291   9.837  -1.682  0.00  0.00     0.209 HD
ENDBRANCH  29  32
ENDBRANCH  21  29
BRANCH  22  34
ATOM     34  O   LIG d   1       9.969   9.401   0.310  0.00  0.00    -0.387 OA
ATOM     35  H   LIG d   1       9.061   9.523   0.003  0.00  0.00     0.210 HD
ENDBRANCH  22  34
BRANCH  24  36
ATOM     36  O   LIG d   1      11.413   7.288   1.588  0.00  0.00    -0.386 OA
ATOM     37  H   LIG d   1      11.636   8.209   1.781  0.00  0.00     0.210 HD
ENDBRANCH  24  36
BRANCH  26  38
ATOM     38  O   LIG d   1      11.418   4.790   0.195  0.00  0.00    -0.383 OA
ATOM     39  H   LIG d   1      11.405   4.867   1.159  0.00  0.00     0.210 HD
ENDBRANCH  26  38
ENDBRANCH  17  18
ENDBRANCH   9  17
BRANCH   7  40
ATOM     40  O   LIG d   1      10.330   3.894  -7.136  0.00  0.00    -0.506 OA
ATOM     41  H   LIG d   1      10.671   4.769  -7.368  0.00  0.00     0.292 HD
ENDBRANCH   7  40
BRANCH   1  42
ATOM     42  C   LIG d   1       6.635  -0.171  -3.699  0.00  0.00    -0.007 A 
ATOM     43  C   LIG d   1       5.749   0.483  -2.863  0.00  0.00    -0.052 A 
ATOM     44  C   LIG d   1       4.713  -0.214  -2.271  0.00  0.00    -0.020 A 
ATOM     45  H   LIG d   1       5.865   1.539  -2.674  0.00  0.00     0.062 H 
ATOM     46  C   LIG d   1       4.561  -1.571  -2.518  0.00  0.00     0.117 A 
ATOM     47  H   LIG d   1       4.022   0.297  -1.618  0.00  0.00     0.065 H 
ATOM     48  C   LIG d   1       5.452  -2.225  -3.358  0.00  0.00    -0.020 A 
ATOM     49  C   LIG d   1       6.486  -1.523  -3.947  0.00  0.00    -0.052 A 
ATOM     50  H   LIG d   1       5.336  -3.280  -3.551  0.00  0.00     0.065 H 
ATOM     51  H   LIG d   1       7.179  -2.031  -4.600  0.00  0.00     0.062 H 
BRANCH  46  52
ATOM     52  O   LIG d   1       3.543  -2.258  -1.937  0.00  0.00    -0.507 OA
ATOM     53  H   LIG d   1       3.213  -2.996  -2.468  0.00  0.00     0.292 HD
ENDBRANCH  46  52
ENDBRANCH   1  42
TORSDOF 10
ENDMDL
MODEL 3
REMARK VINA RESULT:      -6.8      1.619      2.600
REMARK  10 active torsions:
REMARK  status: ('A' for Active; 'I' for Inactive)
REMARK    1  A    between atoms: C_3  and  O_37 
REMARK    2  A    between atoms: C_6  and  C_7 
REMARK    3  A    between atoms: C_13  and  O_36 
REMARK    4  A    between atoms: C_15  and  O_19 
REMARK    5  A    between atoms: O_19  and  C_20 
REMARK    6  A    between atoms: C_22  and  O_35 
REMARK    7  A    between atoms: C_24  and  O_34 
REMARK    8  A    between atoms: C_26  and  O_33 
REMARK    9  A    between atoms: C_28  and  C_31 
REMARK   10  A    between atoms: C_31  and  O_32 
ROOT
ATOM      1  C   LIG d   1      10.724   4.612  -2.971  0.00  0.00     0.132 C 
ATOM      2  H   LIG d   1      10.652   5.243  -3.857  0.00  0.00     0.079 H 
ATOM      3  C   LIG d   1      11.971   3.722  -3.077  0.00  0.00     0.052 C 
ATOM      4  C   LIG d   1      11.797   2.850  -4.307  0.00  0.00     0.174 C 
ATOM      5  O   LIG d   1      12.723   2.609  -5.055  0.00  0.00    -0.292 OA
ATOM      6  C   LIG d   1      10.453   2.312  -4.546  0.00  0.00     0.101 A 
ATOM      7  C   LIG d   1      10.245   1.300  -5.497  0.00  0.00     0.134 A 
ATOM      8  C   LIG d   1       8.965   0.820  -5.711  0.00  0.00     0.023 A 
ATOM      9  C   LIG d   1       7.898   1.335  -4.986  0.00  0.00     0.131 A 
ATOM     10  C   LIG d   1       8.099   2.332  -4.039  0.00  0.00     0.023 A 
ATOM     11  C   LIG d   1       9.371   2.825  -3.808  0.00  0.00     0.139 A 
ATOM     12  O   LIG d   1       9.562   3.788  -2.876  0.00  0.00    -0.483 OA
ATOM     13  H   LIG d   1      12.861   4.342  -3.185  0.00  0.00     0.038 H 
ATOM     14  H   LIG d   1      12.058   3.097  -2.188  0.00  0.00     0.038 H 
ATOM     15  H   LIG d   1       8.796   0.043  -6.442  0.00  0.00     0.069 H 
ATOM     16  H   LIG d   1       7.260   2.723  -3.483  0.00  0.00     0.069 H 
ENDROOT
BRANCH   9  17
ATOM     17  O   LIG d   1       6.645   0.860  -5.205  0.00  0.00    -0.461 OA
BRANCH  17  18
ATOM     18  C   LIG d   1       6.111  -0.033  -4.227  0.00  0.00     0.231 C 
ATOM     19  H   LIG d   1       6.810  -0.123  -3.395  0.00  0.00     0.108 H 
ATOM     20  O   LIG d   1       5.903  -1.317  -4.816  0.00  0.00    -0.331 OA
ATOM     21  C   LIG d   1       5.391  -2.299  -3.911  0.00  0.00     0.114 C 
ATOM     22  C   LIG d   1       4.028  -1.844  -3.386  0.00  0.00     0.112 C 
ATOM     23  H   LIG d   1       6.081  -2.419  -3.077  0.00  0.00     0.065 H 
ATOM     24  C   LIG d   1       4.180  -0.478  -2.709  0.00  0.00     0.115 C 
ATOM     25  H   LIG d   1       3.326  -1.763  -4.215  0.00  0.00     0.065 H 
ATOM     26  C   LIG d   1       4.776   0.513  -3.713  0.00  0.00     0.145 C 
ATOM     27  H   LIG d   1       4.843  -0.569  -1.849  0.00  0.00     0.065 H 
ATOM     28  H   LIG d   1       4.089   0.642  -4.549  0.00  0.00     0.068 H 
BRANCH  21  29
ATOM     29  C   LIG d   1       5.237  -3.635  -4.642  0.00  0.00     0.073 C 
ATOM     30  H   LIG d   1       6.060  -3.761  -5.345  0.00  0.00     0.058 H 
ATOM     31  H   LIG d   1       5.249  -4.449  -3.917  0.00  0.00     0.058 H 
BRANCH  29  32
ATOM     32  O   LIG d   1       3.997  -3.649  -5.352  0.00  0.00    -0.392 OA
ATOM     33  H   LIG d   1       3.948  -4.321  -6.045  0.00  0.00     0.209 HD
ENDBRANCH  29  32
ENDBRANCH  21  29
BRANCH  22  34
ATOM     34  O   LIG d   1       3.539  -2.795  -2.438  0.00  0.00    -0.387 OA
ATOM     35  H   LIG d   1       2.613  -2.666  -2.193  0.00  0.00     0.210 HD
ENDBRANCH  22  34
BRANCH  24  36
ATOM     36  O   LIG d   1       2.900  -0.012  -2.278  0.00  0.00    -0.386 OA
ATOM     37  H   LIG d   1       2.768   0.940  -2.395  0.00  0.00     0.210 HD
ENDBRANCH  24  36
BRANCH  26  38
ATOM     38  O   LIG d   1       4.990   1.773  -3.072  0.00  0.00    -0.383 OA
ATOM     39  H   LIG d   1       5.920   1.971  -2.894  0.00  0.00     0.210 HD
ENDBRANCH  26  38
ENDBRANCH  17  18
ENDBRANCH   9  17
BRANCH   7  40
ATOM     40  O   LIG d   1      11.290   0.799  -6.201  0.00  0.00    -0.506 OA
ATOM     41  H   LIG d   1      12.154   1.099  -5.889  0.00  0.00     0.292 HD
ENDBRANCH   7  40
BRANCH   1  42
ATOM     42  C   LIG d   1      10.828   5.479  -1.743  0.00  0.00    -0.007 A 
ATOM     43  C   LIG d   1      10.053   6.619  -1.636  0.00  0.00    -0.052 A 
ATOM     44  C   LIG d   1      10.147   7.416  -0.511  0.00  0.00    -0.020 A 
ATOM     45  H   LIG d   1       9.372   6.886  -2.430  0.00  0.00     0.062 H 
ATOM     46  C   LIG d   1      11.019   7.070   0.512  0.00  0.00     0.117 A 
ATOM     47  H   LIG d   1       9.542   8.306  -0.427  0.00  0.00     0.065 H 
ATOM     48  C   LIG d   1      11.795   5.926   0.401  0.00  0.00    -0.020 A 
ATOM     49  C   LIG d   1      11.697   5.133  -0.726  0.00  0.00    -0.052 A 
ATOM     50  H   LIG d   1      12.474   5.655   1.196  0.00  0.00     0.065 H 
ATOM     51  H   LIG d   1      12.301   4.242  -0.812  0.00  0.00     0.062 H 
BRANCH  46  52
ATOM     52  O   LIG d   1      11.112   7.852   1.619  0.00  0.00    -0.507 OA
ATOM     53  H   LIG d   1      11.626   8.661   1.487  0.00  0.00     0.292 HD
ENDBRANCH  46  52
ENDBRANCH   1  42
TORSDOF 10
ENDMDL
MODEL 4
REMARK VINA RESULT:      -6.6      5.136     10.160
REMARK  10 active torsions:
REMARK  status: ('A' for Active; 'I' for Inactive)
REMARK    1  A    between atoms: C_3  and  O_37 
REMARK    2  A    between atoms: C_6  and  C_7 
REMARK    3  A    between atoms: C_13  and  O_36 
REMARK    4  A    between atoms: C_15  and  O_19 
REMARK    5  A    between atoms: O_19  and  C_20 
REMARK    6  A    between atoms: C_22  and  O_35 
REMARK    7  A    between atoms: C_24  and  O_34 
REMARK    8  A    between atoms: C_26  and  O_33 
REMARK    9  A    between atoms: C_28  and  C_31 
REMARK   10  A    between atoms: C_31  and  O_32 
ROOT
ATOM      1  C   LIG d   1       9.686   6.112  -5.707  0.00  0.00     0.132 C 
ATOM      2  H   LIG d   1       8.730   5.616  -5.543  0.00  0.00     0.079 H 
ATOM      3  C   LIG d   1      10.819   5.077  -5.627  0.00  0.00     0.052 C 
ATOM      4  C   LIG d   1      10.789   4.484  -4.231  0.00  0.00     0.174 C 
ATOM      5  O   LIG d   1      10.972   3.299  -4.036  0.00  0.00    -0.292 OA
ATOM      6  C   LIG d   1      10.527   5.415  -3.127  0.00  0.00     0.101 A 
ATOM      7  C   LIG d   1      10.730   5.021  -1.795  0.00  0.00     0.134 A 
ATOM      8  C   LIG d   1      10.463   5.915  -0.773  0.00  0.00     0.023 A 
ATOM      9  C   LIG d   1      10.002   7.192  -1.068  0.00  0.00     0.131 A 
ATOM     10  C   LIG d   1       9.805   7.589  -2.385  0.00  0.00     0.023 A 
ATOM     11  C   LIG d   1      10.067   6.712  -3.422  0.00  0.00     0.139 A 
ATOM     12  O   LIG d   1       9.885   7.108  -4.704  0.00  0.00    -0.483 OA
ATOM     13  H   LIG d   1      10.657   4.293  -6.368  0.00  0.00     0.038 H 
ATOM     14  H   LIG d   1      11.778   5.563  -5.804  0.00  0.00     0.038 H 
ATOM     15  H   LIG d   1      10.614   5.620   0.255  0.00  0.00     0.069 H 
ATOM     16  H   LIG d   1       9.447   8.585  -2.599  0.00  0.00     0.069 H 
ENDROOT
BRANCH   9  17
ATOM     17  O   LIG d   1       9.740   8.061  -0.059  0.00  0.00    -0.461 OA
BRANCH  17  18
ATOM     18  C   LIG d   1      10.560   9.228   0.021  0.00  0.00     0.231 C 
ATOM     19  H   LIG d   1      11.213   9.274  -0.851  0.00  0.00     0.108 H 
ATOM     20  O   LIG d   1      11.353   9.175   1.207  0.00  0.00    -0.331 OA
ATOM     21  C   LIG d   1      12.234  10.288   1.372  0.00  0.00     0.114 C 
ATOM     22  C   LIG d   1      11.412  11.577   1.465  0.00  0.00     0.112 C 
ATOM     23  H   LIG d   1      12.908  10.347   0.519  0.00  0.00     0.065 H 
ATOM     24  C   LIG d   1      10.554  11.718   0.204  0.00  0.00     0.115 C 
ATOM     25  H   LIG d   1      10.766  11.535   2.341  0.00  0.00     0.065 H 
ATOM     26  C   LIG d   1       9.671  10.474   0.058  0.00  0.00     0.145 C 
ATOM     27  H   LIG d   1      11.201  11.809  -0.669  0.00  0.00     0.065 H 
ATOM     28  H   LIG d   1       8.990  10.411   0.906  0.00  0.00     0.068 H 
BRANCH  21  29
ATOM     29  C   LIG d   1      13.048  10.109   2.655  0.00  0.00     0.073 C 
ATOM     30  H   LIG d   1      13.187   9.046   2.852  0.00  0.00     0.058 H 
ATOM     31  H   LIG d   1      14.021  10.588   2.538  0.00  0.00     0.058 H 
BRANCH  29  32
ATOM     32  O   LIG d   1      12.352  10.709   3.749  0.00  0.00    -0.392 OA
ATOM     33  H   LIG d   1      12.191  11.656   3.641  0.00  0.00     0.209 HD
ENDBRANCH  29  32
ENDBRANCH  21  29
BRANCH  22  34
ATOM     34  O   LIG d   1      12.291  12.697   1.573  0.00  0.00    -0.387 OA
ATOM     35  H   LIG d   1      12.760  12.910   0.754  0.00  0.00     0.210 HD
ENDBRANCH  22  34
BRANCH  24  36
ATOM     36  O   LIG d   1       9.730  12.880   0.312  0.00  0.00    -0.386 OA
ATOM     37  H   LIG d   1       8.881  12.721   0.746  0.00  0.00     0.210 HD
ENDBRANCH  24  36
BRANCH  26  38
ATOM     38  O   LIG d   1       8.918  10.561  -1.154  0.00  0.00    -0.383 OA
ATOM     39  H   LIG d   1       8.024  10.909  -1.036  0.00  0.00     0.210 HD
ENDBRANCH  26  38
ENDBRANCH  17  18
ENDBRANCH   9  17
BRANCH   7  40
ATOM     40  O   LIG d   1      11.181   3.775  -1.512  0.00  0.00    -0.506 OA
ATOM     41  H   LIG d   1      12.109   3.746  -1.238  0.00  0.00     0.292 HD
ENDBRANCH   7  40
BRANCH   1  42
ATOM     42  C   LIG d   1       9.691   6.759  -7.067  0.00  0.00    -0.007 A 
ATOM     43  C   LIG d   1       9.336   8.088  -7.200  0.00  0.00    -0.052 A 
ATOM     44  C   LIG d   1       9.339   8.685  -8.446  0.00  0.00    -0.020 A 
ATOM     45  H   LIG d   1       9.059   8.663  -6.329  0.00  0.00     0.062 H 
ATOM     46  C   LIG d   1       9.701   7.947  -9.565  0.00  0.00     0.117 A 
ATOM     47  H   LIG d   1       9.062   9.723  -8.550  0.00  0.00     0.065 H 
ATOM     48  C   LIG d   1      10.056   6.614  -9.429  0.00  0.00    -0.020 A 
ATOM     49  C   LIG d   1      10.051   6.023  -8.180  0.00  0.00    -0.052 A 
ATOM     50  H   LIG d   1      10.337   6.038 -10.298  0.00  0.00     0.065 H 
ATOM     51  H   LIG d   1      10.328   4.984  -8.074  0.00  0.00     0.062 H 
BRANCH  46  52
ATOM     52  O   LIG d   1       9.705   8.532 -10.792  0.00  0.00    -0.507 OA
ATOM     53  H   LIG d   1       8.944   8.298 -11.342  0.00  0.00     0.292 HD
ENDBRANCH  46  52
ENDBRANCH   1  42
TORSDOF 10
ENDMDL
MODEL 5
REMARK VINA RESULT:      -6.5      2.503      3.511
REMARK  10 active torsions:
REMARK  status: ('A' for Active; 'I' for Inactive)
REMARK    1  A    between atoms: C_3  and  O_37 
REMARK    2  A    between atoms: C_6  and  C_7 
REMARK    3  A    between atoms: C_13  and  O_36 
REMARK    4  A    between atoms: C_15  and  O_19 
REMARK    5  A    between atoms: O_19  and  C_20 
REMARK    6  A    between atoms: C_22  and  O_35 
REMARK    7  A    between atoms: C_24  and  O_34 
REMARK    8  A    between atoms: C_26  and  O_33 
REMARK    9  A    between atoms: C_28  and  C_31 
REMARK   10  A    between atoms: C_31  and  O_32 
ROOT
ATOM      1  C   LIG d   1      10.287   4.073  -3.334  0.00  0.00     0.132 C 
ATOM      2  H   LIG d   1      10.218   4.494  -4.337  0.00  0.00     0.079 H 
ATOM      3  C   LIG d   1      11.555   3.212  -3.228  0.00  0.00     0.052 C 
ATOM      4  C   LIG d   1      11.423   2.090  -4.240  0.00  0.00     0.174 C 
ATOM      5  O   LIG d   1      12.367   1.716  -4.906  0.00  0.00    -0.292 OA
ATOM      6  C   LIG d   1      10.095   1.479  -4.374  0.00  0.00     0.101 A 
ATOM      7  C   LIG d   1       9.927   0.280  -5.085  0.00  0.00     0.134 A 
ATOM      8  C   LIG d   1       8.662  -0.267  -5.206  0.00  0.00     0.023 A 
ATOM      9  C   LIG d   1       7.570   0.366  -4.625  0.00  0.00     0.131 A 
ATOM     10  C   LIG d   1       7.732   1.549  -3.915  0.00  0.00     0.023 A 
ATOM     11  C   LIG d   1       8.989   2.113  -3.780  0.00  0.00     0.139 A 
ATOM     12  O   LIG d   1       9.142   3.260  -3.077  0.00  0.00    -0.483 OA
ATOM     13  H   LIG d   1      12.434   3.817  -3.456  0.00  0.00     0.038 H 
ATOM     14  H   LIG d   1      11.640   2.798  -2.223  0.00  0.00     0.038 H 
ATOM     15  H   LIG d   1       8.523  -1.188  -5.754  0.00  0.00     0.069 H 
ATOM     16  H   LIG d   1       6.875   2.030  -3.468  0.00  0.00     0.069 H 
ENDROOT
BRANCH   9  17
ATOM     17  O   LIG d   1       6.333  -0.177  -4.752  0.00  0.00    -0.461 OA
BRANCH  17  18
ATOM     18  C   LIG d   1       5.842  -0.366  -6.080  0.00  0.00     0.231 C 
ATOM     19  H   LIG d   1       6.223  -1.306  -6.478  0.00  0.00     0.108 H 
ATOM     20  O   LIG d   1       6.276   0.714  -6.908  0.00  0.00    -0.331 OA
ATOM     21  C   LIG d   1       5.859   0.609  -8.271  0.00  0.00     0.114 C 
ATOM     22  C   LIG d   1       4.329   0.609  -8.336  0.00  0.00     0.112 C 
ATOM     23  H   LIG d   1       6.240  -0.317  -8.698  0.00  0.00     0.065 H 
ATOM     24  C   LIG d   1       3.790  -0.549  -7.490  0.00  0.00     0.115 C 
ATOM     25  H   LIG d   1       3.948   1.552  -7.946  0.00  0.00     0.065 H 
ATOM     26  C   LIG d   1       4.312  -0.406  -6.057  0.00  0.00     0.145 C 
ATOM     27  H   LIG d   1       4.131  -1.496  -7.909  0.00  0.00     0.065 H 
ATOM     28  H   LIG d   1       3.929   0.517  -5.621  0.00  0.00     0.068 H 
BRANCH  21  29
ATOM     29  C   LIG d   1       6.402   1.799  -9.065  0.00  0.00     0.073 C 
ATOM     30  H   LIG d   1       7.207   2.273  -8.502  0.00  0.00     0.058 H 
ATOM     31  H   LIG d   1       6.784   1.452 -10.025  0.00  0.00     0.058 H 
BRANCH  29  32
ATOM     32  O   LIG d   1       5.354   2.745  -9.283  0.00  0.00    -0.392 OA
ATOM     33  H   LIG d   1       4.935   2.674 -10.152  0.00  0.00     0.209 HD
ENDBRANCH  29  32
ENDBRANCH  21  29
BRANCH  22  34
ATOM     34  O   LIG d   1       3.908   0.447  -9.691  0.00  0.00    -0.387 OA
ATOM     35  H   LIG d   1       3.278  -0.274  -9.824  0.00  0.00     0.210 HD
ENDBRANCH  22  34
BRANCH  24  36
ATOM     36  O   LIG d   1       2.362  -0.515  -7.485  0.00  0.00    -0.386 OA
ATOM     37  H   LIG d   1       1.989   0.360  -7.663  0.00  0.00     0.210 HD
ENDBRANCH  24  36
BRANCH  26  38
ATOM     38  O   LIG d   1       3.874  -1.520  -5.275  0.00  0.00    -0.383 OA
ATOM     39  H   LIG d   1       4.594  -2.021  -4.867  0.00  0.00     0.210 HD
ENDBRANCH  26  38
ENDBRANCH  17  18
ENDBRANCH   9  17
BRANCH   7  40
ATOM     40  O   LIG d   1      10.995  -0.336  -5.650  0.00  0.00    -0.506 OA
ATOM     41  H   LIG d   1      10.807  -1.226  -5.978  0.00  0.00     0.292 HD
ENDBRANCH   7  40
BRANCH   1  42
ATOM     42  C   LIG d   1      10.350   5.188  -2.323  0.00  0.00    -0.007 A 
ATOM     43  C   LIG d   1      11.178   5.076  -1.222  0.00  0.00    -0.052 A 
ATOM     44  C   LIG d   1      11.238   6.097  -0.294  0.00  0.00    -0.020 A 
ATOM     45  H   LIG d   1      11.782   4.191  -1.089  0.00  0.00     0.062 H 
ATOM     46  C   LIG d   1      10.466   7.237  -0.468  0.00  0.00     0.117 A 
ATOM     47  H   LIG d   1      11.885   6.009   0.566  0.00  0.00     0.065 H 
ATOM     48  C   LIG d   1       9.636   7.347  -1.574  0.00  0.00    -0.020 A 
ATOM     49  C   LIG d   1       9.580   6.323  -2.499  0.00  0.00    -0.052 A 
ATOM     50  H   LIG d   1       9.034   8.233  -1.712  0.00  0.00     0.065 H 
ATOM     51  H   LIG d   1       8.934   6.408  -3.360  0.00  0.00     0.062 H 
BRANCH  46  52
ATOM     52  O   LIG d   1      10.523   8.243   0.444  0.00  0.00    -0.507 OA
ATOM     53  H   LIG d   1      11.399   8.643   0.534  0.00  0.00     0.292 HD
ENDBRANCH  46  52
ENDBRANCH   1  42
TORSDOF 10
ENDMDL
MODEL 6
REMARK VINA RESULT:      -6.4      2.121      2.668
REMARK  10 active torsions:
REMARK  status: ('A' for Active; 'I' for Inactive)
REMARK    1  A    between atoms: C_3  and  O_37 
REMARK    2  A    between atoms: C_6  and  C_7 
REMARK    3  A    between atoms: C_13  and  O_36 
REMARK    4  A    between atoms: C_15  and  O_19 
REMARK    5  A    between atoms: O_19  and  C_20 
REMARK    6  A    between atoms: C_22  and  O_35 
REMARK    7  A    between atoms: C_24  and  O_34 
REMARK    8  A    between atoms: C_26  and  O_33 
REMARK    9  A    between atoms: C_28  and  C_31 
REMARK   10  A    between atoms: C_31  and  O_32 
ROOT
ATOM      1  C   LIG d   1      10.589   3.739  -3.664  0.00  0.00     0.132 C 
ATOM      2  H   LIG d   1      10.803   4.108  -4.666  0.00  0.00     0.079 H 
ATOM      3  C   LIG d   1      11.784   2.919  -3.155  0.00  0.00     0.052 C 
ATOM      4  C   LIG d   1      11.960   1.746  -4.101  0.00  0.00     0.174 C 
ATOM      5  O   LIG d   1      13.059   1.365  -4.450  0.00  0.00    -0.292 OA
ATOM      6  C   LIG d   1      10.733   1.094  -4.573  0.00  0.00     0.101 A 
ATOM      7  C   LIG d   1      10.788  -0.143  -5.237  0.00  0.00     0.134 A 
ATOM      8  C   LIG d   1       9.617  -0.729  -5.683  0.00  0.00     0.023 A 
ATOM      9  C   LIG d   1       8.398  -0.098  -5.471  0.00  0.00     0.131 A 
ATOM     10  C   LIG d   1       8.336   1.122  -4.809  0.00  0.00     0.023 A 
ATOM     11  C   LIG d   1       9.495   1.726  -4.354  0.00  0.00     0.139 A 
ATOM     12  O   LIG d   1       9.428   2.909  -3.699  0.00  0.00    -0.483 OA
ATOM     13  H   LIG d   1      12.684   3.535  -3.157  0.00  0.00     0.038 H 
ATOM     14  H   LIG d   1      11.584   2.556  -2.147  0.00  0.00     0.038 H 
ATOM     15  H   LIG d   1       9.651  -1.679  -6.196  0.00  0.00     0.069 H 
ATOM     16  H   LIG d   1       7.381   1.601  -4.651  0.00  0.00     0.069 H 
ENDROOT
BRANCH   9  17
ATOM     17  O   LIG d   1       7.255  -0.679  -5.915  0.00  0.00    -0.461 OA
BRANCH  17  18
ATOM     18  C   LIG d   1       6.036  -0.275  -5.288  0.00  0.00     0.231 C 
ATOM     19  H   LIG d   1       6.106   0.775  -5.001  0.00  0.00     0.108 H 
ATOM     20  O   LIG d   1       5.810  -1.072  -4.125  0.00  0.00    -0.331 OA
ATOM     21  C   LIG d   1       4.623  -0.731  -3.404  0.00  0.00     0.114 C 
ATOM     22  C   LIG d   1       3.404  -0.934  -4.307  0.00  0.00     0.112 C 
ATOM     23  H   LIG d   1       4.675   0.311  -3.093  0.00  0.00     0.065 H 
ATOM     24  C   LIG d   1       3.564  -0.080  -5.569  0.00  0.00     0.115 C 
ATOM     25  H   LIG d   1       3.329  -1.985  -4.587  0.00  0.00     0.065 H 
ATOM     26  C   LIG d   1       4.874  -0.459  -6.267  0.00  0.00     0.145 C 
ATOM     27  H   LIG d   1       3.590   0.974  -5.294  0.00  0.00     0.065 H 
ATOM     28  H   LIG d   1       4.828  -1.500  -6.586  0.00  0.00     0.068 H 
BRANCH  21  29
ATOM     29  C   LIG d   1       4.500  -1.628  -2.170  0.00  0.00     0.073 C 
ATOM     30  H   LIG d   1       5.484  -2.009  -1.899  0.00  0.00     0.058 H 
ATOM     31  H   LIG d   1       4.091  -1.050  -1.341  0.00  0.00     0.058 H 
BRANCH  29  32
ATOM     32  O   LIG d   1       3.629  -2.722  -2.462  0.00  0.00    -0.392 OA
ATOM     33  H   LIG d   1       2.768  -2.456  -2.816  0.00  0.00     0.209 HD
ENDBRANCH  29  32
ENDBRANCH  21  29
BRANCH  22  34
ATOM     34  O   LIG d   1       2.221  -0.540  -3.610  0.00  0.00    -0.387 OA
ATOM     35  H   LIG d   1       2.152  -0.903  -2.716  0.00  0.00     0.210 HD
ENDBRANCH  22  34
BRANCH  24  36
ATOM     36  O   LIG d   1       2.465  -0.317  -6.451  0.00  0.00    -0.386 OA
ATOM     37  H   LIG d   1       2.547   0.124  -7.308  0.00  0.00     0.210 HD
ENDBRANCH  24  36
BRANCH  26  38
ATOM     38  O   LIG d   1       5.070   0.382  -7.406  0.00  0.00    -0.383 OA
ATOM     39  H   LIG d   1       4.358   0.332  -8.058  0.00  0.00     0.210 HD
ENDBRANCH  26  38
ENDBRANCH  17  18
ENDBRANCH   9  17
BRANCH   7  40
ATOM     40  O   LIG d   1      11.980  -0.756  -5.441  0.00  0.00    -0.506 OA
ATOM     41  H   LIG d   1      12.027  -1.260  -6.265  0.00  0.00     0.292 HD
ENDBRANCH   7  40
BRANCH   1  42
ATOM     42  C   LIG d   1      10.347   4.903  -2.739  0.00  0.00    -0.007 A 
ATOM     43  C   LIG d   1       9.578   5.971  -3.160  0.00  0.00    -0.052 A 
ATOM     44  C   LIG d   1       9.355   7.041  -2.314  0.00  0.00    -0.020 A 
ATOM     45  H   LIG d   1       9.148   5.970  -4.151  0.00  0.00     0.062 H 
ATOM     46  C   LIG d   1       9.903   7.040  -1.039  0.00  0.00     0.117 A 
ATOM     47  H   LIG d   1       8.755   7.875  -2.644  0.00  0.00     0.065 H 
ATOM     48  C   LIG d   1      10.675   5.966  -0.619  0.00  0.00    -0.020 A 
ATOM     49  C   LIG d   1      10.895   4.901  -1.469  0.00  0.00    -0.052 A 
ATOM     50  H   LIG d   1      11.102   5.964   0.373  0.00  0.00     0.065 H 
ATOM     51  H   LIG d   1      11.495   4.064  -1.142  0.00  0.00     0.062 H 
BRANCH  46  52
ATOM     52  O   LIG d   1       9.685   8.090  -0.205  0.00  0.00    -0.507 OA
ATOM     53  H   LIG d   1       9.275   8.854  -0.633  0.00  0.00     0.292 HD
ENDBRANCH  46  52
ENDBRANCH   1  42
TORSDOF 10
ENDMDL
MODEL 7
REMARK VINA RESULT:      -6.4      8.817     13.052
REMARK  10 active torsions:
REMARK  status: ('A' for Active; 'I' for Inactive)
REMARK    1  A    between atoms: C_3  and  O_37 
REMARK    2  A    between atoms: C_6  and  C_7 
REMARK    3  A    between atoms: C_13  and  O_36 
REMARK    4  A    between atoms: C_15  and  O_19 
REMARK    5  A    between atoms: O_19  and  C_20 
REMARK    6  A    between atoms: C_22  and  O_35 
REMARK    7  A    between atoms: C_24  and  O_34 
REMARK    8  A    between atoms: C_26  and  O_33 
REMARK    9  A    between atoms: C_28  and  C_31 
REMARK   10  A    between atoms: C_31  and  O_32 
ROOT
ATOM      1  C   LIG d   1       2.074  -1.635 -11.718  0.00  0.00     0.132 C 
ATOM      2  H   LIG d   1       1.411  -1.272 -12.504  0.00  0.00     0.079 H 
ATOM      3  C   LIG d   1       3.247  -2.399 -12.351  0.00  0.00     0.052 C 
ATOM      4  C   LIG d   1       2.660  -3.578 -13.105  0.00  0.00     0.174 C 
ATOM      5  O   LIG d   1       3.087  -3.920 -14.189  0.00  0.00    -0.292 OA
ATOM      6  C   LIG d   1       1.550  -4.286 -12.456  0.00  0.00     0.101 A 
ATOM      7  C   LIG d   1       1.112  -5.528 -12.940  0.00  0.00     0.134 A 
ATOM      8  C   LIG d   1       0.055  -6.168 -12.317  0.00  0.00     0.023 A 
ATOM      9  C   LIG d   1      -0.563  -5.583 -11.219  0.00  0.00     0.131 A 
ATOM     10  C   LIG d   1      -0.130  -4.356 -10.732  0.00  0.00     0.023 A 
ATOM     11  C   LIG d   1       0.927  -3.700 -11.339  0.00  0.00     0.139 A 
ATOM     12  O   LIG d   1       1.353  -2.511 -10.852  0.00  0.00    -0.483 OA
ATOM     13  H   LIG d   1       3.784  -1.748 -13.042  0.00  0.00     0.038 H 
ATOM     14  H   LIG d   1       3.922  -2.754 -11.573  0.00  0.00     0.038 H 
ATOM     15  H   LIG d   1      -0.290  -7.123 -12.685  0.00  0.00     0.069 H 
ATOM     16  H   LIG d   1      -0.619  -3.913  -9.877  0.00  0.00     0.069 H 
ENDROOT
BRANCH   9  17
ATOM     17  O   LIG d   1      -1.602  -6.215 -10.617  0.00  0.00    -0.461 OA
BRANCH  17  18
ATOM     18  C   LIG d   1      -2.904  -5.667 -10.826  0.00  0.00     0.231 C 
ATOM     19  H   LIG d   1      -3.582  -6.455 -11.155  0.00  0.00     0.108 H 
ATOM     20  O   LIG d   1      -2.838  -4.648 -11.824  0.00  0.00    -0.331 OA
ATOM     21  C   LIG d   1      -4.099  -4.047 -12.130  0.00  0.00     0.114 C 
ATOM     22  C   LIG d   1      -4.662  -3.380 -10.873  0.00  0.00     0.112 C 
ATOM     23  H   LIG d   1      -4.791  -4.814 -12.476  0.00  0.00     0.065 H 
ATOM     24  C   LIG d   1      -4.791  -4.426  -9.762  0.00  0.00     0.115 C 
ATOM     25  H   LIG d   1      -3.990  -2.586 -10.550  0.00  0.00     0.065 H 
ATOM     26  C   LIG d   1      -3.420  -5.065  -9.516  0.00  0.00     0.145 C 
ATOM     27  H   LIG d   1      -5.501  -5.195 -10.066  0.00  0.00     0.065 H 
ATOM     28  H   LIG d   1      -2.723  -4.305  -9.165  0.00  0.00     0.068 H 
BRANCH  21  29
ATOM     29  C   LIG d   1      -3.911  -2.996 -13.226  0.00  0.00     0.073 C 
ATOM     30  H   LIG d   1      -3.110  -3.309 -13.896  0.00  0.00     0.058 H 
ATOM     31  H   LIG d   1      -4.838  -2.890 -13.791  0.00  0.00     0.058 H 
BRANCH  29  32
ATOM     32  O   LIG d   1      -3.572  -1.743 -12.630  0.00  0.00    -0.392 OA
ATOM     33  H   LIG d   1      -2.858  -1.797 -11.981  0.00  0.00     0.209 HD
ENDBRANCH  29  32
ENDBRANCH  21  29
BRANCH  22  34
ATOM     34  O   LIG d   1      -5.948  -2.828 -11.161  0.00  0.00    -0.387 OA
ATOM     35  H   LIG d   1      -6.159  -2.034 -10.651  0.00  0.00     0.210 HD
ENDBRANCH  22  34
BRANCH  24  36
ATOM     36  O   LIG d   1      -5.248  -3.799  -8.563  0.00  0.00    -0.386 OA
ATOM     37  H   LIG d   1      -6.181  -3.545  -8.584  0.00  0.00     0.210 HD
ENDBRANCH  24  36
BRANCH  26  38
ATOM     38  O   LIG d   1      -3.541  -6.094  -8.532  0.00  0.00    -0.383 OA
ATOM     39  H   LIG d   1      -4.340  -6.632  -8.622  0.00  0.00     0.210 HD
ENDBRANCH  26  38
ENDBRANCH  17  18
ENDBRANCH   9  17
BRANCH   7  40
ATOM     40  O   LIG d   1       1.719  -6.097 -14.011  0.00  0.00    -0.506 OA
ATOM     41  H   LIG d   1       2.435  -5.565 -14.386  0.00  0.00     0.292 HD
ENDBRANCH   7  40
BRANCH   1  42
ATOM     42  C   LIG d   1       2.603  -0.467 -10.927  0.00  0.00    -0.007 A 
ATOM     43  C   LIG d   1       3.649   0.286 -11.425  0.00  0.00    -0.052 A 
ATOM     44  C   LIG d   1       4.137   1.358 -10.701  0.00  0.00    -0.020 A 
ATOM     45  H   LIG d   1       4.084   0.041 -12.382  0.00  0.00     0.062 H 
ATOM     46  C   LIG d   1       3.573   1.677  -9.474  0.00  0.00     0.117 A 
ATOM     47  H   LIG d   1       4.954   1.946 -11.090  0.00  0.00     0.065 H 
ATOM     48  C   LIG d   1       2.524   0.919  -8.976  0.00  0.00    -0.020 A 
ATOM     49  C   LIG d   1       2.041  -0.151  -9.704  0.00  0.00    -0.052 A 
ATOM     50  H   LIG d   1       2.085   1.166  -8.021  0.00  0.00     0.065 H 
ATOM     51  H   LIG d   1       1.224  -0.742  -9.317  0.00  0.00     0.062 H 
BRANCH  46  52
ATOM     52  O   LIG d   1       4.051   2.731  -8.760  0.00  0.00    -0.507 OA
ATOM     53  H   LIG d   1       4.360   2.498  -7.874  0.00  0.00     0.292 HD
ENDBRANCH  46  52
ENDBRANCH   1  42
TORSDOF 10
ENDMDL
MODEL 8
REMARK VINA RESULT:      -6.4      2.482      5.204
REMARK  10 active torsions:
REMARK  status: ('A' for Active; 'I' for Inactive)
REMARK    1  A    between atoms: C_3  and  O_37 
REMARK    2  A    between atoms: C_6  and  C_7 
REMARK    3  A    between atoms: C_13  and  O_36 
REMARK    4  A    between atoms: C_15  and  O_19 
REMARK    5  A    between atoms: O_19  and  C_20 
REMARK    6  A    between atoms: C_22  and  O_35 
REMARK    7  A    between atoms: C_24  and  O_34 
REMARK    8  A    between atoms: C_26  and  O_33 
REMARK    9  A    between atoms: C_28  and  C_31 
REMARK   10  A    between atoms: C_31  and  O_32 
ROOT
ATOM      1  C   LIG d   1      10.181   4.994  -7.245  0.00  0.00     0.132 C 
ATOM      2  H   LIG d   1      11.191   4.587  -7.207  0.00  0.00     0.079 H 
ATOM      3  C   LIG d   1       9.959   5.923  -6.041  0.00  0.00     0.052 C 
ATOM      4  C   LIG d   1      10.119   5.081  -4.789  0.00  0.00     0.174 C 
ATOM      5  O   LIG d   1      10.692   5.503  -3.805  0.00  0.00    -0.292 OA
ATOM      6  C   LIG d   1       9.546   3.731  -4.827  0.00  0.00     0.101 A 
ATOM      7  C   LIG d   1       9.415   2.975  -3.651  0.00  0.00     0.134 A 
ATOM      8  C   LIG d   1       8.883   1.699  -3.717  0.00  0.00     0.023 A 
ATOM      9  C   LIG d   1       8.480   1.176  -4.940  0.00  0.00     0.131 A 
ATOM     10  C   LIG d   1       8.601   1.922  -6.106  0.00  0.00     0.023 A 
ATOM     11  C   LIG d   1       9.129   3.200  -6.062  0.00  0.00     0.139 A 
ATOM     12  O   LIG d   1       9.234   3.927  -7.199  0.00  0.00    -0.483 OA
ATOM     13  H   LIG d   1      10.699   6.723  -6.049  0.00  0.00     0.038 H 
ATOM     14  H   LIG d   1       8.954   6.345  -6.079  0.00  0.00     0.038 H 
ATOM     15  H   LIG d   1       8.780   1.110  -2.818  0.00  0.00     0.069 H 
ATOM     16  H   LIG d   1       8.283   1.502  -7.049  0.00  0.00     0.069 H 
ENDROOT
BRANCH   9  17
ATOM     17  O   LIG d   1       7.962  -0.077  -4.996  0.00  0.00    -0.461 OA
BRANCH  17  18
ATOM     18  C   LIG d   1       6.540  -0.194  -4.929  0.00  0.00     0.231 C 
ATOM     19  H   LIG d   1       6.084   0.503  -5.632  0.00  0.00     0.108 H 
ATOM     20  O   LIG d   1       6.098   0.107  -3.605  0.00  0.00    -0.331 OA
ATOM     21  C   LIG d   1       4.680   0.045  -3.433  0.00  0.00     0.114 C 
ATOM     22  C   LIG d   1       4.194  -1.376  -3.734  0.00  0.00     0.112 C 
ATOM     23  H   LIG d   1       4.201   0.745  -4.116  0.00  0.00     0.065 H 
ATOM     24  C   LIG d   1       4.608  -1.759  -5.158  0.00  0.00     0.115 C 
ATOM     25  H   LIG d   1       4.643  -2.072  -3.025  0.00  0.00     0.065 H 
ATOM     26  C   LIG d   1       6.128  -1.624  -5.290  0.00  0.00     0.145 C 
ATOM     27  H   LIG d   1       4.120  -1.093  -5.870  0.00  0.00     0.065 H 
ATOM     28  H   LIG d   1       6.615  -2.326  -4.613  0.00  0.00     0.068 H 
BRANCH  21  29
ATOM     29  C   LIG d   1       4.323   0.412  -1.991  0.00  0.00     0.073 C 
ATOM     30  H   LIG d   1       4.055  -0.491  -1.443  0.00  0.00     0.058 H 
ATOM     31  H   LIG d   1       5.180   0.887  -1.515  0.00  0.00     0.058 H 
BRANCH  29  32
ATOM     32  O   LIG d   1       3.216   1.316  -1.990  0.00  0.00    -0.392 OA
ATOM     33  H   LIG d   1       3.455   2.229  -1.780  0.00  0.00     0.209 HD
ENDBRANCH  29  32
ENDBRANCH  21  29
BRANCH  22  34
ATOM     34  O   LIG d   1       2.771  -1.429  -3.619  0.00  0.00    -0.387 OA
ATOM     35  H   LIG d   1       2.314  -1.580  -4.458  0.00  0.00     0.210 HD
ENDBRANCH  22  34
BRANCH  24  36
ATOM     36  O   LIG d   1       4.222  -3.108  -5.423  0.00  0.00    -0.386 OA
ATOM     37  H   LIG d   1       3.400  -3.190  -5.926  0.00  0.00     0.210 HD
ENDBRANCH  24  36
BRANCH  26  38
ATOM     38  O   LIG d   1       6.519  -1.909  -6.635  0.00  0.00    -0.383 OA
ATOM     39  H   LIG d   1       7.155  -2.633  -6.714  0.00  0.00     0.210 HD
ENDBRANCH  26  38
ENDBRANCH  17  18
ENDBRANCH   9  17
BRANCH   7  40
ATOM     40  O   LIG d   1       9.808   3.490  -2.460  0.00  0.00    -0.506 OA
ATOM     41  H   LIG d   1       9.092   3.584  -1.817  0.00  0.00     0.292 HD
ENDBRANCH   7  40
BRANCH   1  42
ATOM     42  C   LIG d   1      10.000   5.773  -8.522  0.00  0.00    -0.007 A 
ATOM     43  C   LIG d   1      10.741   6.920  -8.741  0.00  0.00    -0.052 A 
ATOM     44  C   LIG d   1      10.577   7.636  -9.911  0.00  0.00    -0.020 A 
ATOM     45  H   LIG d   1      11.451   7.254  -8.000  0.00  0.00     0.062 H 
ATOM     46  C   LIG d   1       9.668   7.203 -10.867  0.00  0.00     0.117 A 
ATOM     47  H   LIG d   1      11.155   8.531 -10.083  0.00  0.00     0.065 H 
ATOM     48  C   LIG d   1       8.926   6.052 -10.643  0.00  0.00    -0.020 A 
ATOM     49  C   LIG d   1       9.094   5.340  -9.472  0.00  0.00    -0.052 A 
ATOM     50  H   LIG d   1       8.219   5.714 -11.385  0.00  0.00     0.065 H 
ATOM     51  H   LIG d   1       8.517   4.444  -9.297  0.00  0.00     0.062 H 
BRANCH  46  52
ATOM     52  O   LIG d   1       9.505   7.906 -12.018  0.00  0.00    -0.507 OA
ATOM     53  H   LIG d   1       9.532   8.865 -11.900  0.00  0.00     0.292 HD
ENDBRANCH  46  52
ENDBRANCH   1  42
TORSDOF 10
ENDMDL
MODEL 9
REMARK VINA RESULT:      -6.3      1.531      2.211
REMARK  10 active torsions:
REMARK  status: ('A' for Active; 'I' for Inactive)
REMARK    1  A    between atoms: C_3  and  O_37 
REMARK    2  A    between atoms: C_6  and  C_7 
REMARK    3  A    between atoms: C_13  and  O_36 
REMARK    4  A    between atoms: C_15  and  O_19 
REMARK    5  A    between atoms: O_19  and  C_20 
REMARK    6  A    between atoms: C_22  and  O_35 
REMARK    7  A    between atoms: C_24  and  O_34 
REMARK    8  A    between atoms: C_26  and  O_33 
REMARK    9  A    between atoms: C_28  and  C_31 
REMARK   10  A    between atoms: C_31  and  O_32 
ROOT
ATOM      1  C   LIG d   1       9.385   4.586  -3.483  0.00  0.00     0.132 C 
ATOM      2  H   LIG d   1       8.397   5.020  -3.637  0.00  0.00     0.079 H 
ATOM      3  C   LIG d   1      10.232   4.782  -4.750  0.00  0.00     0.052 C 
ATOM      4  C   LIG d   1       9.527   4.052  -5.878  0.00  0.00     0.174 C 
ATOM      5  O   LIG d   1       9.457   4.521  -6.997  0.00  0.00    -0.292 OA
ATOM      6  C   LIG d   1       8.935   2.750  -5.550  0.00  0.00     0.101 A 
ATOM      7  C   LIG d   1       8.492   1.888  -6.565  0.00  0.00     0.134 A 
ATOM      8  C   LIG d   1       7.926   0.671  -6.227  0.00  0.00     0.023 A 
ATOM      9  C   LIG d   1       7.803   0.308  -4.892  0.00  0.00     0.131 A 
ATOM     10  C   LIG d   1       8.246   1.155  -3.883  0.00  0.00     0.023 A 
ATOM     11  C   LIG d   1       8.816   2.375  -4.199  0.00  0.00     0.139 A 
ATOM     12  O   LIG d   1       9.257   3.191  -3.212  0.00  0.00    -0.483 OA
ATOM     13  H   LIG d   1      10.307   5.844  -4.985  0.00  0.00     0.038 H 
ATOM     14  H   LIG d   1      11.227   4.363  -4.600  0.00  0.00     0.038 H 
ATOM     15  H   LIG d   1       7.580   0.003  -7.002  0.00  0.00     0.069 H 
ATOM     16  H   LIG d   1       8.144   0.859  -2.849  0.00  0.00     0.069 H 
ENDROOT
BRANCH   9  17
ATOM     17  O   LIG d   1       7.244  -0.885  -4.569  0.00  0.00    -0.461 OA
BRANCH  17  18
ATOM     18  C   LIG d   1       5.834  -1.013  -4.760  0.00  0.00     0.231 C 
ATOM     19  H   LIG d   1       5.576  -2.068  -4.866  0.00  0.00     0.108 H 
ATOM     20  O   LIG d   1       5.446  -0.308  -5.940  0.00  0.00    -0.331 OA
ATOM     21  C   LIG d   1       4.051  -0.393  -6.240  0.00  0.00     0.114 C 
ATOM     22  C   LIG d   1       3.246   0.219  -5.091  0.00  0.00     0.112 C 
ATOM     23  H   LIG d   1       3.770  -1.438  -6.365  0.00  0.00     0.065 H 
ATOM     24  C   LIG d   1       3.589  -0.514  -3.790  0.00  0.00     0.115 C 
ATOM     25  H   LIG d   1       3.497   1.274  -4.991  0.00  0.00     0.065 H 
ATOM     26  C   LIG d   1       5.100  -0.428  -3.552  0.00  0.00     0.145 C 
ATOM     27  H   LIG d   1       3.292  -1.559  -3.872  0.00  0.00     0.065 H 
ATOM     28  H   LIG d   1       5.388   0.615  -3.420  0.00  0.00     0.068 H 
BRANCH  21  29
ATOM     29  C   LIG d   1       3.759   0.373  -7.532  0.00  0.00     0.073 C 
ATOM     30  H   LIG d   1       4.696   0.586  -8.047  0.00  0.00     0.058 H 
ATOM     31  H   LIG d   1       3.119  -0.231  -8.176  0.00  0.00     0.058 H 
BRANCH  29  32
ATOM     32  O   LIG d   1       3.098   1.600  -7.219  0.00  0.00    -0.392 OA
ATOM     33  H   LIG d   1       2.185   1.489  -6.920  0.00  0.00     0.209 HD
ENDBRANCH  29  32
ENDBRANCH  21  29
BRANCH  22  34
ATOM     34  O   LIG d   1       1.850   0.084  -5.361  0.00  0.00    -0.387 OA
ATOM     35  H   LIG d   1       1.636   0.005  -6.301  0.00  0.00     0.210 HD
ENDBRANCH  22  34
BRANCH  24  36
ATOM     36  O   LIG d   1       2.897   0.096  -2.700  0.00  0.00    -0.386 OA
ATOM     37  H   LIG d   1       3.275  -0.105  -1.832  0.00  0.00     0.210 HD
ENDBRANCH  24  36
BRANCH  26  38
ATOM     38  O   LIG d   1       5.442  -1.169  -2.379  0.00  0.00    -0.383 OA
ATOM     39  H   LIG d   1       4.891  -0.965  -1.610  0.00  0.00     0.210 HD
ENDBRANCH  26  38
ENDBRANCH  17  18
ENDBRANCH   9  17
BRANCH   7  40
ATOM     40  O   LIG d   1       8.615   2.245  -7.868  0.00  0.00    -0.506 OA
ATOM     41  H   LIG d   1       7.815   2.635  -8.246  0.00  0.00     0.292 HD
ENDBRANCH   7  40
BRANCH   1  42
ATOM     42  C   LIG d   1      10.058   5.265  -2.319  0.00  0.00    -0.007 A 
ATOM     43  C   LIG d   1       9.630   6.514  -1.907  0.00  0.00    -0.052 A 
ATOM     44  C   LIG d   1      10.245   7.139  -0.839  0.00  0.00    -0.020 A 
ATOM     45  H   LIG d   1       8.813   7.000  -2.417  0.00  0.00     0.062 H 
ATOM     46  C   LIG d   1      11.293   6.511  -0.180  0.00  0.00     0.117 A 
ATOM     47  H   LIG d   1       9.911   8.114  -0.518  0.00  0.00     0.065 H 
ATOM     48  C   LIG d   1      11.720   5.259  -0.595  0.00  0.00    -0.020 A 
ATOM     49  C   LIG d   1      11.101   4.639  -1.663  0.00  0.00    -0.052 A 
ATOM     50  H   LIG d   1      12.535   4.769  -0.084  0.00  0.00     0.065 H 
ATOM     51  H   LIG d   1      11.433   3.663  -1.987  0.00  0.00     0.062 H 
BRANCH  46  52
ATOM     52  O   LIG d   1      11.899   7.124   0.871  0.00  0.00    -0.507 OA
ATOM     53  H   LIG d   1      12.775   7.480   0.666  0.00  0.00     0.292 HD
ENDBRANCH  46  52
ENDBRANCH   1  42
TORSDOF 10
ENDMDL
