MODEL 1
REMARK VINA RESULT:      -6.2      0.000      0.000
REMARK  11 active torsions:
REMARK  status: ('A' for Active; 'I' for Inactive)
REMARK    1  A    between atoms: C_1  and  C_2 
REMARK    2  A    between atoms: C_3  and  C_23 
REMARK    3  A    between atoms: C_6  and  O_12 
REMARK    4  A    between atoms: N_10  and  C_11 
REMARK    5  A    between atoms: O_12  and  S_13 
REMARK    6  A    between atoms: S_13  and  C_16 
REMARK    7  A    between atoms: C_23  and  O_25 
REMARK    8  A    between atoms: O_25  and  C_26 
REMARK    9  A    between atoms: C_26  and  C_27 
REMARK   10  A    between atoms: C_27  and  O_28 
REMARK   11  A    between atoms: O_28  and  C_29 
ROOT
ATOM      1  C   LIG d   1       5.026  -9.530  -6.758  0.00  0.00     0.030 A 
ATOM      2  C   LIG d   1       4.773  -8.816  -5.622  0.00  0.00     0.087 A 
ATOM      3  C   LIG d   1       4.747  -7.395  -6.019  0.00  0.00     0.018 A 
ATOM      4  C   LIG d   1       4.546  -6.203  -5.328  0.00  0.00    -0.007 A 
ATOM      5  C   LIG d   1       4.584  -5.003  -6.011  0.00  0.00     0.158 A 
ATOM      6  C   LIG d   1       4.823  -4.986  -7.383  0.00  0.00    -0.015 A 
ATOM      7  C   LIG d   1       5.023  -6.161  -8.073  0.00  0.00    -0.034 A 
ATOM      8  C   LIG d   1       4.987  -7.378  -7.401  0.00  0.00     0.050 A 
ATOM      9  N   LIG d   1       5.147  -8.688  -7.811  0.00  0.00    -0.346 N 
ATOM     10  H   LIG d   1       4.361  -6.216  -4.264  0.00  0.00     0.066 H 
ATOM     11  H   LIG d   1       4.852  -4.043  -7.910  0.00  0.00     0.066 H 
ATOM     12  H   LIG d   1       5.208  -6.136  -9.137  0.00  0.00     0.064 H 
ENDROOT
BRANCH   5  13
ATOM     13  O   LIG d   1       4.389  -3.835  -5.342  0.00  0.00    -0.342 OA
BRANCH  13  14
ATOM     14  S   LIG d   1       5.643  -2.983  -5.206  0.00  0.00     0.151 S 
ATOM     15  O   LIG d   1       6.656  -3.833  -4.685  0.00  0.00    -0.131 OA
ATOM     16  O   LIG d   1       5.792  -2.282  -6.433  0.00  0.00    -0.131 OA
BRANCH  14  17
ATOM     17  C   LIG d   1       5.317  -1.771  -3.969  0.00  0.00     0.128 A 
ATOM     18  C   LIG d   1       5.932  -0.535  -4.036  0.00  0.00    -0.031 A 
ATOM     19  C   LIG d   1       5.677   0.418  -3.067  0.00  0.00    -0.025 A 
ATOM     20  H   LIG d   1       6.612  -0.313  -4.845  0.00  0.00     0.064 H 
ATOM     21  C   LIG d   1       4.806   0.133  -2.030  0.00  0.00     0.123 A 
ATOM     22  H   LIG d   1       6.158   1.384  -3.119  0.00  0.00     0.065 H 
ATOM     23  C   LIG d   1       4.190  -1.106  -1.965  0.00  0.00    -0.025 A 
ATOM     24  F   LIG d   1       4.556   1.063  -1.082  0.00  0.00    -0.205 F 
ATOM     25  C   LIG d   1       4.443  -2.054  -2.937  0.00  0.00    -0.031 A 
ATOM     26  H   LIG d   1       3.510  -1.329  -1.155  0.00  0.00     0.065 H 
ATOM     27  H   LIG d   1       3.959  -3.019  -2.888  0.00  0.00     0.064 H 
ENDBRANCH  14  17
ENDBRANCH  13  14
ENDBRANCH   5  13
BRANCH   2  28
ATOM     28  C   LIG d   1       4.575  -9.355  -4.272  0.00  0.00     0.342 C 
ATOM     29  O   LIG d   1       3.466  -9.348  -3.772  0.00  0.00    -0.245 OA
BRANCH  28  30
ATOM     30  O   LIG d   1       5.620  -9.863  -3.588  0.00  0.00    -0.459 OA
BRANCH  30  31
ATOM     31  C   LIG d   1       5.430 -11.158  -2.961  0.00  0.00     0.116 C 
ATOM     32  H   LIG d   1       4.363 -11.358  -2.855  0.00  0.00     0.072 H 
ATOM     33  H   LIG d   1       5.884 -11.932  -3.579  0.00  0.00     0.072 H 
BRANCH  31  34
ATOM     34  C   LIG d   1       6.087 -11.157  -1.579  0.00  0.00     0.082 C 
ATOM     35  H   LIG d   1       5.353 -11.446  -0.827  0.00  0.00     0.059 H 
ATOM     36  H   LIG d   1       6.914 -11.867  -1.570  0.00  0.00     0.059 H 
BRANCH  34  37
ATOM     37  O   LIG d   1       6.580  -9.848  -1.287  0.00  0.00    -0.380 OA
BRANCH  37  38
ATOM     38  C   LIG d   1       7.995  -9.789  -1.094  0.00  0.00     0.037 C 
ATOM     39  H   LIG d   1       8.499 -10.015  -2.033  0.00  0.00     0.052 H 
ATOM     40  H   LIG d   1       8.275  -8.789  -0.762  0.00  0.00     0.052 H 
ATOM     41  H   LIG d   1       8.289 -10.518  -0.339  0.00  0.00     0.052 H 
ENDBRANCH  37  38
ENDBRANCH  34  37
ENDBRANCH  31  34
ENDBRANCH  30  31
ENDBRANCH  28  30
ENDBRANCH   2  28
BRANCH   1  42
ATOM     42  C   LIG d   1       5.148 -11.031  -6.830  0.00  0.00    -0.023 C 
ATOM     43  H   LIG d   1       4.240 -11.448  -7.267  0.00  0.00     0.029 H 
ATOM     44  H   LIG d   1       6.004 -11.296  -7.449  0.00  0.00     0.029 H 
ATOM     45  H   LIG d   1       5.286 -11.432  -5.826  0.00  0.00     0.029 H 
ENDBRANCH   1  42
BRANCH   9  46
ATOM     46  C   LIG d   1       5.416  -9.105  -9.189  0.00  0.00     0.012 C 
ATOM     47  H   LIG d   1       6.411  -9.546  -9.247  0.00  0.00     0.046 H 
ATOM     48  H   LIG d   1       4.673  -9.841  -9.497  0.00  0.00     0.046 H 
ATOM     49  H   LIG d   1       5.365  -8.238  -9.847  0.00  0.00     0.046 H 
ENDBRANCH   9  46
TORSDOF 11
ENDMDL
MODEL 2
REMARK VINA RESULT:      -6.1      8.156     13.503
REMARK  11 active torsions:
REMARK  status: ('A' for Active; 'I' for Inactive)
REMARK    1  A    between atoms: C_1  and  C_2 
REMARK    2  A    between atoms: C_3  and  C_23 
REMARK    3  A    between atoms: C_6  and  O_12 
REMARK    4  A    between atoms: N_10  and  C_11 
REMARK    5  A    between atoms: O_12  and  S_13 
REMARK    6  A    between atoms: S_13  and  C_16 
REMARK    7  A    between atoms: C_23  and  O_25 
REMARK    8  A    between atoms: O_25  and  C_26 
REMARK    9  A    between atoms: C_26  and  C_27 
REMARK   10  A    between atoms: C_27  and  O_28 
REMARK   11  A    between atoms: O_28  and  C_29 
ROOT
ATOM      1  C   LIG d   1      11.164   7.359  -3.252  0.00  0.00     0.030 A 
ATOM      2  C   LIG d   1      10.411   6.532  -2.470  0.00  0.00     0.087 A 
ATOM      3  C   LIG d   1      10.360   5.232  -3.164  0.00  0.00     0.018 A 
ATOM      4  C   LIG d   1       9.756   4.009  -2.883  0.00  0.00    -0.007 A 
ATOM      5  C   LIG d   1       9.905   2.955  -3.763  0.00  0.00     0.158 A 
ATOM      6  C   LIG d   1      10.654   3.115  -4.926  0.00  0.00    -0.015 A 
ATOM      7  C   LIG d   1      11.254   4.321  -5.213  0.00  0.00    -0.034 A 
ATOM      8  C   LIG d   1      11.115   5.392  -4.336  0.00  0.00     0.050 A 
ATOM      9  N   LIG d   1      11.587   6.691  -4.351  0.00  0.00    -0.346 N 
ATOM     10  H   LIG d   1       9.175   3.885  -1.981  0.00  0.00     0.066 H 
ATOM     11  H   LIG d   1      10.764   2.286  -5.610  0.00  0.00     0.066 H 
ATOM     12  H   LIG d   1      11.832   4.434  -6.117  0.00  0.00     0.064 H 
ENDROOT
BRANCH   5  13
ATOM     13  O   LIG d   1       9.317   1.758  -3.494  0.00  0.00    -0.342 OA
BRANCH  13  14
ATOM     14  S   LIG d   1       8.308   1.314  -4.543  0.00  0.00     0.151 S 
ATOM     15  O   LIG d   1       7.731   2.498  -5.077  0.00  0.00    -0.131 OA
ATOM     16  O   LIG d   1       8.965   0.352  -5.357  0.00  0.00    -0.131 OA
BRANCH  14  17
ATOM     17  C   LIG d   1       7.018   0.461  -3.698  0.00  0.00     0.128 A 
ATOM     18  C   LIG d   1       6.051   1.174  -3.015  0.00  0.00    -0.031 A 
ATOM     19  C   LIG d   1       5.038   0.507  -2.352  0.00  0.00    -0.025 A 
ATOM     20  H   LIG d   1       6.086   2.254  -3.000  0.00  0.00     0.064 H 
ATOM     21  C   LIG d   1       4.993  -0.877  -2.372  0.00  0.00     0.123 A 
ATOM     22  H   LIG d   1       4.282   1.064  -1.819  0.00  0.00     0.065 H 
ATOM     23  C   LIG d   1       5.963  -1.590  -3.057  0.00  0.00    -0.025 A 
ATOM     24  F   LIG d   1       4.005  -1.530  -1.724  0.00  0.00    -0.205 F 
ATOM     25  C   LIG d   1       6.972  -0.920  -3.723  0.00  0.00    -0.031 A 
ATOM     26  H   LIG d   1       5.930  -2.669  -3.072  0.00  0.00     0.065 H 
ATOM     27  H   LIG d   1       7.726  -1.476  -4.260  0.00  0.00     0.064 H 
ENDBRANCH  14  17
ENDBRANCH  13  14
ENDBRANCH   5  13
BRANCH   2  28
ATOM     28  C   LIG d   1       9.771   6.872  -1.194  0.00  0.00     0.342 C 
ATOM     29  O   LIG d   1       8.764   7.554  -1.182  0.00  0.00    -0.245 OA
BRANCH  28  30
ATOM     30  O   LIG d   1      10.295   6.423  -0.036  0.00  0.00    -0.459 OA
BRANCH  30  31
ATOM     31  C   LIG d   1      11.566   6.992   0.376  0.00  0.00     0.116 C 
ATOM     32  H   LIG d   1      12.068   6.303   1.058  0.00  0.00     0.072 H 
ATOM     33  H   LIG d   1      12.192   7.156  -0.500  0.00  0.00     0.072 H 
BRANCH  31  34
ATOM     34  C   LIG d   1      11.321   8.324   1.087  0.00  0.00     0.082 C 
ATOM     35  H   LIG d   1      11.075   9.090   0.350  0.00  0.00     0.059 H 
ATOM     36  H   LIG d   1      10.494   8.216   1.788  0.00  0.00     0.059 H 
BRANCH  34  37
ATOM     37  O   LIG d   1      12.501   8.708   1.798  0.00  0.00    -0.380 OA
BRANCH  37  38
ATOM     38  C   LIG d   1      12.349   9.899   2.575  0.00  0.00     0.037 C 
ATOM     39  H   LIG d   1      11.395   9.870   3.100  0.00  0.00     0.052 H 
ATOM     40  H   LIG d   1      13.161   9.965   3.300  0.00  0.00     0.052 H 
ATOM     41  H   LIG d   1      12.377  10.767   1.918  0.00  0.00     0.052 H 
ENDBRANCH  37  38
ENDBRANCH  34  37
ENDBRANCH  31  34
ENDBRANCH  30  31
ENDBRANCH  28  30
ENDBRANCH   2  28
BRANCH   1  42
ATOM     42  C   LIG d   1      11.481   8.799  -2.938  0.00  0.00    -0.023 C 
ATOM     43  H   LIG d   1      10.560   9.384  -2.948  0.00  0.00     0.029 H 
ATOM     44  H   LIG d   1      11.941   8.864  -1.953  0.00  0.00     0.029 H 
ATOM     45  H   LIG d   1      12.168   9.191  -3.687  0.00  0.00     0.029 H 
ENDBRANCH   1  42
BRANCH   9  46
ATOM     46  C   LIG d   1      12.421   7.265  -5.409  0.00  0.00     0.012 C 
ATOM     47  H   LIG d   1      13.434   6.874  -5.326  0.00  0.00     0.046 H 
ATOM     48  H   LIG d   1      12.007   6.998  -6.382  0.00  0.00     0.046 H 
ATOM     49  H   LIG d   1      12.440   8.350  -5.308  0.00  0.00     0.046 H 
ENDBRANCH   9  46
TORSDOF 11
ENDMDL
MODEL 3
REMARK VINA RESULT:      -6.1      4.611      7.842
REMARK  11 active torsions:
REMARK  status: ('A' for Active; 'I' for Inactive)
REMARK    1  A    between atoms: C_1  and  C_2 
REMARK    2  A    between atoms: C_3  and  C_23 
REMARK    3  A    between atoms: C_6  and  O_12 
REMARK    4  A    between atoms: N_10  and  C_11 
REMARK    5  A    between atoms: O_12  and  S_13 
REMARK    6  A    between atoms: S_13  and  C_16 
REMARK    7  A    between atoms: C_23  and  O_25 
REMARK    8  A    between atoms: O_25  and  C_26 
REMARK    9  A    between atoms: C_26  and  C_27 
REMARK   10  A    between atoms: C_27  and  O_28 
REMARK   11  A    between atoms: O_28  and  C_29 
ROOT
ATOM      1  C   LIG d   1       2.059  -1.328  -9.873  0.00  0.00     0.030 A 
ATOM      2  C   LIG d   1       2.913  -0.645  -9.057  0.00  0.00     0.087 A 
ATOM      3  C   LIG d   1       3.744  -1.658  -8.380  0.00  0.00     0.018 A 
ATOM      4  C   LIG d   1       4.773  -1.595  -7.443  0.00  0.00    -0.007 A 
ATOM      5  C   LIG d   1       5.362  -2.761  -6.996  0.00  0.00     0.158 A 
ATOM      6  C   LIG d   1       4.929  -3.993  -7.479  0.00  0.00    -0.015 A 
ATOM      7  C   LIG d   1       3.912  -4.065  -8.404  0.00  0.00    -0.034 A 
ATOM      8  C   LIG d   1       3.309  -2.900  -8.866  0.00  0.00     0.050 A 
ATOM      9  N   LIG d   1       2.291  -2.658  -9.769  0.00  0.00    -0.346 N 
ATOM     10  H   LIG d   1       5.108  -0.639  -7.069  0.00  0.00     0.066 H 
ATOM     11  H   LIG d   1       5.395  -4.901  -7.123  0.00  0.00     0.066 H 
ATOM     12  H   LIG d   1       3.584  -5.026  -8.772  0.00  0.00     0.064 H 
ENDROOT
BRANCH   5  13
ATOM     13  O   LIG d   1       6.367  -2.706  -6.082  0.00  0.00    -0.342 OA
BRANCH  13  14
ATOM     14  S   LIG d   1       5.997  -3.275  -4.719  0.00  0.00     0.151 S 
ATOM     15  O   LIG d   1       4.820  -4.049  -4.909  0.00  0.00    -0.131 OA
ATOM     16  O   LIG d   1       7.188  -3.821  -4.170  0.00  0.00    -0.131 OA
BRANCH  14  17
ATOM     17  C   LIG d   1       5.547  -1.916  -3.692  0.00  0.00     0.128 A 
ATOM     18  C   LIG d   1       6.230  -0.719  -3.791  0.00  0.00    -0.031 A 
ATOM     19  C   LIG d   1       5.878   0.348  -2.986  0.00  0.00    -0.025 A 
ATOM     20  H   LIG d   1       7.041  -0.618  -4.498  0.00  0.00     0.064 H 
ATOM     21  C   LIG d   1       4.840   0.218  -2.081  0.00  0.00     0.123 A 
ATOM     22  H   LIG d   1       6.413   1.283  -3.064  0.00  0.00     0.065 H 
ATOM     23  C   LIG d   1       4.154  -0.982  -1.983  0.00  0.00    -0.025 A 
ATOM     24  F   LIG d   1       4.495   1.260  -1.293  0.00  0.00    -0.205 F 
ATOM     25  C   LIG d   1       4.505  -2.046  -2.792  0.00  0.00    -0.031 A 
ATOM     26  H   LIG d   1       3.344  -1.085  -1.276  0.00  0.00     0.065 H 
ATOM     27  H   LIG d   1       3.968  -2.980  -2.718  0.00  0.00     0.064 H 
ENDBRANCH  14  17
ENDBRANCH  13  14
ENDBRANCH   5  13
BRANCH   2  28
ATOM     28  C   LIG d   1       2.986   0.810  -8.883  0.00  0.00     0.342 C 
ATOM     29  O   LIG d   1       2.487   1.330  -7.903  0.00  0.00    -0.245 OA
BRANCH  28  30
ATOM     30  O   LIG d   1       3.611   1.570  -9.805  0.00  0.00    -0.459 OA
BRANCH  30  31
ATOM     31  C   LIG d   1       4.635   2.480  -9.325  0.00  0.00     0.116 C 
ATOM     32  H   LIG d   1       4.955   3.130 -10.141  0.00  0.00     0.072 H 
ATOM     33  H   LIG d   1       4.231   3.087  -8.515  0.00  0.00     0.072 H 
BRANCH  31  34
ATOM     34  C   LIG d   1       5.832   1.676  -8.814  0.00  0.00     0.082 C 
ATOM     35  H   LIG d   1       6.377   2.266  -8.076  0.00  0.00     0.059 H 
ATOM     36  H   LIG d   1       5.480   0.754  -8.353  0.00  0.00     0.059 H 
BRANCH  34  37
ATOM     37  O   LIG d   1       6.698   1.363  -9.907  0.00  0.00    -0.380 OA
BRANCH  37  38
ATOM     38  C   LIG d   1       6.669  -0.012 -10.296  0.00  0.00     0.037 C 
ATOM     39  H   LIG d   1       7.684  -0.354 -10.494  0.00  0.00     0.052 H 
ATOM     40  H   LIG d   1       6.234  -0.607  -9.493  0.00  0.00     0.052 H 
ATOM     41  H   LIG d   1       6.066  -0.122 -11.197  0.00  0.00     0.052 H 
ENDBRANCH  37  38
ENDBRANCH  34  37
ENDBRANCH  31  34
ENDBRANCH  30  31
ENDBRANCH  28  30
ENDBRANCH   2  28
BRANCH   1  42
ATOM     42  C   LIG d   1       1.016  -0.698 -10.760  0.00  0.00    -0.023 C 
ATOM     43  H   LIG d   1       0.374  -1.476 -11.175  0.00  0.00     0.029 H 
ATOM     44  H   LIG d   1       0.413  -0.004 -10.176  0.00  0.00     0.029 H 
ATOM     45  H   LIG d   1       1.506  -0.160 -11.572  0.00  0.00     0.029 H 
ENDBRANCH   1  42
BRANCH   9  46
ATOM     46  C   LIG d   1       1.563  -3.694 -10.504  0.00  0.00     0.012 C 
ATOM     47  H   LIG d   1       1.346  -4.529  -9.838  0.00  0.00     0.046 H 
ATOM     48  H   LIG d   1       0.629  -3.280 -10.885  0.00  0.00     0.046 H 
ATOM     49  H   LIG d   1       2.171  -4.044 -11.338  0.00  0.00     0.046 H 
ENDBRANCH   9  46
TORSDOF 11
ENDMDL
MODEL 4
REMARK VINA RESULT:      -5.9      3.221      5.499
REMARK  11 active torsions:
REMARK  status: ('A' for Active; 'I' for Inactive)
REMARK    1  A    between atoms: C_1  and  C_2 
REMARK    2  A    between atoms: C_3  and  C_23 
REMARK    3  A    between atoms: C_6  and  O_12 
REMARK    4  A    between atoms: N_10  and  C_11 
REMARK    5  A    between atoms: O_12  and  S_13 
REMARK    6  A    between atoms: S_13  and  C_16 
REMARK    7  A    between atoms: C_23  and  O_25 
REMARK    8  A    between atoms: O_25  and  C_26 
REMARK    9  A    between atoms: C_26  and  C_27 
REMARK   10  A    between atoms: C_27  and  O_28 
REMARK   11  A    between atoms: O_28  and  C_29 
ROOT
ATOM      1  C   LIG d   1       1.922  -3.000 -10.089  0.00  0.00     0.030 A 
ATOM      2  C   LIG d   1       2.847  -3.848  -9.552  0.00  0.00     0.087 A 
ATOM      3  C   LIG d   1       3.658  -3.045  -8.618  0.00  0.00     0.018 A 
ATOM      4  C   LIG d   1       4.739  -3.329  -7.787  0.00  0.00    -0.007 A 
ATOM      5  C   LIG d   1       5.288  -2.325  -7.014  0.00  0.00     0.158 A 
ATOM      6  C   LIG d   1       4.765  -1.036  -7.067  0.00  0.00    -0.015 A 
ATOM      7  C   LIG d   1       3.698  -0.746  -7.887  0.00  0.00    -0.034 A 
ATOM      8  C   LIG d   1       3.132  -1.746  -8.671  0.00  0.00     0.050 A 
ATOM      9  N   LIG d   1       2.081  -1.761  -9.569  0.00  0.00    -0.346 N 
ATOM     10  H   LIG d   1       5.144  -4.329  -7.746  0.00  0.00     0.066 H 
ATOM     11  H   LIG d   1       5.201  -0.256  -6.460  0.00  0.00     0.066 H 
ATOM     12  H   LIG d   1       3.300   0.257  -7.921  0.00  0.00     0.064 H 
ENDROOT
BRANCH   5  13
ATOM     13  O   LIG d   1       6.343  -2.596  -6.199  0.00  0.00    -0.342 OA
BRANCH  13  14
ATOM     14  S   LIG d   1       5.955  -3.246  -4.879  0.00  0.00     0.151 S 
ATOM     15  O   LIG d   1       4.779  -4.003  -5.130  0.00  0.00    -0.131 OA
ATOM     16  O   LIG d   1       7.139  -3.830  -4.352  0.00  0.00    -0.131 OA
BRANCH  14  17
ATOM     17  C   LIG d   1       5.497  -1.953  -3.774  0.00  0.00     0.128 A 
ATOM     18  C   LIG d   1       4.373  -2.087  -2.983  0.00  0.00    -0.031 A 
ATOM     19  C   LIG d   1       4.012  -1.073  -2.115  0.00  0.00    -0.025 A 
ATOM     20  H   LIG d   1       3.775  -2.985  -3.042  0.00  0.00     0.064 H 
ATOM     21  C   LIG d   1       4.778   0.078  -2.040  0.00  0.00     0.123 A 
ATOM     22  H   LIG d   1       3.133  -1.179  -1.496  0.00  0.00     0.065 H 
ATOM     23  C   LIG d   1       5.905   0.211  -2.834  0.00  0.00    -0.025 A 
ATOM     24  F   LIG d   1       4.426   1.069  -1.192  0.00  0.00    -0.205 F 
ATOM     25  C   LIG d   1       6.266  -0.807  -3.696  0.00  0.00    -0.031 A 
ATOM     26  H   LIG d   1       6.503   1.108  -2.776  0.00  0.00     0.065 H 
ATOM     27  H   LIG d   1       7.147  -0.704  -4.313  0.00  0.00     0.064 H 
ENDBRANCH  14  17
ENDBRANCH  13  14
ENDBRANCH   5  13
BRANCH   2  28
ATOM     28  C   LIG d   1       3.008  -5.276  -9.851  0.00  0.00     0.342 C 
ATOM     29  O   LIG d   1       3.323  -5.630 -10.971  0.00  0.00    -0.245 OA
BRANCH  28  30
ATOM     30  O   LIG d   1       2.811  -6.194  -8.884  0.00  0.00    -0.459 OA
BRANCH  30  31
ATOM     31  C   LIG d   1       3.871  -7.162  -8.669  0.00  0.00     0.116 C 
ATOM     32  H   LIG d   1       3.465  -8.171  -8.756  0.00  0.00     0.072 H 
ATOM     33  H   LIG d   1       4.651  -7.020  -9.417  0.00  0.00     0.072 H 
BRANCH  31  34
ATOM     34  C   LIG d   1       4.463  -6.970  -7.272  0.00  0.00     0.082 C 
ATOM     35  H   LIG d   1       5.552  -6.955  -7.337  0.00  0.00     0.059 H 
ATOM     36  H   LIG d   1       4.111  -6.027  -6.855  0.00  0.00     0.059 H 
BRANCH  34  37
ATOM     37  O   LIG d   1       4.051  -8.047  -6.427  0.00  0.00    -0.380 OA
BRANCH  37  38
ATOM     38  C   LIG d   1       4.598  -9.316  -6.794  0.00  0.00     0.037 C 
ATOM     39  H   LIG d   1       5.370  -9.598  -6.079  0.00  0.00     0.052 H 
ATOM     40  H   LIG d   1       3.808 -10.066  -6.793  0.00  0.00     0.052 H 
ATOM     41  H   LIG d   1       5.034  -9.248  -7.791  0.00  0.00     0.052 H 
ENDBRANCH  37  38
ENDBRANCH  34  37
ENDBRANCH  31  34
ENDBRANCH  30  31
ENDBRANCH  28  30
ENDBRANCH   2  28
BRANCH   1  42
ATOM     42  C   LIG d   1       0.878  -3.386 -11.105  0.00  0.00    -0.023 C 
ATOM     43  H   LIG d   1       0.585  -4.425 -10.948  0.00  0.00     0.029 H 
ATOM     44  H   LIG d   1       0.006  -2.742 -10.993  0.00  0.00     0.029 H 
ATOM     45  H   LIG d   1       1.288  -3.273 -12.108  0.00  0.00     0.029 H 
ENDBRANCH   1  42
BRANCH   9  46
ATOM     46  C   LIG d   1       1.261  -0.597  -9.914  0.00  0.00     0.012 C 
ATOM     47  H   LIG d   1       0.645  -0.831 -10.782  0.00  0.00     0.046 H 
ATOM     48  H   LIG d   1       0.619  -0.343  -9.070  0.00  0.00     0.046 H 
ATOM     49  H   LIG d   1       1.908   0.248 -10.146  0.00  0.00     0.046 H 
ENDBRANCH   9  46
TORSDOF 11
ENDMDL
MODEL 5
REMARK VINA RESULT:      -5.9      2.804      4.249
REMARK  11 active torsions:
REMARK  status: ('A' for Active; 'I' for Inactive)
REMARK    1  A    between atoms: C_1  and  C_2 
REMARK    2  A    between atoms: C_3  and  C_23 
REMARK    3  A    between atoms: C_6  and  O_12 
REMARK    4  A    between atoms: N_10  and  C_11 
REMARK    5  A    between atoms: O_12  and  S_13 
REMARK    6  A    between atoms: S_13  and  C_16 
REMARK    7  A    between atoms: C_23  and  O_25 
REMARK    8  A    between atoms: O_25  and  C_26 
REMARK    9  A    between atoms: C_26  and  C_27 
REMARK   10  A    between atoms: C_27  and  O_28 
REMARK   11  A    between atoms: O_28  and  C_29 
ROOT
ATOM      1  C   LIG d   1       9.322  -7.506  -3.700  0.00  0.00     0.030 A 
ATOM      2  C   LIG d   1       8.382  -7.309  -4.670  0.00  0.00     0.087 A 
ATOM      3  C   LIG d   1       8.109  -5.860  -4.699  0.00  0.00     0.018 A 
ATOM      4  C   LIG d   1       7.261  -5.052  -5.453  0.00  0.00    -0.007 A 
ATOM      5  C   LIG d   1       7.240  -3.689  -5.230  0.00  0.00     0.158 A 
ATOM      6  C   LIG d   1       8.062  -3.127  -4.257  0.00  0.00    -0.015 A 
ATOM      7  C   LIG d   1       8.902  -3.919  -3.506  0.00  0.00    -0.034 A 
ATOM      8  C   LIG d   1       8.936  -5.293  -3.719  0.00  0.00     0.050 A 
ATOM      9  N   LIG d   1       9.657  -6.320  -3.139  0.00  0.00    -0.346 N 
ATOM     10  H   LIG d   1       6.624  -5.489  -6.208  0.00  0.00     0.066 H 
ATOM     11  H   LIG d   1       8.039  -2.060  -4.088  0.00  0.00     0.066 H 
ATOM     12  H   LIG d   1       9.535  -3.472  -2.754  0.00  0.00     0.064 H 
ENDROOT
BRANCH   5  13
ATOM     13  O   LIG d   1       6.415  -2.894  -5.962  0.00  0.00    -0.342 OA
BRANCH  13  14
ATOM     14  S   LIG d   1       4.975  -2.876  -5.469  0.00  0.00     0.151 S 
ATOM     15  O   LIG d   1       4.189  -2.351  -6.531  0.00  0.00    -0.131 OA
ATOM     16  O   LIG d   1       4.727  -4.153  -4.896  0.00  0.00    -0.131 OA
BRANCH  14  17
ATOM     17  C   LIG d   1       4.889  -1.708  -4.153  0.00  0.00     0.128 A 
ATOM     18  C   LIG d   1       4.323  -2.069  -2.946  0.00  0.00    -0.031 A 
ATOM     19  C   LIG d   1       4.254  -1.153  -1.912  0.00  0.00    -0.025 A 
ATOM     20  H   LIG d   1       3.932  -3.067  -2.810  0.00  0.00     0.064 H 
ATOM     21  C   LIG d   1       4.755   0.125  -2.087  0.00  0.00     0.123 A 
ATOM     22  H   LIG d   1       3.812  -1.436  -0.968  0.00  0.00     0.065 H 
ATOM     23  C   LIG d   1       5.323   0.486  -3.298  0.00  0.00    -0.025 A 
ATOM     24  F   LIG d   1       4.689   1.021  -1.078  0.00  0.00    -0.205 F 
ATOM     25  C   LIG d   1       5.394  -0.433  -4.328  0.00  0.00    -0.031 A 
ATOM     26  H   LIG d   1       5.712   1.483  -3.436  0.00  0.00     0.065 H 
ATOM     27  H   LIG d   1       5.840  -0.153  -5.271  0.00  0.00     0.064 H 
ENDBRANCH  14  17
ENDBRANCH  13  14
ENDBRANCH   5  13
BRANCH   2  28
ATOM     28  C   LIG d   1       7.761  -8.338  -5.512  0.00  0.00     0.342 C 
ATOM     29  O   LIG d   1       8.248  -8.613  -6.593  0.00  0.00    -0.245 OA
BRANCH  28  30
ATOM     30  O   LIG d   1       6.657  -8.982  -5.086  0.00  0.00    -0.459 OA
BRANCH  30  31
ATOM     31  C   LIG d   1       5.514  -8.993  -5.981  0.00  0.00     0.116 C 
ATOM     32  H   LIG d   1       5.098  -7.987  -6.053  0.00  0.00     0.072 H 
ATOM     33  H   LIG d   1       5.829  -9.326  -6.970  0.00  0.00     0.072 H 
BRANCH  31  34
ATOM     34  C   LIG d   1       4.448  -9.947  -5.437  0.00  0.00     0.082 C 
ATOM     35  H   LIG d   1       3.710 -10.148  -6.214  0.00  0.00     0.059 H 
ATOM     36  H   LIG d   1       4.919 -10.881  -5.132  0.00  0.00     0.059 H 
BRANCH  34  37
ATOM     37  O   LIG d   1       3.803  -9.348  -4.311  0.00  0.00    -0.380 OA
BRANCH  37  38
ATOM     38  C   LIG d   1       3.652 -10.226  -3.193  0.00  0.00     0.037 C 
ATOM     39  H   LIG d   1       3.323 -11.204  -3.542  0.00  0.00     0.052 H 
ATOM     40  H   LIG d   1       4.608 -10.326  -2.678  0.00  0.00     0.052 H 
ATOM     41  H   LIG d   1       2.911  -9.816  -2.507  0.00  0.00     0.052 H 
ENDBRANCH  37  38
ENDBRANCH  34  37
ENDBRANCH  31  34
ENDBRANCH  30  31
ENDBRANCH  28  30
ENDBRANCH   2  28
BRANCH   1  42
ATOM     42  C   LIG d   1       9.902  -8.842  -3.312  0.00  0.00    -0.023 C 
ATOM     43  H   LIG d   1      10.241  -8.804  -2.276  0.00  0.00     0.029 H 
ATOM     44  H   LIG d   1       9.140  -9.614  -3.417  0.00  0.00     0.029 H 
ATOM     45  H   LIG d   1      10.746  -9.073  -3.961  0.00  0.00     0.029 H 
ENDBRANCH   1  42
BRANCH   9  46
ATOM     46  C   LIG d   1      10.638  -6.150  -2.066  0.00  0.00     0.012 C 
ATOM     47  H   LIG d   1      11.517  -5.635  -2.454  0.00  0.00     0.046 H 
ATOM     48  H   LIG d   1      10.198  -5.561  -1.261  0.00  0.00     0.046 H 
ATOM     49  H   LIG d   1      10.930  -7.127  -1.682  0.00  0.00     0.046 H 
ENDBRANCH   9  46
TORSDOF 11
ENDMDL
MODEL 6
REMARK VINA RESULT:      -5.8      4.347      6.292
REMARK  11 active torsions:
REMARK  status: ('A' for Active; 'I' for Inactive)
REMARK    1  A    between atoms: C_1  and  C_2 
REMARK    2  A    between atoms: C_3  and  C_23 
REMARK    3  A    between atoms: C_6  and  O_12 
REMARK    4  A    between atoms: N_10  and  C_11 
REMARK    5  A    between atoms: O_12  and  S_13 
REMARK    6  A    between atoms: S_13  and  C_16 
REMARK    7  A    between atoms: C_23  and  O_25 
REMARK    8  A    between atoms: O_25  and  C_26 
REMARK    9  A    between atoms: C_26  and  C_27 
REMARK   10  A    between atoms: C_27  and  O_28 
REMARK   11  A    between atoms: O_28  and  C_29 
ROOT
ATOM      1  C   LIG d   1       3.746  -3.803 -12.467  0.00  0.00     0.030 A 
ATOM      2  C   LIG d   1       3.461  -3.982 -11.144  0.00  0.00     0.087 A 
ATOM      3  C   LIG d   1       3.142  -2.649 -10.601  0.00  0.00     0.018 A 
ATOM      4  C   LIG d   1       2.783  -2.181  -9.339  0.00  0.00    -0.007 A 
ATOM      5  C   LIG d   1       2.544  -0.833  -9.154  0.00  0.00     0.158 A 
ATOM      6  C   LIG d   1       2.662   0.052 -10.222  0.00  0.00    -0.015 A 
ATOM      7  C   LIG d   1       3.017  -0.402 -11.473  0.00  0.00    -0.034 A 
ATOM      8  C   LIG d   1       3.260  -1.757 -11.677  0.00  0.00     0.050 A 
ATOM      9  N   LIG d   1       3.623  -2.493 -12.788  0.00  0.00    -0.346 N 
ATOM     10  H   LIG d   1       2.692  -2.867  -8.511  0.00  0.00     0.066 H 
ATOM     11  H   LIG d   1       2.475   1.105 -10.069  0.00  0.00     0.066 H 
ATOM     12  H   LIG d   1       3.106   0.292 -12.294  0.00  0.00     0.064 H 
ENDROOT
BRANCH   5  13
ATOM     13  O   LIG d   1       2.193  -0.368  -7.924  0.00  0.00    -0.342 OA
BRANCH  13  14
ATOM     14  S   LIG d   1       3.327   0.318  -7.175  0.00  0.00     0.151 S 
ATOM     15  O   LIG d   1       4.526  -0.012  -7.863  0.00  0.00    -0.131 OA
ATOM     16  O   LIG d   1       2.916   1.662  -6.962  0.00  0.00    -0.131 OA
BRANCH  14  17
ATOM     17  C   LIG d   1       3.433  -0.435  -5.586  0.00  0.00     0.128 A 
ATOM     18  C   LIG d   1       4.288  -1.501  -5.383  0.00  0.00    -0.031 A 
ATOM     19  C   LIG d   1       4.373  -2.092  -4.136  0.00  0.00    -0.025 A 
ATOM     20  H   LIG d   1       4.891  -1.872  -6.199  0.00  0.00     0.064 H 
ATOM     21  C   LIG d   1       3.601  -1.616  -3.091  0.00  0.00     0.123 A 
ATOM     22  H   LIG d   1       5.042  -2.925  -3.978  0.00  0.00     0.065 H 
ATOM     23  C   LIG d   1       2.744  -0.547  -3.296  0.00  0.00    -0.025 A 
ATOM     24  F   LIG d   1       3.682  -2.193  -1.872  0.00  0.00    -0.205 F 
ATOM     25  C   LIG d   1       2.665   0.045  -4.542  0.00  0.00    -0.031 A 
ATOM     26  H   LIG d   1       2.140  -0.175  -2.482  0.00  0.00     0.065 H 
ATOM     27  H   LIG d   1       1.999   0.881  -4.701  0.00  0.00     0.064 H 
ENDBRANCH  14  17
ENDBRANCH  13  14
ENDBRANCH   5  13
BRANCH   2  28
ATOM     28  C   LIG d   1       3.476  -5.251 -10.407  0.00  0.00     0.342 C 
ATOM     29  O   LIG d   1       2.552  -6.033 -10.524  0.00  0.00    -0.245 OA
BRANCH  28  30
ATOM     30  O   LIG d   1       4.517  -5.553  -9.605  0.00  0.00    -0.459 OA
BRANCH  30  31
ATOM     31  C   LIG d   1       4.205  -6.112  -8.303  0.00  0.00     0.116 C 
ATOM     32  H   LIG d   1       3.418  -6.861  -8.407  0.00  0.00     0.072 H 
ATOM     33  H   LIG d   1       5.096  -6.579  -7.884  0.00  0.00     0.072 H 
BRANCH  31  34
ATOM     34  C   LIG d   1       3.727  -4.997  -7.370  0.00  0.00     0.082 C 
ATOM     35  H   LIG d   1       4.454  -4.185  -7.371  0.00  0.00     0.059 H 
ATOM     36  H   LIG d   1       2.763  -4.623  -7.715  0.00  0.00     0.059 H 
BRANCH  34  37
ATOM     37  O   LIG d   1       3.590  -5.512  -6.043  0.00  0.00    -0.380 OA
BRANCH  37  38
ATOM     38  C   LIG d   1       4.736  -6.229  -5.577  0.00  0.00     0.037 C 
ATOM     39  H   LIG d   1       4.577  -7.297  -5.717  0.00  0.00     0.052 H 
ATOM     40  H   LIG d   1       5.615  -5.914  -6.140  0.00  0.00     0.052 H 
ATOM     41  H   LIG d   1       4.888  -6.020  -4.519  0.00  0.00     0.052 H 
ENDBRANCH  37  38
ENDBRANCH  34  37
ENDBRANCH  31  34
ENDBRANCH  30  31
ENDBRANCH  28  30
ENDBRANCH   2  28
BRANCH   1  42
ATOM     42  C   LIG d   1       4.134  -4.898 -13.427  0.00  0.00    -0.023 C 
ATOM     43  H   LIG d   1       5.222  -4.968 -13.476  0.00  0.00     0.029 H 
ATOM     44  H   LIG d   1       3.725  -5.847 -13.082  0.00  0.00     0.029 H 
ATOM     45  H   LIG d   1       3.740  -4.670 -14.417  0.00  0.00     0.029 H 
ENDBRANCH   1  42
BRANCH   9  46
ATOM     46  C   LIG d   1       3.851  -1.935 -14.123  0.00  0.00     0.012 C 
ATOM     47  H   LIG d   1       3.961  -0.853 -14.051  0.00  0.00     0.046 H 
ATOM     48  H   LIG d   1       4.759  -2.365 -14.546  0.00  0.00     0.046 H 
ATOM     49  H   LIG d   1       3.003  -2.172 -14.765  0.00  0.00     0.046 H 
ENDBRANCH   9  46
TORSDOF 11
ENDMDL
MODEL 7
REMARK VINA RESULT:      -5.8      3.425      7.748
REMARK  11 active torsions:
REMARK  status: ('A' for Active; 'I' for Inactive)
REMARK    1  A    between atoms: C_1  and  C_2 
REMARK    2  A    between atoms: C_3  and  C_23 
REMARK    3  A    between atoms: C_6  and  O_12 
REMARK    4  A    between atoms: N_10  and  C_11 
REMARK    5  A    between atoms: O_12  and  S_13 
REMARK    6  A    between atoms: S_13  and  C_16 
REMARK    7  A    between atoms: C_23  and  O_25 
REMARK    8  A    between atoms: O_25  and  C_26 
REMARK    9  A    between atoms: C_26  and  C_27 
REMARK   10  A    between atoms: C_27  and  O_28 
REMARK   11  A    between atoms: O_28  and  C_29 
ROOT
ATOM      1  C   LIG d   1       4.627  -2.210  -6.620  0.00  0.00     0.030 A 
ATOM      2  C   LIG d   1       4.755  -3.015  -5.525  0.00  0.00     0.087 A 
ATOM      3  C   LIG d   1       4.655  -4.403  -6.014  0.00  0.00     0.018 A 
ATOM      4  C   LIG d   1       4.703  -5.650  -5.396  0.00  0.00    -0.007 A 
ATOM      5  C   LIG d   1       4.573  -6.795  -6.158  0.00  0.00     0.158 A 
ATOM      6  C   LIG d   1       4.395  -6.702  -7.536  0.00  0.00    -0.015 A 
ATOM      7  C   LIG d   1       4.345  -5.473  -8.154  0.00  0.00    -0.034 A 
ATOM      8  C   LIG d   1       4.475  -4.310  -7.402  0.00  0.00     0.050 A 
ATOM      9  N   LIG d   1       4.467  -2.968  -7.730  0.00  0.00    -0.346 N 
ATOM     10  H   LIG d   1       4.841  -5.722  -4.327  0.00  0.00     0.066 H 
ATOM     11  H   LIG d   1       4.293  -7.602  -8.124  0.00  0.00     0.066 H 
ATOM     12  H   LIG d   1       4.206  -5.412  -9.223  0.00  0.00     0.064 H 
ENDROOT
BRANCH   5  13
ATOM     13  O   LIG d   1       4.620  -8.016  -5.561  0.00  0.00    -0.342 OA
BRANCH  13  14
ATOM     14  S   LIG d   1       6.013  -8.626  -5.505  0.00  0.00     0.151 S 
ATOM     15  O   LIG d   1       6.053  -9.641  -6.500  0.00  0.00    -0.131 OA
ATOM     16  O   LIG d   1       6.930  -7.540  -5.488  0.00  0.00    -0.131 OA
BRANCH  14  17
ATOM     17  C   LIG d   1       6.165  -9.438  -3.950  0.00  0.00     0.128 A 
ATOM     18  C   LIG d   1       7.281  -9.221  -3.163  0.00  0.00    -0.031 A 
ATOM     19  C   LIG d   1       7.402  -9.857  -1.942  0.00  0.00    -0.025 A 
ATOM     20  H   LIG d   1       8.059  -8.553  -3.504  0.00  0.00     0.064 H 
ATOM     21  C   LIG d   1       6.404 -10.712  -1.507  0.00  0.00     0.123 A 
ATOM     22  H   LIG d   1       8.274  -9.687  -1.328  0.00  0.00     0.065 H 
ATOM     23  C   LIG d   1       5.286 -10.929  -2.295  0.00  0.00    -0.025 A 
ATOM     24  F   LIG d   1       6.521 -11.335  -0.313  0.00  0.00    -0.205 F 
ATOM     25  C   LIG d   1       5.166 -10.288  -3.513  0.00  0.00    -0.031 A 
ATOM     26  H   LIG d   1       4.508 -11.597  -1.957  0.00  0.00     0.065 H 
ATOM     27  H   LIG d   1       4.292 -10.454  -4.127  0.00  0.00     0.064 H 
ENDBRANCH  14  17
ENDBRANCH  13  14
ENDBRANCH   5  13
BRANCH   2  28
ATOM     28  C   LIG d   1       4.947  -2.584  -4.136  0.00  0.00     0.342 C 
ATOM     29  O   LIG d   1       6.032  -2.169  -3.773  0.00  0.00    -0.245 OA
BRANCH  28  30
ATOM     30  O   LIG d   1       3.921  -2.642  -3.263  0.00  0.00    -0.459 OA
BRANCH  30  31
ATOM     31  C   LIG d   1       3.804  -1.554  -2.310  0.00  0.00     0.116 C 
ATOM     32  H   LIG d   1       3.326  -1.917  -1.400  0.00  0.00     0.072 H 
ATOM     33  H   LIG d   1       4.796  -1.172  -2.071  0.00  0.00     0.072 H 
BRANCH  31  34
ATOM     34  C   LIG d   1       2.959  -0.432  -2.917  0.00  0.00     0.082 C 
ATOM     35  H   LIG d   1       3.187  -0.339  -3.979  0.00  0.00     0.059 H 
ATOM     36  H   LIG d   1       1.902  -0.666  -2.792  0.00  0.00     0.059 H 
BRANCH  34  37
ATOM     37  O   LIG d   1       3.256   0.800  -2.256  0.00  0.00    -0.380 OA
BRANCH  37  38
ATOM     38  C   LIG d   1       4.578   0.866  -1.716  0.00  0.00     0.037 C 
ATOM     39  H   LIG d   1       4.813  -0.074  -1.218  0.00  0.00     0.052 H 
ATOM     40  H   LIG d   1       5.291   1.039  -2.522  0.00  0.00     0.052 H 
ATOM     41  H   LIG d   1       4.636   1.683  -0.997  0.00  0.00     0.052 H 
ENDBRANCH  37  38
ENDBRANCH  34  37
ENDBRANCH  31  34
ENDBRANCH  30  31
ENDBRANCH  28  30
ENDBRANCH   2  28
BRANCH   1  42
ATOM     42  C   LIG d   1       4.661  -0.703  -6.597  0.00  0.00    -0.023 C 
ATOM     43  H   LIG d   1       5.592  -0.354  -7.045  0.00  0.00     0.029 H 
ATOM     44  H   LIG d   1       3.817  -0.311  -7.164  0.00  0.00     0.029 H 
ATOM     45  H   LIG d   1       4.600  -0.354  -5.567  0.00  0.00     0.029 H 
ENDBRANCH   1  42
BRANCH   9  46
ATOM     46  C   LIG d   1       4.302  -2.440  -9.086  0.00  0.00     0.012 C 
ATOM     47  H   LIG d   1       5.257  -2.060  -9.447  0.00  0.00     0.046 H 
ATOM     48  H   LIG d   1       3.955  -3.236  -9.745  0.00  0.00     0.046 H 
ATOM     49  H   LIG d   1       3.571  -1.632  -9.075  0.00  0.00     0.046 H 
ENDBRANCH   9  46
TORSDOF 11
ENDMDL
MODEL 8
REMARK VINA RESULT:      -5.7      4.076      8.091
REMARK  11 active torsions:
REMARK  status: ('A' for Active; 'I' for Inactive)
REMARK    1  A    between atoms: C_1  and  C_2 
REMARK    2  A    between atoms: C_3  and  C_23 
REMARK    3  A    between atoms: C_6  and  O_12 
REMARK    4  A    between atoms: N_10  and  C_11 
REMARK    5  A    between atoms: O_12  and  S_13 
REMARK    6  A    between atoms: S_13  and  C_16 
REMARK    7  A    between atoms: C_23  and  O_25 
REMARK    8  A    between atoms: O_25  and  C_26 
REMARK    9  A    between atoms: C_26  and  C_27 
REMARK   10  A    between atoms: C_27  and  O_28 
REMARK   11  A    between atoms: O_28  and  C_29 
ROOT
ATOM      1  C   LIG d   1       3.128  -0.004  -8.428  0.00  0.00     0.030 A 
ATOM      2  C   LIG d   1       4.089  -0.610  -7.671  0.00  0.00     0.087 A 
ATOM      3  C   LIG d   1       4.057  -2.041  -8.025  0.00  0.00     0.018 A 
ATOM      4  C   LIG d   1       4.776  -3.157  -7.602  0.00  0.00    -0.007 A 
ATOM      5  C   LIG d   1       4.496  -4.396  -8.146  0.00  0.00     0.158 A 
ATOM      6  C   LIG d   1       3.500  -4.528  -9.110  0.00  0.00    -0.015 A 
ATOM      7  C   LIG d   1       2.784  -3.430  -9.533  0.00  0.00    -0.034 A 
ATOM      8  C   LIG d   1       3.054  -2.175  -8.997  0.00  0.00     0.050 A 
ATOM      9  N   LIG d   1       2.519  -0.920  -9.216  0.00  0.00    -0.346 N 
ATOM     10  H   LIG d   1       5.548  -3.054  -6.854  0.00  0.00     0.066 H 
ATOM     11  H   LIG d   1       3.287  -5.500  -9.530  0.00  0.00     0.066 H 
ATOM     12  H   LIG d   1       2.014  -3.544 -10.281  0.00  0.00     0.064 H 
ENDROOT
BRANCH   5  13
ATOM     13  O   LIG d   1       5.194  -5.489  -7.738  0.00  0.00    -0.342 OA
BRANCH  13  14
ATOM     14  S   LIG d   1       4.400  -6.434  -6.848  0.00  0.00     0.151 S 
ATOM     15  O   LIG d   1       3.610  -5.619  -5.992  0.00  0.00    -0.131 OA
ATOM     16  O   LIG d   1       3.830  -7.415  -7.705  0.00  0.00    -0.131 OA
BRANCH  14  17
ATOM     17  C   LIG d   1       5.555  -7.276  -5.818  0.00  0.00     0.128 A 
ATOM     18  C   LIG d   1       6.828  -6.767  -5.650  0.00  0.00    -0.031 A 
ATOM     19  C   LIG d   1       7.736  -7.426  -4.842  0.00  0.00    -0.025 A 
ATOM     20  H   LIG d   1       7.115  -5.854  -6.151  0.00  0.00     0.064 H 
ATOM     21  C   LIG d   1       7.368  -8.596  -4.200  0.00  0.00     0.123 A 
ATOM     22  H   LIG d   1       8.731  -7.028  -4.711  0.00  0.00     0.065 H 
ATOM     23  C   LIG d   1       6.091  -9.105  -4.369  0.00  0.00    -0.025 A 
ATOM     24  F   LIG d   1       8.255  -9.241  -3.410  0.00  0.00    -0.205 F 
ATOM     25  C   LIG d   1       5.185  -8.442  -5.174  0.00  0.00    -0.031 A 
ATOM     26  H   LIG d   1       5.803 -10.018  -3.870  0.00  0.00     0.065 H 
ATOM     27  H   LIG d   1       4.187  -8.837  -5.302  0.00  0.00     0.064 H 
ENDBRANCH  14  17
ENDBRANCH  13  14
ENDBRANCH   5  13
BRANCH   2  28
ATOM     28  C   LIG d   1       4.973   0.034  -6.693  0.00  0.00     0.342 C 
ATOM     29  O   LIG d   1       5.938   0.669  -7.073  0.00  0.00    -0.245 OA
BRANCH  28  30
ATOM     30  O   LIG d   1       4.713  -0.072  -5.375  0.00  0.00    -0.459 OA
BRANCH  30  31
ATOM     31  C   LIG d   1       3.319  -0.013  -4.972  0.00  0.00     0.116 C 
ATOM     32  H   LIG d   1       2.851   0.870  -5.410  0.00  0.00     0.072 H 
ATOM     33  H   LIG d   1       2.802  -0.908  -5.319  0.00  0.00     0.072 H 
BRANCH  31  34
ATOM     34  C   LIG d   1       3.232   0.068  -3.447  0.00  0.00     0.082 C 
ATOM     35  H   LIG d   1       4.214   0.306  -3.038  0.00  0.00     0.059 H 
ATOM     36  H   LIG d   1       2.522   0.845  -3.165  0.00  0.00     0.059 H 
BRANCH  34  37
ATOM     37  O   LIG d   1       2.792  -1.189  -2.928  0.00  0.00    -0.380 OA
BRANCH  37  38
ATOM     38  C   LIG d   1       3.850  -2.021  -2.444  0.00  0.00     0.037 C 
ATOM     39  H   LIG d   1       3.567  -3.067  -2.551  0.00  0.00     0.052 H 
ATOM     40  H   LIG d   1       4.756  -1.827  -3.020  0.00  0.00     0.052 H 
ATOM     41  H   LIG d   1       4.034  -1.799  -1.393  0.00  0.00     0.052 H 
ENDBRANCH  37  38
ENDBRANCH  34  37
ENDBRANCH  31  34
ENDBRANCH  30  31
ENDBRANCH  28  30
ENDBRANCH   2  28
BRANCH   1  42
ATOM     42  C   LIG d   1       2.797   1.467  -8.394  0.00  0.00    -0.023 C 
ATOM     43  H   LIG d   1       3.715   2.042  -8.265  0.00  0.00     0.029 H 
ATOM     44  H   LIG d   1       2.318   1.753  -9.330  0.00  0.00     0.029 H 
ATOM     45  H   LIG d   1       2.122   1.668  -7.563  0.00  0.00     0.029 H 
ENDBRANCH   1  42
BRANCH   9  46
ATOM     46  C   LIG d   1       1.439  -0.626 -10.161  0.00  0.00     0.012 C 
ATOM     47  H   LIG d   1       1.859  -0.197 -11.070  0.00  0.00     0.046 H 
ATOM     48  H   LIG d   1       0.909  -1.546 -10.404  0.00  0.00     0.046 H 
ATOM     49  H   LIG d   1       0.747   0.085  -9.711  0.00  0.00     0.046 H 
ENDBRANCH   9  46
TORSDOF 11
ENDMDL
MODEL 9
REMARK VINA RESULT:      -5.7      7.653     13.376
REMARK  11 active torsions:
REMARK  status: ('A' for Active; 'I' for Inactive)
REMARK    1  A    between atoms: C_1  and  C_2 
REMARK    2  A    between atoms: C_3  and  C_23 
REMARK    3  A    between atoms: C_6  and  O_12 
REMARK    4  A    between atoms: N_10  and  C_11 
REMARK    5  A    between atoms: O_12  and  S_13 
REMARK    6  A    between atoms: S_13  and  C_16 
REMARK    7  A    between atoms: C_23  and  O_25 
REMARK    8  A    between atoms: O_25  and  C_26 
REMARK    9  A    between atoms: C_26  and  C_27 
REMARK   10  A    between atoms: C_27  and  O_28 
REMARK   11  A    between atoms: O_28  and  C_29 
ROOT
ATOM      1  C   LIG d   1      12.023   6.021  -5.583  0.00  0.00     0.030 A 
ATOM      2  C   LIG d   1      10.696   5.774  -5.782  0.00  0.00     0.087 A 
ATOM      3  C   LIG d   1      10.341   4.652  -4.893  0.00  0.00     0.018 A 
ATOM      4  C   LIG d   1       9.163   3.951  -4.646  0.00  0.00    -0.007 A 
ATOM      5  C   LIG d   1       9.163   2.921  -3.725  0.00  0.00     0.158 A 
ATOM      6  C   LIG d   1      10.333   2.586  -3.049  0.00  0.00    -0.015 A 
ATOM      7  C   LIG d   1      11.502   3.274  -3.288  0.00  0.00    -0.034 A 
ATOM      8  C   LIG d   1      11.519   4.314  -4.212  0.00  0.00     0.050 A 
ATOM      9  N   LIG d   1      12.513   5.167  -4.653  0.00  0.00    -0.346 N 
ATOM     10  H   LIG d   1       8.256   4.211  -5.170  0.00  0.00     0.066 H 
ATOM     11  H   LIG d   1      10.324   1.779  -2.331  0.00  0.00     0.066 H 
ATOM     12  H   LIG d   1      12.404   3.006  -2.759  0.00  0.00     0.064 H 
ENDROOT
BRANCH   5  13
ATOM     13  O   LIG d   1       8.016   2.232  -3.478  0.00  0.00    -0.342 OA
BRANCH  13  14
ATOM     14  S   LIG d   1       7.790   1.052  -4.412  0.00  0.00     0.151 S 
ATOM     15  O   LIG d   1       7.215   1.579  -5.600  0.00  0.00    -0.131 OA
ATOM     16  O   LIG d   1       8.998   0.302  -4.418  0.00  0.00    -0.131 OA
BRANCH  14  17
ATOM     17  C   LIG d   1       6.565   0.026  -3.670  0.00  0.00     0.128 A 
ATOM     18  C   LIG d   1       6.481  -1.309  -4.015  0.00  0.00    -0.031 A 
ATOM     19  C   LIG d   1       5.521  -2.115  -3.433  0.00  0.00    -0.025 A 
ATOM     20  H   LIG d   1       7.167  -1.723  -4.740  0.00  0.00     0.064 H 
ATOM     21  C   LIG d   1       4.642  -1.584  -2.505  0.00  0.00     0.123 A 
ATOM     22  H   LIG d   1       5.456  -3.159  -3.703  0.00  0.00     0.065 H 
ATOM     23  C   LIG d   1       4.727  -0.245  -2.160  0.00  0.00    -0.025 A 
ATOM     24  F   LIG d   1       3.702  -2.371  -1.936  0.00  0.00    -0.205 F 
ATOM     25  C   LIG d   1       5.692   0.557  -2.739  0.00  0.00    -0.031 A 
ATOM     26  H   LIG d   1       4.042   0.171  -1.436  0.00  0.00     0.065 H 
ATOM     27  H   LIG d   1       5.760   1.601  -2.467  0.00  0.00     0.064 H 
ENDBRANCH  14  17
ENDBRANCH  13  14
ENDBRANCH   5  13
BRANCH   2  28
ATOM     28  C   LIG d   1       9.800   6.482  -6.705  0.00  0.00     0.342 C 
ATOM     29  O   LIG d   1       9.599   6.035  -7.818  0.00  0.00    -0.245 OA
BRANCH  28  30
ATOM     30  O   LIG d   1       9.195   7.621  -6.316  0.00  0.00    -0.459 OA
BRANCH  30  31
ATOM     31  C   LIG d   1       9.446   8.807  -7.115  0.00  0.00     0.116 C 
ATOM     32  H   LIG d   1      10.107   8.553  -7.945  0.00  0.00     0.072 H 
ATOM     33  H   LIG d   1       8.503   9.187  -7.507  0.00  0.00     0.072 H 
BRANCH  31  34
ATOM     34  C   LIG d   1      10.107   9.879  -6.246  0.00  0.00     0.082 C 
ATOM     35  H   LIG d   1      11.104   9.547  -5.955  0.00  0.00     0.059 H 
ATOM     36  H   LIG d   1      10.183  10.807  -6.811  0.00  0.00     0.059 H 
BRANCH  34  37
ATOM     37  O   LIG d   1       9.316  10.097  -5.075  0.00  0.00    -0.380 OA
BRANCH  37  38
ATOM     38  C   LIG d   1       9.213  11.470  -4.691  0.00  0.00     0.037 C 
ATOM     39  H   LIG d   1      10.067  11.738  -4.072  0.00  0.00     0.052 H 
ATOM     40  H   LIG d   1       9.199  12.096  -5.584  0.00  0.00     0.052 H 
ATOM     41  H   LIG d   1       8.293  11.621  -4.127  0.00  0.00     0.052 H 
ENDBRANCH  37  38
ENDBRANCH  34  37
ENDBRANCH  31  34
ENDBRANCH  30  31
ENDBRANCH  28  30
ENDBRANCH   2  28
BRANCH   1  42
ATOM     42  C   LIG d   1      12.823   7.086  -6.289  0.00  0.00    -0.023 C 
ATOM     43  H   LIG d   1      12.770   8.016  -5.721  0.00  0.00     0.029 H 
ATOM     44  H   LIG d   1      13.863   6.768  -6.367  0.00  0.00     0.029 H 
ATOM     45  H   LIG d   1      12.416   7.245  -7.287  0.00  0.00     0.029 H 
ENDBRANCH   1  42
BRANCH   9  46
ATOM     46  C   LIG d   1      13.902   5.145  -4.188  0.00  0.00     0.012 C 
ATOM     47  H   LIG d   1      14.151   4.145  -3.834  0.00  0.00     0.046 H 
ATOM     48  H   LIG d   1      14.564   5.415  -5.010  0.00  0.00     0.046 H 
ATOM     49  H   LIG d   1      14.023   5.858  -3.373  0.00  0.00     0.046 H 
ENDBRANCH   9  46
TORSDOF 11
ENDMDL
