MODEL 1
REMARK VINA RESULT:      -6.7      0.000      0.000
REMARK  8 active torsions:
REMARK  status: ('A' for Active; 'I' for Inactive)
REMARK    1  A    between atoms: C_1  and  C_2 
REMARK    2  A    between atoms: C_4  and  C_25 
REMARK    3  A    between atoms: C_6  and  C_8 
REMARK    4  A    between atoms: C_8  and  O_9 
REMARK    5  A    between atoms: O_9  and  C_10 
REMARK    6  A    between atoms: C_14  and  C_24 
REMARK    7  A    between atoms: C_15  and  C_21 
REMARK    8  A    between atoms: C_21  and  C_22 
ROOT
ATOM      1  C   LIG d   1       9.242   1.989  -5.241  0.00  0.00     0.124 A 
ATOM      2  C   LIG d   1       9.477   0.633  -5.458  0.00  0.00    -0.019 A 
ATOM      3  C   LIG d   1       8.663  -0.308  -4.897  0.00  0.00    -0.047 A 
ATOM      4  C   LIG d   1       7.588   0.090  -4.096  0.00  0.00     0.021 A 
ATOM      5  C   LIG d   1       6.699  -0.897  -3.479  0.00  0.00    -0.029 A 
ATOM      6  C   LIG d   1       5.672  -0.447  -2.714  0.00  0.00     0.046 A 
ATOM      7  C   LIG d   1       5.484   0.939  -2.537  0.00  0.00     0.341 A 
ATOM      8  O   LIG d   1       4.555   1.330  -1.852  0.00  0.00    -0.245 OA
ATOM      9  O   LIG d   1       6.304   1.840  -3.100  0.00  0.00    -0.422 OA
ATOM     10  C   LIG d   1       7.345   1.458  -3.872  0.00  0.00     0.143 A 
ATOM     11  C   LIG d   1       8.180   2.402  -4.452  0.00  0.00     0.023 A 
ATOM     12  H   LIG d   1      10.307   0.325  -6.076  0.00  0.00     0.065 H 
ATOM     13  H   LIG d   1       8.851  -1.358  -5.069  0.00  0.00     0.063 H 
ATOM     14  H   LIG d   1       8.004   3.455  -4.287  0.00  0.00     0.069 H 
ENDROOT
BRANCH   1  15
ATOM     15  O   LIG d   1      10.059   2.914  -5.806  0.00  0.00    -0.487 OA
BRANCH  15  16
ATOM     16  C   LIG d   1      11.059   3.494  -4.968  0.00  0.00     0.115 C 
ATOM     17  H   LIG d   1      11.253   2.833  -4.122  0.00  0.00     0.075 H 
ATOM     18  H   LIG d   1      11.977   3.632  -5.539  0.00  0.00     0.075 H 
BRANCH  16  19
ATOM     19  C   LIG d   1      10.578   4.829  -4.461  0.00  0.00    -0.010 A 
ATOM     20  C   LIG d   1      10.146   5.793  -5.354  0.00  0.00    -0.052 A 
ATOM     21  C   LIG d   1       9.705   7.018  -4.889  0.00  0.00    -0.050 A 
ATOM     22  H   LIG d   1      10.153   5.589  -6.414  0.00  0.00     0.062 H 
ATOM     23  C   LIG d   1       9.696   7.279  -3.531  0.00  0.00    -0.056 A 
ATOM     24  C   LIG d   1      10.128   6.315  -2.639  0.00  0.00    -0.050 A 
ATOM     25  H   LIG d   1       9.352   8.237  -3.168  0.00  0.00     0.062 H 
ATOM     26  C   LIG d   1      10.564   5.089  -3.104  0.00  0.00    -0.052 A 
ATOM     27  H   LIG d   1      10.898   4.334  -2.406  0.00  0.00     0.062 H 
BRANCH  21  28
ATOM     28  C   LIG d   1       9.235   8.068  -5.862  0.00  0.00    -0.040 C 
ATOM     29  H   LIG d   1      10.062   8.359  -6.511  0.00  0.00     0.028 H 
ATOM     30  H   LIG d   1       8.422   7.666  -6.466  0.00  0.00     0.028 H 
ATOM     31  H   LIG d   1       8.882   8.941  -5.312  0.00  0.00     0.028 H 
ENDBRANCH  21  28
BRANCH  24  32
ATOM     32  C   LIG d   1      10.117   6.601  -1.159  0.00  0.00    -0.040 C 
ATOM     33  H   LIG d   1       9.088   6.652  -0.805  0.00  0.00     0.028 H 
ATOM     34  H   LIG d   1      10.643   5.804  -0.632  0.00  0.00     0.028 H 
ATOM     35  H   LIG d   1      10.615   7.552  -0.969  0.00  0.00     0.028 H 
ENDBRANCH  24  32
ENDBRANCH  16  19
ENDBRANCH  15  16
ENDBRANCH   1  15
BRANCH   5  36
ATOM     36  C   LIG d   1       6.918  -2.373  -3.691  0.00  0.00    -0.038 C 
ATOM     37  H   LIG d   1       7.791  -2.524  -4.327  0.00  0.00     0.028 H 
ATOM     38  H   LIG d   1       7.082  -2.858  -2.728  0.00  0.00     0.028 H 
ATOM     39  H   LIG d   1       6.040  -2.806  -4.170  0.00  0.00     0.028 H 
ENDBRANCH   5  36
BRANCH   6  40
ATOM     40  C   LIG d   1       4.731  -1.427  -2.059  0.00  0.00     0.019 C 
ATOM     41  H   LIG d   1       4.349  -0.999  -1.132  0.00  0.00     0.037 H 
ATOM     42  H   LIG d   1       5.265  -2.351  -1.840  0.00  0.00     0.037 H 
BRANCH  40  43
ATOM     43  C   LIG d   1       3.582  -1.718  -2.989  0.00  0.00     0.046 C 
ATOM     44  O   LIG d   1       3.644  -2.653  -3.752  0.00  0.00    -0.549 OA
ATOM     45  O   LIG d   1       2.486  -0.944  -2.965  0.00  0.00    -0.549 OA
ENDBRANCH  40  43
ENDBRANCH   6  40
TORSDOF 8
ENDMDL
MODEL 2
REMARK VINA RESULT:      -6.7      1.290      2.121
REMARK  8 active torsions:
REMARK  status: ('A' for Active; 'I' for Inactive)
REMARK    1  A    between atoms: C_1  and  C_2 
REMARK    2  A    between atoms: C_4  and  C_25 
REMARK    3  A    between atoms: C_6  and  C_8 
REMARK    4  A    between atoms: C_8  and  O_9 
REMARK    5  A    between atoms: O_9  and  C_10 
REMARK    6  A    between atoms: C_14  and  C_24 
REMARK    7  A    between atoms: C_15  and  C_21 
REMARK    8  A    between atoms: C_21  and  C_22 
ROOT
ATOM      1  C   LIG d   1       9.186   2.095  -5.306  0.00  0.00     0.124 A 
ATOM      2  C   LIG d   1       9.453   0.745  -5.528  0.00  0.00    -0.019 A 
ATOM      3  C   LIG d   1       8.673  -0.216  -4.954  0.00  0.00    -0.047 A 
ATOM      4  C   LIG d   1       7.600   0.155  -4.136  0.00  0.00     0.021 A 
ATOM      5  C   LIG d   1       6.747  -0.856  -3.506  0.00  0.00    -0.029 A 
ATOM      6  C   LIG d   1       5.721  -0.432  -2.725  0.00  0.00     0.046 A 
ATOM      7  C   LIG d   1       5.500   0.949  -2.544  0.00  0.00     0.341 A 
ATOM      8  O   LIG d   1       4.573   1.316  -1.844  0.00  0.00    -0.245 OA
ATOM      9  O   LIG d   1       6.288   1.870  -3.120  0.00  0.00    -0.422 OA
ATOM     10  C   LIG d   1       7.326   1.516  -3.908  0.00  0.00     0.143 A 
ATOM     11  C   LIG d   1       8.127   2.481  -4.501  0.00  0.00     0.023 A 
ATOM     12  H   LIG d   1      10.281   0.459  -6.160  0.00  0.00     0.065 H 
ATOM     13  H   LIG d   1       8.885  -1.260  -5.129  0.00  0.00     0.063 H 
ATOM     14  H   LIG d   1       7.927   3.528  -4.333  0.00  0.00     0.069 H 
ENDROOT
BRANCH   1  15
ATOM     15  O   LIG d   1       9.970   3.041  -5.885  0.00  0.00    -0.487 OA
BRANCH  15  16
ATOM     16  C   LIG d   1      10.136   4.269  -5.174  0.00  0.00     0.115 C 
ATOM     17  H   LIG d   1       9.425   4.309  -4.347  0.00  0.00     0.075 H 
ATOM     18  H   LIG d   1      11.152   4.329  -4.783  0.00  0.00     0.075 H 
BRANCH  16  19
ATOM     19  C   LIG d   1       9.888   5.427  -6.106  0.00  0.00    -0.010 A 
ATOM     20  C   LIG d   1       9.794   5.210  -7.468  0.00  0.00    -0.052 A 
ATOM     21  C   LIG d   1       9.567   6.272  -8.323  0.00  0.00    -0.050 A 
ATOM     22  H   LIG d   1       9.899   4.211  -7.865  0.00  0.00     0.062 H 
ATOM     23  C   LIG d   1       9.433   7.551  -7.816  0.00  0.00    -0.056 A 
ATOM     24  C   LIG d   1       9.526   7.768  -6.454  0.00  0.00    -0.050 A 
ATOM     25  H   LIG d   1       9.256   8.381  -8.484  0.00  0.00     0.062 H 
ATOM     26  C   LIG d   1       9.749   6.705  -5.598  0.00  0.00    -0.052 A 
ATOM     27  H   LIG d   1       9.818   6.873  -4.534  0.00  0.00     0.062 H 
BRANCH  21  28
ATOM     28  C   LIG d   1       9.465   6.036  -9.808  0.00  0.00    -0.040 C 
ATOM     29  H   LIG d   1       8.503   5.578 -10.038  0.00  0.00     0.028 H 
ATOM     30  H   LIG d   1       9.551   6.986 -10.334  0.00  0.00     0.028 H 
ATOM     31  H   LIG d   1      10.268   5.371 -10.126  0.00  0.00     0.028 H 
ENDBRANCH  21  28
BRANCH  24  32
ATOM     32  C   LIG d   1       9.380   9.162  -5.901  0.00  0.00    -0.040 C 
ATOM     33  H   LIG d   1       8.663   9.719  -6.503  0.00  0.00     0.028 H 
ATOM     34  H   LIG d   1       9.026   9.109  -4.871  0.00  0.00     0.028 H 
ATOM     35  H   LIG d   1      10.347   9.667  -5.927  0.00  0.00     0.028 H 
ENDBRANCH  24  32
ENDBRANCH  16  19
ENDBRANCH  15  16
ENDBRANCH   1  15
BRANCH   5  36
ATOM     36  C   LIG d   1       7.001  -2.325  -3.721  0.00  0.00    -0.038 C 
ATOM     37  H   LIG d   1       7.895  -2.454  -4.331  0.00  0.00     0.028 H 
ATOM     38  H   LIG d   1       7.145  -2.815  -2.757  0.00  0.00     0.028 H 
ATOM     39  H   LIG d   1       6.146  -2.771  -4.230  0.00  0.00     0.028 H 
ENDBRANCH   5  36
BRANCH   6  40
ATOM     40  C   LIG d   1       4.816  -1.436  -2.055  0.00  0.00     0.019 C 
ATOM     41  H   LIG d   1       4.412  -1.006  -1.138  0.00  0.00     0.037 H 
ATOM     42  H   LIG d   1       5.386  -2.333  -1.816  0.00  0.00     0.037 H 
BRANCH  40  43
ATOM     43  C   LIG d   1       3.685  -1.791  -2.985  0.00  0.00     0.046 C 
ATOM     44  O   LIG d   1       3.756  -2.781  -3.672  0.00  0.00    -0.549 OA
ATOM     45  O   LIG d   1       2.595  -1.009  -3.043  0.00  0.00    -0.549 OA
ENDBRANCH  40  43
ENDBRANCH   6  40
TORSDOF 8
ENDMDL
MODEL 3
REMARK VINA RESULT:      -6.5      2.977      8.158
REMARK  8 active torsions:
REMARK  status: ('A' for Active; 'I' for Inactive)
REMARK    1  A    between atoms: C_1  and  C_2 
REMARK    2  A    between atoms: C_4  and  C_25 
REMARK    3  A    between atoms: C_6  and  C_8 
REMARK    4  A    between atoms: C_8  and  O_9 
REMARK    5  A    between atoms: O_9  and  C_10 
REMARK    6  A    between atoms: C_14  and  C_24 
REMARK    7  A    between atoms: C_15  and  C_21 
REMARK    8  A    between atoms: C_21  and  C_22 
ROOT
ATOM      1  C   LIG d   1       9.334   2.205  -4.256  0.00  0.00     0.124 A 
ATOM      2  C   LIG d   1       8.930   3.207  -5.136  0.00  0.00    -0.019 A 
ATOM      3  C   LIG d   1       9.186   4.518  -4.855  0.00  0.00    -0.047 A 
ATOM      4  C   LIG d   1       9.855   4.859  -3.674  0.00  0.00     0.021 A 
ATOM      5  C   LIG d   1      10.141   6.257  -3.345  0.00  0.00    -0.029 A 
ATOM      6  C   LIG d   1      10.795   6.522  -2.186  0.00  0.00     0.046 A 
ATOM      7  C   LIG d   1      11.181   5.463  -1.339  0.00  0.00     0.341 A 
ATOM      8  O   LIG d   1      11.772   5.715  -0.304  0.00  0.00    -0.245 OA
ATOM      9  O   LIG d   1      10.912   4.184  -1.643  0.00  0.00    -0.422 OA
ATOM     10  C   LIG d   1      10.264   3.851  -2.781  0.00  0.00     0.143 A 
ATOM     11  C   LIG d   1       9.999   2.524  -3.082  0.00  0.00     0.023 A 
ATOM     12  H   LIG d   1       8.414   2.944  -6.048  0.00  0.00     0.065 H 
ATOM     13  H   LIG d   1       8.870   5.290  -5.541  0.00  0.00     0.063 H 
ATOM     14  H   LIG d   1      10.308   1.742  -2.405  0.00  0.00     0.069 H 
ENDROOT
BRANCH   1  15
ATOM     15  O   LIG d   1       9.073   0.905  -4.549  0.00  0.00    -0.487 OA
BRANCH  15  16
ATOM     16  C   LIG d   1       7.928   0.641  -5.361  0.00  0.00     0.115 C 
ATOM     17  H   LIG d   1       7.558   1.577  -5.784  0.00  0.00     0.075 H 
ATOM     18  H   LIG d   1       8.202  -0.038  -6.168  0.00  0.00     0.075 H 
BRANCH  16  19
ATOM     19  C   LIG d   1       6.849   0.010  -4.519  0.00  0.00    -0.010 A 
ATOM     20  C   LIG d   1       6.269   0.727  -3.489  0.00  0.00    -0.052 A 
ATOM     21  C   LIG d   1       5.280   0.148  -2.716  0.00  0.00    -0.050 A 
ATOM     22  H   LIG d   1       6.587   1.739  -3.288  0.00  0.00     0.062 H 
ATOM     23  C   LIG d   1       4.871  -1.147  -2.973  0.00  0.00    -0.056 A 
ATOM     24  C   LIG d   1       5.452  -1.864  -4.003  0.00  0.00    -0.050 A 
ATOM     25  H   LIG d   1       4.099  -1.600  -2.368  0.00  0.00     0.062 H 
ATOM     26  C   LIG d   1       6.437  -1.283  -4.779  0.00  0.00    -0.052 A 
ATOM     27  H   LIG d   1       6.888  -1.841  -5.586  0.00  0.00     0.062 H 
BRANCH  21  28
ATOM     28  C   LIG d   1       4.647   0.929  -1.593  0.00  0.00    -0.040 C 
ATOM     29  H   LIG d   1       3.886   1.596  -1.998  0.00  0.00     0.028 H 
ATOM     30  H   LIG d   1       4.187   0.240  -0.885  0.00  0.00     0.028 H 
ATOM     31  H   LIG d   1       5.411   1.517  -1.084  0.00  0.00     0.028 H 
ENDBRANCH  21  28
BRANCH  24  32
ATOM     32  C   LIG d   1       5.006  -3.276  -4.282  0.00  0.00    -0.040 C 
ATOM     33  H   LIG d   1       4.045  -3.457  -3.801  0.00  0.00     0.028 H 
ATOM     34  H   LIG d   1       4.905  -3.418  -5.359  0.00  0.00     0.028 H 
ATOM     35  H   LIG d   1       5.746  -3.975  -3.891  0.00  0.00     0.028 H 
ENDBRANCH  24  32
ENDBRANCH  16  19
ENDBRANCH  15  16
ENDBRANCH   1  15
BRANCH   5  36
ATOM     36  C   LIG d   1       9.723   7.370  -4.271  0.00  0.00    -0.038 C 
ATOM     37  H   LIG d   1      10.502   8.132  -4.299  0.00  0.00     0.028 H 
ATOM     38  H   LIG d   1       9.570   6.970  -5.274  0.00  0.00     0.028 H 
ATOM     39  H   LIG d   1       8.794   7.812  -3.912  0.00  0.00     0.028 H 
ENDBRANCH   5  36
BRANCH   6  40
ATOM     40  C   LIG d   1      11.111   7.947  -1.805  0.00  0.00     0.019 C 
ATOM     41  H   LIG d   1      11.079   8.576  -2.695  0.00  0.00     0.037 H 
ATOM     42  H   LIG d   1      12.106   7.992  -1.364  0.00  0.00     0.037 H 
BRANCH  40  43
ATOM     43  C   LIG d   1      10.095   8.438  -0.807  0.00  0.00     0.046 C 
ATOM     44  O   LIG d   1      10.407   9.266   0.016  0.00  0.00    -0.549 OA
ATOM     45  O   LIG d   1       8.841   7.960  -0.836  0.00  0.00    -0.549 OA
ENDBRANCH  40  43
ENDBRANCH   6  40
TORSDOF 8
ENDMDL
MODEL 4
REMARK VINA RESULT:      -6.3      4.667     10.140
REMARK  8 active torsions:
REMARK  status: ('A' for Active; 'I' for Inactive)
REMARK    1  A    between atoms: C_1  and  C_2 
REMARK    2  A    between atoms: C_4  and  C_25 
REMARK    3  A    between atoms: C_6  and  C_8 
REMARK    4  A    between atoms: C_8  and  O_9 
REMARK    5  A    between atoms: O_9  and  C_10 
REMARK    6  A    between atoms: C_14  and  C_24 
REMARK    7  A    between atoms: C_15  and  C_21 
REMARK    8  A    between atoms: C_21  and  C_22 
ROOT
ATOM      1  C   LIG d   1       6.301  -5.008  -5.848  0.00  0.00     0.124 A 
ATOM      2  C   LIG d   1       7.471  -4.277  -5.648  0.00  0.00    -0.019 A 
ATOM      3  C   LIG d   1       7.458  -3.148  -4.882  0.00  0.00    -0.047 A 
ATOM      4  C   LIG d   1       6.262  -2.718  -4.295  0.00  0.00     0.021 A 
ATOM      5  C   LIG d   1       6.218  -1.509  -3.470  0.00  0.00    -0.029 A 
ATOM      6  C   LIG d   1       5.028  -1.146  -2.927  0.00  0.00     0.046 A 
ATOM      7  C   LIG d   1       3.881  -1.931  -3.163  0.00  0.00     0.341 A 
ATOM      8  O   LIG d   1       2.820  -1.597  -2.666  0.00  0.00    -0.245 OA
ATOM      9  O   LIG d   1       3.926  -3.035  -3.924  0.00  0.00    -0.422 OA
ATOM     10  C   LIG d   1       5.078  -3.451  -4.493  0.00  0.00     0.143 A 
ATOM     11  C   LIG d   1       5.108  -4.598  -5.273  0.00  0.00     0.023 A 
ATOM     12  H   LIG d   1       8.394  -4.608  -6.100  0.00  0.00     0.065 H 
ATOM     13  H   LIG d   1       8.368  -2.586  -4.731  0.00  0.00     0.063 H 
ATOM     14  H   LIG d   1       4.206  -5.169  -5.433  0.00  0.00     0.069 H 
ENDROOT
BRANCH   1  15
ATOM     15  O   LIG d   1       6.330  -6.130  -6.611  0.00  0.00    -0.487 OA
BRANCH  15  16
ATOM     16  C   LIG d   1       5.254  -7.055  -6.443  0.00  0.00     0.115 C 
ATOM     17  H   LIG d   1       4.353  -6.516  -6.149  0.00  0.00     0.075 H 
ATOM     18  H   LIG d   1       5.075  -7.579  -7.381  0.00  0.00     0.075 H 
BRANCH  16  19
ATOM     19  C   LIG d   1       5.613  -8.054  -5.372  0.00  0.00    -0.010 A 
ATOM     20  C   LIG d   1       4.643  -8.893  -4.857  0.00  0.00    -0.052 A 
ATOM     21  C   LIG d   1       4.973  -9.809  -3.874  0.00  0.00    -0.050 A 
ATOM     22  H   LIG d   1       3.629  -8.834  -5.221  0.00  0.00     0.062 H 
ATOM     23  C   LIG d   1       6.272  -9.884  -3.408  0.00  0.00    -0.056 A 
ATOM     24  C   LIG d   1       7.242  -9.045  -3.924  0.00  0.00    -0.050 A 
ATOM     25  H   LIG d   1       6.529 -10.599  -2.640  0.00  0.00     0.062 H 
ATOM     26  C   LIG d   1       6.913  -8.133  -4.909  0.00  0.00    -0.052 A 
ATOM     27  H   LIG d   1       7.672  -7.480  -5.315  0.00  0.00     0.062 H 
BRANCH  21  28
ATOM     28  C   LIG d   1       3.915 -10.724  -3.312  0.00  0.00    -0.040 C 
ATOM     29  H   LIG d   1       2.933 -10.396  -3.653  0.00  0.00     0.028 H 
ATOM     30  H   LIG d   1       4.098 -11.742  -3.652  0.00  0.00     0.028 H 
ATOM     31  H   LIG d   1       3.950 -10.692  -2.223  0.00  0.00     0.028 H 
ENDBRANCH  21  28
BRANCH  24  32
ATOM     32  C   LIG d   1       8.658  -9.128  -3.415  0.00  0.00    -0.040 C 
ATOM     33  H   LIG d   1       8.890 -10.160  -3.152  0.00  0.00     0.028 H 
ATOM     34  H   LIG d   1       9.343  -8.787  -4.192  0.00  0.00     0.028 H 
ATOM     35  H   LIG d   1       8.765  -8.495  -2.533  0.00  0.00     0.028 H 
ENDBRANCH  24  32
ENDBRANCH  16  19
ENDBRANCH  15  16
ENDBRANCH   1  15
BRANCH   5  36
ATOM     36  C   LIG d   1       7.461  -0.692  -3.228  0.00  0.00    -0.038 C 
ATOM     37  H   LIG d   1       8.112  -1.218  -2.530  0.00  0.00     0.028 H 
ATOM     38  H   LIG d   1       7.987  -0.542  -4.172  0.00  0.00     0.028 H 
ATOM     39  H   LIG d   1       7.184   0.276  -2.810  0.00  0.00     0.028 H 
ENDBRANCH   5  36
BRANCH   6  40
ATOM     40  C   LIG d   1       4.934   0.091  -2.070  0.00  0.00     0.019 C 
ATOM     41  H   LIG d   1       5.851   0.203  -1.492  0.00  0.00     0.037 H 
ATOM     42  H   LIG d   1       4.086  -0.000  -1.393  0.00  0.00     0.037 H 
BRANCH  40  43
ATOM     43  C   LIG d   1       4.747   1.299  -2.952  0.00  0.00     0.046 C 
ATOM     44  O   LIG d   1       5.679   2.035  -3.174  0.00  0.00    -0.549 OA
ATOM     45  O   LIG d   1       3.546   1.554  -3.494  0.00  0.00    -0.549 OA
ENDBRANCH  40  43
ENDBRANCH   6  40
TORSDOF 8
ENDMDL
MODEL 5
REMARK VINA RESULT:      -6.2      3.532      8.775
REMARK  8 active torsions:
REMARK  status: ('A' for Active; 'I' for Inactive)
REMARK    1  A    between atoms: C_1  and  C_2 
REMARK    2  A    between atoms: C_4  and  C_25 
REMARK    3  A    between atoms: C_6  and  C_8 
REMARK    4  A    between atoms: C_8  and  O_9 
REMARK    5  A    between atoms: O_9  and  C_10 
REMARK    6  A    between atoms: C_14  and  C_24 
REMARK    7  A    between atoms: C_15  and  C_21 
REMARK    8  A    between atoms: C_21  and  C_22 
ROOT
ATOM      1  C   LIG d   1       9.812   3.827  -3.640  0.00  0.00     0.124 A 
ATOM      2  C   LIG d   1       9.405   5.014  -4.248  0.00  0.00    -0.019 A 
ATOM      3  C   LIG d   1       9.583   6.210  -3.616  0.00  0.00    -0.047 A 
ATOM      4  C   LIG d   1      10.177   6.246  -2.349  0.00  0.00     0.021 A 
ATOM      5  C   LIG d   1      10.380   7.515  -1.646  0.00  0.00    -0.029 A 
ATOM      6  C   LIG d   1      10.963   7.483  -0.421  0.00  0.00     0.046 A 
ATOM      7  C   LIG d   1      11.357   6.250   0.138  0.00  0.00     0.341 A 
ATOM      8  O   LIG d   1      11.884   6.236   1.236  0.00  0.00    -0.245 OA
ATOM      9  O   LIG d   1      11.164   5.090  -0.509  0.00  0.00    -0.422 OA
ATOM     10  C   LIG d   1      10.590   5.051  -1.730  0.00  0.00     0.143 A 
ATOM     11  C   LIG d   1      10.403   3.844  -2.387  0.00  0.00     0.023 A 
ATOM     12  H   LIG d   1       8.947   4.987  -5.225  0.00  0.00     0.065 H 
ATOM     13  H   LIG d   1       9.266   7.126  -4.091  0.00  0.00     0.063 H 
ATOM     14  H   LIG d   1      10.715   2.921  -1.923  0.00  0.00     0.069 H 
ENDROOT
BRANCH   1  15
ATOM     15  O   LIG d   1       9.628   2.645  -4.282  0.00  0.00    -0.487 OA
BRANCH  15  16
ATOM     16  C   LIG d   1       8.381   2.459  -4.954  0.00  0.00     0.115 C 
ATOM     17  H   LIG d   1       7.794   3.376  -4.890  0.00  0.00     0.075 H 
ATOM     18  H   LIG d   1       8.564   2.216  -6.000  0.00  0.00     0.075 H 
BRANCH  16  19
ATOM     19  C   LIG d   1       7.623   1.331  -4.303  0.00  0.00    -0.010 A 
ATOM     20  C   LIG d   1       7.981   0.020  -4.557  0.00  0.00    -0.052 A 
ATOM     21  C   LIG d   1       7.285  -1.015  -3.960  0.00  0.00    -0.050 A 
ATOM     22  H   LIG d   1       8.804  -0.196  -5.222  0.00  0.00     0.062 H 
ATOM     23  C   LIG d   1       6.231  -0.738  -3.109  0.00  0.00    -0.056 A 
ATOM     24  C   LIG d   1       5.873   0.573  -2.855  0.00  0.00    -0.050 A 
ATOM     25  H   LIG d   1       5.687  -1.547  -2.643  0.00  0.00     0.062 H 
ATOM     26  C   LIG d   1       6.573   1.607  -3.448  0.00  0.00    -0.052 A 
ATOM     27  H   LIG d   1       6.296   2.632  -3.246  0.00  0.00     0.062 H 
BRANCH  21  28
ATOM     28  C   LIG d   1       7.674  -2.444  -4.238  0.00  0.00    -0.040 C 
ATOM     29  H   LIG d   1       6.874  -2.938  -4.790  0.00  0.00     0.028 H 
ATOM     30  H   LIG d   1       8.590  -2.463  -4.828  0.00  0.00     0.028 H 
ATOM     31  H   LIG d   1       7.840  -2.965  -3.294  0.00  0.00     0.028 H 
ENDBRANCH  21  28
BRANCH  24  32
ATOM     32  C   LIG d   1       4.725   0.873  -1.927  0.00  0.00    -0.040 C 
ATOM     33  H   LIG d   1       3.782   0.693  -2.443  0.00  0.00     0.028 H 
ATOM     34  H   LIG d   1       4.788   0.227  -1.050  0.00  0.00     0.028 H 
ATOM     35  H   LIG d   1       4.774   1.916  -1.613  0.00  0.00     0.028 H 
ENDBRANCH  24  32
ENDBRANCH  16  19
ENDBRANCH  15  16
ENDBRANCH   1  15
BRANCH   5  36
ATOM     36  C   LIG d   1       9.955   8.820  -2.269  0.00  0.00    -0.038 C 
ATOM     37  H   LIG d   1      10.668   9.102  -3.044  0.00  0.00     0.028 H 
ATOM     38  H   LIG d   1       8.964   8.707  -2.709  0.00  0.00     0.028 H 
ATOM     39  H   LIG d   1       9.925   9.595  -1.503  0.00  0.00     0.028 H 
ENDBRANCH   5  36
BRANCH   6  40
ATOM     40  C   LIG d   1      11.192   8.765   0.340  0.00  0.00     0.019 C 
ATOM     41  H   LIG d   1      11.010   8.595   1.402  0.00  0.00     0.037 H 
ATOM     42  H   LIG d   1      10.511   9.532  -0.028  0.00  0.00     0.037 H 
BRANCH  40  43
ATOM     43  C   LIG d   1      12.615   9.219   0.142  0.00  0.00     0.046 C 
ATOM     44  O   LIG d   1      12.921   9.830  -0.854  0.00  0.00    -0.549 OA
ATOM     45  O   LIG d   1      13.541   8.951   1.076  0.00  0.00    -0.549 OA
ENDBRANCH  40  43
ENDBRANCH   6  40
TORSDOF 8
ENDMDL
MODEL 6
REMARK VINA RESULT:      -6.1      3.037      8.432
REMARK  8 active torsions:
REMARK  status: ('A' for Active; 'I' for Inactive)
REMARK    1  A    between atoms: C_1  and  C_2 
REMARK    2  A    between atoms: C_4  and  C_25 
REMARK    3  A    between atoms: C_6  and  C_8 
REMARK    4  A    between atoms: C_8  and  O_9 
REMARK    5  A    between atoms: O_9  and  C_10 
REMARK    6  A    between atoms: C_14  and  C_24 
REMARK    7  A    between atoms: C_15  and  C_21 
REMARK    8  A    between atoms: C_21  and  C_22 
ROOT
ATOM      1  C   LIG d   1       9.716   3.139  -3.959  0.00  0.00     0.124 A 
ATOM      2  C   LIG d   1      10.332   3.219  -2.711  0.00  0.00    -0.019 A 
ATOM      3  C   LIG d   1      10.664   4.432  -2.182  0.00  0.00    -0.047 A 
ATOM      4  C   LIG d   1      10.389   5.603  -2.897  0.00  0.00     0.021 A 
ATOM      5  C   LIG d   1      10.736   6.918  -2.355  0.00  0.00    -0.029 A 
ATOM      6  C   LIG d   1      10.441   8.017  -3.097  0.00  0.00     0.046 A 
ATOM      7  C   LIG d   1       9.813   7.869  -4.350  0.00  0.00     0.341 A 
ATOM      8  O   LIG d   1       9.549   8.862  -5.003  0.00  0.00    -0.245 OA
ATOM      9  O   LIG d   1       9.501   6.660  -4.845  0.00  0.00    -0.422 OA
ATOM     10  C   LIG d   1       9.768   5.528  -4.158  0.00  0.00     0.143 A 
ATOM     11  C   LIG d   1       9.434   4.288  -4.681  0.00  0.00     0.023 A 
ATOM     12  H   LIG d   1      10.544   2.316  -2.159  0.00  0.00     0.065 H 
ATOM     13  H   LIG d   1      11.141   4.488  -1.215  0.00  0.00     0.063 H 
ATOM     14  H   LIG d   1       8.958   4.217  -5.647  0.00  0.00     0.069 H 
ENDROOT
BRANCH   1  15
ATOM     15  O   LIG d   1       9.390   1.925  -4.472  0.00  0.00    -0.487 OA
BRANCH  15  16
ATOM     16  C   LIG d   1       8.109   1.808  -5.094  0.00  0.00     0.115 C 
ATOM     17  H   LIG d   1       7.611   2.778  -5.088  0.00  0.00     0.075 H 
ATOM     18  H   LIG d   1       8.232   1.468  -6.122  0.00  0.00     0.075 H 
BRANCH  16  19
ATOM     19  C   LIG d   1       7.272   0.811  -4.334  0.00  0.00    -0.010 A 
ATOM     20  C   LIG d   1       7.422  -0.543  -4.573  0.00  0.00    -0.052 A 
ATOM     21  C   LIG d   1       6.654  -1.457  -3.876  0.00  0.00    -0.050 A 
ATOM     22  H   LIG d   1       8.140  -0.886  -5.302  0.00  0.00     0.062 H 
ATOM     23  C   LIG d   1       5.735  -1.018  -2.941  0.00  0.00    -0.056 A 
ATOM     24  C   LIG d   1       5.585   0.336  -2.703  0.00  0.00    -0.050 A 
ATOM     25  H   LIG d   1       5.134  -1.732  -2.398  0.00  0.00     0.062 H 
ATOM     26  C   LIG d   1       6.356   1.249  -3.396  0.00  0.00    -0.052 A 
ATOM     27  H   LIG d   1       6.242   2.307  -3.207  0.00  0.00     0.062 H 
BRANCH  21  28
ATOM     28  C   LIG d   1       6.818  -2.933  -4.136  0.00  0.00    -0.040 C 
ATOM     29  H   LIG d   1       7.509  -3.356  -3.406  0.00  0.00     0.028 H 
ATOM     30  H   LIG d   1       5.851  -3.426  -4.050  0.00  0.00     0.028 H 
ATOM     31  H   LIG d   1       7.215  -3.082  -5.140  0.00  0.00     0.028 H 
ENDBRANCH  21  28
BRANCH  24  32
ATOM     32  C   LIG d   1       4.583   0.814  -1.684  0.00  0.00    -0.040 C 
ATOM     33  H   LIG d   1       3.735   0.129  -1.657  0.00  0.00     0.028 H 
ATOM     34  H   LIG d   1       5.054   0.848  -0.701  0.00  0.00     0.028 H 
ATOM     35  H   LIG d   1       4.236   1.811  -1.956  0.00  0.00     0.028 H 
ENDBRANCH  24  32
ENDBRANCH  16  19
ENDBRANCH  15  16
ENDBRANCH   1  15
BRANCH   5  36
ATOM     36  C   LIG d   1      11.401   7.049  -1.009  0.00  0.00    -0.038 C 
ATOM     37  H   LIG d   1      10.702   6.750  -0.228  0.00  0.00     0.028 H 
ATOM     38  H   LIG d   1      12.281   6.406  -0.974  0.00  0.00     0.028 H 
ATOM     39  H   LIG d   1      11.702   8.084  -0.851  0.00  0.00     0.028 H 
ENDBRANCH   5  36
BRANCH   6  40
ATOM     40  C   LIG d   1      10.780   9.392  -2.579  0.00  0.00     0.019 C 
ATOM     41  H   LIG d   1      11.167  10.002  -3.395  0.00  0.00     0.037 H 
ATOM     42  H   LIG d   1      11.535   9.309  -1.797  0.00  0.00     0.037 H 
BRANCH  40  43
ATOM     43  C   LIG d   1       9.540  10.036  -2.015  0.00  0.00     0.046 C 
ATOM     44  O   LIG d   1       9.128  11.069  -2.487  0.00  0.00    -0.549 OA
ATOM     45  O   LIG d   1       8.890   9.459  -0.993  0.00  0.00    -0.549 OA
ENDBRANCH  40  43
ENDBRANCH   6  40
TORSDOF 8
ENDMDL
MODEL 7
REMARK VINA RESULT:      -6.1      4.633      8.612
REMARK  8 active torsions:
REMARK  status: ('A' for Active; 'I' for Inactive)
REMARK    1  A    between atoms: C_1  and  C_2 
REMARK    2  A    between atoms: C_4  and  C_25 
REMARK    3  A    between atoms: C_6  and  C_8 
REMARK    4  A    between atoms: C_8  and  O_9 
REMARK    5  A    between atoms: O_9  and  C_10 
REMARK    6  A    between atoms: C_14  and  C_24 
REMARK    7  A    between atoms: C_15  and  C_21 
REMARK    8  A    between atoms: C_21  and  C_22 
ROOT
ATOM      1  C   LIG d   1       7.208  -3.988  -5.991  0.00  0.00     0.124 A 
ATOM      2  C   LIG d   1       6.034  -4.476  -5.419  0.00  0.00    -0.019 A 
ATOM      3  C   LIG d   1       5.339  -3.722  -4.519  0.00  0.00    -0.047 A 
ATOM      4  C   LIG d   1       5.808  -2.452  -4.165  0.00  0.00     0.021 A 
ATOM      5  C   LIG d   1       5.083  -1.622  -3.200  0.00  0.00    -0.029 A 
ATOM      6  C   LIG d   1       5.589  -0.398  -2.900  0.00  0.00     0.046 A 
ATOM      7  C   LIG d   1       6.779   0.040  -3.516  0.00  0.00     0.341 A 
ATOM      8  O   LIG d   1       7.219   1.142  -3.242  0.00  0.00    -0.245 OA
ATOM      9  O   LIG d   1       7.441  -0.727  -4.396  0.00  0.00    -0.422 OA
ATOM     10  C   LIG d   1       6.992  -1.954  -4.738  0.00  0.00     0.143 A 
ATOM     11  C   LIG d   1       7.686  -2.732  -5.654  0.00  0.00     0.023 A 
ATOM     12  H   LIG d   1       5.671  -5.456  -5.693  0.00  0.00     0.065 H 
ATOM     13  H   LIG d   1       4.430  -4.106  -4.079  0.00  0.00     0.063 H 
ATOM     14  H   LIG d   1       8.596  -2.361  -6.100  0.00  0.00     0.069 H 
ENDROOT
BRANCH   1  15
ATOM     15  O   LIG d   1       7.888  -4.748  -6.886  0.00  0.00    -0.487 OA
BRANCH  15  16
ATOM     16  C   LIG d   1       9.183  -5.207  -6.495  0.00  0.00     0.115 C 
ATOM     17  H   LIG d   1       9.639  -5.756  -7.320  0.00  0.00     0.075 H 
ATOM     18  H   LIG d   1       9.809  -4.353  -6.236  0.00  0.00     0.075 H 
BRANCH  16  19
ATOM     19  C   LIG d   1       9.055  -6.115  -5.299  0.00  0.00    -0.010 A 
ATOM     20  C   LIG d   1       9.534  -5.708  -4.068  0.00  0.00    -0.052 A 
ATOM     21  C   LIG d   1       9.417  -6.542  -2.971  0.00  0.00    -0.050 A 
ATOM     22  H   LIG d   1      10.000  -4.740  -3.962  0.00  0.00     0.062 H 
ATOM     23  C   LIG d   1       8.820  -7.781  -3.105  0.00  0.00    -0.056 A 
ATOM     24  C   LIG d   1       8.341  -8.188  -4.337  0.00  0.00    -0.050 A 
ATOM     25  H   LIG d   1       8.730  -8.432  -2.248  0.00  0.00     0.062 H 
ATOM     26  C   LIG d   1       8.454  -7.353  -5.432  0.00  0.00    -0.052 A 
ATOM     27  H   LIG d   1       8.076  -7.668  -6.393  0.00  0.00     0.062 H 
BRANCH  21  28
ATOM     28  C   LIG d   1       9.940  -6.098  -1.628  0.00  0.00    -0.040 C 
ATOM     29  H   LIG d   1      10.769  -6.741  -1.331  0.00  0.00     0.028 H 
ATOM     30  H   LIG d   1      10.285  -5.067  -1.695  0.00  0.00     0.028 H 
ATOM     31  H   LIG d   1       9.144  -6.168  -0.887  0.00  0.00     0.028 H 
ENDBRANCH  21  28
BRANCH  24  32
ATOM     32  C   LIG d   1       7.690  -9.539  -4.483  0.00  0.00    -0.040 C 
ATOM     33  H   LIG d   1       7.057  -9.545  -5.370  0.00  0.00     0.028 H 
ATOM     34  H   LIG d   1       8.462 -10.304  -4.582  0.00  0.00     0.028 H 
ATOM     35  H   LIG d   1       7.084  -9.748  -3.601  0.00  0.00     0.028 H 
ENDBRANCH  24  32
ENDBRANCH  16  19
ENDBRANCH  15  16
ENDBRANCH   1  15
BRANCH   5  36
ATOM     36  C   LIG d   1       3.810  -2.112  -2.561  0.00  0.00    -0.038 C 
ATOM     37  H   LIG d   1       3.080  -2.344  -3.336  0.00  0.00     0.028 H 
ATOM     38  H   LIG d   1       4.018  -3.009  -1.977  0.00  0.00     0.028 H 
ATOM     39  H   LIG d   1       3.411  -1.337  -1.905  0.00  0.00     0.028 H 
ENDBRANCH   5  36
BRANCH   6  40
ATOM     40  C   LIG d   1       4.878   0.492  -1.912  0.00  0.00     0.019 C 
ATOM     41  H   LIG d   1       5.592   1.186  -1.468  0.00  0.00     0.037 H 
ATOM     42  H   LIG d   1       4.432  -0.120  -1.129  0.00  0.00     0.037 H 
BRANCH  40  43
ATOM     43  C   LIG d   1       3.798   1.268  -2.621  0.00  0.00     0.046 C 
ATOM     44  O   LIG d   1       2.938   1.827  -1.983  0.00  0.00    -0.549 OA
ATOM     45  O   LIG d   1       3.796   1.342  -3.961  0.00  0.00    -0.549 OA
ENDBRANCH  40  43
ENDBRANCH   6  40
TORSDOF 8
ENDMDL
MODEL 8
REMARK VINA RESULT:      -5.9      2.902      8.925
REMARK  8 active torsions:
REMARK  status: ('A' for Active; 'I' for Inactive)
REMARK    1  A    between atoms: C_1  and  C_2 
REMARK    2  A    between atoms: C_4  and  C_25 
REMARK    3  A    between atoms: C_6  and  C_8 
REMARK    4  A    between atoms: C_8  and  O_9 
REMARK    5  A    between atoms: O_9  and  C_10 
REMARK    6  A    between atoms: C_14  and  C_24 
REMARK    7  A    between atoms: C_15  and  C_21 
REMARK    8  A    between atoms: C_21  and  C_22 
ROOT
ATOM      1  C   LIG d   1       9.533   3.576  -3.807  0.00  0.00     0.124 A 
ATOM      2  C   LIG d   1      10.019   4.075  -2.600  0.00  0.00    -0.019 A 
ATOM      3  C   LIG d   1      10.241   5.412  -2.444  0.00  0.00    -0.047 A 
ATOM      4  C   LIG d   1       9.982   6.288  -3.503  0.00  0.00     0.021 A 
ATOM      5  C   LIG d   1      10.213   7.728  -3.365  0.00  0.00    -0.029 A 
ATOM      6  C   LIG d   1       9.941   8.527  -4.429  0.00  0.00     0.046 A 
ATOM      7  C   LIG d   1       9.445   7.962  -5.622  0.00  0.00     0.341 A 
ATOM      8  O   LIG d   1       9.200   8.690  -6.567  0.00  0.00    -0.245 OA
ATOM      9  O   LIG d   1       9.240   6.641  -5.744  0.00  0.00    -0.422 OA
ATOM     10  C   LIG d   1       9.491   5.792  -4.725  0.00  0.00     0.143 A 
ATOM     11  C   LIG d   1       9.269   4.430  -4.866  0.00  0.00     0.023 A 
ATOM     12  H   LIG d   1      10.219   3.398  -1.782  0.00  0.00     0.065 H 
ATOM     13  H   LIG d   1      10.618   5.792  -1.506  0.00  0.00     0.063 H 
ATOM     14  H   LIG d   1       8.893   4.036  -5.798  0.00  0.00     0.069 H 
ENDROOT
BRANCH   1  15
ATOM     15  O   LIG d   1       9.315   2.244  -3.947  0.00  0.00    -0.487 OA
BRANCH  15  16
ATOM     16  C   LIG d   1       8.294   1.846  -4.864  0.00  0.00     0.115 C 
ATOM     17  H   LIG d   1       7.727   2.724  -5.179  0.00  0.00     0.075 H 
ATOM     18  H   LIG d   1       8.750   1.377  -5.736  0.00  0.00     0.075 H 
BRANCH  16  19
ATOM     19  C   LIG d   1       7.369   0.865  -4.192  0.00  0.00    -0.010 A 
ATOM     20  C   LIG d   1       6.404   1.317  -3.311  0.00  0.00    -0.052 A 
ATOM     21  C   LIG d   1       5.555   0.416  -2.694  0.00  0.00    -0.050 A 
ATOM     22  H   LIG d   1       6.312   2.373  -3.105  0.00  0.00     0.062 H 
ATOM     23  C   LIG d   1       5.672  -0.935  -2.958  0.00  0.00    -0.056 A 
ATOM     24  C   LIG d   1       6.636  -1.387  -3.840  0.00  0.00    -0.050 A 
ATOM     25  H   LIG d   1       5.009  -1.639  -2.475  0.00  0.00     0.062 H 
ATOM     26  C   LIG d   1       7.481  -0.486  -4.460  0.00  0.00    -0.052 A 
ATOM     27  H   LIG d   1       8.233  -0.838  -5.152  0.00  0.00     0.062 H 
BRANCH  21  28
ATOM     28  C   LIG d   1       4.503   0.909  -1.733  0.00  0.00    -0.040 C 
ATOM     29  H   LIG d   1       3.777   1.519  -2.271  0.00  0.00     0.028 H 
ATOM     30  H   LIG d   1       3.998   0.057  -1.280  0.00  0.00     0.028 H 
ATOM     31  H   LIG d   1       4.975   1.508  -0.954  0.00  0.00     0.028 H 
ENDBRANCH  21  28
BRANCH  24  32
ATOM     32  C   LIG d   1       6.763  -2.861  -4.127  0.00  0.00    -0.040 C 
ATOM     33  H   LIG d   1       5.878  -3.204  -4.663  0.00  0.00     0.028 H 
ATOM     34  H   LIG d   1       7.648  -3.036  -4.739  0.00  0.00     0.028 H 
ATOM     35  H   LIG d   1       6.855  -3.408  -3.189  0.00  0.00     0.028 H 
ENDBRANCH  24  32
ENDBRANCH  16  19
ENDBRANCH  15  16
ENDBRANCH   1  15
BRANCH   5  36
ATOM     36  C   LIG d   1      10.737   8.307  -2.076  0.00  0.00    -0.038 C 
ATOM     37  H   LIG d   1       9.972   8.938  -1.623  0.00  0.00     0.028 H 
ATOM     38  H   LIG d   1      10.992   7.497  -1.391  0.00  0.00     0.028 H 
ATOM     39  H   LIG d   1      11.626   8.904  -2.280  0.00  0.00     0.028 H 
ENDBRANCH   5  36
BRANCH   6  40
ATOM     40  C   LIG d   1      10.163  10.015  -4.333  0.00  0.00     0.019 C 
ATOM     41  H   LIG d   1      10.244  10.303  -3.284  0.00  0.00     0.037 H 
ATOM     42  H   LIG d   1       9.323  10.537  -4.789  0.00  0.00     0.037 H 
BRANCH  40  43
ATOM     43  C   LIG d   1      11.435  10.380  -5.054  0.00  0.00     0.046 C 
ATOM     44  O   LIG d   1      11.411  11.198  -5.943  0.00  0.00    -0.549 OA
ATOM     45  O   LIG d   1      12.594   9.803  -4.703  0.00  0.00    -0.549 OA
ENDBRANCH  40  43
ENDBRANCH   6  40
TORSDOF 8
ENDMDL
MODEL 9
REMARK VINA RESULT:      -5.9      2.621      8.641
REMARK  8 active torsions:
REMARK  status: ('A' for Active; 'I' for Inactive)
REMARK    1  A    between atoms: C_1  and  C_2 
REMARK    2  A    between atoms: C_4  and  C_25 
REMARK    3  A    between atoms: C_6  and  C_8 
REMARK    4  A    between atoms: C_8  and  O_9 
REMARK    5  A    between atoms: O_9  and  C_10 
REMARK    6  A    between atoms: C_14  and  C_24 
REMARK    7  A    between atoms: C_15  and  C_21 
REMARK    8  A    between atoms: C_21  and  C_22 
ROOT
ATOM      1  C   LIG d   1       9.213   2.937  -4.208  0.00  0.00     0.124 A 
ATOM      2  C   LIG d   1       9.574   4.013  -3.399  0.00  0.00    -0.019 A 
ATOM      3  C   LIG d   1       9.953   5.200  -3.956  0.00  0.00    -0.047 A 
ATOM      4  C   LIG d   1       9.982   5.338  -5.348  0.00  0.00     0.021 A 
ATOM      5  C   LIG d   1      10.386   6.599  -5.973  0.00  0.00    -0.029 A 
ATOM      6  C   LIG d   1      10.393   6.670  -7.329  0.00  0.00     0.046 A 
ATOM      7  C   LIG d   1      10.012   5.547  -8.092  0.00  0.00     0.341 A 
ATOM      8  O   LIG d   1      10.017   5.626  -9.308  0.00  0.00    -0.245 OA
ATOM      9  O   LIG d   1       9.647   4.392  -7.514  0.00  0.00    -0.422 OA
ATOM     10  C   LIG d   1       9.620   4.255  -6.171  0.00  0.00     0.143 A 
ATOM     11  C   LIG d   1       9.235   3.056  -5.589  0.00  0.00     0.023 A 
ATOM     12  H   LIG d   1       9.551   3.907  -2.324  0.00  0.00     0.065 H 
ATOM     13  H   LIG d   1      10.231   6.030  -3.323  0.00  0.00     0.063 H 
ATOM     14  H   LIG d   1       8.954   2.218  -6.209  0.00  0.00     0.069 H 
ENDROOT
BRANCH   1  15
ATOM     15  O   LIG d   1       8.837   1.763  -3.640  0.00  0.00    -0.487 OA
BRANCH  15  16
ATOM     16  C   LIG d   1       8.408   0.724  -4.523  0.00  0.00     0.115 C 
ATOM     17  H   LIG d   1       8.225   1.142  -5.514  0.00  0.00     0.075 H 
ATOM     18  H   LIG d   1       9.182  -0.040  -4.588  0.00  0.00     0.075 H 
BRANCH  16  19
ATOM     19  C   LIG d   1       7.138   0.109  -3.995  0.00  0.00    -0.010 A 
ATOM     20  C   LIG d   1       6.321   0.832  -3.146  0.00  0.00    -0.052 A 
ATOM     21  C   LIG d   1       5.155   0.268  -2.661  0.00  0.00    -0.050 A 
ATOM     22  H   LIG d   1       6.592   1.838  -2.861  0.00  0.00     0.062 H 
ATOM     23  C   LIG d   1       4.808  -1.019  -3.025  0.00  0.00    -0.056 A 
ATOM     24  C   LIG d   1       5.625  -1.742  -3.874  0.00  0.00    -0.050 A 
ATOM     25  H   LIG d   1       3.897  -1.461  -2.645  0.00  0.00     0.062 H 
ATOM     26  C   LIG d   1       6.787  -1.176  -4.362  0.00  0.00    -0.052 A 
ATOM     27  H   LIG d   1       7.424  -1.739  -5.029  0.00  0.00     0.062 H 
BRANCH  21  28
ATOM     28  C   LIG d   1       4.264   1.056  -1.735  0.00  0.00    -0.040 C 
ATOM     29  H   LIG d   1       4.469   2.120  -1.852  0.00  0.00     0.028 H 
ATOM     30  H   LIG d   1       3.221   0.858  -1.979  0.00  0.00     0.028 H 
ATOM     31  H   LIG d   1       4.459   0.760  -0.704  0.00  0.00     0.028 H 
ENDBRANCH  21  28
BRANCH  24  32
ATOM     32  C   LIG d   1       5.245  -3.146  -4.270  0.00  0.00    -0.040 C 
ATOM     33  H   LIG d   1       5.160  -3.766  -3.378  0.00  0.00     0.028 H 
ATOM     34  H   LIG d   1       4.289  -3.129  -4.794  0.00  0.00     0.028 H 
ATOM     35  H   LIG d   1       6.012  -3.558  -4.928  0.00  0.00     0.028 H 
ENDBRANCH  24  32
ENDBRANCH  16  19
ENDBRANCH  15  16
ENDBRANCH   1  15
BRANCH   5  36
ATOM     36  C   LIG d   1      10.782   7.786  -5.134  0.00  0.00    -0.038 C 
ATOM     37  H   LIG d   1      11.842   7.996  -5.277  0.00  0.00     0.028 H 
ATOM     38  H   LIG d   1      10.196   8.655  -5.434  0.00  0.00     0.028 H 
ATOM     39  H   LIG d   1      10.594   7.567  -4.082  0.00  0.00     0.028 H 
ENDBRANCH   5  36
BRANCH   6  40
ATOM     40  C   LIG d   1      10.802   7.948  -8.017  0.00  0.00     0.019 C 
ATOM     41  H   LIG d   1      11.143   7.723  -9.028  0.00  0.00     0.037 H 
ATOM     42  H   LIG d   1      11.609   8.419  -7.457  0.00  0.00     0.037 H 
BRANCH  40  43
ATOM     43  C   LIG d   1       9.622   8.883  -8.082  0.00  0.00     0.046 C 
ATOM     44  O   LIG d   1       8.512   8.443  -8.264  0.00  0.00    -0.549 OA
ATOM     45  O   LIG d   1       9.804  10.204  -7.932  0.00  0.00    -0.549 OA
ENDBRANCH  40  43
ENDBRANCH   6  40
TORSDOF 8
ENDMDL
