MODEL 1
REMARK VINA RESULT:      -6.4      0.000      0.000
REMARK  9 active torsions:
REMARK  status: ('A' for Active; 'I' for Inactive)
REMARK    1  A    between atoms: C_1  and  C_2 
REMARK    2  A    between atoms: C_2  and  O_3 
REMARK    3  A    between atoms: O_3  and  C_4 
REMARK    4  A    between atoms: C_4  and  C_6 
REMARK    5  A    between atoms: C_7  and  C_24 
REMARK    6  A    between atoms: C_12  and  O_15 
REMARK    7  A    between atoms: O_15  and  C_16 
REMARK    8  A    between atoms: C_16  and  C_17 
REMARK    9  A    between atoms: C_22  and  C_23 
ROOT
ATOM      1  C   LIG d   1       3.488  -0.489  -8.239  0.00  0.00     0.107 A 
ATOM      2  C   LIG d   1       2.760  -1.388  -8.958  0.00  0.00     0.117 A 
ATOM      3  O   LIG d   1       3.125  -2.632  -8.631  0.00  0.00    -0.459 OA
ATOM      4  C   LIG d   1       4.089  -2.630  -7.686  0.00  0.00     0.136 A 
ATOM      5  C   LIG d   1       4.380  -1.293  -7.380  0.00  0.00     0.038 A 
ATOM      6  C   LIG d   1       5.351  -0.985  -6.434  0.00  0.00    -0.008 A 
ATOM      7  C   LIG d   1       6.022  -2.006  -5.786  0.00  0.00     0.122 A 
ATOM      8  C   LIG d   1       5.729  -3.333  -6.085  0.00  0.00    -0.016 A 
ATOM      9  C   LIG d   1       4.772  -3.644  -7.027  0.00  0.00    -0.015 A 
ATOM     10  H   LIG d   1       5.577   0.046  -6.203  0.00  0.00     0.066 H 
ATOM     11  H   LIG d   1       6.257  -4.126  -5.575  0.00  0.00     0.066 H 
ATOM     12  H   LIG d   1       4.553  -4.677  -7.251  0.00  0.00     0.066 H 
ENDROOT
BRANCH   7  13
ATOM     13  O   LIG d   1       6.968  -1.714  -4.854  0.00  0.00    -0.487 OA
BRANCH  13  14
ATOM     14  C   LIG d   1       6.609  -1.901  -3.484  0.00  0.00     0.115 C 
ATOM     15  H   LIG d   1       6.125  -2.870  -3.365  0.00  0.00     0.075 H 
ATOM     16  H   LIG d   1       7.505  -1.864  -2.864  0.00  0.00     0.075 H 
BRANCH  14  17
ATOM     17  C   LIG d   1       5.660  -0.810  -3.060  0.00  0.00    -0.007 A 
ATOM     18  C   LIG d   1       4.373  -1.128  -2.665  0.00  0.00    -0.044 A 
ATOM     19  C   LIG d   1       3.502  -0.127  -2.276  0.00  0.00    -0.059 A 
ATOM     20  C   LIG d   1       3.918   1.191  -2.281  0.00  0.00    -0.061 A 
ATOM     21  H   LIG d   1       2.497  -0.375  -1.968  0.00  0.00     0.062 H 
ATOM     22  C   LIG d   1       5.204   1.509  -2.675  0.00  0.00    -0.061 A 
ATOM     23  H   LIG d   1       3.238   1.973  -1.976  0.00  0.00     0.062 H 
ATOM     24  C   LIG d   1       6.076   0.509  -3.060  0.00  0.00    -0.055 A 
ATOM     25  H   LIG d   1       5.528   2.539  -2.679  0.00  0.00     0.062 H 
ATOM     26  H   LIG d   1       7.083   0.756  -3.363  0.00  0.00     0.062 H 
BRANCH  18  27
ATOM     27  C   LIG d   1       3.921  -2.565  -2.660  0.00  0.00    -0.039 C 
ATOM     28  H   LIG d   1       3.892  -2.940  -3.684  0.00  0.00     0.028 H 
ATOM     29  H   LIG d   1       4.619  -3.164  -2.075  0.00  0.00     0.028 H 
ATOM     30  H   LIG d   1       2.927  -2.633  -2.219  0.00  0.00     0.028 H 
ENDBRANCH  18  27
ENDBRANCH  14  17
ENDBRANCH  13  14
ENDBRANCH   7  13
BRANCH   1  31
ATOM     31  C   LIG d   1       3.404   0.977  -8.306  0.00  0.00     0.343 C 
ATOM     32  O   LIG d   1       2.948   1.603  -7.369  0.00  0.00    -0.245 OA
BRANCH  31  33
ATOM     33  O   LIG d   1       3.834   1.626  -9.406  0.00  0.00    -0.461 OA
BRANCH  33  34
ATOM     34  C   LIG d   1       5.177   1.322  -9.868  0.00  0.00     0.090 C 
ATOM     35  H   LIG d   1       5.323   0.241  -9.873  0.00  0.00     0.070 H 
ATOM     36  H   LIG d   1       5.313   1.712 -10.877  0.00  0.00     0.070 H 
BRANCH  34  37
ATOM     37  C   LIG d   1       6.198   1.970  -8.930  0.00  0.00    -0.031 C 
ATOM     38  H   LIG d   1       5.719   2.205  -7.979  0.00  0.00     0.026 H 
ATOM     39  H   LIG d   1       7.024   1.280  -8.760  0.00  0.00     0.026 H 
ATOM     40  H   LIG d   1       6.577   2.886  -9.382  0.00  0.00     0.026 H 
ENDBRANCH  34  37
ENDBRANCH  33  34
ENDBRANCH  31  33
ENDBRANCH   1  31
BRANCH   2  41
ATOM     41  C   LIG d   1       1.707  -1.033  -9.977  0.00  0.00    -0.005 C 
ATOM     42  H   LIG d   1       2.188  -0.782 -10.921  0.00  0.00     0.031 H 
ATOM     43  H   LIG d   1       1.041  -1.883 -10.121  0.00  0.00     0.031 H 
ATOM     44  H   LIG d   1       1.132  -0.178  -9.622  0.00  0.00     0.031 H 
ENDBRANCH   2  41
TORSDOF 9
ENDMDL
MODEL 2
REMARK VINA RESULT:      -6.1      2.041      4.093
REMARK  9 active torsions:
REMARK  status: ('A' for Active; 'I' for Inactive)
REMARK    1  A    between atoms: C_1  and  C_2 
REMARK    2  A    between atoms: C_2  and  O_3 
REMARK    3  A    between atoms: O_3  and  C_4 
REMARK    4  A    between atoms: C_4  and  C_6 
REMARK    5  A    between atoms: C_7  and  C_24 
REMARK    6  A    between atoms: C_12  and  O_15 
REMARK    7  A    between atoms: O_15  and  C_16 
REMARK    8  A    between atoms: C_16  and  C_17 
REMARK    9  A    between atoms: C_22  and  C_23 
ROOT
ATOM      1  C   LIG d   1       2.538  -1.560 -10.621  0.00  0.00     0.107 A 
ATOM      2  C   LIG d   1       2.821  -1.007 -11.833  0.00  0.00     0.117 A 
ATOM      3  O   LIG d   1       3.202   0.264 -11.674  0.00  0.00    -0.459 OA
ATOM      4  C   LIG d   1       3.206   0.618 -10.371  0.00  0.00     0.136 A 
ATOM      5  C   LIG d   1       2.792  -0.496  -9.628  0.00  0.00     0.038 A 
ATOM      6  C   LIG d   1       2.694  -0.420  -8.243  0.00  0.00    -0.008 A 
ATOM      7  C   LIG d   1       3.020   0.760  -7.599  0.00  0.00     0.122 A 
ATOM      8  C   LIG d   1       3.437   1.864  -8.336  0.00  0.00    -0.016 A 
ATOM      9  C   LIG d   1       3.530   1.796  -9.709  0.00  0.00    -0.015 A 
ATOM     10  H   LIG d   1       2.370  -1.278  -7.673  0.00  0.00     0.066 H 
ATOM     11  H   LIG d   1       3.691   2.783  -7.827  0.00  0.00     0.066 H 
ATOM     12  H   LIG d   1       3.855   2.659 -10.271  0.00  0.00     0.066 H 
ENDROOT
BRANCH   7  13
ATOM     13  O   LIG d   1       2.935   0.842  -6.244  0.00  0.00    -0.487 OA
BRANCH  13  14
ATOM     14  C   LIG d   1       3.077  -0.376  -5.511  0.00  0.00     0.115 C 
ATOM     15  H   LIG d   1       2.113  -0.884  -5.460  0.00  0.00     0.075 H 
ATOM     16  H   LIG d   1       3.800  -1.019  -6.011  0.00  0.00     0.075 H 
BRANCH  14  17
ATOM     17  C   LIG d   1       3.556  -0.069  -4.116  0.00  0.00    -0.007 A 
ATOM     18  C   LIG d   1       4.182  -1.049  -3.368  0.00  0.00    -0.044 A 
ATOM     19  C   LIG d   1       4.622  -0.767  -2.088  0.00  0.00    -0.059 A 
ATOM     20  C   LIG d   1       4.438   0.496  -1.557  0.00  0.00    -0.061 A 
ATOM     21  H   LIG d   1       5.111  -1.533  -1.504  0.00  0.00     0.062 H 
ATOM     22  C   LIG d   1       3.813   1.476  -2.304  0.00  0.00    -0.061 A 
ATOM     23  H   LIG d   1       4.783   0.717  -0.557  0.00  0.00     0.062 H 
ATOM     24  C   LIG d   1       3.377   1.196  -3.585  0.00  0.00    -0.055 A 
ATOM     25  H   LIG d   1       3.669   2.462  -1.889  0.00  0.00     0.062 H 
ATOM     26  H   LIG d   1       2.893   1.963  -4.171  0.00  0.00     0.062 H 
BRANCH  18  27
ATOM     27  C   LIG d   1       4.383  -2.425  -3.948  0.00  0.00    -0.039 C 
ATOM     28  H   LIG d   1       4.193  -2.397  -5.022  0.00  0.00     0.028 H 
ATOM     29  H   LIG d   1       5.408  -2.749  -3.769  0.00  0.00     0.028 H 
ATOM     30  H   LIG d   1       3.693  -3.124  -3.475  0.00  0.00     0.028 H 
ENDBRANCH  18  27
ENDBRANCH  14  17
ENDBRANCH  13  14
ENDBRANCH   7  13
BRANCH   1  31
ATOM     31  C   LIG d   1       2.076  -2.929 -10.356  0.00  0.00     0.343 C 
ATOM     32  O   LIG d   1       0.889  -3.156 -10.226  0.00  0.00    -0.245 OA
BRANCH  31  33
ATOM     33  O   LIG d   1       2.970  -3.934 -10.256  0.00  0.00    -0.461 OA
BRANCH  33  34
ATOM     34  C   LIG d   1       4.135  -3.699  -9.421  0.00  0.00     0.090 C 
ATOM     35  H   LIG d   1       4.969  -4.302  -9.782  0.00  0.00     0.070 H 
ATOM     36  H   LIG d   1       4.404  -2.643  -9.461  0.00  0.00     0.070 H 
BRANCH  34  37
ATOM     37  C   LIG d   1       3.812  -4.088  -7.976  0.00  0.00    -0.031 C 
ATOM     38  H   LIG d   1       4.695  -3.938  -7.354  0.00  0.00     0.026 H 
ATOM     39  H   LIG d   1       2.997  -3.466  -7.606  0.00  0.00     0.026 H 
ATOM     40  H   LIG d   1       3.515  -5.135  -7.939  0.00  0.00     0.026 H 
ENDBRANCH  34  37
ENDBRANCH  33  34
ENDBRANCH  31  33
ENDBRANCH   1  31
BRANCH   2  41
ATOM     41  C   LIG d   1       2.709  -1.719 -13.157  0.00  0.00    -0.005 C 
ATOM     42  H   LIG d   1       2.827  -1.000 -13.966  0.00  0.00     0.031 H 
ATOM     43  H   LIG d   1       3.487  -2.478 -13.227  0.00  0.00     0.031 H 
ATOM     44  H   LIG d   1       1.731  -2.194 -13.232  0.00  0.00     0.031 H 
ENDBRANCH   2  41
TORSDOF 9
ENDMDL
MODEL 3
REMARK VINA RESULT:      -6.1      2.043      4.311
REMARK  9 active torsions:
REMARK  status: ('A' for Active; 'I' for Inactive)
REMARK    1  A    between atoms: C_1  and  C_2 
REMARK    2  A    between atoms: C_2  and  O_3 
REMARK    3  A    between atoms: O_3  and  C_4 
REMARK    4  A    between atoms: C_4  and  C_6 
REMARK    5  A    between atoms: C_7  and  C_24 
REMARK    6  A    between atoms: C_12  and  O_15 
REMARK    7  A    between atoms: O_15  and  C_16 
REMARK    8  A    between atoms: C_16  and  C_17 
REMARK    9  A    between atoms: C_22  and  C_23 
ROOT
ATOM      1  C   LIG d   1       3.563  -3.219  -9.023  0.00  0.00     0.107 A 
ATOM      2  C   LIG d   1       3.215  -3.196 -10.340  0.00  0.00     0.117 A 
ATOM      3  O   LIG d   1       2.818  -1.966 -10.683  0.00  0.00    -0.459 OA
ATOM      4  C   LIG d   1       2.889  -1.116  -9.637  0.00  0.00     0.136 A 
ATOM      5  C   LIG d   1       3.358  -1.841  -8.532  0.00  0.00     0.038 A 
ATOM      6  C   LIG d   1       3.525  -1.216  -7.301  0.00  0.00    -0.008 A 
ATOM      7  C   LIG d   1       3.238   0.132  -7.175  0.00  0.00     0.122 A 
ATOM      8  C   LIG d   1       2.778   0.852  -8.273  0.00  0.00    -0.016 A 
ATOM      9  C   LIG d   1       2.604   0.236  -9.493  0.00  0.00    -0.015 A 
ATOM     10  H   LIG d   1       3.882  -1.777  -6.450  0.00  0.00     0.066 H 
ATOM     11  H   LIG d   1       2.556   1.904  -8.167  0.00  0.00     0.066 H 
ATOM     12  H   LIG d   1       2.247   0.805 -10.338  0.00  0.00     0.066 H 
ENDROOT
BRANCH   7  13
ATOM     13  O   LIG d   1       3.406   0.753  -5.977  0.00  0.00    -0.487 OA
BRANCH  13  14
ATOM     14  C   LIG d   1       2.472   0.435  -4.944  0.00  0.00     0.115 C 
ATOM     15  H   LIG d   1       1.965   1.345  -4.621  0.00  0.00     0.075 H 
ATOM     16  H   LIG d   1       1.737  -0.275  -5.324  0.00  0.00     0.075 H 
BRANCH  14  17
ATOM     17  C   LIG d   1       3.202  -0.175  -3.776  0.00  0.00    -0.007 A 
ATOM     18  C   LIG d   1       3.769   0.639  -2.813  0.00  0.00    -0.044 A 
ATOM     19  C   LIG d   1       4.439   0.079  -1.741  0.00  0.00    -0.059 A 
ATOM     20  C   LIG d   1       4.542  -1.295  -1.632  0.00  0.00    -0.061 A 
ATOM     21  H   LIG d   1       4.881   0.715  -0.989  0.00  0.00     0.062 H 
ATOM     22  C   LIG d   1       3.976  -2.109  -2.595  0.00  0.00    -0.061 A 
ATOM     23  H   LIG d   1       5.065  -1.733  -0.795  0.00  0.00     0.062 H 
ATOM     24  C   LIG d   1       3.301  -1.550  -3.664  0.00  0.00    -0.055 A 
ATOM     25  H   LIG d   1       4.056  -3.183  -2.509  0.00  0.00     0.062 H 
ATOM     26  H   LIG d   1       2.855  -2.186  -4.414  0.00  0.00     0.062 H 
BRANCH  18  27
ATOM     27  C   LIG d   1       3.656   2.137  -2.933  0.00  0.00    -0.039 C 
ATOM     28  H   LIG d   1       3.384   2.399  -3.956  0.00  0.00     0.028 H 
ATOM     29  H   LIG d   1       2.888   2.499  -2.249  0.00  0.00     0.028 H 
ATOM     30  H   LIG d   1       4.612   2.596  -2.681  0.00  0.00     0.028 H 
ENDBRANCH  18  27
ENDBRANCH  14  17
ENDBRANCH  13  14
ENDBRANCH   7  13
BRANCH   1  31
ATOM     31  C   LIG d   1       4.042  -4.374  -8.251  0.00  0.00     0.343 C 
ATOM     32  O   LIG d   1       3.265  -5.250  -7.923  0.00  0.00    -0.245 OA
BRANCH  31  33
ATOM     33  O   LIG d   1       5.342  -4.461  -7.907  0.00  0.00    -0.461 OA
BRANCH  33  34
ATOM     34  C   LIG d   1       5.640  -4.991  -6.588  0.00  0.00     0.090 C 
ATOM     35  H   LIG d   1       4.899  -5.746  -6.324  0.00  0.00     0.070 H 
ATOM     36  H   LIG d   1       6.633  -5.441  -6.593  0.00  0.00     0.070 H 
BRANCH  34  37
ATOM     37  C   LIG d   1       5.601  -3.856  -5.562  0.00  0.00    -0.031 C 
ATOM     38  H   LIG d   1       5.233  -2.948  -6.039  0.00  0.00     0.026 H 
ATOM     39  H   LIG d   1       4.937  -4.131  -4.742  0.00  0.00     0.026 H 
ATOM     40  H   LIG d   1       6.604  -3.681  -5.174  0.00  0.00     0.026 H 
ENDBRANCH  34  37
ENDBRANCH  33  34
ENDBRANCH  31  33
ENDBRANCH   1  31
BRANCH   2  41
ATOM     41  C   LIG d   1       3.260  -4.383 -11.268  0.00  0.00    -0.005 C 
ATOM     42  H   LIG d   1       2.357  -4.402 -11.876  0.00  0.00     0.031 H 
ATOM     43  H   LIG d   1       4.134  -4.304 -11.914  0.00  0.00     0.031 H 
ATOM     44  H   LIG d   1       3.324  -5.300 -10.682  0.00  0.00     0.031 H 
ENDBRANCH   2  41
TORSDOF 9
ENDMDL
MODEL 4
REMARK VINA RESULT:      -6.0      5.875      8.569
REMARK  9 active torsions:
REMARK  status: ('A' for Active; 'I' for Inactive)
REMARK    1  A    between atoms: C_1  and  C_2 
REMARK    2  A    between atoms: C_2  and  O_3 
REMARK    3  A    between atoms: O_3  and  C_4 
REMARK    4  A    between atoms: C_4  and  C_6 
REMARK    5  A    between atoms: C_7  and  C_24 
REMARK    6  A    between atoms: C_12  and  O_15 
REMARK    7  A    between atoms: O_15  and  C_16 
REMARK    8  A    between atoms: C_16  and  C_17 
REMARK    9  A    between atoms: C_22  and  C_23 
ROOT
ATOM      1  C   LIG d   1      10.071   6.263  -3.127  0.00  0.00     0.107 A 
ATOM      2  C   LIG d   1      10.429   7.067  -4.166  0.00  0.00     0.117 A 
ATOM      3  O   LIG d   1      10.326   6.393  -5.316  0.00  0.00    -0.459 OA
ATOM      4  C   LIG d   1       9.892   5.132  -5.111  0.00  0.00     0.136 A 
ATOM      5  C   LIG d   1       9.705   4.966  -3.732  0.00  0.00     0.038 A 
ATOM      6  C   LIG d   1       9.262   3.750  -3.224  0.00  0.00    -0.008 A 
ATOM      7  C   LIG d   1       8.997   2.704  -4.090  0.00  0.00     0.122 A 
ATOM      8  C   LIG d   1       9.177   2.870  -5.459  0.00  0.00    -0.016 A 
ATOM      9  C   LIG d   1       9.621   4.071  -5.967  0.00  0.00    -0.015 A 
ATOM     10  H   LIG d   1       9.123   3.623  -2.160  0.00  0.00     0.066 H 
ATOM     11  H   LIG d   1       8.967   2.049  -6.130  0.00  0.00     0.066 H 
ATOM     12  H   LIG d   1       9.757   4.189  -7.032  0.00  0.00     0.066 H 
ENDROOT
BRANCH   7  13
ATOM     13  O   LIG d   1       8.557   1.513  -3.602  0.00  0.00    -0.487 OA
BRANCH  13  14
ATOM     14  C   LIG d   1       7.569   0.823  -4.370  0.00  0.00     0.115 C 
ATOM     15  H   LIG d   1       7.181   1.487  -5.143  0.00  0.00     0.075 H 
ATOM     16  H   LIG d   1       8.018  -0.054  -4.835  0.00  0.00     0.075 H 
BRANCH  14  17
ATOM     17  C   LIG d   1       6.443   0.391  -3.466  0.00  0.00    -0.007 A 
ATOM     18  C   LIG d   1       6.220  -0.953  -3.233  0.00  0.00    -0.044 A 
ATOM     19  C   LIG d   1       5.186  -1.348  -2.403  0.00  0.00    -0.059 A 
ATOM     20  C   LIG d   1       4.377  -0.400  -1.808  0.00  0.00    -0.061 A 
ATOM     21  H   LIG d   1       5.012  -2.398  -2.221  0.00  0.00     0.062 H 
ATOM     22  C   LIG d   1       4.600   0.944  -2.041  0.00  0.00    -0.061 A 
ATOM     23  H   LIG d   1       3.570  -0.708  -1.159  0.00  0.00     0.062 H 
ATOM     24  C   LIG d   1       5.636   1.340  -2.866  0.00  0.00    -0.055 A 
ATOM     25  H   LIG d   1       3.967   1.685  -1.575  0.00  0.00     0.062 H 
ATOM     26  H   LIG d   1       5.813   2.391  -3.044  0.00  0.00     0.062 H 
BRANCH  18  27
ATOM     27  C   LIG d   1       7.103  -1.986  -3.882  0.00  0.00    -0.039 C 
ATOM     28  H   LIG d   1       8.012  -2.108  -3.293  0.00  0.00     0.028 H 
ATOM     29  H   LIG d   1       6.573  -2.938  -3.933  0.00  0.00     0.028 H 
ATOM     30  H   LIG d   1       7.363  -1.662  -4.890  0.00  0.00     0.028 H 
ENDBRANCH  18  27
ENDBRANCH  14  17
ENDBRANCH  13  14
ENDBRANCH   7  13
BRANCH   1  31
ATOM     31  C   LIG d   1      10.054   6.612  -1.699  0.00  0.00     0.343 C 
ATOM     32  O   LIG d   1       9.084   7.166  -1.221  0.00  0.00    -0.245 OA
BRANCH  31  33
ATOM     33  O   LIG d   1      11.115   6.317  -0.921  0.00  0.00    -0.461 OA
BRANCH  33  34
ATOM     34  C   LIG d   1      11.124   6.875   0.419  0.00  0.00     0.090 C 
ATOM     35  H   LIG d   1      12.049   7.432   0.575  0.00  0.00     0.070 H 
ATOM     36  H   LIG d   1      10.271   7.543   0.541  0.00  0.00     0.070 H 
BRANCH  34  37
ATOM     37  C   LIG d   1      11.033   5.742   1.444  0.00  0.00    -0.031 C 
ATOM     38  H   LIG d   1      10.116   5.176   1.279  0.00  0.00     0.026 H 
ATOM     39  H   LIG d   1      11.892   5.081   1.331  0.00  0.00     0.026 H 
ATOM     40  H   LIG d   1      11.026   6.160   2.450  0.00  0.00     0.026 H 
ENDBRANCH  34  37
ENDBRANCH  33  34
ENDBRANCH  31  33
ENDBRANCH   1  31
BRANCH   2  41
ATOM     41  C   LIG d   1      10.883   8.498  -4.037  0.00  0.00    -0.005 C 
ATOM     42  H   LIG d   1      10.159   9.153  -4.520  0.00  0.00     0.031 H 
ATOM     43  H   LIG d   1      10.964   8.759  -2.982  0.00  0.00     0.031 H 
ATOM     44  H   LIG d   1      11.855   8.615  -4.516  0.00  0.00     0.031 H 
ENDBRANCH   2  41
TORSDOF 9
ENDMDL
MODEL 5
REMARK VINA RESULT:      -5.9      1.670      2.569
REMARK  9 active torsions:
REMARK  status: ('A' for Active; 'I' for Inactive)
REMARK    1  A    between atoms: C_1  and  C_2 
REMARK    2  A    between atoms: C_2  and  O_3 
REMARK    3  A    between atoms: O_3  and  C_4 
REMARK    4  A    between atoms: C_4  and  C_6 
REMARK    5  A    between atoms: C_7  and  C_24 
REMARK    6  A    between atoms: C_12  and  O_15 
REMARK    7  A    between atoms: O_15  and  C_16 
REMARK    8  A    between atoms: C_16  and  C_17 
REMARK    9  A    between atoms: C_22  and  C_23 
ROOT
ATOM      1  C   LIG d   1       3.491  -2.583  -8.511  0.00  0.00     0.107 A 
ATOM      2  C   LIG d   1       2.973  -3.579  -9.282  0.00  0.00     0.117 A 
ATOM      3  O   LIG d   1       3.251  -4.767  -8.734  0.00  0.00    -0.459 OA
ATOM      4  C   LIG d   1       3.946  -4.629  -7.585  0.00  0.00     0.136 A 
ATOM      5  C   LIG d   1       4.142  -3.257  -7.370  0.00  0.00     0.038 A 
ATOM      6  C   LIG d   1       4.840  -2.814  -6.252  0.00  0.00    -0.008 A 
ATOM      7  C   LIG d   1       5.331  -3.735  -5.344  0.00  0.00     0.122 A 
ATOM      8  C   LIG d   1       5.132  -5.096  -5.555  0.00  0.00    -0.016 A 
ATOM      9  C   LIG d   1       4.446  -5.540  -6.664  0.00  0.00    -0.015 A 
ATOM     10  H   LIG d   1       4.994  -1.757  -6.091  0.00  0.00     0.066 H 
ATOM     11  H   LIG d   1       5.518  -5.810  -4.841  0.00  0.00     0.066 H 
ATOM     12  H   LIG d   1       4.297  -6.599  -6.817  0.00  0.00     0.066 H 
ENDROOT
BRANCH   7  13
ATOM     13  O   LIG d   1       6.009  -3.310  -4.244  0.00  0.00    -0.487 OA
BRANCH  13  14
ATOM     14  C   LIG d   1       6.634  -2.028  -4.323  0.00  0.00     0.115 C 
ATOM     15  H   LIG d   1       7.668  -2.108  -3.985  0.00  0.00     0.075 H 
ATOM     16  H   LIG d   1       6.615  -1.676  -5.354  0.00  0.00     0.075 H 
BRANCH  14  17
ATOM     17  C   LIG d   1       5.893  -1.054  -3.444  0.00  0.00    -0.007 A 
ATOM     18  C   LIG d   1       6.200   0.294  -3.494  0.00  0.00    -0.044 A 
ATOM     19  C   LIG d   1       5.519   1.188  -2.688  0.00  0.00    -0.059 A 
ATOM     20  C   LIG d   1       4.531   0.735  -1.834  0.00  0.00    -0.061 A 
ATOM     21  H   LIG d   1       5.758   2.240  -2.727  0.00  0.00     0.062 H 
ATOM     22  C   LIG d   1       4.224  -0.612  -1.785  0.00  0.00    -0.061 A 
ATOM     23  H   LIG d   1       3.999   1.433  -1.206  0.00  0.00     0.062 H 
ATOM     24  C   LIG d   1       4.901  -1.505  -2.593  0.00  0.00    -0.055 A 
ATOM     25  H   LIG d   1       3.453  -0.966  -1.117  0.00  0.00     0.062 H 
ATOM     26  H   LIG d   1       4.658  -2.557  -2.558  0.00  0.00     0.062 H 
BRANCH  18  27
ATOM     27  C   LIG d   1       7.276   0.787  -4.426  0.00  0.00    -0.039 C 
ATOM     28  H   LIG d   1       8.220   0.299  -4.179  0.00  0.00     0.028 H 
ATOM     29  H   LIG d   1       7.003   0.549  -5.454  0.00  0.00     0.028 H 
ATOM     30  H   LIG d   1       7.385   1.866  -4.318  0.00  0.00     0.028 H 
ENDBRANCH  18  27
ENDBRANCH  14  17
ENDBRANCH  13  14
ENDBRANCH   7  13
BRANCH   1  31
ATOM     31  C   LIG d   1       3.418  -1.137  -8.763  0.00  0.00     0.343 C 
ATOM     32  O   LIG d   1       4.161  -0.623  -9.577  0.00  0.00    -0.245 OA
BRANCH  31  33
ATOM     33  O   LIG d   1       2.526  -0.380  -8.092  0.00  0.00    -0.461 OA
BRANCH  33  34
ATOM     34  C   LIG d   1       3.062   0.625  -7.191  0.00  0.00     0.090 C 
ATOM     35  H   LIG d   1       4.136   0.725  -7.355  0.00  0.00     0.070 H 
ATOM     36  H   LIG d   1       2.574   1.581  -7.381  0.00  0.00     0.070 H 
BRANCH  34  37
ATOM     37  C   LIG d   1       2.805   0.200  -5.743  0.00  0.00    -0.031 C 
ATOM     38  H   LIG d   1       2.200  -0.706  -5.732  0.00  0.00     0.026 H 
ATOM     39  H   LIG d   1       3.757   0.008  -5.247  0.00  0.00     0.026 H 
ATOM     40  H   LIG d   1       2.277   0.996  -5.219  0.00  0.00     0.026 H 
ENDBRANCH  34  37
ENDBRANCH  33  34
ENDBRANCH  31  33
ENDBRANCH   1  31
BRANCH   2  41
ATOM     41  C   LIG d   1       2.211  -3.374 -10.566  0.00  0.00    -0.005 C 
ATOM     42  H   LIG d   1       1.673  -2.428 -10.521  0.00  0.00     0.031 H 
ATOM     43  H   LIG d   1       2.908  -3.359 -11.403  0.00  0.00     0.031 H 
ATOM     44  H   LIG d   1       1.500  -4.190 -10.700  0.00  0.00     0.031 H 
ENDBRANCH   2  41
TORSDOF 9
ENDMDL
MODEL 6
REMARK VINA RESULT:      -5.7      5.037      7.631
REMARK  9 active torsions:
REMARK  status: ('A' for Active; 'I' for Inactive)
REMARK    1  A    between atoms: C_1  and  C_2 
REMARK    2  A    between atoms: C_2  and  O_3 
REMARK    3  A    between atoms: O_3  and  C_4 
REMARK    4  A    between atoms: C_4  and  C_6 
REMARK    5  A    between atoms: C_7  and  C_24 
REMARK    6  A    between atoms: C_12  and  O_15 
REMARK    7  A    between atoms: O_15  and  C_16 
REMARK    8  A    between atoms: C_16  and  C_17 
REMARK    9  A    between atoms: C_22  and  C_23 
ROOT
ATOM      1  C   LIG d   1      10.280   4.630  -4.108  0.00  0.00     0.107 A 
ATOM      2  C   LIG d   1      11.107   5.123  -5.071  0.00  0.00     0.117 A 
ATOM      3  O   LIG d   1      10.885   4.490  -6.227  0.00  0.00    -0.459 OA
ATOM      4  C   LIG d   1       9.908   3.567  -6.103  0.00  0.00     0.136 A 
ATOM      5  C   LIG d   1       9.467   3.592  -4.773  0.00  0.00     0.038 A 
ATOM      6  C   LIG d   1       8.459   2.732  -4.351  0.00  0.00    -0.008 A 
ATOM      7  C   LIG d   1       7.884   1.858  -5.256  0.00  0.00     0.122 A 
ATOM      8  C   LIG d   1       8.319   1.836  -6.577  0.00  0.00    -0.016 A 
ATOM      9  C   LIG d   1       9.321   2.682  -6.999  0.00  0.00    -0.015 A 
ATOM     10  H   LIG d   1       8.123   2.750  -3.325  0.00  0.00     0.066 H 
ATOM     11  H   LIG d   1       7.865   1.151  -7.279  0.00  0.00     0.066 H 
ATOM     12  H   LIG d   1       9.650   2.657  -8.027  0.00  0.00     0.066 H 
ENDROOT
BRANCH   7  13
ATOM     13  O   LIG d   1       6.893   1.018  -4.854  0.00  0.00    -0.487 OA
BRANCH  13  14
ATOM     14  C   LIG d   1       6.887   0.633  -3.478  0.00  0.00     0.115 C 
ATOM     15  H   LIG d   1       7.879   0.278  -3.196  0.00  0.00     0.075 H 
ATOM     16  H   LIG d   1       6.619   1.490  -2.861  0.00  0.00     0.075 H 
BRANCH  14  17
ATOM     17  C   LIG d   1       5.882  -0.470  -3.269  0.00  0.00    -0.007 A 
ATOM     18  C   LIG d   1       4.808  -0.276  -2.420  0.00  0.00    -0.044 A 
ATOM     19  C   LIG d   1       3.885  -1.287  -2.230  0.00  0.00    -0.059 A 
ATOM     20  C   LIG d   1       4.035  -2.493  -2.889  0.00  0.00    -0.061 A 
ATOM     21  H   LIG d   1       3.046  -1.135  -1.567  0.00  0.00     0.062 H 
ATOM     22  C   LIG d   1       5.109  -2.688  -3.737  0.00  0.00    -0.061 A 
ATOM     23  H   LIG d   1       3.314  -3.283  -2.740  0.00  0.00     0.062 H 
ATOM     24  C   LIG d   1       6.029  -1.675  -3.932  0.00  0.00    -0.055 A 
ATOM     25  H   LIG d   1       5.226  -3.630  -4.252  0.00  0.00     0.062 H 
ATOM     26  H   LIG d   1       6.865  -1.825  -4.599  0.00  0.00     0.062 H 
BRANCH  18  27
ATOM     27  C   LIG d   1       4.644   1.039  -1.703  0.00  0.00    -0.039 C 
ATOM     28  H   LIG d   1       3.659   1.452  -1.922  0.00  0.00     0.028 H 
ATOM     29  H   LIG d   1       4.741   0.881  -0.629  0.00  0.00     0.028 H 
ATOM     30  H   LIG d   1       5.413   1.735  -2.038  0.00  0.00     0.028 H 
ENDBRANCH  18  27
ENDBRANCH  14  17
ENDBRANCH  13  14
ENDBRANCH   7  13
BRANCH   1  31
ATOM     31  C   LIG d   1      10.211   5.044  -2.699  0.00  0.00     0.343 C 
ATOM     32  O   LIG d   1      10.770   4.384  -1.845  0.00  0.00    -0.245 OA
BRANCH  31  33
ATOM     33  O   LIG d   1       9.529   6.155  -2.357  0.00  0.00    -0.461 OA
BRANCH  33  34
ATOM     34  C   LIG d   1       9.989   6.873  -1.181  0.00  0.00     0.090 C 
ATOM     35  H   LIG d   1       9.826   6.260  -0.294  0.00  0.00     0.070 H 
ATOM     36  H   LIG d   1      11.052   7.093  -1.282  0.00  0.00     0.070 H 
BRANCH  34  37
ATOM     37  C   LIG d   1       9.208   8.183  -1.047  0.00  0.00    -0.031 C 
ATOM     38  H   LIG d   1       8.218   8.062  -1.486  0.00  0.00     0.026 H 
ATOM     39  H   LIG d   1       9.109   8.440   0.008  0.00  0.00     0.026 H 
ATOM     40  H   LIG d   1       9.741   8.979  -1.566  0.00  0.00     0.026 H 
ENDBRANCH  34  37
ENDBRANCH  33  34
ENDBRANCH  31  33
ENDBRANCH   1  31
BRANCH   2  41
ATOM     41  C   LIG d   1      12.128   6.212  -4.861  0.00  0.00    -0.005 C 
ATOM     42  H   LIG d   1      13.053   5.774  -4.486  0.00  0.00     0.031 H 
ATOM     43  H   LIG d   1      12.321   6.716  -5.807  0.00  0.00     0.031 H 
ATOM     44  H   LIG d   1      11.747   6.933  -4.137  0.00  0.00     0.031 H 
ENDBRANCH   2  41
TORSDOF 9
ENDMDL
MODEL 7
REMARK VINA RESULT:      -5.7      1.718      5.645
REMARK  9 active torsions:
REMARK  status: ('A' for Active; 'I' for Inactive)
REMARK    1  A    between atoms: C_1  and  C_2 
REMARK    2  A    between atoms: C_2  and  O_3 
REMARK    3  A    between atoms: O_3  and  C_4 
REMARK    4  A    between atoms: C_4  and  C_6 
REMARK    5  A    between atoms: C_7  and  C_24 
REMARK    6  A    between atoms: C_12  and  O_15 
REMARK    7  A    between atoms: O_15  and  C_16 
REMARK    8  A    between atoms: C_16  and  C_17 
REMARK    9  A    between atoms: C_22  and  C_23 
ROOT
ATOM      1  C   LIG d   1       5.370  -1.379  -4.588  0.00  0.00     0.107 A 
ATOM      2  C   LIG d   1       4.697  -2.281  -3.821  0.00  0.00     0.117 A 
ATOM      3  O   LIG d   1       4.207  -3.257  -4.592  0.00  0.00    -0.459 OA
ATOM      4  C   LIG d   1       4.531  -3.068  -5.889  0.00  0.00     0.136 A 
ATOM      5  C   LIG d   1       5.277  -1.884  -5.973  0.00  0.00     0.038 A 
ATOM      6  C   LIG d   1       5.744  -1.434  -7.202  0.00  0.00    -0.008 A 
ATOM      7  C   LIG d   1       5.479  -2.167  -8.344  0.00  0.00     0.122 A 
ATOM      8  C   LIG d   1       4.743  -3.345  -8.261  0.00  0.00    -0.016 A 
ATOM      9  C   LIG d   1       4.273  -3.793  -7.046  0.00  0.00    -0.015 A 
ATOM     10  H   LIG d   1       6.315  -0.519  -7.265  0.00  0.00     0.066 H 
ATOM     11  H   LIG d   1       4.540  -3.914  -9.157  0.00  0.00     0.066 H 
ATOM     12  H   LIG d   1       3.703  -4.709  -6.993  0.00  0.00     0.066 H 
ENDROOT
BRANCH   7  13
ATOM     13  O   LIG d   1       5.938  -1.738  -9.550  0.00  0.00    -0.487 OA
BRANCH  13  14
ATOM     14  C   LIG d   1       4.972  -1.211 -10.462  0.00  0.00     0.115 C 
ATOM     15  H   LIG d   1       5.447  -1.025 -11.426  0.00  0.00     0.075 H 
ATOM     16  H   LIG d   1       4.162  -1.929 -10.588  0.00  0.00     0.075 H 
BRANCH  14  17
ATOM     17  C   LIG d   1       4.420   0.081  -9.918  0.00  0.00    -0.007 A 
ATOM     18  C   LIG d   1       3.092   0.161  -9.539  0.00  0.00    -0.044 A 
ATOM     19  C   LIG d   1       2.586   1.346  -9.039  0.00  0.00    -0.059 A 
ATOM     20  C   LIG d   1       3.407   2.451  -8.917  0.00  0.00    -0.061 A 
ATOM     21  H   LIG d   1       1.549   1.408  -8.744  0.00  0.00     0.062 H 
ATOM     22  C   LIG d   1       4.734   2.371  -9.295  0.00  0.00    -0.061 A 
ATOM     23  H   LIG d   1       3.012   3.377  -8.526  0.00  0.00     0.062 H 
ATOM     24  C   LIG d   1       5.242   1.186  -9.790  0.00  0.00    -0.055 A 
ATOM     25  H   LIG d   1       5.375   3.235  -9.199  0.00  0.00     0.062 H 
ATOM     26  H   LIG d   1       6.280   1.122 -10.081  0.00  0.00     0.062 H 
BRANCH  18  27
ATOM     27  C   LIG d   1       2.198  -1.045  -9.673  0.00  0.00    -0.039 C 
ATOM     28  H   LIG d   1       2.809  -1.948  -9.706  0.00  0.00     0.028 H 
ATOM     29  H   LIG d   1       1.524  -1.094  -8.818  0.00  0.00     0.028 H 
ATOM     30  H   LIG d   1       1.616  -0.967 -10.590  0.00  0.00     0.028 H 
ENDBRANCH  18  27
ENDBRANCH  14  17
ENDBRANCH  13  14
ENDBRANCH   7  13
BRANCH   1  31
ATOM     31  C   LIG d   1       6.047  -0.157  -4.133  0.00  0.00     0.343 C 
ATOM     32  O   LIG d   1       7.242  -0.171  -3.912  0.00  0.00    -0.245 OA
BRANCH  31  33
ATOM     33  O   LIG d   1       5.342   0.979  -3.962  0.00  0.00    -0.461 OA
BRANCH  33  34
ATOM     34  C   LIG d   1       5.041   1.368  -2.595  0.00  0.00     0.090 C 
ATOM     35  H   LIG d   1       5.501   0.657  -1.906  0.00  0.00     0.070 H 
ATOM     36  H   LIG d   1       5.435   2.366  -2.405  0.00  0.00     0.070 H 
BRANCH  34  37
ATOM     37  C   LIG d   1       3.525   1.370  -2.388  0.00  0.00    -0.031 C 
ATOM     38  H   LIG d   1       3.041   1.820  -3.254  0.00  0.00     0.026 H 
ATOM     39  H   LIG d   1       3.173   0.346  -2.266  0.00  0.00     0.026 H 
ATOM     40  H   LIG d   1       3.281   1.946  -1.495  0.00  0.00     0.026 H 
ENDBRANCH  34  37
ENDBRANCH  33  34
ENDBRANCH  31  33
ENDBRANCH   1  31
BRANCH   2  41
ATOM     41  C   LIG d   1       4.521  -2.187  -2.327  0.00  0.00    -0.005 C 
ATOM     42  H   LIG d   1       3.527  -1.804  -2.102  0.00  0.00     0.031 H 
ATOM     43  H   LIG d   1       4.640  -3.176  -1.885  0.00  0.00     0.031 H 
ATOM     44  H   LIG d   1       5.273  -1.513  -1.915  0.00  0.00     0.031 H 
ENDBRANCH   2  41
TORSDOF 9
ENDMDL
MODEL 8
REMARK VINA RESULT:      -5.7      1.436      2.275
REMARK  9 active torsions:
REMARK  status: ('A' for Active; 'I' for Inactive)
REMARK    1  A    between atoms: C_1  and  C_2 
REMARK    2  A    between atoms: C_2  and  O_3 
REMARK    3  A    between atoms: O_3  and  C_4 
REMARK    4  A    between atoms: C_4  and  C_6 
REMARK    5  A    between atoms: C_7  and  C_24 
REMARK    6  A    between atoms: C_12  and  O_15 
REMARK    7  A    between atoms: O_15  and  C_16 
REMARK    8  A    between atoms: C_16  and  C_17 
REMARK    9  A    between atoms: C_22  and  C_23 
ROOT
ATOM      1  C   LIG d   1       5.041  -0.627  -9.176  0.00  0.00     0.107 A 
ATOM      2  C   LIG d   1       4.261  -1.112 -10.181  0.00  0.00     0.117 A 
ATOM      3  O   LIG d   1       3.784  -2.315  -9.846  0.00  0.00    -0.459 OA
ATOM      4  C   LIG d   1       4.202  -2.685  -8.616  0.00  0.00     0.136 A 
ATOM      5  C   LIG d   1       5.014  -1.657  -8.117  0.00  0.00     0.038 A 
ATOM      6  C   LIG d   1       5.595  -1.769  -6.859  0.00  0.00    -0.008 A 
ATOM      7  C   LIG d   1       5.358  -2.898  -6.095  0.00  0.00     0.122 A 
ATOM      8  C   LIG d   1       4.547  -3.915  -6.588  0.00  0.00    -0.016 A 
ATOM      9  C   LIG d   1       3.974  -3.812  -7.837  0.00  0.00    -0.015 A 
ATOM     10  H   LIG d   1       6.225  -0.979  -6.479  0.00  0.00     0.066 H 
ATOM     11  H   LIG d   1       4.366  -4.794  -5.986  0.00  0.00     0.066 H 
ATOM     12  H   LIG d   1       3.346  -4.608  -8.209  0.00  0.00     0.066 H 
ENDROOT
BRANCH   7  13
ATOM     13  O   LIG d   1       5.917  -3.013  -4.861  0.00  0.00    -0.487 OA
BRANCH  13  14
ATOM     14  C   LIG d   1       6.742  -1.934  -4.419  0.00  0.00     0.115 C 
ATOM     15  H   LIG d   1       7.610  -2.332  -3.894  0.00  0.00     0.075 H 
ATOM     16  H   LIG d   1       7.072  -1.352  -5.279  0.00  0.00     0.075 H 
BRANCH  14  17
ATOM     17  C   LIG d   1       5.955  -1.049  -3.487  0.00  0.00    -0.007 A 
ATOM     18  C   LIG d   1       6.203   0.310  -3.448  0.00  0.00    -0.044 A 
ATOM     19  C   LIG d   1       5.480   1.122  -2.593  0.00  0.00    -0.059 A 
ATOM     20  C   LIG d   1       4.509   0.574  -1.778  0.00  0.00    -0.061 A 
ATOM     21  H   LIG d   1       5.675   2.184  -2.564  0.00  0.00     0.062 H 
ATOM     22  C   LIG d   1       4.260  -0.785  -1.815  0.00  0.00    -0.061 A 
ATOM     23  H   LIG d   1       3.944   1.207  -1.110  0.00  0.00     0.062 H 
ATOM     24  C   LIG d   1       4.979  -1.596  -2.673  0.00  0.00    -0.055 A 
ATOM     25  H   LIG d   1       3.501  -1.213  -1.178  0.00  0.00     0.062 H 
ATOM     26  H   LIG d   1       4.781  -2.657  -2.707  0.00  0.00     0.062 H 
BRANCH  18  27
ATOM     27  C   LIG d   1       7.262   0.907  -4.339  0.00  0.00    -0.039 C 
ATOM     28  H   LIG d   1       7.634   0.143  -5.022  0.00  0.00     0.028 H 
ATOM     29  H   LIG d   1       6.834   1.729  -4.912  0.00  0.00     0.028 H 
ATOM     30  H   LIG d   1       8.084   1.279  -3.728  0.00  0.00     0.028 H 
ENDBRANCH  18  27
ENDBRANCH  14  17
ENDBRANCH  13  14
ENDBRANCH   7  13
BRANCH   1  31
ATOM     31  C   LIG d   1       5.761   0.654  -9.149  0.00  0.00     0.343 C 
ATOM     32  O   LIG d   1       6.827   0.763  -9.721  0.00  0.00    -0.245 OA
BRANCH  31  33
ATOM     33  O   LIG d   1       5.236   1.707  -8.490  0.00  0.00    -0.461 OA
BRANCH  33  34
ATOM     34  C   LIG d   1       4.246   2.499  -9.198  0.00  0.00     0.090 C 
ATOM     35  H   LIG d   1       4.448   3.559  -9.039  0.00  0.00     0.070 H 
ATOM     36  H   LIG d   1       4.294   2.275 -10.263  0.00  0.00     0.070 H 
BRANCH  34  37
ATOM     37  C   LIG d   1       2.850   2.162  -8.668  0.00  0.00    -0.031 C 
ATOM     38  H   LIG d   1       2.409   1.377  -9.283  0.00  0.00     0.026 H 
ATOM     39  H   LIG d   1       2.926   1.816  -7.637  0.00  0.00     0.026 H 
ATOM     40  H   LIG d   1       2.222   3.051  -8.707  0.00  0.00     0.026 H 
ENDBRANCH  34  37
ENDBRANCH  33  34
ENDBRANCH  31  33
ENDBRANCH   1  31
BRANCH   2  41
ATOM     41  C   LIG d   1       3.987  -0.404 -11.483  0.00  0.00    -0.005 C 
ATOM     42  H   LIG d   1       2.929  -0.153 -11.543  0.00  0.00     0.031 H 
ATOM     43  H   LIG d   1       4.582   0.508 -11.532  0.00  0.00     0.031 H 
ATOM     44  H   LIG d   1       4.254  -1.056 -12.315  0.00  0.00     0.031 H 
ENDBRANCH   2  41
TORSDOF 9
ENDMDL
MODEL 9
REMARK VINA RESULT:      -5.5      1.935      6.398
REMARK  9 active torsions:
REMARK  status: ('A' for Active; 'I' for Inactive)
REMARK    1  A    between atoms: C_1  and  C_2 
REMARK    2  A    between atoms: C_2  and  O_3 
REMARK    3  A    between atoms: O_3  and  C_4 
REMARK    4  A    between atoms: C_4  and  C_6 
REMARK    5  A    between atoms: C_7  and  C_24 
REMARK    6  A    between atoms: C_12  and  O_15 
REMARK    7  A    between atoms: O_15  and  C_16 
REMARK    8  A    between atoms: C_16  and  C_17 
REMARK    9  A    between atoms: C_22  and  C_23 
ROOT
ATOM      1  C   LIG d   1       4.055  -0.839  -4.993  0.00  0.00     0.107 A 
ATOM      2  C   LIG d   1       4.378  -1.985  -4.332  0.00  0.00     0.117 A 
ATOM      3  O   LIG d   1       5.118  -2.771  -5.121  0.00  0.00    -0.459 OA
ATOM      4  C   LIG d   1       5.334  -2.197  -6.324  0.00  0.00     0.136 A 
ATOM      5  C   LIG d   1       4.684  -0.954  -6.323  0.00  0.00     0.038 A 
ATOM      6  C   LIG d   1       4.732  -0.137  -7.447  0.00  0.00    -0.008 A 
ATOM      7  C   LIG d   1       5.435  -0.552  -8.564  0.00  0.00     0.122 A 
ATOM      8  C   LIG d   1       6.084  -1.782  -8.562  0.00  0.00    -0.016 A 
ATOM      9  C   LIG d   1       6.035  -2.599  -7.454  0.00  0.00    -0.015 A 
ATOM     10  H   LIG d   1       4.228   0.818  -7.447  0.00  0.00     0.066 H 
ATOM     11  H   LIG d   1       6.631  -2.100  -9.438  0.00  0.00     0.066 H 
ATOM     12  H   LIG d   1       6.543  -3.552  -7.463  0.00  0.00     0.066 H 
ENDROOT
BRANCH   7  13
ATOM     13  O   LIG d   1       5.493   0.244  -9.665  0.00  0.00    -0.487 OA
BRANCH  13  14
ATOM     14  C   LIG d   1       4.340   1.038  -9.953  0.00  0.00     0.115 C 
ATOM     15  H   LIG d   1       4.000   1.528  -9.041  0.00  0.00     0.075 H 
ATOM     16  H   LIG d   1       4.595   1.792 -10.698  0.00  0.00     0.075 H 
BRANCH  14  17
ATOM     17  C   LIG d   1       3.243   0.155 -10.487  0.00  0.00    -0.007 A 
ATOM     18  C   LIG d   1       3.379  -0.448 -11.724  0.00  0.00    -0.044 A 
ATOM     19  C   LIG d   1       2.372  -1.259 -12.214  0.00  0.00    -0.059 A 
ATOM     20  C   LIG d   1       1.229  -1.468 -11.466  0.00  0.00    -0.061 A 
ATOM     21  H   LIG d   1       2.479  -1.729 -13.180  0.00  0.00     0.062 H 
ATOM     22  C   LIG d   1       1.092  -0.866 -10.229  0.00  0.00    -0.061 A 
ATOM     23  H   LIG d   1       0.443  -2.102 -11.848  0.00  0.00     0.062 H 
ATOM     24  C   LIG d   1       2.100  -0.060  -9.737  0.00  0.00    -0.055 A 
ATOM     25  H   LIG d   1       0.199  -1.030  -9.645  0.00  0.00     0.062 H 
ATOM     26  H   LIG d   1       1.996   0.407  -8.769  0.00  0.00     0.062 H 
BRANCH  18  27
ATOM     27  C   LIG d   1       4.626  -0.219 -12.539  0.00  0.00    -0.039 C 
ATOM     28  H   LIG d   1       4.569  -0.799 -13.461  0.00  0.00     0.028 H 
ATOM     29  H   LIG d   1       4.712   0.841 -12.782  0.00  0.00     0.028 H 
ATOM     30  H   LIG d   1       5.498  -0.532 -11.965  0.00  0.00     0.028 H 
ENDBRANCH  18  27
ENDBRANCH  14  17
ENDBRANCH  13  14
ENDBRANCH   7  13
BRANCH   1  31
ATOM     31  C   LIG d   1       3.247   0.279  -4.487  0.00  0.00     0.343 C 
ATOM     32  O   LIG d   1       2.043   0.285  -4.657  0.00  0.00    -0.245 OA
BRANCH  31  33
ATOM     33  O   LIG d   1       3.841   1.299  -3.835  0.00  0.00    -0.461 OA
BRANCH  33  34
ATOM     34  C   LIG d   1       3.543   1.438  -2.421  0.00  0.00     0.090 C 
ATOM     35  H   LIG d   1       3.403   2.493  -2.182  0.00  0.00     0.070 H 
ATOM     36  H   LIG d   1       2.633   0.887  -2.184  0.00  0.00     0.070 H 
BRANCH  34  37
ATOM     37  C   LIG d   1       4.706   0.879  -1.597  0.00  0.00    -0.031 C 
ATOM     38  H   LIG d   1       5.586   0.781  -2.233  0.00  0.00     0.026 H 
ATOM     39  H   LIG d   1       4.927   1.558  -0.773  0.00  0.00     0.026 H 
ATOM     40  H   LIG d   1       4.434  -0.098  -1.200  0.00  0.00     0.026 H 
ENDBRANCH  34  37
ENDBRANCH  33  34
ENDBRANCH  31  33
ENDBRANCH   1  31
BRANCH   2  41
ATOM     41  C   LIG d   1       3.954  -2.323  -2.925  0.00  0.00    -0.005 C 
ATOM     42  H   LIG d   1       4.462  -3.231  -2.602  0.00  0.00     0.031 H 
ATOM     43  H   LIG d   1       4.219  -1.501  -2.260  0.00  0.00     0.031 H 
ATOM     44  H   LIG d   1       2.876  -2.479  -2.898  0.00  0.00     0.031 H 
ENDBRANCH   2  41
TORSDOF 9
ENDMDL
MODEL 10
REMARK VINA RESULT:      -5.5      3.997      6.560
REMARK  9 active torsions:
REMARK  status: ('A' for Active; 'I' for Inactive)
REMARK    1  A    between atoms: C_1  and  C_2 
REMARK    2  A    between atoms: C_2  and  O_3 
REMARK    3  A    between atoms: O_3  and  C_4 
REMARK    4  A    between atoms: C_4  and  C_6 
REMARK    5  A    between atoms: C_7  and  C_24 
REMARK    6  A    between atoms: C_12  and  O_15 
REMARK    7  A    between atoms: O_15  and  C_16 
REMARK    8  A    between atoms: C_16  and  C_17 
REMARK    9  A    between atoms: C_22  and  C_23 
ROOT
ATOM      1  C   LIG d   1       4.666  -7.589  -6.518  0.00  0.00     0.107 A 
ATOM      2  C   LIG d   1       4.348  -7.857  -7.814  0.00  0.00     0.117 A 
ATOM      3  O   LIG d   1       4.108  -6.715  -8.468  0.00  0.00    -0.459 OA
ATOM      4  C   LIG d   1       4.263  -5.644  -7.660  0.00  0.00     0.136 A 
ATOM      5  C   LIG d   1       4.621  -6.119  -6.390  0.00  0.00     0.038 A 
ATOM      6  C   LIG d   1       4.841  -5.229  -5.345  0.00  0.00    -0.008 A 
ATOM      7  C   LIG d   1       4.716  -3.869  -5.567  0.00  0.00     0.122 A 
ATOM      8  C   LIG d   1       4.367  -3.398  -6.829  0.00  0.00    -0.016 A 
ATOM      9  C   LIG d   1       4.142  -4.276  -7.867  0.00  0.00    -0.015 A 
ATOM     10  H   LIG d   1       5.111  -5.596  -4.366  0.00  0.00     0.066 H 
ATOM     11  H   LIG d   1       4.272  -2.335  -6.996  0.00  0.00     0.066 H 
ATOM     12  H   LIG d   1       3.871  -3.899  -8.842  0.00  0.00     0.066 H 
ENDROOT
BRANCH   7  13
ATOM     13  O   LIG d   1       4.936  -2.991  -4.552  0.00  0.00    -0.487 OA
BRANCH  13  14
ATOM     14  C   LIG d   1       5.357  -1.675  -4.913  0.00  0.00     0.115 C 
ATOM     15  H   LIG d   1       6.444  -1.614  -4.862  0.00  0.00     0.075 H 
ATOM     16  H   LIG d   1       5.028  -1.453  -5.928  0.00  0.00     0.075 H 
BRANCH  14  17
ATOM     17  C   LIG d   1       4.753  -0.676  -3.960  0.00  0.00    -0.007 A 
ATOM     18  C   LIG d   1       3.713   0.135  -4.374  0.00  0.00    -0.044 A 
ATOM     19  C   LIG d   1       3.159   1.051  -3.499  0.00  0.00    -0.059 A 
ATOM     20  C   LIG d   1       3.645   1.155  -2.209  0.00  0.00    -0.061 A 
ATOM     21  H   LIG d   1       2.347   1.684  -3.823  0.00  0.00     0.062 H 
ATOM     22  C   LIG d   1       4.684   0.345  -1.795  0.00  0.00    -0.061 A 
ATOM     23  H   LIG d   1       3.212   1.870  -1.525  0.00  0.00     0.062 H 
ATOM     24  C   LIG d   1       5.235  -0.574  -2.667  0.00  0.00    -0.055 A 
ATOM     25  H   LIG d   1       5.064   0.426  -0.787  0.00  0.00     0.062 H 
ATOM     26  H   LIG d   1       6.045  -1.211  -2.342  0.00  0.00     0.062 H 
BRANCH  18  27
ATOM     27  C   LIG d   1       3.184   0.021  -5.780  0.00  0.00    -0.039 C 
ATOM     28  H   LIG d   1       2.124  -0.236  -5.749  0.00  0.00     0.028 H 
ATOM     29  H   LIG d   1       3.312   0.973  -6.295  0.00  0.00     0.028 H 
ATOM     30  H   LIG d   1       3.731  -0.757  -6.313  0.00  0.00     0.028 H 
ENDBRANCH  18  27
ENDBRANCH  14  17
ENDBRANCH  13  14
ENDBRANCH   7  13
BRANCH   1  31
ATOM     31  C   LIG d   1       4.988  -8.561  -5.463  0.00  0.00     0.343 C 
ATOM     32  O   LIG d   1       6.109  -8.604  -4.997  0.00  0.00    -0.245 OA
BRANCH  31  33
ATOM     33  O   LIG d   1       4.037  -9.406  -5.014  0.00  0.00    -0.461 OA
BRANCH  33  34
ATOM     34  C   LIG d   1       4.171  -9.879  -3.648  0.00  0.00     0.090 C 
ATOM     35  H   LIG d   1       5.181 -10.260  -3.492  0.00  0.00     0.070 H 
ATOM     36  H   LIG d   1       3.982  -9.057  -2.957  0.00  0.00     0.070 H 
BRANCH  34  37
ATOM     37  C   LIG d   1       3.159 -11.000  -3.395  0.00  0.00    -0.031 C 
ATOM     38  H   LIG d   1       2.676 -11.271  -4.334  0.00  0.00     0.026 H 
ATOM     39  H   LIG d   1       3.674 -11.869  -2.987  0.00  0.00     0.026 H 
ATOM     40  H   LIG d   1       2.407 -10.657  -2.685  0.00  0.00     0.026 H 
ENDBRANCH  34  37
ENDBRANCH  33  34
ENDBRANCH  31  33
ENDBRANCH   1  31
BRANCH   2  41
ATOM     41  C   LIG d   1       4.266  -9.235  -8.419  0.00  0.00    -0.005 C 
ATOM     42  H   LIG d   1       3.765  -9.907  -7.724  0.00  0.00     0.031 H 
ATOM     43  H   LIG d   1       3.703  -9.189  -9.351  0.00  0.00     0.031 H 
ATOM     44  H   LIG d   1       5.272  -9.604  -8.621  0.00  0.00     0.031 H 
ENDBRANCH   2  41
TORSDOF 9
ENDMDL
