MODEL 1
REMARK VINA RESULT:      -8.0      0.000      0.000
REMARK  7 active torsions:
REMARK  status: ('A' for Active; 'I' for Inactive)
REMARK    1  A    between atoms: N_11  and  C_12 
REMARK       I    between atoms: N_15  and  C_18 
REMARK    2  A    between atoms: C_18  and  C_20 
REMARK    3  A    between atoms: C_20  and  C_21 
REMARK    4  A    between atoms: C_27  and  C_29 
REMARK    5  A    between atoms: C_29  and  C_30 
REMARK    6  A    between atoms: C_32  and  C_35 
REMARK    7  A    between atoms: C_35  and  N_36 
ROOT
ATOM      1  C   LIG d   1       8.616   3.345  -8.495  0.00  0.00    -0.020 C 
ATOM      2  H   LIG d   1       7.666   3.792  -8.165  0.00  0.00     0.031 H 
ATOM      3  C   LIG d   1       9.189   4.153  -9.662  0.00  0.00    -0.009 C 
ATOM      4  C   LIG d   1      10.535   3.555 -10.078  0.00  0.00    -0.033 C 
ATOM      5  N   LIG d   1      11.459   3.587  -8.938  0.00  0.00     0.227 N 
ATOM      6  C   LIG d   1      10.953   2.777  -7.822  0.00  0.00    -0.030 C 
ATOM      7  C   LIG d   1       9.619   3.353  -7.339  0.00  0.00     0.008 C 
ATOM      8  H   LIG d   1       9.768   4.383  -6.985  0.00  0.00     0.036 H 
ATOM      9  H   LIG d   1       8.490   4.116 -10.512  0.00  0.00     0.032 H 
ATOM     10  H   LIG d   1       9.330   5.199  -9.350  0.00  0.00     0.032 H 
ATOM     11  H   LIG d   1      10.388   2.515 -10.404  0.00  0.00     0.081 H 
ATOM     12  H   LIG d   1      10.956   4.143 -10.908  0.00  0.00     0.081 H 
ATOM     13  H   LIG d   1      12.436   3.185  -9.247  0.00  0.00     0.201 HD
ATOM     14  H   LIG d   1      10.804   1.740  -8.158  0.00  0.00     0.082 H 
ATOM     15  H   LIG d   1      11.680   2.796  -6.997  0.00  0.00     0.082 H 
ATOM     16  H   LIG d   1      11.581   4.624  -8.593  0.00  0.00     0.201 HD
ENDROOT
BRANCH   1  17
ATOM     17  C   LIG d   1       8.364   1.903  -8.944  0.00  0.00     0.028 C 
ATOM     18  H   LIG d   1       8.857   1.211  -8.246  0.00  0.00     0.036 H 
ATOM     19  H   LIG d   1       8.772   1.758  -9.955  0.00  0.00     0.036 H 
BRANCH  17  20
ATOM     20  C   LIG d   1       6.881   1.633  -8.956  0.00  0.00     0.216 C 
ATOM     21  N   LIG d   1       6.404   0.475  -8.460  0.00  0.00    -0.301 N 
ATOM     22  C   LIG d   1       4.962   0.196  -8.465  0.00  0.00     0.017 C 
ATOM     23  C   LIG d   1       7.318  -0.537  -7.911  0.00  0.00     0.017 C 
ATOM     24  C   LIG d   1       4.525  -0.169  -7.041  0.00  0.00    -0.016 C 
ATOM     25  H   LIG d   1       4.746  -0.643  -9.141  0.00  0.00     0.046 H 
ATOM     26  H   LIG d   1       4.410   1.088  -8.799  0.00  0.00     0.046 H 
ATOM     27  C   LIG d   1       5.387  -1.326  -6.531  0.00  0.00     0.042 C 
ATOM     28  H   LIG d   1       3.469  -0.474  -7.048  0.00  0.00     0.030 H 
ATOM     29  H   LIG d   1       4.652   0.702  -6.382  0.00  0.00     0.030 H 
ATOM     30  C   LIG d   1       6.854  -0.892  -6.489  0.00  0.00    -0.016 C 
ATOM     31  H   LIG d   1       5.263  -2.212  -7.169  0.00  0.00     0.053 H 
ATOM     32  H   LIG d   1       6.958  -0.013  -5.836  0.00  0.00     0.030 H 
ATOM     33  H   LIG d   1       7.469  -1.715  -6.096  0.00  0.00     0.030 H 
ATOM     34  H   LIG d   1       7.296  -1.434  -8.547  0.00  0.00     0.046 H 
ATOM     35  H   LIG d   1       8.339  -0.131  -7.882  0.00  0.00     0.046 H 
ATOM     36  O   LIG d   1       6.119   2.458  -9.412  0.00  0.00    -0.276 OA
BRANCH  27  37
ATOM     37  N   LIG d   1       4.951  -1.699  -5.183  0.00  0.00    -0.289 N 
ATOM     38  C   LIG d   1       4.911  -0.854  -4.076  0.00  0.00     0.070 A 
ATOM     39  C   LIG d   1       5.231   0.481  -3.886  0.00  0.00    -0.036 A 
ATOM     40  C   LIG d   1       4.437  -1.615  -3.005  0.00  0.00     0.067 A 
ATOM     41  C   LIG d   1       5.081   1.054  -2.638  0.00  0.00    -0.060 A 
ATOM     42  H   LIG d   1       5.598   1.073  -4.712  0.00  0.00     0.064 H 
ATOM     43  C   LIG d   1       4.612   0.300  -1.576  0.00  0.00    -0.060 A 
ATOM     44  H   LIG d   1       5.331   2.094  -2.490  0.00  0.00     0.062 H 
ATOM     45  C   LIG d   1       4.289  -1.031  -1.756  0.00  0.00    -0.036 A 
ATOM     46  H   LIG d   1       4.496   0.755  -0.603  0.00  0.00     0.062 H 
ATOM     47  H   LIG d   1       3.924  -1.616  -0.925  0.00  0.00     0.064 H 
ATOM     48  N   LIG d   1       4.205  -2.897  -3.493  0.00  0.00    -0.306 N 
ATOM     49  H   LIG d   1       3.827  -3.683  -2.821  0.00  0.00     0.170 HD
ATOM     50  C   LIG d   1       4.516  -2.916  -4.803  0.00  0.00     0.328 A 
ATOM     51  O   LIG d   1       4.422  -3.885  -5.533  0.00  0.00    -0.246 OA
ENDBRANCH  27  37
ENDBRANCH  17  20
ENDBRANCH   1  17
BRANCH   7  52
ATOM     52  C   LIG d   1       9.081   2.497  -6.190  0.00  0.00     0.001 C 
ATOM     53  H   LIG d   1       8.009   2.307  -6.346  0.00  0.00     0.033 H 
ATOM     54  H   LIG d   1       9.623   1.540  -6.160  0.00  0.00     0.033 H 
BRANCH  52  55
ATOM     55  C   LIG d   1       9.277   3.226  -4.886  0.00  0.00     0.084 A 
ATOM     56  N   LIG d   1       9.315   2.698  -3.696  0.00  0.00    -0.083 NA
ATOM     57  O   LIG d   1       9.486   3.537  -2.842  0.00  0.00    -0.358 OA
ATOM     58  C   LIG d   1       9.586   4.765  -3.370  0.00  0.00     0.151 A 
ATOM     59  C   LIG d   1       9.455   4.617  -4.710  0.00  0.00     0.005 A 
ATOM     60  H   LIG d   1       9.481   5.385  -5.469  0.00  0.00     0.067 H 
BRANCH  58  61
ATOM     61  C   LIG d   1       9.800   6.054  -2.621  0.00  0.00     0.060 C 
ATOM     62  H   LIG d   1      10.261   6.795  -3.292  0.00  0.00     0.051 H 
ATOM     63  H   LIG d   1       8.833   6.436  -2.264  0.00  0.00     0.051 H 
BRANCH  61  64
ATOM     64  N   LIG d   1      10.686   5.814  -1.474  0.00  0.00    -0.291 N 
ATOM     65  C   LIG d   1      12.099   5.873  -1.877  0.00  0.00     0.023 C 
ATOM     66  C   LIG d   1      12.983   5.559  -0.667  0.00  0.00     0.060 C 
ATOM     67  H   LIG d   1      12.284   5.135  -2.672  0.00  0.00     0.045 H 
ATOM     68  H   LIG d   1      12.331   6.881  -2.252  0.00  0.00     0.045 H 
ATOM     69  O   LIG d   1      12.682   6.476   0.387  0.00  0.00    -0.377 OA
ATOM     70  H   LIG d   1      14.042   5.658  -0.949  0.00  0.00     0.057 H 
ATOM     71  H   LIG d   1      12.788   4.530  -0.327  0.00  0.00     0.057 H 
ATOM     72  C   LIG d   1      11.315   6.444   0.805  0.00  0.00     0.060 C 
ATOM     73  C   LIG d   1      10.414   6.768  -0.389  0.00  0.00     0.023 C 
ATOM     74  H   LIG d   1      11.155   7.190   1.598  0.00  0.00     0.057 H 
ATOM     75  H   LIG d   1      11.069   5.442   1.189  0.00  0.00     0.057 H 
ATOM     76  H   LIG d   1      10.619   7.790  -0.740  0.00  0.00     0.045 H 
ATOM     77  H   LIG d   1       9.359   6.689  -0.087  0.00  0.00     0.045 H 
ENDBRANCH  61  64
ENDBRANCH  58  61
ENDBRANCH  52  55
ENDBRANCH   7  52
TORSDOF 7
ENDMDL
MODEL 2
REMARK VINA RESULT:      -7.8      5.504      7.235
REMARK  7 active torsions:
REMARK  status: ('A' for Active; 'I' for Inactive)
REMARK    1  A    between atoms: N_11  and  C_12 
REMARK       I    between atoms: N_15  and  C_18 
REMARK    2  A    between atoms: C_18  and  C_20 
REMARK    3  A    between atoms: C_20  and  C_21 
REMARK    4  A    between atoms: C_27  and  C_29 
REMARK    5  A    between atoms: C_29  and  C_30 
REMARK    6  A    between atoms: C_32  and  C_35 
REMARK    7  A    between atoms: C_35  and  N_36 
ROOT
ATOM      1  C   LIG d   1       3.277  -1.275 -10.656  0.00  0.00    -0.020 C 
ATOM      2  H   LIG d   1       2.563  -1.230  -9.822  0.00  0.00     0.031 H 
ATOM      3  C   LIG d   1       2.519  -1.263 -11.986  0.00  0.00    -0.009 C 
ATOM      4  C   LIG d   1       3.523  -1.272 -13.141  0.00  0.00    -0.033 C 
ATOM      5  N   LIG d   1       4.394  -0.094 -13.043  0.00  0.00     0.227 N 
ATOM      6  C   LIG d   1       5.169  -0.109 -11.795  0.00  0.00    -0.030 C 
ATOM      7  C   LIG d   1       4.214  -0.065 -10.601  0.00  0.00     0.008 C 
ATOM      8  H   LIG d   1       3.622   0.861 -10.635  0.00  0.00     0.036 H 
ATOM      9  H   LIG d   1       1.875  -2.153 -12.050  0.00  0.00     0.032 H 
ATOM     10  H   LIG d   1       1.897  -0.356 -12.045  0.00  0.00     0.032 H 
ATOM     11  H   LIG d   1       4.133  -2.185 -13.088  0.00  0.00     0.081 H 
ATOM     12  H   LIG d   1       2.981  -1.248 -14.098  0.00  0.00     0.081 H 
ATOM     13  H   LIG d   1       5.095  -0.086 -13.891  0.00  0.00     0.201 HD
ATOM     14  H   LIG d   1       5.772  -1.029 -11.749  0.00  0.00     0.082 H 
ATOM     15  H   LIG d   1       5.833   0.767 -11.766  0.00  0.00     0.082 H 
ATOM     16  H   LIG d   1       3.781   0.819 -13.064  0.00  0.00     0.201 HD
ENDROOT
BRANCH   1  17
ATOM     17  C   LIG d   1       4.098  -2.563 -10.547  0.00  0.00     0.028 C 
ATOM     18  H   LIG d   1       5.165  -2.310 -10.461  0.00  0.00     0.036 H 
ATOM     19  H   LIG d   1       3.938  -3.177 -11.445  0.00  0.00     0.036 H 
BRANCH  17  20
ATOM     20  C   LIG d   1       3.664  -3.333  -9.326  0.00  0.00     0.216 C 
ATOM     21  N   LIG d   1       4.587  -3.908  -8.529  0.00  0.00    -0.301 N 
ATOM     22  C   LIG d   1       4.180  -4.662  -7.336  0.00  0.00     0.017 C 
ATOM     23  C   LIG d   1       6.018  -3.798  -8.842  0.00  0.00     0.017 C 
ATOM     24  C   LIG d   1       4.928  -4.103  -6.121  0.00  0.00    -0.016 C 
ATOM     25  H   LIG d   1       4.429  -5.725  -7.463  0.00  0.00     0.046 H 
ATOM     26  H   LIG d   1       3.095  -4.555  -7.179  0.00  0.00     0.046 H 
ATOM     27  C   LIG d   1       6.433  -4.130  -6.398  0.00  0.00     0.042 C 
ATOM     28  H   LIG d   1       4.707  -4.720  -5.238  0.00  0.00     0.030 H 
ATOM     29  H   LIG d   1       4.608  -3.067  -5.935  0.00  0.00     0.030 H 
ATOM     30  C   LIG d   1       6.747  -3.246  -7.607  0.00  0.00    -0.016 C 
ATOM     31  H   LIG d   1       6.776  -5.160  -6.573  0.00  0.00     0.053 H 
ATOM     32  H   LIG d   1       6.407  -2.218  -7.407  0.00  0.00     0.030 H 
ATOM     33  H   LIG d   1       7.832  -3.244  -7.789  0.00  0.00     0.030 H 
ATOM     34  H   LIG d   1       6.414  -4.792  -9.097  0.00  0.00     0.046 H 
ATOM     35  H   LIG d   1       6.156  -3.118  -9.695  0.00  0.00     0.046 H 
ATOM     36  O   LIG d   1       2.486  -3.434  -9.061  0.00  0.00    -0.276 OA
BRANCH  27  37
ATOM     37  N   LIG d   1       7.153  -3.627  -5.226  0.00  0.00    -0.289 N 
ATOM     38  C   LIG d   1       8.078  -4.344  -4.469  0.00  0.00     0.070 A 
ATOM     39  C   LIG d   1       8.580  -5.633  -4.552  0.00  0.00    -0.036 A 
ATOM     40  C   LIG d   1       8.516  -3.489  -3.455  0.00  0.00     0.067 A 
ATOM     41  C   LIG d   1       9.513  -6.068  -3.630  0.00  0.00    -0.060 A 
ATOM     42  H   LIG d   1       8.244  -6.297  -5.335  0.00  0.00     0.064 H 
ATOM     43  C   LIG d   1       9.948  -5.222  -2.624  0.00  0.00    -0.060 A 
ATOM     44  H   LIG d   1       9.905  -7.072  -3.694  0.00  0.00     0.062 H 
ATOM     45  C   LIG d   1       9.454  -3.935  -2.535  0.00  0.00    -0.036 A 
ATOM     46  H   LIG d   1      10.678  -5.568  -1.908  0.00  0.00     0.062 H 
ATOM     47  H   LIG d   1       9.795  -3.278  -1.749  0.00  0.00     0.064 H 
ATOM     48  N   LIG d   1       7.846  -2.282  -3.627  0.00  0.00    -0.306 N 
ATOM     49  H   LIG d   1       8.028  -1.447  -2.934  0.00  0.00     0.170 HD
ATOM     50  C   LIG d   1       7.040  -2.393  -4.700  0.00  0.00     0.328 A 
ATOM     51  O   LIG d   1       6.317  -1.513  -5.128  0.00  0.00    -0.246 OA
ENDBRANCH  27  37
ENDBRANCH  17  20
ENDBRANCH   1  17
BRANCH   7  52
ATOM     52  C   LIG d   1       5.020  -0.103  -9.301  0.00  0.00     0.001 C 
ATOM     53  H   LIG d   1       5.356  -1.133  -9.108  0.00  0.00     0.033 H 
ATOM     54  H   LIG d   1       5.895   0.558  -9.392  0.00  0.00     0.033 H 
BRANCH  52  55
ATOM     55  C   LIG d   1       4.155   0.364  -8.159  0.00  0.00     0.084 A 
ATOM     56  N   LIG d   1       3.565   1.519  -8.049  0.00  0.00    -0.083 NA
ATOM     57  O   LIG d   1       2.938   1.603  -7.019  0.00  0.00    -0.358 OA
ATOM     58  C   LIG d   1       3.033   0.482  -6.291  0.00  0.00     0.151 A 
ATOM     59  C   LIG d   1       3.823  -0.366  -6.994  0.00  0.00     0.005 A 
ATOM     60  H   LIG d   1       4.128  -1.367  -6.726  0.00  0.00     0.067 H 
BRANCH  58  61
ATOM     61  C   LIG d   1       2.392   0.217  -4.953  0.00  0.00     0.060 C 
ATOM     62  H   LIG d   1       1.811   1.098  -4.645  0.00  0.00     0.051 H 
ATOM     63  H   LIG d   1       1.724  -0.653  -5.033  0.00  0.00     0.051 H 
BRANCH  61  64
ATOM     64  N   LIG d   1       3.435  -0.057  -3.955  0.00  0.00    -0.291 N 
ATOM     65  C   LIG d   1       3.627   1.097  -3.064  0.00  0.00     0.023 C 
ATOM     66  C   LIG d   1       4.761   0.792  -2.081  0.00  0.00     0.060 C 
ATOM     67  H   LIG d   1       3.885   1.983  -3.662  0.00  0.00     0.045 H 
ATOM     68  H   LIG d   1       2.698   1.289  -2.508  0.00  0.00     0.045 H 
ATOM     69  O   LIG d   1       4.451  -0.403  -1.361  0.00  0.00    -0.377 OA
ATOM     70  H   LIG d   1       4.870   1.628  -1.375  0.00  0.00     0.057 H 
ATOM     71  H   LIG d   1       5.702   0.654  -2.635  0.00  0.00     0.057 H 
ATOM     72  C   LIG d   1       4.259  -1.546  -2.197  0.00  0.00     0.060 C 
ATOM     73  C   LIG d   1       3.120  -1.266  -3.182  0.00  0.00     0.023 C 
ATOM     74  H   LIG d   1       4.001  -2.418  -1.578  0.00  0.00     0.057 H 
ATOM     75  H   LIG d   1       5.184  -1.755  -2.757  0.00  0.00     0.057 H 
ATOM     76  H   LIG d   1       2.183  -1.112  -2.627  0.00  0.00     0.045 H 
ATOM     77  H   LIG d   1       3.006  -2.120  -3.866  0.00  0.00     0.045 H 
ENDBRANCH  61  64
ENDBRANCH  58  61
ENDBRANCH  52  55
ENDBRANCH   7  52
TORSDOF 7
ENDMDL
MODEL 3
REMARK VINA RESULT:      -7.7      7.181     11.770
REMARK  7 active torsions:
REMARK  status: ('A' for Active; 'I' for Inactive)
REMARK    1  A    between atoms: N_11  and  C_12 
REMARK       I    between atoms: N_15  and  C_18 
REMARK    2  A    between atoms: C_18  and  C_20 
REMARK    3  A    between atoms: C_20  and  C_21 
REMARK    4  A    between atoms: C_27  and  C_29 
REMARK    5  A    between atoms: C_29  and  C_30 
REMARK    6  A    between atoms: C_32  and  C_35 
REMARK    7  A    between atoms: C_35  and  N_36 
ROOT
ATOM      1  C   LIG d   1       6.010  -9.972  -4.786  0.00  0.00    -0.020 C 
ATOM      2  H   LIG d   1       7.077  -9.857  -4.546  0.00  0.00     0.031 H 
ATOM      3  C   LIG d   1       5.857 -10.754  -6.094  0.00  0.00    -0.009 C 
ATOM      4  C   LIG d   1       4.369 -10.955  -6.392  0.00  0.00    -0.033 C 
ATOM      5  N   LIG d   1       3.742 -11.689  -5.286  0.00  0.00     0.227 N 
ATOM      6  C   LIG d   1       3.834 -10.936  -4.029  0.00  0.00    -0.030 C 
ATOM      7  C   LIG d   1       5.305 -10.735  -3.661  0.00  0.00     0.008 C 
ATOM      8  H   LIG d   1       5.788 -11.713  -3.519  0.00  0.00     0.036 H 
ATOM      9  H   LIG d   1       6.325 -10.190  -6.915  0.00  0.00     0.032 H 
ATOM     10  H   LIG d   1       6.349 -11.733  -5.995  0.00  0.00     0.032 H 
ATOM     11  H   LIG d   1       3.882  -9.975  -6.504  0.00  0.00     0.081 H 
ATOM     12  H   LIG d   1       4.257 -11.529  -7.324  0.00  0.00     0.081 H 
ATOM     13  H   LIG d   1       2.679 -11.860  -5.516  0.00  0.00     0.201 HD
ATOM     14  H   LIG d   1       3.350  -9.955  -4.152  0.00  0.00     0.082 H 
ATOM     15  H   LIG d   1       3.329 -11.496  -3.228  0.00  0.00     0.082 H 
ATOM     16  H   LIG d   1       4.249 -12.657  -5.154  0.00  0.00     0.201 HD
ENDROOT
BRANCH   1  17
ATOM     17  C   LIG d   1       5.376  -8.587  -4.940  0.00  0.00     0.028 C 
ATOM     18  H   LIG d   1       4.778  -8.357  -4.046  0.00  0.00     0.036 H 
ATOM     19  H   LIG d   1       4.727  -8.578  -5.828  0.00  0.00     0.036 H 
BRANCH  17  20
ATOM     20  C   LIG d   1       6.461  -7.554  -5.099  0.00  0.00     0.216 C 
ATOM     21  N   LIG d   1       6.230  -6.439  -5.821  0.00  0.00    -0.301 N 
ATOM     22  C   LIG d   1       7.277  -5.423  -5.985  0.00  0.00     0.017 C 
ATOM     23  C   LIG d   1       4.926  -6.223  -6.464  0.00  0.00     0.017 C 
ATOM     24  C   LIG d   1       6.715  -4.062  -5.558  0.00  0.00    -0.016 C 
ATOM     25  H   LIG d   1       7.589  -5.376  -7.038  0.00  0.00     0.046 H 
ATOM     26  H   LIG d   1       8.144  -5.675  -5.356  0.00  0.00     0.046 H 
ATOM     27  C   LIG d   1       5.433  -3.776  -6.343  0.00  0.00     0.042 C 
ATOM     28  H   LIG d   1       7.455  -3.277  -5.767  0.00  0.00     0.030 H 
ATOM     29  H   LIG d   1       6.490  -4.078  -4.481  0.00  0.00     0.030 H 
ATOM     30  C   LIG d   1       4.389  -4.850  -6.028  0.00  0.00    -0.016 C 
ATOM     31  H   LIG d   1       5.639  -3.742  -7.422  0.00  0.00     0.053 H 
ATOM     32  H   LIG d   1       4.188  -4.860  -4.946  0.00  0.00     0.030 H 
ATOM     33  H   LIG d   1       3.459  -4.629  -6.571  0.00  0.00     0.030 H 
ATOM     34  H   LIG d   1       5.049  -6.246  -7.557  0.00  0.00     0.046 H 
ATOM     35  H   LIG d   1       4.229  -7.014  -6.155  0.00  0.00     0.046 H 
ATOM     36  O   LIG d   1       7.542  -7.724  -4.577  0.00  0.00    -0.276 OA
BRANCH  27  37
ATOM     37  N   LIG d   1       4.910  -2.462  -5.961  0.00  0.00    -0.289 N 
ATOM     38  C   LIG d   1       4.479  -2.096  -4.688  0.00  0.00     0.070 A 
ATOM     39  C   LIG d   1       4.405  -2.768  -3.478  0.00  0.00    -0.036 A 
ATOM     40  C   LIG d   1       4.064  -0.765  -4.771  0.00  0.00     0.067 A 
ATOM     41  C   LIG d   1       3.919  -2.120  -2.359  0.00  0.00    -0.060 A 
ATOM     42  H   LIG d   1       4.725  -3.798  -3.410  0.00  0.00     0.064 H 
ATOM     43  C   LIG d   1       3.508  -0.801  -2.441  0.00  0.00    -0.060 A 
ATOM     44  H   LIG d   1       3.861  -2.644  -1.417  0.00  0.00     0.062 H 
ATOM     45  C   LIG d   1       3.579  -0.122  -3.642  0.00  0.00    -0.036 A 
ATOM     46  H   LIG d   1       3.130  -0.299  -1.562  0.00  0.00     0.062 H 
ATOM     47  H   LIG d   1       3.257   0.907  -3.701  0.00  0.00     0.064 H 
ATOM     48  N   LIG d   1       4.256  -0.364  -6.090  0.00  0.00    -0.306 N 
ATOM     49  H   LIG d   1       3.992   0.658  -6.399  0.00  0.00     0.170 HD
ATOM     50  C   LIG d   1       4.770  -1.401  -6.778  0.00  0.00     0.328 A 
ATOM     51  O   LIG d   1       5.060  -1.384  -7.959  0.00  0.00    -0.246 OA
ENDBRANCH  27  37
ENDBRANCH  17  20
ENDBRANCH   1  17
BRANCH   7  52
ATOM     52  C   LIG d   1       5.401  -9.931  -2.362  0.00  0.00     0.001 C 
ATOM     53  H   LIG d   1       5.429  -8.857  -2.597  0.00  0.00     0.033 H 
ATOM     54  H   LIG d   1       4.526 -10.147  -1.731  0.00  0.00     0.033 H 
BRANCH  52  55
ATOM     55  C   LIG d   1       6.658 -10.315  -1.625  0.00  0.00     0.084 A 
ATOM     56  N   LIG d   1       6.838 -11.374  -0.889  0.00  0.00    -0.083 NA
ATOM     57  O   LIG d   1       7.954 -11.410  -0.426  0.00  0.00    -0.358 OA
ATOM     58  C   LIG d   1       8.680 -10.350  -0.805  0.00  0.00     0.151 A 
ATOM     59  C   LIG d   1       7.876  -9.597  -1.594  0.00  0.00     0.005 A 
ATOM     60  H   LIG d   1       8.110  -8.664  -2.086  0.00  0.00     0.067 H 
BRANCH  58  61
ATOM     61  C   LIG d   1      10.108 -10.051  -0.428  0.00  0.00     0.060 C 
ATOM     62  H   LIG d   1      10.757 -10.866  -0.780  0.00  0.00     0.051 H 
ATOM     63  H   LIG d   1      10.421  -9.105  -0.894  0.00  0.00     0.051 H 
BRANCH  61  64
ATOM     64  N   LIG d   1      10.215  -9.936   1.033  0.00  0.00    -0.291 N 
ATOM     65  C   LIG d   1      10.806 -11.150   1.615  0.00  0.00     0.023 C 
ATOM     66  C   LIG d   1      10.844 -11.012   3.140  0.00  0.00     0.060 C 
ATOM     67  H   LIG d   1      10.198 -12.024   1.339  0.00  0.00     0.045 H 
ATOM     68  H   LIG d   1      11.829 -11.279   1.232  0.00  0.00     0.045 H 
ATOM     69  O   LIG d   1      11.573  -9.832   3.488  0.00  0.00    -0.377 OA
ATOM     70  H   LIG d   1      11.338 -11.892   3.577  0.00  0.00     0.057 H 
ATOM     71  H   LIG d   1       9.816 -10.937   3.528  0.00  0.00     0.057 H 
ATOM     72  C   LIG d   1      11.024  -8.632   2.939  0.00  0.00     0.060 C 
ATOM     73  C   LIG d   1      10.988  -8.746   1.413  0.00  0.00     0.023 C 
ATOM     74  H   LIG d   1      11.649  -7.774   3.228  0.00  0.00     0.057 H 
ATOM     75  H   LIG d   1      10.001  -8.486   3.320  0.00  0.00     0.057 H 
ATOM     76  H   LIG d   1      12.014  -8.836   1.026  0.00  0.00     0.045 H 
ATOM     77  H   LIG d   1      10.514  -7.849   0.988  0.00  0.00     0.045 H 
ENDBRANCH  61  64
ENDBRANCH  58  61
ENDBRANCH  52  55
ENDBRANCH   7  52
TORSDOF 7
ENDMDL
MODEL 4
REMARK VINA RESULT:      -7.6      4.613      9.340
REMARK  7 active torsions:
REMARK  status: ('A' for Active; 'I' for Inactive)
REMARK    1  A    between atoms: N_11  and  C_12 
REMARK       I    between atoms: N_15  and  C_18 
REMARK    2  A    between atoms: C_18  and  C_20 
REMARK    3  A    between atoms: C_20  and  C_21 
REMARK    4  A    between atoms: C_27  and  C_29 
REMARK    5  A    between atoms: C_29  and  C_30 
REMARK    6  A    between atoms: C_32  and  C_35 
REMARK    7  A    between atoms: C_35  and  N_36 
ROOT
ATOM      1  C   LIG d   1       5.565  -6.189  -6.353  0.00  0.00    -0.020 C 
ATOM      2  H   LIG d   1       5.454  -5.182  -5.927  0.00  0.00     0.031 H 
ATOM      3  C   LIG d   1       4.940  -7.221  -5.410  0.00  0.00    -0.009 C 
ATOM      4  C   LIG d   1       5.053  -8.613  -6.037  0.00  0.00    -0.033 C 
ATOM      5  N   LIG d   1       4.360  -8.625  -7.331  0.00  0.00     0.227 N 
ATOM      6  C   LIG d   1       4.974  -7.677  -8.270  0.00  0.00    -0.030 C 
ATOM      7  C   LIG d   1       4.859  -6.257  -7.710  0.00  0.00     0.008 C 
ATOM      8  H   LIG d   1       3.798  -5.993  -7.588  0.00  0.00     0.036 H 
ATOM      9  H   LIG d   1       5.472  -7.206  -4.446  0.00  0.00     0.032 H 
ATOM     10  H   LIG d   1       3.880  -6.974  -5.247  0.00  0.00     0.032 H 
ATOM     11  H   LIG d   1       6.113  -8.863  -6.185  0.00  0.00     0.081 H 
ATOM     12  H   LIG d   1       4.591  -9.354  -5.367  0.00  0.00     0.081 H 
ATOM     13  H   LIG d   1       4.415  -9.634  -7.766  0.00  0.00     0.201 HD
ATOM     14  H   LIG d   1       6.035  -7.932  -8.408  0.00  0.00     0.082 H 
ATOM     15  H   LIG d   1       4.454  -7.732  -9.238  0.00  0.00     0.082 H 
ATOM     16  H   LIG d   1       3.307  -8.344  -7.187  0.00  0.00     0.201 HD
ENDROOT
BRANCH   1  17
ATOM     17  C   LIG d   1       7.054  -6.498  -6.536  0.00  0.00     0.028 C 
ATOM     18  H   LIG d   1       7.419  -6.009  -7.451  0.00  0.00     0.036 H 
ATOM     19  H   LIG d   1       7.195  -7.585  -6.619  0.00  0.00     0.036 H 
BRANCH  17  20
ATOM     20  C   LIG d   1       7.823  -5.980  -5.348  0.00  0.00     0.216 C 
ATOM     21  N   LIG d   1       8.225  -4.694  -5.314  0.00  0.00    -0.301 N 
ATOM     22  C   LIG d   1       8.975  -4.174  -4.163  0.00  0.00     0.017 C 
ATOM     23  C   LIG d   1       7.927  -3.788  -6.431  0.00  0.00     0.017 C 
ATOM     24  C   LIG d   1       8.262  -2.925  -3.633  0.00  0.00    -0.016 C 
ATOM     25  H   LIG d   1       9.997  -3.911  -4.472  0.00  0.00     0.046 H 
ATOM     26  H   LIG d   1       9.017  -4.936  -3.370  0.00  0.00     0.046 H 
ATOM     27  C   LIG d   1       8.088  -1.921  -4.774  0.00  0.00     0.042 C 
ATOM     28  H   LIG d   1       8.865  -2.470  -2.833  0.00  0.00     0.030 H 
ATOM     29  H   LIG d   1       7.276  -3.205  -3.236  0.00  0.00     0.030 H 
ATOM     30  C   LIG d   1       7.222  -2.541  -5.874  0.00  0.00    -0.016 C 
ATOM     31  H   LIG d   1       9.065  -1.618  -5.176  0.00  0.00     0.053 H 
ATOM     32  H   LIG d   1       6.246  -2.826  -5.454  0.00  0.00     0.030 H 
ATOM     33  H   LIG d   1       7.075  -1.809  -6.681  0.00  0.00     0.030 H 
ATOM     34  H   LIG d   1       8.865  -3.497  -6.927  0.00  0.00     0.046 H 
ATOM     35  H   LIG d   1       7.273  -4.297  -7.153  0.00  0.00     0.046 H 
ATOM     36  O   LIG d   1       8.079  -6.720  -4.422  0.00  0.00    -0.276 OA
BRANCH  27  37
ATOM     37  N   LIG d   1       7.436  -0.712  -4.264  0.00  0.00    -0.289 N 
ATOM     38  C   LIG d   1       6.304  -0.677  -3.454  0.00  0.00     0.070 A 
ATOM     39  C   LIG d   1       5.494  -1.661  -2.908  0.00  0.00    -0.036 A 
ATOM     40  C   LIG d   1       6.026   0.669  -3.207  0.00  0.00     0.067 A 
ATOM     41  C   LIG d   1       4.414  -1.305  -2.123  0.00  0.00    -0.060 A 
ATOM     42  H   LIG d   1       5.705  -2.703  -3.096  0.00  0.00     0.064 H 
ATOM     43  C   LIG d   1       4.138   0.029  -1.878  0.00  0.00    -0.060 A 
ATOM     44  H   LIG d   1       3.783  -2.071  -1.698  0.00  0.00     0.062 H 
ATOM     45  C   LIG d   1       4.941   1.016  -2.417  0.00  0.00    -0.036 A 
ATOM     46  H   LIG d   1       3.293   0.299  -1.263  0.00  0.00     0.062 H 
ATOM     47  H   LIG d   1       4.723   2.056  -2.224  0.00  0.00     0.064 H 
ATOM     48  N   LIG d   1       6.997   1.410  -3.875  0.00  0.00    -0.306 N 
ATOM     49  H   LIG d   1       6.980   2.509  -3.829  0.00  0.00     0.170 HD
ATOM     50  C   LIG d   1       7.832   0.554  -4.495  0.00  0.00     0.328 A 
ATOM     51  O   LIG d   1       8.795   0.876  -5.165  0.00  0.00    -0.246 OA
ENDBRANCH  27  37
ENDBRANCH  17  20
ENDBRANCH   1  17
BRANCH   7  52
ATOM     52  C   LIG d   1       5.517  -5.272  -8.678  0.00  0.00     0.001 C 
ATOM     53  H   LIG d   1       6.329  -4.739  -8.162  0.00  0.00     0.033 H 
ATOM     54  H   LIG d   1       5.927  -5.821  -9.539  0.00  0.00     0.033 H 
BRANCH  52  55
ATOM     55  C   LIG d   1       4.491  -4.278  -9.158  0.00  0.00     0.084 A 
ATOM     56  N   LIG d   1       3.197  -4.419  -9.133  0.00  0.00    -0.083 NA
ATOM     57  O   LIG d   1       2.635  -3.450  -9.587  0.00  0.00    -0.358 OA
ATOM     58  C   LIG d   1       3.508  -2.515  -9.985  0.00  0.00     0.151 A 
ATOM     59  C   LIG d   1       4.743  -3.008  -9.726  0.00  0.00     0.005 A 
ATOM     60  H   LIG d   1       5.698  -2.539  -9.911  0.00  0.00     0.067 H 
BRANCH  58  61
ATOM     61  C   LIG d   1       3.181  -1.179 -10.601  0.00  0.00     0.060 C 
ATOM     62  H   LIG d   1       3.747  -1.059 -11.536  0.00  0.00     0.051 H 
ATOM     63  H   LIG d   1       2.104  -1.127 -10.816  0.00  0.00     0.051 H 
BRANCH  61  64
ATOM     64  N   LIG d   1       3.547  -0.106  -9.666  0.00  0.00    -0.291 N 
ATOM     65  C   LIG d   1       3.626   1.190 -10.357  0.00  0.00     0.023 C 
ATOM     66  C   LIG d   1       4.067   2.267  -9.361  0.00  0.00     0.060 C 
ATOM     67  H   LIG d   1       4.357   1.124 -11.177  0.00  0.00     0.045 H 
ATOM     68  H   LIG d   1       2.639   1.448 -10.766  0.00  0.00     0.045 H 
ATOM     69  O   LIG d   1       3.153   2.293  -8.262  0.00  0.00    -0.377 OA
ATOM     70  H   LIG d   1       4.073   3.247  -9.858  0.00  0.00     0.057 H 
ATOM     71  H   LIG d   1       5.078   2.035  -8.993  0.00  0.00     0.057 H 
ATOM     72  C   LIG d   1       3.052   1.049  -7.566  0.00  0.00     0.060 C 
ATOM     73  C   LIG d   1       2.601  -0.040  -8.544  0.00  0.00     0.023 C 
ATOM     74  H   LIG d   1       2.316   1.139  -6.754  0.00  0.00     0.057 H 
ATOM     75  H   LIG d   1       4.032   0.780  -7.145  0.00  0.00     0.057 H 
ATOM     76  H   LIG d   1       1.597   0.199  -8.923  0.00  0.00     0.045 H 
ATOM     77  H   LIG d   1       2.576  -1.011  -8.027  0.00  0.00     0.045 H 
ENDBRANCH  61  64
ENDBRANCH  58  61
ENDBRANCH  52  55
ENDBRANCH   7  52
TORSDOF 7
ENDMDL
MODEL 5
REMARK VINA RESULT:      -7.4      6.801     11.614
REMARK  7 active torsions:
REMARK  status: ('A' for Active; 'I' for Inactive)
REMARK    1  A    between atoms: N_11  and  C_12 
REMARK       I    between atoms: N_15  and  C_18 
REMARK    2  A    between atoms: C_18  and  C_20 
REMARK    3  A    between atoms: C_20  and  C_21 
REMARK    4  A    between atoms: C_27  and  C_29 
REMARK    5  A    between atoms: C_29  and  C_30 
REMARK    6  A    between atoms: C_32  and  C_35 
REMARK    7  A    between atoms: C_35  and  N_36 
ROOT
ATOM      1  C   LIG d   1       5.845 -10.143  -4.854  0.00  0.00    -0.020 C 
ATOM      2  H   LIG d   1       6.873 -10.017  -4.484  0.00  0.00     0.031 H 
ATOM      3  C   LIG d   1       5.870 -10.850  -6.213  0.00  0.00    -0.009 C 
ATOM      4  C   LIG d   1       4.434 -11.068  -6.695  0.00  0.00    -0.033 C 
ATOM      5  N   LIG d   1       3.705 -11.881  -5.714  0.00  0.00     0.227 N 
ATOM      6  C   LIG d   1       3.626 -11.201  -4.415  0.00  0.00    -0.030 C 
ATOM      7  C   LIG d   1       5.038 -10.987  -3.864  0.00  0.00     0.008 C 
ATOM      8  H   LIG d   1       5.530 -11.960  -3.721  0.00  0.00     0.036 H 
ATOM      9  H   LIG d   1       6.413 -10.227  -6.940  0.00  0.00     0.032 H 
ATOM     10  H   LIG d   1       6.377 -11.821  -6.111  0.00  0.00     0.032 H 
ATOM     11  H   LIG d   1       3.934 -10.095  -6.810  0.00  0.00     0.081 H 
ATOM     12  H   LIG d   1       4.449 -11.589  -7.665  0.00  0.00     0.081 H 
ATOM     13  H   LIG d   1       2.682 -12.063  -6.077  0.00  0.00     0.201 HD
ATOM     14  H   LIG d   1       3.130 -10.227  -4.540  0.00  0.00     0.082 H 
ATOM     15  H   LIG d   1       3.049 -11.820  -3.712  0.00  0.00     0.082 H 
ATOM     16  H   LIG d   1       4.222 -12.842  -5.577  0.00  0.00     0.201 HD
ENDROOT
BRANCH   1  17
ATOM     17  C   LIG d   1       5.192  -8.767  -5.004  0.00  0.00     0.028 C 
ATOM     18  H   LIG d   1       4.570  -8.559  -4.122  0.00  0.00     0.036 H 
ATOM     19  H   LIG d   1       4.564  -8.756  -5.907  0.00  0.00     0.036 H 
BRANCH  17  20
ATOM     20  C   LIG d   1       6.263  -7.713  -5.125  0.00  0.00     0.216 C 
ATOM     21  N   LIG d   1       6.037  -6.603  -5.855  0.00  0.00    -0.301 N 
ATOM     22  C   LIG d   1       7.070  -5.567  -5.982  0.00  0.00     0.017 C 
ATOM     23  C   LIG d   1       4.754  -6.411  -6.545  0.00  0.00     0.017 C 
ATOM     24  C   LIG d   1       6.468  -4.218  -5.576  0.00  0.00    -0.016 C 
ATOM     25  H   LIG d   1       7.420  -5.515  -7.023  0.00  0.00     0.046 H 
ATOM     26  H   LIG d   1       7.919  -5.803  -5.322  0.00  0.00     0.046 H 
ATOM     27  C   LIG d   1       5.211  -3.956  -6.408  0.00  0.00     0.042 C 
ATOM     28  H   LIG d   1       7.201  -3.419  -5.759  0.00  0.00     0.030 H 
ATOM     29  H   LIG d   1       6.205  -4.238  -4.508  0.00  0.00     0.030 H 
ATOM     30  C   LIG d   1       4.176  -5.049  -6.130  0.00  0.00    -0.016 C 
ATOM     31  H   LIG d   1       5.455  -3.917  -7.479  0.00  0.00     0.053 H 
ATOM     32  H   LIG d   1       3.936  -5.062  -5.056  0.00  0.00     0.030 H 
ATOM     33  H   LIG d   1       3.262  -4.844  -6.707  0.00  0.00     0.030 H 
ATOM     34  H   LIG d   1       4.917  -6.432  -7.633  0.00  0.00     0.046 H 
ATOM     35  H   LIG d   1       4.061  -7.215  -6.262  0.00  0.00     0.046 H 
ATOM     36  O   LIG d   1       7.327  -7.864  -4.564  0.00  0.00    -0.276 OA
BRANCH  27  37
ATOM     37  N   LIG d   1       4.650  -2.651  -6.045  0.00  0.00    -0.289 N 
ATOM     38  C   LIG d   1       4.343  -2.227  -4.755  0.00  0.00     0.070 A 
ATOM     39  C   LIG d   1       4.450  -2.821  -3.507  0.00  0.00    -0.036 A 
ATOM     40  C   LIG d   1       3.836  -0.930  -4.867  0.00  0.00     0.067 A 
ATOM     41  C   LIG d   1       4.054  -2.128  -2.379  0.00  0.00    -0.060 A 
ATOM     42  H   LIG d   1       4.842  -3.823  -3.415  0.00  0.00     0.064 H 
ATOM     43  C   LIG d   1       3.550  -0.843  -2.490  0.00  0.00    -0.060 A 
ATOM     44  H   LIG d   1       4.136  -2.591  -1.407  0.00  0.00     0.062 H 
ATOM     45  C   LIG d   1       3.441  -0.243  -3.729  0.00  0.00    -0.036 A 
ATOM     46  H   LIG d   1       3.243  -0.308  -1.604  0.00  0.00     0.062 H 
ATOM     47  H   LIG d   1       3.048   0.759  -3.812  0.00  0.00     0.064 H 
ATOM     48  N   LIG d   1       3.850  -0.608  -6.221  0.00  0.00    -0.306 N 
ATOM     49  H   LIG d   1       3.486   0.375  -6.557  0.00  0.00     0.170 HD
ATOM     50  C   LIG d   1       4.349  -1.657  -6.902  0.00  0.00     0.328 A 
ATOM     51  O   LIG d   1       4.501  -1.702  -8.108  0.00  0.00    -0.246 OA
ENDBRANCH  27  37
ENDBRANCH  17  20
ENDBRANCH   1  17
BRANCH   7  52
ATOM     52  C   LIG d   1       4.957 -10.260  -2.521  0.00  0.00     0.001 C 
ATOM     53  H   LIG d   1       4.876  -9.176  -2.695  0.00  0.00     0.033 H 
ATOM     54  H   LIG d   1       4.073 -10.609  -1.966  0.00  0.00     0.033 H 
BRANCH  52  55
ATOM     55  C   LIG d   1       6.200 -10.546  -1.718  0.00  0.00     0.084 A 
ATOM     56  N   LIG d   1       6.435 -11.605  -0.997  0.00  0.00    -0.083 NA
ATOM     57  O   LIG d   1       7.521 -11.551  -0.469  0.00  0.00    -0.358 OA
ATOM     58  C   LIG d   1       8.165 -10.418  -0.779  0.00  0.00     0.151 A 
ATOM     59  C   LIG d   1       7.341  -9.721  -1.598  0.00  0.00     0.005 A 
ATOM     60  H   LIG d   1       7.515  -8.757  -2.053  0.00  0.00     0.067 H 
BRANCH  58  61
ATOM     61  C   LIG d   1       9.534 -10.000  -0.309  0.00  0.00     0.060 C 
ATOM     62  H   LIG d   1       9.436  -9.350   0.572  0.00  0.00     0.051 H 
ATOM     63  H   LIG d   1      10.119 -10.892  -0.043  0.00  0.00     0.051 H 
BRANCH  61  64
ATOM     64  N   LIG d   1      10.219  -9.269  -1.384  0.00  0.00    -0.291 N 
ATOM     65  C   LIG d   1      10.960  -8.117  -0.848  0.00  0.00     0.023 C 
ATOM     66  C   LIG d   1      11.608  -7.350  -2.005  0.00  0.00     0.060 C 
ATOM     67  H   LIG d   1      10.268  -7.454  -0.308  0.00  0.00     0.045 H 
ATOM     68  H   LIG d   1      11.740  -8.472  -0.158  0.00  0.00     0.045 H 
ATOM     69  O   LIG d   1      12.447  -8.239  -2.746  0.00  0.00    -0.377 OA
ATOM     70  H   LIG d   1      12.210  -6.522  -1.606  0.00  0.00     0.057 H 
ATOM     71  H   LIG d   1      10.823  -6.950  -2.665  0.00  0.00     0.057 H 
ATOM     72  C   LIG d   1      11.759  -9.370  -3.283  0.00  0.00     0.060 C 
ATOM     73  C   LIG d   1      11.113 -10.157  -2.139  0.00  0.00     0.023 C 
ATOM     74  H   LIG d   1      12.471 -10.017  -3.816  0.00  0.00     0.057 H 
ATOM     75  H   LIG d   1      10.978  -9.031  -3.981  0.00  0.00     0.057 H 
ATOM     76  H   LIG d   1      11.895 -10.545  -1.471  0.00  0.00     0.045 H 
ATOM     77  H   LIG d   1      10.533 -10.997  -2.551  0.00  0.00     0.045 H 
ENDBRANCH  61  64
ENDBRANCH  58  61
ENDBRANCH  52  55
ENDBRANCH   7  52
TORSDOF 7
ENDMDL
MODEL 6
REMARK VINA RESULT:      -7.2      3.531      9.724
REMARK  7 active torsions:
REMARK  status: ('A' for Active; 'I' for Inactive)
REMARK    1  A    between atoms: N_11  and  C_12 
REMARK       I    between atoms: N_15  and  C_18 
REMARK    2  A    between atoms: C_18  and  C_20 
REMARK    3  A    between atoms: C_20  and  C_21 
REMARK    4  A    between atoms: C_27  and  C_29 
REMARK    5  A    between atoms: C_29  and  C_30 
REMARK    6  A    between atoms: C_32  and  C_35 
REMARK    7  A    between atoms: C_35  and  N_36 
ROOT
ATOM      1  C   LIG d   1       9.842   6.009  -3.023  0.00  0.00    -0.020 C 
ATOM      2  H   LIG d   1       8.892   6.401  -3.412  0.00  0.00     0.031 H 
ATOM      3  C   LIG d   1       9.996   6.397  -1.549  0.00  0.00    -0.009 C 
ATOM      4  C   LIG d   1      11.295   5.802  -1.002  0.00  0.00    -0.033 C 
ATOM      5  N   LIG d   1      11.262   4.341  -1.140  0.00  0.00     0.227 N 
ATOM      6  C   LIG d   1      11.164   3.943  -2.550  0.00  0.00    -0.030 C 
ATOM      7  C   LIG d   1       9.860   4.483  -3.143  0.00  0.00     0.008 C 
ATOM      8  H   LIG d   1       9.004   4.059  -2.599  0.00  0.00     0.036 H 
ATOM      9  H   LIG d   1      10.025   7.494  -1.461  0.00  0.00     0.032 H 
ATOM     10  H   LIG d   1       9.141   6.007  -0.977  0.00  0.00     0.032 H 
ATOM     11  H   LIG d   1      12.149   6.206  -1.567  0.00  0.00     0.081 H 
ATOM     12  H   LIG d   1      11.400   6.068   0.061  0.00  0.00     0.081 H 
ATOM     13  H   LIG d   1      12.183   3.913  -0.718  0.00  0.00     0.201 HD
ATOM     14  H   LIG d   1      12.018   4.355  -3.108  0.00  0.00     0.082 H 
ATOM     15  H   LIG d   1      11.173   2.845  -2.622  0.00  0.00     0.082 H 
ATOM     16  H   LIG d   1      10.391   3.941  -0.601  0.00  0.00     0.201 HD
ENDROOT
BRANCH   1  17
ATOM     17  C   LIG d   1      11.000   6.600  -3.831  0.00  0.00     0.028 C 
ATOM     18  H   LIG d   1      11.361   5.852  -4.553  0.00  0.00     0.036 H 
ATOM     19  H   LIG d   1      11.818   6.878  -3.151  0.00  0.00     0.036 H 
BRANCH  17  20
ATOM     20  C   LIG d   1      10.523   7.823  -4.570  0.00  0.00     0.216 C 
ATOM     21  N   LIG d   1      10.873   8.012  -5.858  0.00  0.00    -0.301 N 
ATOM     22  C   LIG d   1      10.417   9.199  -6.592  0.00  0.00     0.017 C 
ATOM     23  C   LIG d   1      11.726   7.036  -6.551  0.00  0.00     0.017 C 
ATOM     24  C   LIG d   1       9.729   8.745  -7.885  0.00  0.00    -0.016 C 
ATOM     25  H   LIG d   1      11.276   9.839  -6.839  0.00  0.00     0.046 H 
ATOM     26  H   LIG d   1       9.701   9.766  -5.977  0.00  0.00     0.046 H 
ATOM     27  C   LIG d   1      10.682   7.847  -8.675  0.00  0.00     0.042 C 
ATOM     28  H   LIG d   1       9.468   9.625  -8.490  0.00  0.00     0.030 H 
ATOM     29  H   LIG d   1       8.815   8.185  -7.639  0.00  0.00     0.030 H 
ATOM     30  C   LIG d   1      11.020   6.605  -7.847  0.00  0.00    -0.016 C 
ATOM     31  H   LIG d   1      11.598   8.394  -8.943  0.00  0.00     0.053 H 
ATOM     32  H   LIG d   1      10.094   6.066  -7.599  0.00  0.00     0.030 H 
ATOM     33  H   LIG d   1      11.684   5.946  -8.426  0.00  0.00     0.030 H 
ATOM     34  H   LIG d   1      12.694   7.501  -6.790  0.00  0.00     0.046 H 
ATOM     35  H   LIG d   1      11.887   6.164  -5.903  0.00  0.00     0.046 H 
ATOM     36  O   LIG d   1       9.823   8.637  -4.007  0.00  0.00    -0.276 OA
BRANCH  27  37
ATOM     37  N   LIG d   1      10.041   7.437  -9.927  0.00  0.00    -0.289 N 
ATOM     38  C   LIG d   1      10.275   7.994 -11.182  0.00  0.00     0.070 A 
ATOM     39  C   LIG d   1      11.102   9.011 -11.633  0.00  0.00    -0.036 A 
ATOM     40  C   LIG d   1       9.459   7.309 -12.085  0.00  0.00     0.067 A 
ATOM     41  C   LIG d   1      11.115   9.344 -12.973  0.00  0.00    -0.060 A 
ATOM     42  H   LIG d   1      11.735   9.543 -10.938  0.00  0.00     0.064 H 
ATOM     43  C   LIG d   1      10.306   8.666 -13.869  0.00  0.00    -0.060 A 
ATOM     44  H   LIG d   1      11.759  10.136 -13.325  0.00  0.00     0.062 H 
ATOM     45  C   LIG d   1       9.479   7.650 -13.429  0.00  0.00    -0.036 A 
ATOM     46  H   LIG d   1      10.322   8.931 -14.916  0.00  0.00     0.062 H 
ATOM     47  H   LIG d   1       8.850   7.123 -14.131  0.00  0.00     0.064 H 
ATOM     48  N   LIG d   1       8.755   6.359 -11.352  0.00  0.00    -0.306 N 
ATOM     49  H   LIG d   1       8.037   5.695 -11.856  0.00  0.00     0.170 HD
ATOM     50  C   LIG d   1       9.129   6.456 -10.062  0.00  0.00     0.328 A 
ATOM     51  O   LIG d   1       8.706   5.764  -9.155  0.00  0.00    -0.246 OA
ENDBRANCH  27  37
ENDBRANCH  17  20
ENDBRANCH   1  17
BRANCH   7  52
ATOM     52  C   LIG d   1       9.769   4.086  -4.618  0.00  0.00     0.001 C 
ATOM     53  H   LIG d   1       9.377   4.932  -5.202  0.00  0.00     0.033 H 
ATOM     54  H   LIG d   1      10.769   3.817  -4.989  0.00  0.00     0.033 H 
BRANCH  52  55
ATOM     55  C   LIG d   1       8.844   2.905  -4.765  0.00  0.00     0.084 A 
ATOM     56  N   LIG d   1       8.282   2.488  -5.863  0.00  0.00    -0.083 NA
ATOM     57  O   LIG d   1       7.592   1.514  -5.667  0.00  0.00    -0.358 OA
ATOM     58  C   LIG d   1       7.608   1.149  -4.377  0.00  0.00     0.151 A 
ATOM     59  C   LIG d   1       8.416   2.031  -3.740  0.00  0.00     0.005 A 
ATOM     60  H   LIG d   1       8.674   2.059  -2.691  0.00  0.00     0.067 H 
BRANCH  58  61
ATOM     61  C   LIG d   1       6.873  -0.010  -3.757  0.00  0.00     0.060 C 
ATOM     62  H   LIG d   1       7.014  -0.907  -4.378  0.00  0.00     0.051 H 
ATOM     63  H   LIG d   1       7.267  -0.197  -2.748  0.00  0.00     0.051 H 
BRANCH  61  64
ATOM     64  N   LIG d   1       5.440   0.307  -3.673  0.00  0.00    -0.291 N 
ATOM     65  C   LIG d   1       4.621  -0.867  -4.008  0.00  0.00     0.023 C 
ATOM     66  C   LIG d   1       3.140  -0.477  -3.967  0.00  0.00     0.060 C 
ATOM     67  H   LIG d   1       4.881  -1.220  -5.017  0.00  0.00     0.045 H 
ATOM     68  H   LIG d   1       4.812  -1.668  -3.279  0.00  0.00     0.045 H 
ATOM     69  O   LIG d   1       2.829   0.051  -2.675  0.00  0.00    -0.377 OA
ATOM     70  H   LIG d   1       2.520  -1.364  -4.160  0.00  0.00     0.057 H 
ATOM     71  H   LIG d   1       2.939   0.286  -4.734  0.00  0.00     0.057 H 
ATOM     72  C   LIG d   1       3.607   1.195  -2.317  0.00  0.00     0.060 C 
ATOM     73  C   LIG d   1       5.092   0.823  -2.342  0.00  0.00     0.023 C 
ATOM     74  H   LIG d   1       3.330   1.528  -1.306  0.00  0.00     0.057 H 
ATOM     75  H   LIG d   1       3.422   2.008  -3.035  0.00  0.00     0.057 H 
ATOM     76  H   LIG d   1       5.291   0.049  -1.586  0.00  0.00     0.045 H 
ATOM     77  H   LIG d   1       5.699   1.713  -2.123  0.00  0.00     0.045 H 
ENDBRANCH  61  64
ENDBRANCH  58  61
ENDBRANCH  52  55
ENDBRANCH   7  52
TORSDOF 7
ENDMDL
MODEL 7
REMARK VINA RESULT:      -7.0      6.261     10.949
REMARK  7 active torsions:
REMARK  status: ('A' for Active; 'I' for Inactive)
REMARK    1  A    between atoms: N_11  and  C_12 
REMARK       I    between atoms: N_15  and  C_18 
REMARK    2  A    between atoms: C_18  and  C_20 
REMARK    3  A    between atoms: C_20  and  C_21 
REMARK    4  A    between atoms: C_27  and  C_29 
REMARK    5  A    between atoms: C_29  and  C_30 
REMARK    6  A    between atoms: C_32  and  C_35 
REMARK    7  A    between atoms: C_35  and  N_36 
ROOT
ATOM      1  C   LIG d   1       5.500  -9.175  -3.892  0.00  0.00    -0.020 C 
ATOM      2  H   LIG d   1       5.449  -8.340  -3.179  0.00  0.00     0.031 H 
ATOM      3  C   LIG d   1       4.550 -10.292  -3.449  0.00  0.00    -0.009 C 
ATOM      4  C   LIG d   1       4.590 -11.427  -4.476  0.00  0.00    -0.033 C 
ATOM      5  N   LIG d   1       4.189 -10.912  -5.791  0.00  0.00     0.227 N 
ATOM      6  C   LIG d   1       5.114  -9.873  -6.259  0.00  0.00    -0.030 C 
ATOM      7  C   LIG d   1       5.090  -8.692  -5.286  0.00  0.00     0.008 C 
ATOM      8  H   LIG d   1       4.077  -8.266  -5.246  0.00  0.00     0.036 H 
ATOM      9  H   LIG d   1       4.866 -10.673  -2.466  0.00  0.00     0.032 H 
ATOM     10  H   LIG d   1       3.527  -9.895  -3.377  0.00  0.00     0.032 H 
ATOM     11  H   LIG d   1       5.611 -11.831  -4.535  0.00  0.00     0.081 H 
ATOM     12  H   LIG d   1       3.897 -12.224  -4.166  0.00  0.00     0.081 H 
ATOM     13  H   LIG d   1       4.188 -11.735  -6.521  0.00  0.00     0.201 HD
ATOM     14  H   LIG d   1       6.133 -10.285  -6.310  0.00  0.00     0.082 H 
ATOM     15  H   LIG d   1       4.806  -9.530  -7.258  0.00  0.00     0.082 H 
ATOM     16  H   LIG d   1       3.180 -10.480  -5.724  0.00  0.00     0.201 HD
ENDROOT
BRANCH   1  17
ATOM     17  C   LIG d   1       6.934  -9.711  -3.938  0.00  0.00     0.028 C 
ATOM     18  H   LIG d   1       7.418  -9.381  -4.869  0.00  0.00     0.036 H 
ATOM     19  H   LIG d   1       6.916 -10.810  -3.903  0.00  0.00     0.036 H 
BRANCH  17  20
ATOM     20  C   LIG d   1       7.705  -9.182  -2.755  0.00  0.00     0.216 C 
ATOM     21  N   LIG d   1       8.853  -8.503  -2.949  0.00  0.00    -0.301 N 
ATOM     22  C   LIG d   1       9.616  -7.982  -1.807  0.00  0.00     0.017 C 
ATOM     23  C   LIG d   1       9.369  -8.277  -4.306  0.00  0.00     0.017 C 
ATOM     24  C   LIG d   1       9.859  -6.484  -2.019  0.00  0.00    -0.016 C 
ATOM     25  H   LIG d   1      10.580  -8.504  -1.733  0.00  0.00     0.046 H 
ATOM     26  H   LIG d   1       9.045  -8.133  -0.877  0.00  0.00     0.046 H 
ATOM     27  C   LIG d   1      10.533  -6.269  -3.375  0.00  0.00     0.042 C 
ATOM     28  H   LIG d   1      10.511  -6.101  -1.221  0.00  0.00     0.030 H 
ATOM     29  H   LIG d   1       8.898  -5.948  -1.997  0.00  0.00     0.030 H 
ATOM     30  C   LIG d   1       9.613  -6.771  -4.490  0.00  0.00    -0.016 C 
ATOM     31  H   LIG d   1      11.503  -6.786  -3.412  0.00  0.00     0.053 H 
ATOM     32  H   LIG d   1       8.654  -6.233  -4.444  0.00  0.00     0.030 H 
ATOM     33  H   LIG d   1      10.087  -6.591  -5.466  0.00  0.00     0.030 H 
ATOM     34  H   LIG d   1      10.312  -8.828  -4.435  0.00  0.00     0.046 H 
ATOM     35  H   LIG d   1       8.632  -8.631  -5.042  0.00  0.00     0.046 H 
ATOM     36  O   LIG d   1       7.291  -9.368  -1.631  0.00  0.00    -0.276 OA
BRANCH  27  37
ATOM     37  N   LIG d   1      10.797  -4.841  -3.568  0.00  0.00    -0.289 N 
ATOM     38  C   LIG d   1      12.055  -4.253  -3.683  0.00  0.00     0.070 A 
ATOM     39  C   LIG d   1      13.346  -4.757  -3.661  0.00  0.00    -0.036 A 
ATOM     40  C   LIG d   1      11.845  -2.883  -3.853  0.00  0.00     0.067 A 
ATOM     41  C   LIG d   1      14.421  -3.901  -3.806  0.00  0.00    -0.060 A 
ATOM     42  H   LIG d   1      13.513  -5.816  -3.530  0.00  0.00     0.064 H 
ATOM     43  C   LIG d   1      14.214  -2.543  -3.973  0.00  0.00    -0.060 A 
ATOM     44  H   LIG d   1      15.427  -4.293  -3.788  0.00  0.00     0.062 H 
ATOM     45  C   LIG d   1      12.931  -2.032  -3.998  0.00  0.00    -0.036 A 
ATOM     46  H   LIG d   1      15.059  -1.880  -4.087  0.00  0.00     0.062 H 
ATOM     47  H   LIG d   1      12.773  -0.972  -4.129  0.00  0.00     0.064 H 
ATOM     48  N   LIG d   1      10.469  -2.681  -3.835  0.00  0.00    -0.306 N 
ATOM     49  H   LIG d   1      10.060  -1.665  -3.947  0.00  0.00     0.170 HD
ATOM     50  C   LIG d   1       9.866  -3.873  -3.668  0.00  0.00     0.328 A 
ATOM     51  O   LIG d   1       8.664  -4.050  -3.613  0.00  0.00    -0.246 OA
ENDBRANCH  27  37
ENDBRANCH  17  20
ENDBRANCH   1  17
BRANCH   7  52
ATOM     52  C   LIG d   1       6.071  -7.618  -5.762  0.00  0.00     0.001 C 
ATOM     53  H   LIG d   1       6.987  -7.663  -5.155  0.00  0.00     0.033 H 
ATOM     54  H   LIG d   1       6.322  -7.793  -6.819  0.00  0.00     0.033 H 
BRANCH  52  55
ATOM     55  C   LIG d   1       5.439  -6.258  -5.614  0.00  0.00     0.084 A 
ATOM     56  N   LIG d   1       4.177  -6.002  -5.416  0.00  0.00    -0.083 NA
ATOM     57  O   LIG d   1       3.972  -4.814  -5.337  0.00  0.00    -0.358 OA
ATOM     58  C   LIG d   1       5.101  -4.107  -5.478  0.00  0.00     0.151 A 
ATOM     59  C   LIG d   1       6.096  -5.008  -5.662  0.00  0.00     0.005 A 
ATOM     60  H   LIG d   1       7.149  -4.815  -5.812  0.00  0.00     0.067 H 
BRANCH  58  61
ATOM     61  C   LIG d   1       5.239  -2.607  -5.440  0.00  0.00     0.060 C 
ATOM     62  H   LIG d   1       6.294  -2.340  -5.285  0.00  0.00     0.051 H 
ATOM     63  H   LIG d   1       4.889  -2.182  -6.392  0.00  0.00     0.051 H 
BRANCH  61  64
ATOM     64  N   LIG d   1       4.430  -2.068  -4.338  0.00  0.00    -0.291 N 
ATOM     65  C   LIG d   1       5.225  -1.960  -3.105  0.00  0.00     0.023 C 
ATOM     66  C   LIG d   1       4.330  -1.453  -1.970  0.00  0.00     0.060 C 
ATOM     67  H   LIG d   1       5.630  -2.948  -2.842  0.00  0.00     0.045 H 
ATOM     68  H   LIG d   1       6.054  -1.254  -3.265  0.00  0.00     0.045 H 
ATOM     69  O   LIG d   1       3.748  -0.204  -2.352  0.00  0.00    -0.377 OA
ATOM     70  H   LIG d   1       4.932  -1.314  -1.061  0.00  0.00     0.057 H 
ATOM     71  H   LIG d   1       3.532  -2.185  -1.775  0.00  0.00     0.057 H 
ATOM     72  C   LIG d   1       2.967  -0.273  -3.547  0.00  0.00     0.060 C 
ATOM     73  C   LIG d   1       3.847  -0.768  -4.698  0.00  0.00     0.023 C 
ATOM     74  H   LIG d   1       2.574   0.725  -3.790  0.00  0.00     0.057 H 
ATOM     75  H   LIG d   1       2.129  -0.972  -3.401  0.00  0.00     0.057 H 
ATOM     76  H   LIG d   1       4.653  -0.044  -4.883  0.00  0.00     0.045 H 
ATOM     77  H   LIG d   1       3.238  -0.879  -5.607  0.00  0.00     0.045 H 
ENDBRANCH  61  64
ENDBRANCH  58  61
ENDBRANCH  52  55
ENDBRANCH   7  52
TORSDOF 7
ENDMDL
MODEL 8
REMARK VINA RESULT:      -7.0      6.114     10.803
REMARK  7 active torsions:
REMARK  status: ('A' for Active; 'I' for Inactive)
REMARK    1  A    between atoms: N_11  and  C_12 
REMARK       I    between atoms: N_15  and  C_18 
REMARK    2  A    between atoms: C_18  and  C_20 
REMARK    3  A    between atoms: C_20  and  C_21 
REMARK    4  A    between atoms: C_27  and  C_29 
REMARK    5  A    between atoms: C_29  and  C_30 
REMARK    6  A    between atoms: C_32  and  C_35 
REMARK    7  A    between atoms: C_35  and  N_36 
ROOT
ATOM      1  C   LIG d   1       3.689  -1.578  -4.551  0.00  0.00    -0.020 C 
ATOM      2  H   LIG d   1       3.013  -2.050  -5.278  0.00  0.00     0.031 H 
ATOM      3  C   LIG d   1       2.874  -0.982  -3.399  0.00  0.00    -0.009 C 
ATOM      4  C   LIG d   1       3.827  -0.375  -2.367  0.00  0.00    -0.033 C 
ATOM      5  N   LIG d   1       4.731  -1.416  -1.862  0.00  0.00     0.227 N 
ATOM      6  C   LIG d   1       5.558  -1.970  -2.941  0.00  0.00    -0.030 C 
ATOM      7  C   LIG d   1       4.657  -2.624  -3.991  0.00  0.00     0.008 C 
ATOM      8  H   LIG d   1       4.088  -3.445  -3.530  0.00  0.00     0.036 H 
ATOM      9  H   LIG d   1       2.207  -0.199  -3.790  0.00  0.00     0.032 H 
ATOM     10  H   LIG d   1       2.273  -1.773  -2.927  0.00  0.00     0.032 H 
ATOM     11  H   LIG d   1       4.416   0.426  -2.838  0.00  0.00     0.081 H 
ATOM     12  H   LIG d   1       3.244   0.041  -1.531  0.00  0.00     0.081 H 
ATOM     13  H   LIG d   1       5.394  -0.986  -1.097  0.00  0.00     0.201 HD
ATOM     14  H   LIG d   1       6.139  -1.162  -3.410  0.00  0.00     0.082 H 
ATOM     15  H   LIG d   1       6.244  -2.723  -2.527  0.00  0.00     0.082 H 
ATOM     16  H   LIG d   1       4.140  -2.232  -1.418  0.00  0.00     0.201 HD
ENDROOT
BRANCH   1  17
ATOM     17  C   LIG d   1       4.482  -0.469  -5.246  0.00  0.00     0.028 C 
ATOM     18  H   LIG d   1       5.275  -0.916  -5.863  0.00  0.00     0.036 H 
ATOM     19  H   LIG d   1       4.934   0.189  -4.489  0.00  0.00     0.036 H 
BRANCH  17  20
ATOM     20  C   LIG d   1       3.557   0.336  -6.122  0.00  0.00     0.216 C 
ATOM     21  N   LIG d   1       3.788   0.421  -7.447  0.00  0.00    -0.301 N 
ATOM     22  C   LIG d   1       2.896   1.202  -8.315  0.00  0.00     0.017 C 
ATOM     23  C   LIG d   1       4.943  -0.259  -8.050  0.00  0.00     0.017 C 
ATOM     24  C   LIG d   1       2.420   0.307  -9.465  0.00  0.00    -0.016 C 
ATOM     25  H   LIG d   1       3.435   2.068  -8.722  0.00  0.00     0.046 H 
ATOM     26  H   LIG d   1       2.025   1.550  -7.737  0.00  0.00     0.046 H 
ATOM     27  C   LIG d   1       3.636  -0.282 -10.182  0.00  0.00     0.042 C 
ATOM     28  H   LIG d   1       1.829   0.904 -10.174  0.00  0.00     0.030 H 
ATOM     29  H   LIG d   1       1.799  -0.508  -9.065  0.00  0.00     0.030 H 
ATOM     30  C   LIG d   1       4.441  -1.141  -9.204  0.00  0.00    -0.016 C 
ATOM     31  H   LIG d   1       4.263   0.518 -10.602  0.00  0.00     0.053 H 
ATOM     32  H   LIG d   1       3.800  -1.941  -8.806  0.00  0.00     0.030 H 
ATOM     33  H   LIG d   1       5.300  -1.586  -9.728  0.00  0.00     0.030 H 
ATOM     34  H   LIG d   1       5.651   0.491  -8.432  0.00  0.00     0.046 H 
ATOM     35  H   LIG d   1       5.439  -0.881  -7.291  0.00  0.00     0.046 H 
ATOM     36  O   LIG d   1       2.604   0.906  -5.635  0.00  0.00    -0.276 OA
BRANCH  27  37
ATOM     37  N   LIG d   1       3.186  -1.112 -11.303  0.00  0.00    -0.289 N 
ATOM     38  C   LIG d   1       2.267  -2.155 -11.226  0.00  0.00     0.070 A 
ATOM     39  C   LIG d   1       1.539  -2.708 -10.183  0.00  0.00    -0.036 A 
ATOM     40  C   LIG d   1       2.131  -2.669 -12.517  0.00  0.00     0.067 A 
ATOM     41  C   LIG d   1       0.684  -3.765 -10.425  0.00  0.00    -0.060 A 
ATOM     42  H   LIG d   1       1.641  -2.313  -9.183  0.00  0.00     0.064 H 
ATOM     43  C   LIG d   1       0.549  -4.275 -11.705  0.00  0.00    -0.060 A 
ATOM     44  H   LIG d   1       0.117  -4.196  -9.613  0.00  0.00     0.062 H 
ATOM     45  C   LIG d   1       1.269  -3.730 -12.751  0.00  0.00    -0.036 A 
ATOM     46  H   LIG d   1      -0.122  -5.101 -11.887  0.00  0.00     0.062 H 
ATOM     47  H   LIG d   1       1.161  -4.130 -13.748  0.00  0.00     0.064 H 
ATOM     48  N   LIG d   1       2.971  -1.923 -13.338  0.00  0.00    -0.306 N 
ATOM     49  H   LIG d   1       3.037  -2.151 -14.413  0.00  0.00     0.170 HD
ATOM     50  C   LIG d   1       3.586  -0.993 -12.583  0.00  0.00     0.328 A 
ATOM     51  O   LIG d   1       4.385  -0.172 -12.993  0.00  0.00    -0.246 OA
ENDBRANCH  27  37
ENDBRANCH  17  20
ENDBRANCH   1  17
BRANCH   7  52
ATOM     52  C   LIG d   1       5.518  -3.182  -5.126  0.00  0.00     0.001 C 
ATOM     53  H   LIG d   1       5.371  -2.574  -6.031  0.00  0.00     0.033 H 
ATOM     54  H   LIG d   1       6.578  -3.153  -4.832  0.00  0.00     0.033 H 
BRANCH  52  55
ATOM     55  C   LIG d   1       5.115  -4.606  -5.410  0.00  0.00     0.084 A 
ATOM     56  N   LIG d   1       3.903  -5.083  -5.436  0.00  0.00    -0.083 NA
ATOM     57  O   LIG d   1       3.896  -6.265  -5.693  0.00  0.00    -0.358 OA
ATOM     58  C   LIG d   1       5.136  -6.738  -5.875  0.00  0.00     0.151 A 
ATOM     59  C   LIG d   1       5.976  -5.689  -5.700  0.00  0.00     0.005 A 
ATOM     60  H   LIG d   1       7.054  -5.682  -5.767  0.00  0.00     0.067 H 
BRANCH  58  61
ATOM     61  C   LIG d   1       5.522  -8.156  -6.207  0.00  0.00     0.060 C 
ATOM     62  H   LIG d   1       5.081  -8.438  -7.174  0.00  0.00     0.051 H 
ATOM     63  H   LIG d   1       6.617  -8.234  -6.267  0.00  0.00     0.051 H 
BRANCH  61  64
ATOM     64  N   LIG d   1       5.023  -9.058  -5.160  0.00  0.00    -0.291 N 
ATOM     65  C   LIG d   1       4.516 -10.310  -5.740  0.00  0.00     0.023 C 
ATOM     66  C   LIG d   1       3.953 -11.193  -4.622  0.00  0.00     0.060 C 
ATOM     67  H   LIG d   1       3.721 -10.082  -6.465  0.00  0.00     0.045 H 
ATOM     68  H   LIG d   1       5.337 -10.837  -6.248  0.00  0.00     0.045 H 
ATOM     69  O   LIG d   1       4.971 -11.421  -3.645  0.00  0.00    -0.377 OA
ATOM     70  H   LIG d   1       3.625 -12.154  -5.042  0.00  0.00     0.057 H 
ATOM     71  H   LIG d   1       3.097 -10.687  -4.149  0.00  0.00     0.057 H 
ATOM     72  C   LIG d   1       5.487 -10.224  -3.059  0.00  0.00     0.060 C 
ATOM     73  C   LIG d   1       6.066  -9.331  -4.160  0.00  0.00     0.023 C 
ATOM     74  H   LIG d   1       6.280 -10.477  -2.339  0.00  0.00     0.057 H 
ATOM     75  H   LIG d   1       4.678  -9.688  -2.540  0.00  0.00     0.057 H 
ATOM     76  H   LIG d   1       6.911  -9.843  -4.643  0.00  0.00     0.045 H 
ATOM     77  H   LIG d   1       6.412  -8.383  -3.723  0.00  0.00     0.045 H 
ENDBRANCH  61  64
ENDBRANCH  58  61
ENDBRANCH  52  55
ENDBRANCH   7  52
TORSDOF 7
ENDMDL
MODEL 9
REMARK VINA RESULT:      -7.0      2.597      3.820
REMARK  7 active torsions:
REMARK  status: ('A' for Active; 'I' for Inactive)
REMARK    1  A    between atoms: N_11  and  C_12 
REMARK       I    between atoms: N_15  and  C_18 
REMARK    2  A    between atoms: C_18  and  C_20 
REMARK    3  A    between atoms: C_20  and  C_21 
REMARK    4  A    between atoms: C_27  and  C_29 
REMARK    5  A    between atoms: C_29  and  C_30 
REMARK    6  A    between atoms: C_32  and  C_35 
REMARK    7  A    between atoms: C_35  and  N_36 
ROOT
ATOM      1  C   LIG d   1       9.618   5.543  -5.751  0.00  0.00    -0.020 C 
ATOM      2  H   LIG d   1       8.548   5.298  -5.680  0.00  0.00     0.031 H 
ATOM      3  C   LIG d   1       9.860   6.448  -6.963  0.00  0.00    -0.009 C 
ATOM      4  C   LIG d   1      11.342   6.827  -7.022  0.00  0.00    -0.033 C 
ATOM      5  N   LIG d   1      11.721   7.523  -5.786  0.00  0.00     0.227 N 
ATOM      6  C   LIG d   1      11.542   6.656  -4.614  0.00  0.00    -0.030 C 
ATOM      7  C   LIG d   1      10.067   6.273  -4.482  0.00  0.00     0.008 C 
ATOM      8  H   LIG d   1       9.460   7.180  -4.343  0.00  0.00     0.036 H 
ATOM      9  H   LIG d   1       9.579   5.913  -7.882  0.00  0.00     0.032 H 
ATOM     10  H   LIG d   1       9.250   7.359  -6.867  0.00  0.00     0.032 H 
ATOM     11  H   LIG d   1      11.948   5.916  -7.132  0.00  0.00     0.081 H 
ATOM     12  H   LIG d   1      11.516   7.489  -7.884  0.00  0.00     0.081 H 
ATOM     13  H   LIG d   1      12.778   7.821  -5.844  0.00  0.00     0.201 HD
ATOM     14  H   LIG d   1      12.148   5.746  -4.735  0.00  0.00     0.082 H 
ATOM     15  H   LIG d   1      11.863   7.193  -3.709  0.00  0.00     0.082 H 
ATOM     16  H   LIG d   1      11.093   8.417  -5.661  0.00  0.00     0.201 HD
ENDROOT
BRANCH   1  17
ATOM     17  C   LIG d   1      10.421   4.250  -5.909  0.00  0.00     0.028 C 
ATOM     18  H   LIG d   1      10.566   3.786  -4.923  0.00  0.00     0.036 H 
ATOM     19  H   LIG d   1      11.401   4.479  -6.354  0.00  0.00     0.036 H 
BRANCH  17  20
ATOM     20  C   LIG d   1       9.672   3.300  -6.808  0.00  0.00     0.216 C 
ATOM     21  N   LIG d   1       9.520   2.010  -6.447  0.00  0.00    -0.301 N 
ATOM     22  C   LIG d   1       8.793   1.071  -7.311  0.00  0.00     0.017 C 
ATOM     23  C   LIG d   1      10.087   1.515  -5.185  0.00  0.00     0.017 C 
ATOM     24  C   LIG d   1       7.692   0.394  -6.486  0.00  0.00    -0.016 C 
ATOM     25  H   LIG d   1       9.483   0.309  -7.699  0.00  0.00     0.046 H 
ATOM     26  H   LIG d   1       8.337   1.615  -8.153  0.00  0.00     0.046 H 
ATOM     27  C   LIG d   1       8.315  -0.249  -5.246  0.00  0.00     0.042 C 
ATOM     28  H   LIG d   1       7.203  -0.381  -7.094  0.00  0.00     0.030 H 
ATOM     29  H   LIG d   1       6.949   1.143  -6.178  0.00  0.00     0.030 H 
ATOM     30  C   LIG d   1       8.968   0.833  -4.382  0.00  0.00    -0.016 C 
ATOM     31  H   LIG d   1       9.052  -1.012  -5.533  0.00  0.00     0.053 H 
ATOM     32  H   LIG d   1       8.213   1.579  -4.095  0.00  0.00     0.030 H 
ATOM     33  H   LIG d   1       9.392   0.373  -3.476  0.00  0.00     0.030 H 
ATOM     34  H   LIG d   1      10.887   0.791  -5.402  0.00  0.00     0.046 H 
ATOM     35  H   LIG d   1      10.500   2.358  -4.612  0.00  0.00     0.046 H 
ATOM     36  O   LIG d   1       9.204   3.696  -7.854  0.00  0.00    -0.276 OA
BRANCH  27  37
ATOM     37  N   LIG d   1       7.271  -0.926  -4.472  0.00  0.00    -0.289 N 
ATOM     38  C   LIG d   1       6.363  -0.308  -3.615  0.00  0.00     0.070 A 
ATOM     39  C   LIG d   1       6.152   1.010  -3.241  0.00  0.00    -0.036 A 
ATOM     40  C   LIG d   1       5.555  -1.318  -3.089  0.00  0.00     0.067 A 
ATOM     41  C   LIG d   1       5.144   1.319  -2.348  0.00  0.00    -0.060 A 
ATOM     42  H   LIG d   1       6.775   1.794  -3.646  0.00  0.00     0.064 H 
ATOM     43  C   LIG d   1       4.343   0.318  -1.826  0.00  0.00    -0.060 A 
ATOM     44  H   LIG d   1       4.981   2.346  -2.056  0.00  0.00     0.062 H 
ATOM     45  C   LIG d   1       4.545  -0.998  -2.194  0.00  0.00    -0.036 A 
ATOM     46  H   LIG d   1       3.557   0.567  -1.129  0.00  0.00     0.062 H 
ATOM     47  H   LIG d   1       3.918  -1.776  -1.784  0.00  0.00     0.064 H 
ATOM     48  N   LIG d   1       5.997  -2.517  -3.641  0.00  0.00    -0.306 N 
ATOM     49  H   LIG d   1       5.507  -3.463  -3.366  0.00  0.00     0.170 HD
ATOM     50  C   LIG d   1       7.023  -2.249  -4.470  0.00  0.00     0.328 A 
ATOM     51  O   LIG d   1       7.636  -3.077  -5.118  0.00  0.00    -0.246 OA
ENDBRANCH  27  37
ENDBRANCH  17  20
ENDBRANCH   1  17
BRANCH   7  52
ATOM     52  C   LIG d   1       9.884   5.352  -3.274  0.00  0.00     0.001 C 
ATOM     53  H   LIG d   1       8.907   4.852  -3.338  0.00  0.00     0.033 H 
ATOM     54  H   LIG d   1      10.684   4.597  -3.263  0.00  0.00     0.033 H 
BRANCH  52  55
ATOM     55  C   LIG d   1       9.948   6.167  -2.007  0.00  0.00     0.084 A 
ATOM     56  N   LIG d   1       9.090   7.064  -1.614  0.00  0.00    -0.083 NA
ATOM     57  O   LIG d   1       9.408   7.550  -0.554  0.00  0.00    -0.358 OA
ATOM     58  C   LIG d   1      10.551   7.023  -0.093  0.00  0.00     0.151 A 
ATOM     59  C   LIG d   1      10.949   6.109  -1.011  0.00  0.00     0.005 A 
ATOM     60  H   LIG d   1      11.828   5.481  -0.987  0.00  0.00     0.067 H 
BRANCH  58  61
ATOM     61  C   LIG d   1      11.257   7.378   1.190  0.00  0.00     0.060 C 
ATOM     62  H   LIG d   1      10.614   7.122   2.044  0.00  0.00     0.051 H 
ATOM     63  H   LIG d   1      12.199   6.815   1.258  0.00  0.00     0.051 H 
BRANCH  61  64
ATOM     64  N   LIG d   1      11.545   8.819   1.208  0.00  0.00    -0.291 N 
ATOM     65  C   LIG d   1      12.038   9.241   2.528  0.00  0.00     0.023 C 
ATOM     66  C   LIG d   1      12.268  10.755   2.521  0.00  0.00     0.060 C 
ATOM     67  H   LIG d   1      11.294   8.984   3.296  0.00  0.00     0.045 H 
ATOM     68  H   LIG d   1      12.984   8.725   2.748  0.00  0.00     0.045 H 
ATOM     69  O   LIG d   1      13.178  11.088   1.470  0.00  0.00    -0.377 OA
ATOM     70  H   LIG d   1      12.691  11.067   3.487  0.00  0.00     0.057 H 
ATOM     71  H   LIG d   1      11.310  11.272   2.354  0.00  0.00     0.057 H 
ATOM     72  C   LIG d   1      12.730  10.692   0.172  0.00  0.00     0.060 C 
ATOM     73  C   LIG d   1      12.505   9.178   0.155  0.00  0.00     0.023 C 
ATOM     74  H   LIG d   1      13.490  10.958  -0.578  0.00  0.00     0.057 H 
ATOM     75  H   LIG d   1      11.785  11.206  -0.065  0.00  0.00     0.057 H 
ATOM     76  H   LIG d   1      13.458   8.662   0.336  0.00  0.00     0.045 H 
ATOM     77  H   LIG d   1      12.105   8.876  -0.824  0.00  0.00     0.045 H 
ENDBRANCH  61  64
ENDBRANCH  58  61
ENDBRANCH  52  55
ENDBRANCH   7  52
TORSDOF 7
ENDMDL
