MODEL 1
REMARK VINA RESULT:      -5.7      0.000      0.000
REMARK  9 active torsions:
REMARK  status: ('A' for Active; 'I' for Inactive)
REMARK    1  A    between atoms: C_1  and  C_2 
REMARK    2  A    between atoms: C_4  and  O_24 
REMARK    3  A    between atoms: C_5  and  C_21 
REMARK    4  A    between atoms: C_11  and  C_12 
REMARK    5  A    between atoms: C_15  and  O_18 
REMARK    6  A    between atoms: O_18  and  C_19 
REMARK    7  A    between atoms: C_21  and  N_46 
REMARK    8  A    between atoms: C_22  and  N_46 
REMARK    9  A    between atoms: C_23  and  N_46 
ROOT
ATOM      1  C   LIG d   1       5.194  -1.142  -3.053  0.00  0.00    -0.033 A 
ATOM      2  C   LIG d   1       6.455  -1.645  -2.897  0.00  0.00    -0.016 A 
ATOM      3  C   LIG d   1       7.289  -1.799  -4.000  0.00  0.00     0.129 A 
ATOM      4  C   LIG d   1       6.854  -1.445  -5.268  0.00  0.00     0.081 A 
ATOM      5  C   LIG d   1       5.574  -0.932  -5.445  0.00  0.00     0.151 A 
ATOM      6  C   LIG d   1       4.743  -0.782  -4.323  0.00  0.00     0.071 A 
ATOM      7  C   LIG d   1       3.474  -0.219  -4.820  0.00  0.00     0.232 A 
ATOM      8  O   LIG d   1       2.482   0.070  -4.173  0.00  0.00    -0.283 OA
ATOM      9  C   LIG d   1       3.673  -0.085  -6.270  0.00  0.00     0.176 A 
ATOM     10  C   LIG d   1       2.767   0.392  -7.163  0.00  0.00    -0.008 C 
ATOM     11  O   LIG d   1       4.923  -0.519  -6.553  0.00  0.00    -0.451 OA
ATOM     12  H   LIG d   1       6.804  -1.925  -1.914  0.00  0.00     0.066 H 
ATOM     13  H   LIG d   1       1.826   0.790  -6.817  0.00  0.00     0.066 H 
ENDROOT
BRANCH  10  14
ATOM     14  C   LIG d   1       3.069   0.365  -8.600  0.00  0.00    -0.021 A 
ATOM     15  C   LIG d   1       3.647   1.481  -9.217  0.00  0.00    -0.051 A 
ATOM     16  C   LIG d   1       3.932   1.449 -10.564  0.00  0.00    -0.019 A 
ATOM     17  H   LIG d   1       3.872   2.365  -8.638  0.00  0.00     0.062 H 
ATOM     18  C   LIG d   1       3.639   0.315 -11.312  0.00  0.00     0.120 A 
ATOM     19  H   LIG d   1       4.381   2.307 -11.040  0.00  0.00     0.065 H 
ATOM     20  C   LIG d   1       3.065  -0.797 -10.704  0.00  0.00    -0.019 A 
ATOM     21  C   LIG d   1       2.780  -0.777  -9.358  0.00  0.00    -0.051 A 
ATOM     22  H   LIG d   1       2.844  -1.677 -11.288  0.00  0.00     0.065 H 
ATOM     23  H   LIG d   1       2.335  -1.641  -8.886  0.00  0.00     0.062 H 
BRANCH  18  24
ATOM     24  O   LIG d   1       3.918   0.290 -12.640  0.00  0.00    -0.495 OA
BRANCH  24  25
ATOM     25  C   LIG d   1       3.981  -0.993 -13.265  0.00  0.00     0.079 C 
ATOM     26  H   LIG d   1       4.296  -1.739 -12.534  0.00  0.00     0.066 H 
ATOM     27  H   LIG d   1       2.996  -1.258 -13.652  0.00  0.00     0.066 H 
ATOM     28  H   LIG d   1       4.697  -0.963 -14.086  0.00  0.00     0.066 H 
ENDBRANCH  24  25
ENDBRANCH  18  24
ENDBRANCH  10  14
BRANCH   1  29
ATOM     29  C   LIG d   1       4.293  -0.976  -1.856  0.00  0.00    -0.039 C 
ATOM     30  H   LIG d   1       3.742  -1.902  -1.686  0.00  0.00     0.028 H 
ATOM     31  H   LIG d   1       4.894  -0.743  -0.978  0.00  0.00     0.028 H 
ATOM     32  H   LIG d   1       3.590  -0.164  -2.041  0.00  0.00     0.028 H 
ENDBRANCH   1  29
BRANCH   4  33
ATOM     33  C   LIG d   1       7.767  -1.615  -6.454  0.00  0.00     0.001 C 
ATOM     34  H   LIG d   1       8.742  -1.966  -6.114  0.00  0.00     0.087 H 
ATOM     35  H   LIG d   1       7.338  -2.345  -7.141  0.00  0.00     0.087 H 
BRANCH  33  36
ATOM     36  N   LIG d   1       7.897  -0.316  -7.146  0.00  0.00     0.234 N 
ATOM     37  H   LIG d   1       7.038   0.227  -7.002  0.00  0.00     0.203 HD
BRANCH  36  38
ATOM     38  C   LIG d   1       9.042   0.439  -6.593  0.00  0.00    -0.043 C 
ATOM     39  H   LIG d   1       9.786  -0.242  -6.181  0.00  0.00     0.078 H 
ATOM     40  H   LIG d   1       9.492   1.031  -7.389  0.00  0.00     0.078 H 
ATOM     41  H   LIG d   1       8.680   1.102  -5.807  0.00  0.00     0.078 H 
ENDBRANCH  36  38
BRANCH  36  42
ATOM     42  C   LIG d   1       8.089  -0.534  -8.595  0.00  0.00    -0.043 C 
ATOM     43  H   LIG d   1       7.255  -1.122  -8.978  0.00  0.00     0.078 H 
ATOM     44  H   LIG d   1       8.113   0.433  -9.099  0.00  0.00     0.078 H 
ATOM     45  H   LIG d   1       9.024  -1.064  -8.782  0.00  0.00     0.078 H 
ENDBRANCH  36  42
ENDBRANCH  33  36
ENDBRANCH   4  33
BRANCH   3  46
ATOM     46  O   LIG d   1       8.539  -2.300  -3.835  0.00  0.00    -0.506 OA
ATOM     47  H   LIG d   1       9.024  -1.909  -3.095  0.00  0.00     0.292 HD
ENDBRANCH   3  46
TORSDOF 9
ENDMDL
MODEL 2
REMARK VINA RESULT:      -5.7      0.724      1.468
REMARK  9 active torsions:
REMARK  status: ('A' for Active; 'I' for Inactive)
REMARK    1  A    between atoms: C_1  and  C_2 
REMARK    2  A    between atoms: C_4  and  O_24 
REMARK    3  A    between atoms: C_5  and  C_21 
REMARK    4  A    between atoms: C_11  and  C_12 
REMARK    5  A    between atoms: C_15  and  O_18 
REMARK    6  A    between atoms: O_18  and  C_19 
REMARK    7  A    between atoms: C_21  and  N_46 
REMARK    8  A    between atoms: C_22  and  N_46 
REMARK    9  A    between atoms: C_23  and  N_46 
ROOT
ATOM      1  C   LIG d   1       5.192  -1.149  -3.067  0.00  0.00    -0.033 A 
ATOM      2  C   LIG d   1       6.450  -1.659  -2.914  0.00  0.00    -0.016 A 
ATOM      3  C   LIG d   1       7.281  -1.817  -4.019  0.00  0.00     0.129 A 
ATOM      4  C   LIG d   1       6.845  -1.460  -5.286  0.00  0.00     0.081 A 
ATOM      5  C   LIG d   1       5.568  -0.941  -5.460  0.00  0.00     0.151 A 
ATOM      6  C   LIG d   1       4.739  -0.787  -4.336  0.00  0.00     0.071 A 
ATOM      7  C   LIG d   1       3.472  -0.217  -4.831  0.00  0.00     0.232 A 
ATOM      8  O   LIG d   1       2.483   0.076  -4.182  0.00  0.00    -0.283 OA
ATOM      9  C   LIG d   1       3.668  -0.085  -6.282  0.00  0.00     0.176 A 
ATOM     10  C   LIG d   1       2.764   0.397  -7.172  0.00  0.00    -0.008 C 
ATOM     11  O   LIG d   1       4.916  -0.525  -6.567  0.00  0.00    -0.451 OA
ATOM     12  H   LIG d   1       6.800  -1.940  -1.932  0.00  0.00     0.066 H 
ATOM     13  H   LIG d   1       1.825   0.800  -6.824  0.00  0.00     0.066 H 
ENDROOT
BRANCH  10  14
ATOM     14  C   LIG d   1       3.063   0.369  -8.610  0.00  0.00    -0.021 A 
ATOM     15  C   LIG d   1       2.744  -0.762  -9.372  0.00  0.00    -0.051 A 
ATOM     16  C   LIG d   1       3.022  -0.781 -10.720  0.00  0.00    -0.019 A 
ATOM     17  H   LIG d   1       2.277  -1.616  -8.904  0.00  0.00     0.062 H 
ATOM     18  C   LIG d   1       3.628   0.315 -11.323  0.00  0.00     0.120 A 
ATOM     19  H   LIG d   1       2.773  -1.650 -11.309  0.00  0.00     0.065 H 
ATOM     20  C   LIG d   1       3.947   1.441 -10.571  0.00  0.00    -0.019 A 
ATOM     21  C   LIG d   1       3.669   1.473  -9.224  0.00  0.00    -0.051 A 
ATOM     22  H   LIG d   1       4.413   2.292 -11.045  0.00  0.00     0.065 H 
ATOM     23  H   LIG d   1       3.917   2.347  -8.640  0.00  0.00     0.062 H 
BRANCH  18  24
ATOM     24  O   LIG d   1       3.904   0.290 -12.651  0.00  0.00    -0.495 OA
BRANCH  24  25
ATOM     25  C   LIG d   1       4.057  -0.995 -13.257  0.00  0.00     0.079 C 
ATOM     26  H   LIG d   1       5.094  -1.321 -13.161  0.00  0.00     0.066 H 
ATOM     27  H   LIG d   1       3.403  -1.712 -12.761  0.00  0.00     0.066 H 
ATOM     28  H   LIG d   1       3.792  -0.933 -14.312  0.00  0.00     0.066 H 
ENDBRANCH  24  25
ENDBRANCH  18  24
ENDBRANCH  10  14
BRANCH   1  29
ATOM     29  C   LIG d   1       4.293  -0.979  -1.869  0.00  0.00    -0.039 C 
ATOM     30  H   LIG d   1       3.251  -1.017  -2.188  0.00  0.00     0.028 H 
ATOM     31  H   LIG d   1       4.484  -1.780  -1.155  0.00  0.00     0.028 H 
ATOM     32  H   LIG d   1       4.495  -0.017  -1.398  0.00  0.00     0.028 H 
ENDBRANCH   1  29
BRANCH   4  33
ATOM     33  C   LIG d   1       7.755  -1.635  -6.473  0.00  0.00     0.001 C 
ATOM     34  H   LIG d   1       8.115  -0.660  -6.802  0.00  0.00     0.087 H 
ATOM     35  H   LIG d   1       8.604  -2.259  -6.191  0.00  0.00     0.087 H 
BRANCH  33  36
ATOM     36  N   LIG d   1       7.003  -2.302  -7.557  0.00  0.00     0.234 N 
ATOM     37  H   LIG d   1       6.013  -2.045  -7.483  0.00  0.00     0.203 HD
BRANCH  36  38
ATOM     38  C   LIG d   1       7.517  -1.865  -8.872  0.00  0.00    -0.043 C 
ATOM     39  H   LIG d   1       7.185  -2.542  -9.657  0.00  0.00     0.078 H 
ATOM     40  H   LIG d   1       7.151  -0.860  -9.079  0.00  0.00     0.078 H 
ATOM     41  H   LIG d   1       8.607  -1.854  -8.838  0.00  0.00     0.078 H 
ENDBRANCH  36  38
BRANCH  36  42
ATOM     42  C   LIG d   1       7.129  -3.769  -7.428  0.00  0.00    -0.043 C 
ATOM     43  H   LIG d   1       8.118  -4.007  -7.037  0.00  0.00     0.078 H 
ATOM     44  H   LIG d   1       6.368  -4.130  -6.735  0.00  0.00     0.078 H 
ATOM     45  H   LIG d   1       6.995  -4.251  -8.397  0.00  0.00     0.078 H 
ENDBRANCH  36  42
ENDBRANCH  33  36
ENDBRANCH   4  33
BRANCH   3  46
ATOM     46  O   LIG d   1       8.529  -2.324  -3.856  0.00  0.00    -0.506 OA
ATOM     47  H   LIG d   1       9.101  -1.786  -3.291  0.00  0.00     0.292 HD
ENDBRANCH   3  46
TORSDOF 9
ENDMDL
MODEL 3
REMARK VINA RESULT:      -5.3      3.610      7.337
REMARK  9 active torsions:
REMARK  status: ('A' for Active; 'I' for Inactive)
REMARK    1  A    between atoms: C_1  and  C_2 
REMARK    2  A    between atoms: C_4  and  O_24 
REMARK    3  A    between atoms: C_5  and  C_21 
REMARK    4  A    between atoms: C_11  and  C_12 
REMARK    5  A    between atoms: C_15  and  O_18 
REMARK    6  A    between atoms: O_18  and  C_19 
REMARK    7  A    between atoms: C_21  and  N_46 
REMARK    8  A    between atoms: C_22  and  N_46 
REMARK    9  A    between atoms: C_23  and  N_46 
ROOT
ATOM      1  C   LIG d   1       3.300  -5.939  -9.323  0.00  0.00    -0.033 A 
ATOM      2  C   LIG d   1       2.998  -5.222 -10.446  0.00  0.00    -0.016 A 
ATOM      3  C   LIG d   1       3.119  -3.835 -10.445  0.00  0.00     0.129 A 
ATOM      4  C   LIG d   1       3.546  -3.166  -9.308  0.00  0.00     0.081 A 
ATOM      5  C   LIG d   1       3.856  -3.881  -8.157  0.00  0.00     0.151 A 
ATOM      6  C   LIG d   1       3.730  -5.279  -8.172  0.00  0.00     0.071 A 
ATOM      7  C   LIG d   1       4.130  -5.746  -6.831  0.00  0.00     0.232 A 
ATOM      8  O   LIG d   1       4.170  -6.893  -6.422  0.00  0.00    -0.283 OA
ATOM      9  C   LIG d   1       4.468  -4.517  -6.099  0.00  0.00     0.176 A 
ATOM     10  C   LIG d   1       4.891  -4.443  -4.811  0.00  0.00    -0.008 C 
ATOM     11  O   LIG d   1       4.285  -3.474  -6.943  0.00  0.00    -0.451 OA
ATOM     12  H   LIG d   1       2.665  -5.733 -11.337  0.00  0.00     0.066 H 
ATOM     13  H   LIG d   1       5.083  -5.346  -4.252  0.00  0.00     0.066 H 
ENDROOT
BRANCH  10  14
ATOM     14  C   LIG d   1       5.088  -3.132  -4.178  0.00  0.00    -0.021 A 
ATOM     15  C   LIG d   1       6.294  -2.442  -4.352  0.00  0.00    -0.051 A 
ATOM     16  C   LIG d   1       6.470  -1.211  -3.760  0.00  0.00    -0.019 A 
ATOM     17  H   LIG d   1       7.082  -2.871  -4.953  0.00  0.00     0.062 H 
ATOM     18  C   LIG d   1       5.459  -0.659  -2.982  0.00  0.00     0.120 A 
ATOM     19  H   LIG d   1       7.398  -0.676  -3.897  0.00  0.00     0.065 H 
ATOM     20  C   LIG d   1       4.260  -1.341  -2.805  0.00  0.00    -0.019 A 
ATOM     21  C   LIG d   1       4.071  -2.569  -3.397  0.00  0.00    -0.051 A 
ATOM     22  H   LIG d   1       3.476  -0.906  -2.204  0.00  0.00     0.065 H 
ATOM     23  H   LIG d   1       3.138  -3.098  -3.259  0.00  0.00     0.062 H 
BRANCH  18  24
ATOM     24  O   LIG d   1       5.641   0.551  -2.397  0.00  0.00    -0.495 OA
BRANCH  24  25
ATOM     25  C   LIG d   1       4.537   1.091  -1.667  0.00  0.00     0.079 C 
ATOM     26  H   LIG d   1       4.506   0.646  -0.672  0.00  0.00     0.066 H 
ATOM     27  H   LIG d   1       4.653   2.171  -1.578  0.00  0.00     0.066 H 
ATOM     28  H   LIG d   1       3.609   0.868  -2.194  0.00  0.00     0.066 H 
ENDBRANCH  24  25
ENDBRANCH  18  24
ENDBRANCH  10  14
BRANCH   1  29
ATOM     29  C   LIG d   1       3.169  -7.441  -9.328  0.00  0.00    -0.039 C 
ATOM     30  H   LIG d   1       3.932  -7.871  -9.978  0.00  0.00     0.028 H 
ATOM     31  H   LIG d   1       3.300  -7.820  -8.315  0.00  0.00     0.028 H 
ATOM     32  H   LIG d   1       2.181  -7.718  -9.695  0.00  0.00     0.028 H 
ENDBRANCH   1  29
BRANCH   4  33
ATOM     33  C   LIG d   1       3.673  -1.665  -9.320  0.00  0.00     0.001 C 
ATOM     34  H   LIG d   1       4.631  -1.378  -8.884  0.00  0.00     0.087 H 
ATOM     35  H   LIG d   1       3.620  -1.305 -10.348  0.00  0.00     0.087 H 
BRANCH  33  36
ATOM     36  N   LIG d   1       2.557  -1.085  -8.545  0.00  0.00     0.234 N 
ATOM     37  H   LIG d   1       2.096  -1.832  -8.013  0.00  0.00     0.203 HD
BRANCH  36  38
ATOM     38  C   LIG d   1       3.071  -0.070  -7.602  0.00  0.00    -0.043 C 
ATOM     39  H   LIG d   1       2.589  -0.171  -6.630  0.00  0.00     0.078 H 
ATOM     40  H   LIG d   1       4.146  -0.203  -7.490  0.00  0.00     0.078 H 
ATOM     41  H   LIG d   1       2.868   0.922  -8.007  0.00  0.00     0.078 H 
ENDBRANCH  36  38
BRANCH  36  42
ATOM     42  C   LIG d   1       1.572  -0.471  -9.461  0.00  0.00    -0.043 C 
ATOM     43  H   LIG d   1       1.742  -0.852 -10.468  0.00  0.00     0.078 H 
ATOM     44  H   LIG d   1       0.568  -0.742  -9.134  0.00  0.00     0.078 H 
ATOM     45  H   LIG d   1       1.674   0.615  -9.460  0.00  0.00     0.078 H 
ENDBRANCH  36  42
ENDBRANCH  33  36
ENDBRANCH   4  33
BRANCH   3  46
ATOM     46  O   LIG d   1       2.817  -3.132 -11.565  0.00  0.00    -0.506 OA
ATOM     47  H   LIG d   1       3.548  -2.596 -11.902  0.00  0.00     0.292 HD
ENDBRANCH   3  46
TORSDOF 9
ENDMDL
MODEL 4
REMARK VINA RESULT:      -5.2      3.094      6.469
REMARK  9 active torsions:
REMARK  status: ('A' for Active; 'I' for Inactive)
REMARK    1  A    between atoms: C_1  and  C_2 
REMARK    2  A    between atoms: C_4  and  O_24 
REMARK    3  A    between atoms: C_5  and  C_21 
REMARK    4  A    between atoms: C_11  and  C_12 
REMARK    5  A    between atoms: C_15  and  O_18 
REMARK    6  A    between atoms: O_18  and  C_19 
REMARK    7  A    between atoms: C_21  and  N_46 
REMARK    8  A    between atoms: C_22  and  N_46 
REMARK    9  A    between atoms: C_23  and  N_46 
ROOT
ATOM      1  C   LIG d   1       9.561   3.852  -6.197  0.00  0.00    -0.033 A 
ATOM      2  C   LIG d   1       9.572   4.043  -7.550  0.00  0.00    -0.016 A 
ATOM      3  C   LIG d   1       8.856   3.188  -8.383  0.00  0.00     0.129 A 
ATOM      4  C   LIG d   1       8.126   2.136  -7.854  0.00  0.00     0.081 A 
ATOM      5  C   LIG d   1       8.104   1.928  -6.480  0.00  0.00     0.151 A 
ATOM      6  C   LIG d   1       8.830   2.797  -5.650  0.00  0.00     0.071 A 
ATOM      7  C   LIG d   1       8.611   2.331  -4.268  0.00  0.00     0.232 A 
ATOM      8  O   LIG d   1       9.057   2.810  -3.240  0.00  0.00    -0.283 OA
ATOM      9  C   LIG d   1       7.734   1.160  -4.409  0.00  0.00     0.176 A 
ATOM     10  C   LIG d   1       7.258   0.389  -3.398  0.00  0.00    -0.008 C 
ATOM     11  O   LIG d   1       7.482   0.994  -5.729  0.00  0.00    -0.451 OA
ATOM     12  H   LIG d   1      10.138   4.859  -7.973  0.00  0.00     0.066 H 
ATOM     13  H   LIG d   1       7.455   0.662  -2.372  0.00  0.00     0.066 H 
ENDROOT
BRANCH  10  14
ATOM     14  C   LIG d   1       6.478  -0.817  -3.700  0.00  0.00    -0.021 A 
ATOM     15  C   LIG d   1       5.088  -0.817  -3.526  0.00  0.00    -0.051 A 
ATOM     16  C   LIG d   1       4.361  -1.949  -3.816  0.00  0.00    -0.019 A 
ATOM     17  H   LIG d   1       4.587   0.071  -3.170  0.00  0.00     0.062 H 
ATOM     18  C   LIG d   1       5.003  -3.095  -4.269  0.00  0.00     0.120 A 
ATOM     19  H   LIG d   1       3.288  -1.948  -3.686  0.00  0.00     0.065 H 
ATOM     20  C   LIG d   1       6.383  -3.101  -4.443  0.00  0.00    -0.019 A 
ATOM     21  C   LIG d   1       7.120  -1.974  -4.162  0.00  0.00    -0.051 A 
ATOM     22  H   LIG d   1       6.877  -3.992  -4.801  0.00  0.00     0.065 H 
ATOM     23  H   LIG d   1       8.192  -1.980  -4.298  0.00  0.00     0.062 H 
BRANCH  18  24
ATOM     24  O   LIG d   1       4.282  -4.210  -4.548  0.00  0.00    -0.495 OA
BRANCH  24  25
ATOM     25  C   LIG d   1       4.760  -5.044  -5.605  0.00  0.00     0.079 C 
ATOM     26  H   LIG d   1       3.923  -5.348  -6.235  0.00  0.00     0.066 H 
ATOM     27  H   LIG d   1       5.483  -4.492  -6.206  0.00  0.00     0.066 H 
ATOM     28  H   LIG d   1       5.238  -5.927  -5.184  0.00  0.00     0.066 H 
ENDBRANCH  24  25
ENDBRANCH  18  24
ENDBRANCH  10  14
BRANCH   1  29
ATOM     29  C   LIG d   1      10.337   4.779  -5.296  0.00  0.00    -0.039 C 
ATOM     30  H   LIG d   1      11.221   5.141  -5.823  0.00  0.00     0.028 H 
ATOM     31  H   LIG d   1       9.709   5.625  -5.017  0.00  0.00     0.028 H 
ATOM     32  H   LIG d   1      10.643   4.241  -4.399  0.00  0.00     0.028 H 
ENDBRANCH   1  29
BRANCH   4  33
ATOM     33  C   LIG d   1       7.354   1.219  -8.767  0.00  0.00     0.001 C 
ATOM     34  H   LIG d   1       7.457   1.562  -9.797  0.00  0.00     0.087 H 
ATOM     35  H   LIG d   1       7.747   0.206  -8.681  0.00  0.00     0.087 H 
BRANCH  33  36
ATOM     36  N   LIG d   1       5.934   1.224  -8.359  0.00  0.00     0.234 N 
ATOM     37  H   LIG d   1       5.869   1.522  -7.379  0.00  0.00     0.203 HD
BRANCH  36  38
ATOM     38  C   LIG d   1       5.170   2.170  -9.200  0.00  0.00    -0.043 C 
ATOM     39  H   LIG d   1       4.269   2.500  -8.685  0.00  0.00     0.078 H 
ATOM     40  H   LIG d   1       5.797   3.032  -9.423  0.00  0.00     0.078 H 
ATOM     41  H   LIG d   1       4.895   1.671 -10.130  0.00  0.00     0.078 H 
ENDBRANCH  36  38
BRANCH  36  42
ATOM     42  C   LIG d   1       5.368  -0.135  -8.486  0.00  0.00    -0.043 C 
ATOM     43  H   LIG d   1       6.180  -0.841  -8.664  0.00  0.00     0.078 H 
ATOM     44  H   LIG d   1       4.858  -0.394  -7.558  0.00  0.00     0.078 H 
ATOM     45  H   LIG d   1       4.660  -0.179  -9.314  0.00  0.00     0.078 H 
ENDBRANCH  36  42
ENDBRANCH  33  36
ENDBRANCH   4  33
BRANCH   3  46
ATOM     46  O   LIG d   1       8.874   3.386  -9.725  0.00  0.00    -0.506 OA
ATOM     47  H   LIG d   1       8.004   3.567 -10.108  0.00  0.00     0.292 HD
ENDBRANCH   3  46
TORSDOF 9
ENDMDL
MODEL 5
REMARK VINA RESULT:      -5.2      8.990     12.337
REMARK  9 active torsions:
REMARK  status: ('A' for Active; 'I' for Inactive)
REMARK    1  A    between atoms: C_1  and  C_2 
REMARK    2  A    between atoms: C_4  and  O_24 
REMARK    3  A    between atoms: C_5  and  C_21 
REMARK    4  A    between atoms: C_11  and  C_12 
REMARK    5  A    between atoms: C_15  and  O_18 
REMARK    6  A    between atoms: O_18  and  C_19 
REMARK    7  A    between atoms: C_21  and  N_46 
REMARK    8  A    between atoms: C_22  and  N_46 
REMARK    9  A    between atoms: C_23  and  N_46 
ROOT
ATOM      1  C   LIG d   1       9.353   7.535  -7.879  0.00  0.00    -0.033 A 
ATOM      2  C   LIG d   1       9.355   8.862  -8.206  0.00  0.00    -0.016 A 
ATOM      3  C   LIG d   1       9.683   9.818  -7.249  0.00  0.00     0.129 A 
ATOM      4  C   LIG d   1      10.010   9.438  -5.956  0.00  0.00     0.081 A 
ATOM      5  C   LIG d   1      10.013   8.093  -5.607  0.00  0.00     0.151 A 
ATOM      6  C   LIG d   1       9.680   7.139  -6.581  0.00  0.00     0.071 A 
ATOM      7  C   LIG d   1       9.775   5.823  -5.922  0.00  0.00     0.232 A 
ATOM      8  O   LIG d   1       9.572   4.726  -6.414  0.00  0.00    -0.283 OA
ATOM      9  C   LIG d   1      10.168   6.131  -4.540  0.00  0.00     0.176 A 
ATOM     10  C   LIG d   1      10.377   5.229  -3.547  0.00  0.00    -0.008 C 
ATOM     11  O   LIG d   1      10.289   7.475  -4.439  0.00  0.00    -0.451 OA
ATOM     12  H   LIG d   1       9.102   9.168  -9.209  0.00  0.00     0.066 H 
ATOM     13  H   LIG d   1      10.334   4.172  -3.759  0.00  0.00     0.066 H 
ENDROOT
BRANCH  10  14
ATOM     14  C   LIG d   1      10.662   5.693  -2.183  0.00  0.00    -0.021 A 
ATOM     15  C   LIG d   1       9.889   6.711  -1.611  0.00  0.00    -0.051 A 
ATOM     16  C   LIG d   1      10.158   7.138  -0.330  0.00  0.00    -0.019 A 
ATOM     17  H   LIG d   1       9.082   7.158  -2.172  0.00  0.00     0.062 H 
ATOM     18  C   LIG d   1      11.200   6.568   0.392  0.00  0.00     0.120 A 
ATOM     19  H   LIG d   1       9.560   7.920   0.113  0.00  0.00     0.065 H 
ATOM     20  C   LIG d   1      11.971   5.557  -0.171  0.00  0.00    -0.019 A 
ATOM     21  C   LIG d   1      11.708   5.118  -1.449  0.00  0.00    -0.051 A 
ATOM     22  H   LIG d   1      12.776   5.114   0.395  0.00  0.00     0.065 H 
ATOM     23  H   LIG d   1      12.307   4.332  -1.885  0.00  0.00     0.062 H 
BRANCH  18  24
ATOM     24  O   LIG d   1      11.463   6.996   1.652  0.00  0.00    -0.495 OA
BRANCH  24  25
ATOM     25  C   LIG d   1      11.489   8.409   1.865  0.00  0.00     0.079 C 
ATOM     26  H   LIG d   1      11.680   8.916   0.919  0.00  0.00     0.066 H 
ATOM     27  H   LIG d   1      10.528   8.734   2.264  0.00  0.00     0.066 H 
ATOM     28  H   LIG d   1      12.278   8.655   2.575  0.00  0.00     0.066 H 
ENDBRANCH  24  25
ENDBRANCH  18  24
ENDBRANCH  10  14
BRANCH   1  29
ATOM     29  C   LIG d   1       8.998   6.501  -8.916  0.00  0.00    -0.039 C 
ATOM     30  H   LIG d   1       7.974   6.663  -9.255  0.00  0.00     0.028 H 
ATOM     31  H   LIG d   1       9.678   6.587  -9.763  0.00  0.00     0.028 H 
ATOM     32  H   LIG d   1       9.083   5.506  -8.481  0.00  0.00     0.028 H 
ENDBRANCH   1  29
BRANCH   4  33
ATOM     33  C   LIG d   1      10.365  10.484  -4.931  0.00  0.00     0.001 C 
ATOM     34  H   LIG d   1      11.391  10.331  -4.596  0.00  0.00     0.087 H 
ATOM     35  H   LIG d   1      10.272  11.475  -5.376  0.00  0.00     0.087 H 
BRANCH  33  36
ATOM     36  N   LIG d   1       9.426  10.374  -3.794  0.00  0.00     0.234 N 
ATOM     37  H   LIG d   1       8.847   9.537  -3.920  0.00  0.00     0.203 HD
BRANCH  36  38
ATOM     38  C   LIG d   1      10.179  10.253  -2.528  0.00  0.00    -0.043 C 
ATOM     39  H   LIG d   1       9.817   9.406  -1.947  0.00  0.00     0.078 H 
ATOM     40  H   LIG d   1      11.235  10.112  -2.756  0.00  0.00     0.078 H 
ATOM     41  H   LIG d   1      10.051  11.170  -1.953  0.00  0.00     0.078 H 
ENDBRANCH  36  38
BRANCH  36  42
ATOM     42  C   LIG d   1       8.549  11.563  -3.748  0.00  0.00    -0.043 C 
ATOM     43  H   LIG d   1       9.051  12.392  -4.247  0.00  0.00     0.078 H 
ATOM     44  H   LIG d   1       7.618  11.336  -4.268  0.00  0.00     0.078 H 
ATOM     45  H   LIG d   1       8.331  11.838  -2.716  0.00  0.00     0.078 H 
ENDBRANCH  36  42
ENDBRANCH  33  36
ENDBRANCH   4  33
BRANCH   3  46
ATOM     46  O   LIG d   1       9.682  11.133  -7.584  0.00  0.00    -0.506 OA
ATOM     47  H   LIG d   1       9.100  11.349  -8.325  0.00  0.00     0.292 HD
ENDBRANCH   3  46
TORSDOF 9
ENDMDL
MODEL 6
REMARK VINA RESULT:      -5.1      7.827     11.555
REMARK  9 active torsions:
REMARK  status: ('A' for Active; 'I' for Inactive)
REMARK    1  A    between atoms: C_1  and  C_2 
REMARK    2  A    between atoms: C_4  and  O_24 
REMARK    3  A    between atoms: C_5  and  C_21 
REMARK    4  A    between atoms: C_11  and  C_12 
REMARK    5  A    between atoms: C_15  and  O_18 
REMARK    6  A    between atoms: O_18  and  C_19 
REMARK    7  A    between atoms: C_21  and  N_46 
REMARK    8  A    between atoms: C_22  and  N_46 
REMARK    9  A    between atoms: C_23  and  N_46 
ROOT
ATOM      1  C   LIG d   1       9.404   5.782  -8.752  0.00  0.00    -0.033 A 
ATOM      2  C   LIG d   1       8.932   7.017  -9.095  0.00  0.00    -0.016 A 
ATOM      3  C   LIG d   1       8.951   8.056  -8.170  0.00  0.00     0.129 A 
ATOM      4  C   LIG d   1       9.447   7.853  -6.891  0.00  0.00     0.081 A 
ATOM      5  C   LIG d   1       9.930   6.602  -6.525  0.00  0.00     0.151 A 
ATOM      6  C   LIG d   1       9.905   5.562  -7.469  0.00  0.00     0.071 A 
ATOM      7  C   LIG d   1      10.479   4.381  -6.799  0.00  0.00     0.232 A 
ATOM      8  O   LIG d   1      10.647   3.267  -7.264  0.00  0.00    -0.283 OA
ATOM      9  C   LIG d   1      10.803   4.847  -5.443  0.00  0.00     0.176 A 
ATOM     10  C   LIG d   1      11.356   4.103  -4.450  0.00  0.00    -0.008 C 
ATOM     11  O   LIG d   1      10.456   6.153  -5.365  0.00  0.00    -0.451 OA
ATOM     12  H   LIG d   1       8.543   7.187 -10.089  0.00  0.00     0.066 H 
ATOM     13  H   LIG d   1      11.672   3.090  -4.647  0.00  0.00     0.066 H 
ENDROOT
BRANCH  10  14
ATOM     14  C   LIG d   1      11.523   4.678  -3.109  0.00  0.00    -0.021 A 
ATOM     15  C   LIG d   1      10.400   4.992  -2.334  0.00  0.00    -0.051 A 
ATOM     16  C   LIG d   1      10.564   5.525  -1.075  0.00  0.00    -0.019 A 
ATOM     17  H   LIG d   1       9.408   4.812  -2.720  0.00  0.00     0.062 H 
ATOM     18  C   LIG d   1      11.840   5.763  -0.578  0.00  0.00     0.120 A 
ATOM     19  H   LIG d   1       9.699   5.764  -0.475  0.00  0.00     0.065 H 
ATOM     20  C   LIG d   1      12.959   5.453  -1.344  0.00  0.00    -0.019 A 
ATOM     21  C   LIG d   1      12.807   4.915  -2.601  0.00  0.00    -0.051 A 
ATOM     22  H   LIG d   1      13.948   5.635  -0.951  0.00  0.00     0.065 H 
ATOM     23  H   LIG d   1      13.677   4.674  -3.195  0.00  0.00     0.062 H 
BRANCH  18  24
ATOM     24  O   LIG d   1      11.995   6.293   0.661  0.00  0.00    -0.495 OA
BRANCH  24  25
ATOM     25  C   LIG d   1      11.050   5.900   1.658  0.00  0.00     0.079 C 
ATOM     26  H   LIG d   1      11.343   4.936   2.077  0.00  0.00     0.066 H 
ATOM     27  H   LIG d   1      11.026   6.648   2.451  0.00  0.00     0.066 H 
ATOM     28  H   LIG d   1      10.061   5.816   1.209  0.00  0.00     0.066 H 
ENDBRANCH  24  25
ENDBRANCH  18  24
ENDBRANCH  10  14
BRANCH   1  29
ATOM     29  C   LIG d   1       9.382   4.658  -9.756  0.00  0.00    -0.039 C 
ATOM     30  H   LIG d   1       9.997   4.927 -10.616  0.00  0.00     0.028 H 
ATOM     31  H   LIG d   1       9.777   3.752  -9.297  0.00  0.00     0.028 H 
ATOM     32  H   LIG d   1       8.357   4.483 -10.083  0.00  0.00     0.028 H 
ENDBRANCH   1  29
BRANCH   4  33
ATOM     33  C   LIG d   1       9.463   8.987  -5.900  0.00  0.00     0.001 C 
ATOM     34  H   LIG d   1       8.441   9.309  -5.700  0.00  0.00     0.087 H 
ATOM     35  H   LIG d   1       9.926   8.651  -4.971  0.00  0.00     0.087 H 
BRANCH  33  36
ATOM     36  N   LIG d   1      10.257  10.100  -6.461  0.00  0.00     0.234 N 
ATOM     37  H   LIG d   1      10.156  10.100  -7.482  0.00  0.00     0.203 HD
BRANCH  36  38
ATOM     38  C   LIG d   1       9.766  11.388  -5.929  0.00  0.00    -0.043 C 
ATOM     39  H   LIG d   1      10.543  12.149  -5.989  0.00  0.00     0.078 H 
ATOM     40  H   LIG d   1       8.901  11.705  -6.511  0.00  0.00     0.078 H 
ATOM     41  H   LIG d   1       9.472  11.251  -4.888  0.00  0.00     0.078 H 
ENDBRANCH  36  38
BRANCH  36  42
ATOM     42  C   LIG d   1      11.684   9.924  -6.120  0.00  0.00    -0.043 C 
ATOM     43  H   LIG d   1      12.250   9.765  -7.039  0.00  0.00     0.078 H 
ATOM     44  H   LIG d   1      12.043  10.826  -5.624  0.00  0.00     0.078 H 
ATOM     45  H   LIG d   1      11.817   9.067  -5.459  0.00  0.00     0.078 H 
ENDBRANCH  36  42
ENDBRANCH  33  36
ENDBRANCH   4  33
BRANCH   3  46
ATOM     46  O   LIG d   1       8.480   9.279  -8.521  0.00  0.00    -0.506 OA
ATOM     47  H   LIG d   1       8.941  10.015  -8.096  0.00  0.00     0.292 HD
ENDBRANCH   3  46
TORSDOF 9
ENDMDL
MODEL 7
REMARK VINA RESULT:      -4.9      3.701      7.301
REMARK  9 active torsions:
REMARK  status: ('A' for Active; 'I' for Inactive)
REMARK    1  A    between atoms: C_1  and  C_2 
REMARK    2  A    between atoms: C_4  and  O_24 
REMARK    3  A    between atoms: C_5  and  C_21 
REMARK    4  A    between atoms: C_11  and  C_12 
REMARK    5  A    between atoms: C_15  and  O_18 
REMARK    6  A    between atoms: O_18  and  C_19 
REMARK    7  A    between atoms: C_21  and  N_46 
REMARK    8  A    between atoms: C_22  and  N_46 
REMARK    9  A    between atoms: C_23  and  N_46 
ROOT
ATOM      1  C   LIG d   1       2.914   0.453  -8.784  0.00  0.00    -0.033 A 
ATOM      2  C   LIG d   1       2.428   0.224 -10.040  0.00  0.00    -0.016 A 
ATOM      3  C   LIG d   1       2.477  -1.055 -10.588  0.00  0.00     0.129 A 
ATOM      4  C   LIG d   1       3.017  -2.109  -9.869  0.00  0.00     0.081 A 
ATOM      5  C   LIG d   1       3.517  -1.894  -8.590  0.00  0.00     0.151 A 
ATOM      6  C   LIG d   1       3.462  -0.599  -8.049  0.00  0.00     0.071 A 
ATOM      7  C   LIG d   1       4.052  -0.687  -6.701  0.00  0.00     0.232 A 
ATOM      8  O   LIG d   1       4.193   0.210  -5.888  0.00  0.00    -0.283 OA
ATOM      9  C   LIG d   1       4.432  -2.100  -6.557  0.00  0.00     0.176 A 
ATOM     10  C   LIG d   1       5.022  -2.665  -5.471  0.00  0.00    -0.008 C 
ATOM     11  O   LIG d   1       4.084  -2.736  -7.699  0.00  0.00    -0.451 OA
ATOM     12  H   LIG d   1       2.005   1.038 -10.610  0.00  0.00     0.066 H 
ATOM     13  H   LIG d   1       5.180  -2.080  -4.578  0.00  0.00     0.066 H 
ENDROOT
BRANCH  10  14
ATOM     14  C   LIG d   1       5.443  -4.070  -5.514  0.00  0.00    -0.021 A 
ATOM     15  C   LIG d   1       6.804  -4.395  -5.554  0.00  0.00    -0.051 A 
ATOM     16  C   LIG d   1       7.194  -5.715  -5.588  0.00  0.00    -0.019 A 
ATOM     17  H   LIG d   1       7.548  -3.612  -5.553  0.00  0.00     0.062 H 
ATOM     18  C   LIG d   1       6.239  -6.725  -5.594  0.00  0.00     0.120 A 
ATOM     19  H   LIG d   1       8.243  -5.967  -5.615  0.00  0.00     0.065 H 
ATOM     20  C   LIG d   1       4.884  -6.408  -5.555  0.00  0.00    -0.019 A 
ATOM     21  C   LIG d   1       4.484  -5.092  -5.515  0.00  0.00    -0.051 A 
ATOM     22  H   LIG d   1       4.146  -7.196  -5.555  0.00  0.00     0.065 H 
ATOM     23  H   LIG d   1       3.432  -4.847  -5.484  0.00  0.00     0.062 H 
BRANCH  18  24
ATOM     24  O   LIG d   1       6.627  -8.024  -5.633  0.00  0.00    -0.495 OA
BRANCH  24  25
ATOM     25  C   LIG d   1       5.984  -8.921  -4.727  0.00  0.00     0.079 C 
ATOM     26  H   LIG d   1       6.317  -9.941  -4.926  0.00  0.00     0.066 H 
ATOM     27  H   LIG d   1       6.239  -8.649  -3.702  0.00  0.00     0.066 H 
ATOM     28  H   LIG d   1       4.904  -8.860  -4.859  0.00  0.00     0.066 H 
ENDBRANCH  24  25
ENDBRANCH  18  24
ENDBRANCH  10  14
BRANCH   1  29
ATOM     29  C   LIG d   1       2.861   1.838  -8.193  0.00  0.00    -0.039 C 
ATOM     30  H   LIG d   1       2.004   1.914  -7.523  0.00  0.00     0.028 H 
ATOM     31  H   LIG d   1       3.776   2.032  -7.636  0.00  0.00     0.028 H 
ATOM     32  H   LIG d   1       2.761   2.571  -8.994  0.00  0.00     0.028 H 
ENDBRANCH   1  29
BRANCH   4  33
ATOM     33  C   LIG d   1       3.063  -3.489 -10.473  0.00  0.00     0.001 C 
ATOM     34  H   LIG d   1       2.762  -3.437 -11.519  0.00  0.00     0.087 H 
ATOM     35  H   LIG d   1       4.077  -3.882 -10.406  0.00  0.00     0.087 H 
BRANCH  33  36
ATOM     36  N   LIG d   1       2.151  -4.371  -9.715  0.00  0.00     0.234 N 
ATOM     37  H   LIG d   1       1.867  -3.895  -8.851  0.00  0.00     0.203 HD
BRANCH  36  38
ATOM     38  C   LIG d   1       0.946  -4.664 -10.520  0.00  0.00    -0.043 C 
ATOM     39  H   LIG d   1       0.663  -5.711 -10.419  0.00  0.00     0.078 H 
ATOM     40  H   LIG d   1       0.129  -4.031 -10.177  0.00  0.00     0.078 H 
ATOM     41  H   LIG d   1       1.160  -4.445 -11.567  0.00  0.00     0.078 H 
ENDBRANCH  36  38
BRANCH  36  42
ATOM     42  C   LIG d   1       2.842  -5.630  -9.365  0.00  0.00    -0.043 C 
ATOM     43  H   LIG d   1       2.374  -6.452  -9.907  0.00  0.00     0.078 H 
ATOM     44  H   LIG d   1       3.890  -5.551  -9.658  0.00  0.00     0.078 H 
ATOM     45  H   LIG d   1       2.778  -5.817  -8.293  0.00  0.00     0.078 H 
ENDBRANCH  36  42
ENDBRANCH  33  36
ENDBRANCH   4  33
BRANCH   3  46
ATOM     46  O   LIG d   1       1.991  -1.271 -11.836  0.00  0.00    -0.506 OA
ATOM     47  H   LIG d   1       1.930  -2.206 -12.077  0.00  0.00     0.292 HD
ENDBRANCH   3  46
TORSDOF 9
ENDMDL
MODEL 8
REMARK VINA RESULT:      -4.7      8.767     11.839
REMARK  9 active torsions:
REMARK  status: ('A' for Active; 'I' for Inactive)
REMARK    1  A    between atoms: C_1  and  C_2 
REMARK    2  A    between atoms: C_4  and  O_24 
REMARK    3  A    between atoms: C_5  and  C_21 
REMARK    4  A    between atoms: C_11  and  C_12 
REMARK    5  A    between atoms: C_15  and  O_18 
REMARK    6  A    between atoms: O_18  and  C_19 
REMARK    7  A    between atoms: C_21  and  N_46 
REMARK    8  A    between atoms: C_22  and  N_46 
REMARK    9  A    between atoms: C_23  and  N_46 
ROOT
ATOM      1  C   LIG d   1       9.658   4.194  -5.957  0.00  0.00    -0.033 A 
ATOM      2  C   LIG d   1       9.858   4.816  -7.156  0.00  0.00    -0.016 A 
ATOM      3  C   LIG d   1      10.271   6.145  -7.196  0.00  0.00     0.129 A 
ATOM      4  C   LIG d   1      10.483   6.852  -6.022  0.00  0.00     0.081 A 
ATOM      5  C   LIG d   1      10.283   6.234  -4.793  0.00  0.00     0.151 A 
ATOM      6  C   LIG d   1       9.867   4.893  -4.768  0.00  0.00     0.071 A 
ATOM      7  C   LIG d   1       9.750   4.523  -3.346  0.00  0.00     0.232 A 
ATOM      8  O   LIG d   1       9.420   3.445  -2.880  0.00  0.00    -0.283 OA
ATOM      9  C   LIG d   1      10.118   5.744  -2.615  0.00  0.00     0.176 A 
ATOM     10  C   LIG d   1      10.155   5.890  -1.265  0.00  0.00    -0.008 C 
ATOM     11  O   LIG d   1      10.418   6.694  -3.531  0.00  0.00    -0.451 OA
ATOM     12  H   LIG d   1       9.696   4.275  -8.077  0.00  0.00     0.066 H 
ATOM     13  H   LIG d   1       9.976   5.039  -0.625  0.00  0.00     0.066 H 
ENDROOT
BRANCH  10  14
ATOM     14  C   LIG d   1      10.438   7.205  -0.677  0.00  0.00    -0.021 A 
ATOM     15  C   LIG d   1      11.623   7.415   0.037  0.00  0.00    -0.051 A 
ATOM     16  C   LIG d   1      11.886   8.652   0.582  0.00  0.00    -0.019 A 
ATOM     17  H   LIG d   1      12.333   6.610   0.157  0.00  0.00     0.062 H 
ATOM     18  C   LIG d   1      10.972   9.688   0.434  0.00  0.00     0.120 A 
ATOM     19  H   LIG d   1      12.802   8.816   1.130  0.00  0.00     0.065 H 
ATOM     20  C   LIG d   1       9.791   9.485  -0.274  0.00  0.00    -0.019 A 
ATOM     21  C   LIG d   1       9.522   8.255  -0.828  0.00  0.00    -0.051 A 
ATOM     22  H   LIG d   1       9.087  10.294  -0.391  0.00  0.00     0.065 H 
ATOM     23  H   LIG d   1       8.605   8.098  -1.378  0.00  0.00     0.062 H 
BRANCH  18  24
ATOM     24  O   LIG d   1      11.233  10.904   0.977  0.00  0.00    -0.495 OA
BRANCH  24  25
ATOM     25  C   LIG d   1      10.342  11.969   0.640  0.00  0.00     0.079 C 
ATOM     26  H   LIG d   1      10.901  12.769   0.153  0.00  0.00     0.066 H 
ATOM     27  H   LIG d   1       9.572  11.600  -0.037  0.00  0.00     0.066 H 
ATOM     28  H   LIG d   1       9.875  12.353   1.547  0.00  0.00     0.066 H 
ENDBRANCH  24  25
ENDBRANCH  18  24
ENDBRANCH  10  14
BRANCH   1  29
ATOM     29  C   LIG d   1       9.212   2.755  -5.917  0.00  0.00    -0.039 C 
ATOM     30  H   LIG d   1       9.853   2.157  -6.566  0.00  0.00     0.028 H 
ATOM     31  H   LIG d   1       9.280   2.381  -4.896  0.00  0.00     0.028 H 
ATOM     32  H   LIG d   1       8.180   2.685  -6.262  0.00  0.00     0.028 H 
ENDBRANCH   1  29
BRANCH   4  33
ATOM     33  C   LIG d   1      10.930   8.290  -6.079  0.00  0.00     0.001 C 
ATOM     34  H   LIG d   1      11.412   8.558  -5.138  0.00  0.00     0.087 H 
ATOM     35  H   LIG d   1      11.638   8.418  -6.898  0.00  0.00     0.087 H 
BRANCH  33  36
ATOM     36  N   LIG d   1       9.751   9.147  -6.320  0.00  0.00     0.234 N 
ATOM     37  H   LIG d   1       8.954   8.554  -6.577  0.00  0.00     0.203 HD
BRANCH  36  38
ATOM     38  C   LIG d   1       9.414   9.899  -5.093  0.00  0.00    -0.043 C 
ATOM     39  H   LIG d   1       9.709   9.338  -4.207  0.00  0.00     0.078 H 
ATOM     40  H   LIG d   1       9.937  10.855  -5.109  0.00  0.00     0.078 H 
ATOM     41  H   LIG d   1       8.338  10.074  -5.070  0.00  0.00     0.078 H 
ENDBRANCH  36  38
BRANCH  36  42
ATOM     42  C   LIG d   1      10.028  10.086  -7.427  0.00  0.00    -0.043 C 
ATOM     43  H   LIG d   1      10.099  11.096  -7.024  0.00  0.00     0.078 H 
ATOM     44  H   LIG d   1      10.974   9.813  -7.894  0.00  0.00     0.078 H 
ATOM     45  H   LIG d   1       9.231  10.047  -8.171  0.00  0.00     0.078 H 
ENDBRANCH  36  42
ENDBRANCH  33  36
ENDBRANCH   4  33
BRANCH   3  46
ATOM     46  O   LIG d   1      10.466   6.754  -8.392  0.00  0.00    -0.506 OA
ATOM     47  H   LIG d   1       9.681   7.198  -8.740  0.00  0.00     0.292 HD
ENDBRANCH   3  46
TORSDOF 9
ENDMDL
MODEL 9
REMARK VINA RESULT:      -4.6      3.485      7.427
REMARK  9 active torsions:
REMARK  status: ('A' for Active; 'I' for Inactive)
REMARK    1  A    between atoms: C_1  and  C_2 
REMARK    2  A    between atoms: C_4  and  O_24 
REMARK    3  A    between atoms: C_5  and  C_21 
REMARK    4  A    between atoms: C_11  and  C_12 
REMARK    5  A    between atoms: C_15  and  O_18 
REMARK    6  A    between atoms: O_18  and  C_19 
REMARK    7  A    between atoms: C_21  and  N_46 
REMARK    8  A    between atoms: C_22  and  N_46 
REMARK    9  A    between atoms: C_23  and  N_46 
ROOT
ATOM      1  C   LIG d   1       5.394  -1.014  -7.887  0.00  0.00    -0.033 A 
ATOM      2  C   LIG d   1       4.663  -1.861  -7.103  0.00  0.00    -0.016 A 
ATOM      3  C   LIG d   1       4.808  -1.835  -5.719  0.00  0.00     0.129 A 
ATOM      4  C   LIG d   1       5.694  -0.953  -5.120  0.00  0.00     0.081 A 
ATOM      5  C   LIG d   1       6.446  -0.085  -5.903  0.00  0.00     0.151 A 
ATOM      6  C   LIG d   1       6.289  -0.122  -7.298  0.00  0.00     0.071 A 
ATOM      7  C   LIG d   1       7.200   0.901  -7.844  0.00  0.00     0.232 A 
ATOM      8  O   LIG d   1       7.371   1.200  -9.013  0.00  0.00    -0.283 OA
ATOM      9  C   LIG d   1       7.857   1.478  -6.662  0.00  0.00     0.176 A 
ATOM     10  C   LIG d   1       8.790   2.465  -6.666  0.00  0.00    -0.008 C 
ATOM     11  O   LIG d   1       7.360   0.852  -5.570  0.00  0.00    -0.451 OA
ATOM     12  H   LIG d   1       3.969  -2.553  -7.560  0.00  0.00     0.066 H 
ATOM     13  H   LIG d   1       9.054   2.955  -7.591  0.00  0.00     0.066 H 
ENDROOT
BRANCH  10  14
ATOM     14  C   LIG d   1       9.438   2.867  -5.411  0.00  0.00    -0.021 A 
ATOM     15  C   LIG d   1       9.122   4.095  -4.818  0.00  0.00    -0.051 A 
ATOM     16  C   LIG d   1       9.729   4.463  -3.638  0.00  0.00    -0.019 A 
ATOM     17  H   LIG d   1       8.399   4.750  -5.281  0.00  0.00     0.062 H 
ATOM     18  C   LIG d   1      10.663   3.624  -3.042  0.00  0.00     0.120 A 
ATOM     19  H   LIG d   1       9.483   5.408  -3.178  0.00  0.00     0.065 H 
ATOM     20  C   LIG d   1      10.981   2.403  -3.627  0.00  0.00    -0.019 A 
ATOM     21  C   LIG d   1      10.376   2.022  -4.803  0.00  0.00    -0.051 A 
ATOM     22  H   LIG d   1      11.703   1.752  -3.158  0.00  0.00     0.065 H 
ATOM     23  H   LIG d   1      10.624   1.073  -5.256  0.00  0.00     0.062 H 
BRANCH  18  24
ATOM     24  O   LIG d   1      11.262   3.994  -1.882  0.00  0.00    -0.495 OA
BRANCH  24  25
ATOM     25  C   LIG d   1      10.948   5.293  -1.376  0.00  0.00     0.079 C 
ATOM     26  H   LIG d   1      10.595   5.206  -0.347  0.00  0.00     0.066 H 
ATOM     27  H   LIG d   1      11.840   5.919  -1.401  0.00  0.00     0.066 H 
ATOM     28  H   LIG d   1      10.170   5.745  -1.990  0.00  0.00     0.066 H 
ENDBRANCH  24  25
ENDBRANCH  18  24
ENDBRANCH  10  14
BRANCH   1  29
ATOM     29  C   LIG d   1       5.234  -1.044  -9.386  0.00  0.00    -0.039 C 
ATOM     30  H   LIG d   1       5.780  -1.896  -9.792  0.00  0.00     0.028 H 
ATOM     31  H   LIG d   1       4.178  -1.136  -9.638  0.00  0.00     0.028 H 
ATOM     32  H   LIG d   1       5.631  -0.122  -9.811  0.00  0.00     0.028 H 
ENDBRANCH   1  29
BRANCH   4  33
ATOM     33  C   LIG d   1       5.840  -0.935  -3.621  0.00  0.00     0.001 C 
ATOM     34  H   LIG d   1       5.891  -1.958  -3.248  0.00  0.00     0.087 H 
ATOM     35  H   LIG d   1       6.754  -0.404  -3.352  0.00  0.00     0.087 H 
BRANCH  33  36
ATOM     36  N   LIG d   1       4.681  -0.228  -3.037  0.00  0.00     0.234 N 
ATOM     37  H   LIG d   1       3.930  -0.185  -3.735  0.00  0.00     0.203 HD
BRANCH  36  38
ATOM     38  C   LIG d   1       4.191  -0.958  -1.849  0.00  0.00    -0.043 C 
ATOM     39  H   LIG d   1       3.290  -0.488  -1.455  0.00  0.00     0.078 H 
ATOM     40  H   LIG d   1       3.970  -1.987  -2.132  0.00  0.00     0.078 H 
ATOM     41  H   LIG d   1       4.969  -0.951  -1.085  0.00  0.00     0.078 H 
ENDBRANCH  36  38
BRANCH  36  42
ATOM     42  C   LIG d   1       5.066   1.148  -2.660  0.00  0.00    -0.043 C 
ATOM     43  H   LIG d   1       5.879   1.477  -3.309  0.00  0.00     0.078 H 
ATOM     44  H   LIG d   1       4.207   1.805  -2.793  0.00  0.00     0.078 H 
ATOM     45  H   LIG d   1       5.394   1.183  -1.621  0.00  0.00     0.078 H 
ENDBRANCH  36  42
ENDBRANCH  33  36
ENDBRANCH   4  33
BRANCH   3  46
ATOM     46  O   LIG d   1       4.077  -2.681  -4.950  0.00  0.00    -0.506 OA
ATOM     47  H   LIG d   1       3.374  -2.246  -4.447  0.00  0.00     0.292 HD
ENDBRANCH   3  46
TORSDOF 9
ENDMDL
MODEL 10
REMARK VINA RESULT:      -4.6     10.064     12.966
REMARK  9 active torsions:
REMARK  status: ('A' for Active; 'I' for Inactive)
REMARK    1  A    between atoms: C_1  and  C_2 
REMARK    2  A    between atoms: C_4  and  O_24 
REMARK    3  A    between atoms: C_5  and  C_21 
REMARK    4  A    between atoms: C_11  and  C_12 
REMARK    5  A    between atoms: C_15  and  O_18 
REMARK    6  A    between atoms: O_18  and  C_19 
REMARK    7  A    between atoms: C_21  and  N_46 
REMARK    8  A    between atoms: C_22  and  N_46 
REMARK    9  A    between atoms: C_23  and  N_46 
ROOT
ATOM      1  C   LIG d   1       9.879   6.584  -7.236  0.00  0.00    -0.033 A 
ATOM      2  C   LIG d   1      10.094   7.489  -8.236  0.00  0.00    -0.016 A 
ATOM      3  C   LIG d   1      10.385   8.815  -7.931  0.00  0.00     0.129 A 
ATOM      4  C   LIG d   1      10.460   9.234  -6.611  0.00  0.00     0.081 A 
ATOM      5  C   LIG d   1      10.244   8.327  -5.581  0.00  0.00     0.151 A 
ATOM      6  C   LIG d   1       9.951   6.992  -5.903  0.00  0.00     0.071 A 
ATOM      7  C   LIG d   1       9.782   6.283  -4.621  0.00  0.00     0.232 A 
ATOM      8  O   LIG d   1       9.524   5.104  -4.449  0.00  0.00    -0.283 OA
ATOM      9  C   LIG d   1       9.992   7.317  -3.598  0.00  0.00     0.176 A 
ATOM     10  C   LIG d   1       9.934   7.138  -2.253  0.00  0.00    -0.008 C 
ATOM     11  O   LIG d   1      10.260   8.479  -4.239  0.00  0.00    -0.451 OA
ATOM     12  H   LIG d   1      10.037   7.173  -9.268  0.00  0.00     0.066 H 
ATOM     13  H   LIG d   1       9.795   6.148  -1.846  0.00  0.00     0.066 H 
ENDROOT
BRANCH  10  14
ATOM     14  C   LIG d   1      10.060   8.291  -1.353  0.00  0.00    -0.021 A 
ATOM     15  C   LIG d   1      11.316   8.664  -0.860  0.00  0.00    -0.051 A 
ATOM     16  C   LIG d   1      11.428   9.749  -0.021  0.00  0.00    -0.019 A 
ATOM     17  H   LIG d   1      12.196   8.104  -1.141  0.00  0.00     0.062 H 
ATOM     18  C   LIG d   1      10.297  10.468   0.347  0.00  0.00     0.120 A 
ATOM     19  H   LIG d   1      12.397  10.040   0.357  0.00  0.00     0.065 H 
ATOM     20  C   LIG d   1       9.046  10.102  -0.140  0.00  0.00    -0.019 A 
ATOM     21  C   LIG d   1       8.923   9.022  -0.984  0.00  0.00    -0.051 A 
ATOM     22  H   LIG d   1       8.171  10.666   0.144  0.00  0.00     0.065 H 
ATOM     23  H   LIG d   1       7.951   8.739  -1.362  0.00  0.00     0.062 H 
BRANCH  18  24
ATOM     24  O   LIG d   1      10.413  11.534   1.178  0.00  0.00    -0.495 OA
BRANCH  24  25
ATOM     25  C   LIG d   1      11.620  12.295   1.094  0.00  0.00     0.079 C 
ATOM     26  H   LIG d   1      11.380  13.359   1.112  0.00  0.00     0.066 H 
ATOM     27  H   LIG d   1      12.262  12.052   1.941  0.00  0.00     0.066 H 
ATOM     28  H   LIG d   1      12.137  12.054   0.166  0.00  0.00     0.066 H 
ENDBRANCH  24  25
ENDBRANCH  18  24
ENDBRANCH  10  14
BRANCH   1  29
ATOM     29  C   LIG d   1       9.564   5.148  -7.569  0.00  0.00    -0.039 C 
ATOM     30  H   LIG d   1      10.493   4.582  -7.651  0.00  0.00     0.028 H 
ATOM     31  H   LIG d   1       8.945   4.719  -6.782  0.00  0.00     0.028 H 
ATOM     32  H   LIG d   1       9.028   5.105  -8.517  0.00  0.00     0.028 H 
ENDBRANCH   1  29
BRANCH   4  33
ATOM     33  C   LIG d   1      10.778  10.672  -6.294  0.00  0.00     0.001 C 
ATOM     34  H   LIG d   1      11.291  10.728  -5.334  0.00  0.00     0.087 H 
ATOM     35  H   LIG d   1      11.420  11.083  -7.074  0.00  0.00     0.087 H 
BRANCH  33  36
ATOM     36  N   LIG d   1       9.516  11.441  -6.252  0.00  0.00     0.234 N 
ATOM     37  H   LIG d   1       8.749  10.842  -6.580  0.00  0.00     0.203 HD
BRANCH  36  38
ATOM     38  C   LIG d   1       9.232  11.869  -4.866  0.00  0.00    -0.043 C 
ATOM     39  H   LIG d   1      10.088  11.674  -4.222  0.00  0.00     0.078 H 
ATOM     40  H   LIG d   1       9.012  12.936  -4.864  0.00  0.00     0.078 H 
ATOM     41  H   LIG d   1       8.366  11.320  -4.497  0.00  0.00     0.078 H 
ENDBRANCH  36  38
BRANCH  36  42
ATOM     42  C   LIG d   1       9.615  12.622  -7.135  0.00  0.00    -0.043 C 
ATOM     43  H   LIG d   1      10.587  12.613  -7.629  0.00  0.00     0.078 H 
ATOM     44  H   LIG d   1       8.825  12.569  -7.886  0.00  0.00     0.078 H 
ATOM     45  H   LIG d   1       9.507  13.541  -6.559  0.00  0.00     0.078 H 
ENDBRANCH  36  42
ENDBRANCH  33  36
ENDBRANCH   4  33
BRANCH   3  46
ATOM     46  O   LIG d   1      10.596   9.706  -8.932  0.00  0.00    -0.506 OA
ATOM     47  H   LIG d   1       9.830   9.842  -9.505  0.00  0.00     0.292 HD
ENDBRANCH   3  46
TORSDOF 9
ENDMDL
