MODEL 1
REMARK VINA RESULT:      -8.2      0.000      0.000
REMARK  6 active torsions:
REMARK  status: ('A' for Active; 'I' for Inactive)
REMARK    1  A    between atoms: C_1  and  N_2 
REMARK    2  A    between atoms: C_15  and  C_17 
REMARK    3  A    between atoms: C_17  and  C_18 
REMARK    4  A    between atoms: C_18  and  C_20 
REMARK    5  A    between atoms: C_20  and  C_21 
REMARK    6  A    between atoms: N_35  and  C_36 
ROOT
ATOM      1  C   LIG d   1       4.394  -5.136  -6.360  0.00  0.00     0.137 C 
ATOM      2  O   LIG d   1       4.090  -5.786  -5.389  0.00  0.00    -0.297 OA
ENDROOT
BRANCH   1   3
ATOM      3  C   LIG d   1       5.751  -4.483  -6.434  0.00  0.00     0.027 C 
ATOM      4  H   LIG d   1       5.663  -3.521  -6.936  0.00  0.00     0.036 H 
ATOM      5  H   LIG d   1       6.432  -5.124  -6.994  0.00  0.00     0.036 H 
BRANCH   3   6
ATOM      6  C   LIG d   1       6.294  -4.274  -5.019  0.00  0.00     0.057 C 
ATOM      7  N   LIG d   1       7.738  -3.991  -5.081  0.00  0.00    -0.296 N 
ATOM      8  C   LIG d   1       8.261  -3.581  -3.771  0.00  0.00     0.003 C 
ATOM      9  C   LIG d   1       7.751  -2.173  -3.435  0.00  0.00    -0.013 C 
ATOM     10  H   LIG d   1       7.922  -4.282  -3.009  0.00  0.00     0.043 H 
ATOM     11  H   LIG d   1       9.351  -3.575  -3.801  0.00  0.00     0.043 H 
ATOM     12  C   LIG d   1       6.261  -2.150  -3.669  0.00  0.00    -0.016 A 
ATOM     13  H   LIG d   1       7.964  -1.943  -2.391  0.00  0.00     0.033 H 
ATOM     14  H   LIG d   1       8.236  -1.441  -4.080  0.00  0.00     0.033 H 
ATOM     15  C   LIG d   1       5.603  -3.094  -4.379  0.00  0.00     0.038 A 
ATOM     16  C   LIG d   1       5.278  -1.190  -3.219  0.00  0.00     0.003 A 
ATOM     17  N   LIG d   1       4.267  -2.799  -4.412  0.00  0.00    -0.356 N 
ATOM     18  C   LIG d   1       4.030  -1.647  -3.717  0.00  0.00     0.047 A 
ATOM     19  H   LIG d   1       3.589  -3.329  -4.862  0.00  0.00     0.166 HD
ATOM     20  C   LIG d   1       2.860  -0.938  -3.457  0.00  0.00    -0.038 A 
ATOM     21  C   LIG d   1       2.980   0.216  -2.701  0.00  0.00    -0.060 A 
ATOM     22  H   LIG d   1       1.903  -1.273  -3.827  0.00  0.00     0.064 H 
ATOM     23  C   LIG d   1       4.200   0.658  -2.217  0.00  0.00    -0.061 A 
ATOM     24  H   LIG d   1       2.092   0.790  -2.481  0.00  0.00     0.062 H 
ATOM     25  C   LIG d   1       5.369  -0.020  -2.457  0.00  0.00    -0.052 A 
ATOM     26  H   LIG d   1       4.233   1.564  -1.632  0.00  0.00     0.062 H 
ATOM     27  H   LIG d   1       6.316   0.332  -2.075  0.00  0.00     0.062 H 
ATOM     28  H   LIG d   1       6.123  -5.168  -4.421  0.00  0.00     0.053 H 
BRANCH   7  29
ATOM     29  C   LIG d   1       8.478  -5.145  -5.607  0.00  0.00    -0.012 C 
ATOM     30  H   LIG d   1       9.060  -4.840  -6.477  0.00  0.00     0.039 H 
ATOM     31  H   LIG d   1       9.148  -5.528  -4.838  0.00  0.00     0.039 H 
ATOM     32  H   LIG d   1       7.775  -5.927  -5.897  0.00  0.00     0.039 H 
ENDBRANCH   7  29
ENDBRANCH   3   6
ENDBRANCH   1   3
BRANCH   1  33
ATOM     33  C   LIG d   1       3.420  -4.979  -7.498  0.00  0.00     0.027 C 
ATOM     34  H   LIG d   1       3.080  -5.962  -7.824  0.00  0.00     0.036 H 
ATOM     35  H   LIG d   1       2.565  -4.391  -7.167  0.00  0.00     0.036 H 
BRANCH  33  36
ATOM     36  C   LIG d   1       4.108  -4.265  -8.664  0.00  0.00     0.057 C 
ATOM     37  H   LIG d   1       5.188  -4.382  -8.578  0.00  0.00     0.053 H 
ATOM     38  N   LIG d   1       3.647  -4.841  -9.938  0.00  0.00    -0.296 N 
ATOM     39  C   LIG d   1       4.119  -4.053 -11.084  0.00  0.00     0.003 C 
ATOM     40  C   LIG d   1       3.371  -2.713 -11.132  0.00  0.00    -0.013 C 
ATOM     41  H   LIG d   1       3.934  -4.604 -12.006  0.00  0.00     0.043 H 
ATOM     42  H   LIG d   1       5.188  -3.868 -10.980  0.00  0.00     0.043 H 
ATOM     43  C   LIG d   1       3.419  -2.103  -9.754  0.00  0.00    -0.016 A 
ATOM     44  H   LIG d   1       2.335  -2.880 -11.424  0.00  0.00     0.033 H 
ATOM     45  H   LIG d   1       3.854  -2.046 -11.846  0.00  0.00     0.033 H 
ATOM     46  C   LIG d   1       3.752  -2.797  -8.642  0.00  0.00     0.038 A 
ATOM     47  C   LIG d   1       3.144  -0.744  -9.342  0.00  0.00     0.003 A 
ATOM     48  N   LIG d   1       3.709  -1.972  -7.551  0.00  0.00    -0.356 N 
ATOM     49  C   LIG d   1       3.342  -0.715  -7.937  0.00  0.00     0.047 A 
ATOM     50  H   LIG d   1       3.909  -2.241  -6.641  0.00  0.00     0.166 HD
ATOM     51  C   LIG d   1       3.156   0.464  -7.218  0.00  0.00    -0.038 A 
ATOM     52  C   LIG d   1       2.774   1.583  -7.937  0.00  0.00    -0.060 A 
ATOM     53  H   LIG d   1       3.302   0.503  -6.149  0.00  0.00     0.064 H 
ATOM     54  C   LIG d   1       2.583   1.549  -9.309  0.00  0.00    -0.061 A 
ATOM     55  H   LIG d   1       2.621   2.514  -7.412  0.00  0.00     0.062 H 
ATOM     56  C   LIG d   1       2.760   0.403 -10.043  0.00  0.00    -0.052 A 
ATOM     57  H   LIG d   1       2.286   2.455  -9.818  0.00  0.00     0.062 H 
ATOM     58  H   LIG d   1       2.608   0.388 -11.113  0.00  0.00     0.062 H 
BRANCH  38  59
ATOM     59  C   LIG d   1       4.055  -6.248 -10.057  0.00  0.00    -0.012 C 
ATOM     60  H   LIG d   1       5.136  -6.324  -9.940  0.00  0.00     0.039 H 
ATOM     61  H   LIG d   1       3.563  -6.835  -9.282  0.00  0.00     0.039 H 
ATOM     62  H   LIG d   1       3.768  -6.627 -11.038  0.00  0.00     0.039 H 
ENDBRANCH  38  59
ENDBRANCH  33  36
ENDBRANCH   1  33
TORSDOF 6
ENDMDL
MODEL 2
REMARK VINA RESULT:      -8.0      0.636      6.040
REMARK  6 active torsions:
REMARK  status: ('A' for Active; 'I' for Inactive)
REMARK    1  A    between atoms: C_1  and  N_2 
REMARK    2  A    between atoms: C_15  and  C_17 
REMARK    3  A    between atoms: C_17  and  C_18 
REMARK    4  A    between atoms: C_18  and  C_20 
REMARK    5  A    between atoms: C_20  and  C_21 
REMARK    6  A    between atoms: N_35  and  C_36 
ROOT
ATOM      1  C   LIG d   1       4.902  -5.437  -6.500  0.00  0.00     0.137 C 
ATOM      2  O   LIG d   1       5.138  -6.531  -6.046  0.00  0.00    -0.297 OA
ENDROOT
BRANCH   1   3
ATOM      3  C   LIG d   1       3.554  -5.150  -7.112  0.00  0.00     0.027 C 
ATOM      4  H   LIG d   1       3.035  -4.403  -6.512  0.00  0.00     0.036 H 
ATOM      5  H   LIG d   1       2.965  -6.067  -7.139  0.00  0.00     0.036 H 
BRANCH   3   6
ATOM      6  C   LIG d   1       3.742  -4.622  -8.535  0.00  0.00     0.057 C 
ATOM      7  N   LIG d   1       2.792  -5.291  -9.439  0.00  0.00    -0.296 N 
ATOM      8  C   LIG d   1       2.793  -4.672 -10.772  0.00  0.00     0.003 C 
ATOM      9  C   LIG d   1       2.125  -3.293 -10.694  0.00  0.00    -0.013 C 
ATOM     10  H   LIG d   1       3.819  -4.560 -11.120  0.00  0.00     0.043 H 
ATOM     11  H   LIG d   1       2.240  -5.305 -11.467  0.00  0.00     0.043 H 
ATOM     12  C   LIG d   1       2.738  -2.543  -9.538  0.00  0.00    -0.016 A 
ATOM     13  H   LIG d   1       2.299  -2.746 -11.622  0.00  0.00     0.033 H 
ATOM     14  H   LIG d   1       1.054  -3.410 -10.530  0.00  0.00     0.033 H 
ATOM     15  C   LIG d   1       3.467  -3.138  -8.566  0.00  0.00     0.038 A 
ATOM     16  C   LIG d   1       2.689  -1.130  -9.233  0.00  0.00     0.003 A 
ATOM     17  N   LIG d   1       3.886  -2.198  -7.663  0.00  0.00    -0.356 N 
ATOM     18  C   LIG d   1       3.432  -0.965  -8.035  0.00  0.00     0.047 A 
ATOM     19  H   LIG d   1       4.423  -2.381  -6.876  0.00  0.00     0.166 HD
ATOM     20  C   LIG d   1       3.583   0.297  -7.463  0.00  0.00    -0.038 A 
ATOM     21  C   LIG d   1       2.979   1.358  -8.116  0.00  0.00    -0.060 A 
ATOM     22  H   LIG d   1       4.146   0.440  -6.553  0.00  0.00     0.064 H 
ATOM     23  C   LIG d   1       2.256   1.191  -9.285  0.00  0.00    -0.061 A 
ATOM     24  H   LIG d   1       3.076   2.350  -7.699  0.00  0.00     0.062 H 
ATOM     25  C   LIG d   1       2.090  -0.039  -9.871  0.00  0.00    -0.052 A 
ATOM     26  H   LIG d   1       1.807   2.056  -9.751  0.00  0.00     0.062 H 
ATOM     27  H   LIG d   1       1.524  -0.160 -10.783  0.00  0.00     0.062 H 
ATOM     28  H   LIG d   1       4.761  -4.813  -8.869  0.00  0.00     0.053 H 
BRANCH   7  29
ATOM     29  C   LIG d   1       3.074  -6.730  -9.527  0.00  0.00    -0.012 C 
ATOM     30  H   LIG d   1       2.196  -7.250  -9.910  0.00  0.00     0.039 H 
ATOM     31  H   LIG d   1       3.916  -6.896 -10.198  0.00  0.00     0.039 H 
ATOM     32  H   LIG d   1       3.319  -7.113  -8.536  0.00  0.00     0.039 H 
ENDBRANCH   7  29
ENDBRANCH   3   6
ENDBRANCH   1   3
BRANCH   1  33
ATOM     33  C   LIG d   1       5.953  -4.359  -6.453  0.00  0.00     0.027 C 
ATOM     34  H   LIG d   1       6.797  -4.646  -7.081  0.00  0.00     0.036 H 
ATOM     35  H   LIG d   1       5.531  -3.422  -6.818  0.00  0.00     0.036 H 
BRANCH  33  36
ATOM     36  C   LIG d   1       6.431  -4.174  -5.011  0.00  0.00     0.057 C 
ATOM     37  H   LIG d   1       6.249  -5.087  -4.445  0.00  0.00     0.053 H 
ATOM     38  N   LIG d   1       7.870  -3.864  -5.003  0.00  0.00    -0.296 N 
ATOM     39  C   LIG d   1       8.326  -3.475  -3.661  0.00  0.00     0.003 C 
ATOM     40  C   LIG d   1       7.772  -2.087  -3.311  0.00  0.00    -0.013 C 
ATOM     41  H   LIG d   1       9.416  -3.445  -3.642  0.00  0.00     0.043 H 
ATOM     42  H   LIG d   1       7.970  -4.203  -2.933  0.00  0.00     0.043 H 
ATOM     43  C   LIG d   1       6.294  -2.087  -3.610  0.00  0.00    -0.016 A 
ATOM     44  H   LIG d   1       8.269  -1.328  -3.913  0.00  0.00     0.033 H 
ATOM     45  H   LIG d   1       7.932  -1.883  -2.252  0.00  0.00     0.033 H 
ATOM     46  C   LIG d   1       5.687  -3.024  -4.373  0.00  0.00     0.038 A 
ATOM     47  C   LIG d   1       5.272  -1.158  -3.182  0.00  0.00     0.003 A 
ATOM     48  N   LIG d   1       4.348  -2.756  -4.457  0.00  0.00    -0.356 N 
ATOM     49  C   LIG d   1       4.057  -1.628  -3.746  0.00  0.00     0.047 A 
ATOM     50  H   LIG d   1       3.703  -3.288  -4.949  0.00  0.00     0.166 HD
ATOM     51  C   LIG d   1       2.861  -0.948  -3.523  0.00  0.00    -0.038 A 
ATOM     52  C   LIG d   1       2.923   0.188  -2.736  0.00  0.00    -0.060 A 
ATOM     53  H   LIG d   1       1.929  -1.292  -3.946  0.00  0.00     0.064 H 
ATOM     54  C   LIG d   1       4.111   0.642  -2.187  0.00  0.00    -0.061 A 
ATOM     55  H   LIG d   1       2.015   0.740  -2.543  0.00  0.00     0.062 H 
ATOM     56  C   LIG d   1       5.304  -0.006  -2.389  0.00  0.00    -0.052 A 
ATOM     57  H   LIG d   1       4.099   1.536  -1.579  0.00  0.00     0.062 H 
ATOM     58  H   LIG d   1       6.225   0.356  -1.956  0.00  0.00     0.062 H 
BRANCH  38  59
ATOM     59  C   LIG d   1       8.654  -4.993  -5.523  0.00  0.00    -0.012 C 
ATOM     60  H   LIG d   1       9.442  -4.618  -6.176  0.00  0.00     0.039 H 
ATOM     61  H   LIG d   1       9.100  -5.539  -4.692  0.00  0.00     0.039 H 
ATOM     62  H   LIG d   1       8.001  -5.659  -6.087  0.00  0.00     0.039 H 
ENDBRANCH  38  59
ENDBRANCH  33  36
ENDBRANCH   1  33
TORSDOF 6
ENDMDL
MODEL 3
REMARK VINA RESULT:      -7.9      6.979     10.052
REMARK  6 active torsions:
REMARK  status: ('A' for Active; 'I' for Inactive)
REMARK    1  A    between atoms: C_1  and  N_2 
REMARK    2  A    between atoms: C_15  and  C_17 
REMARK    3  A    between atoms: C_17  and  C_18 
REMARK    4  A    between atoms: C_18  and  C_20 
REMARK    5  A    between atoms: C_20  and  C_21 
REMARK    6  A    between atoms: N_35  and  C_36 
ROOT
ATOM      1  C   LIG d   1       9.884   3.348  -5.078  0.00  0.00     0.137 C 
ATOM      2  O   LIG d   1      10.429   3.360  -6.156  0.00  0.00    -0.297 OA
ENDROOT
BRANCH   1   3
ATOM      3  C   LIG d   1       9.861   2.081  -4.261  0.00  0.00     0.027 C 
ATOM      4  H   LIG d   1       9.378   2.275  -3.305  0.00  0.00     0.036 H 
ATOM      5  H   LIG d   1      10.883   1.741  -4.089  0.00  0.00     0.036 H 
BRANCH   3   6
ATOM      6  C   LIG d   1       9.085   1.001  -5.016  0.00  0.00     0.057 C 
ATOM      7  N   LIG d   1       9.903  -0.220  -5.112  0.00  0.00    -0.296 N 
ATOM      8  C   LIG d   1       9.125  -1.346  -5.645  0.00  0.00     0.003 C 
ATOM      9  C   LIG d   1       8.114  -1.814  -4.589  0.00  0.00    -0.013 C 
ATOM     10  H   LIG d   1       8.593  -1.030  -6.541  0.00  0.00     0.043 H 
ATOM     11  H   LIG d   1       9.798  -2.168  -5.891  0.00  0.00     0.043 H 
ATOM     12  C   LIG d   1       7.384  -0.598  -4.074  0.00  0.00    -0.016 A 
ATOM     13  H   LIG d   1       7.403  -2.507  -5.039  0.00  0.00     0.033 H 
ATOM     14  H   LIG d   1       8.637  -2.304  -3.768  0.00  0.00     0.033 H 
ATOM     15  C   LIG d   1       7.817   0.669  -4.265  0.00  0.00     0.038 A 
ATOM     16  C   LIG d   1       6.153  -0.521  -3.319  0.00  0.00     0.003 A 
ATOM     17  N   LIG d   1       6.945   1.548  -3.683  0.00  0.00    -0.356 N 
ATOM     18  C   LIG d   1       5.919   0.861  -3.098  0.00  0.00     0.047 A 
ATOM     19  H   LIG d   1       7.040   2.513  -3.686  0.00  0.00     0.166 HD
ATOM     20  C   LIG d   1       4.796   1.286  -2.391  0.00  0.00    -0.038 A 
ATOM     21  C   LIG d   1       3.939   0.303  -1.926  0.00  0.00    -0.060 A 
ATOM     22  H   LIG d   1       4.602   2.334  -2.215  0.00  0.00     0.064 H 
ATOM     23  C   LIG d   1       4.172  -1.044  -2.145  0.00  0.00    -0.061 A 
ATOM     24  H   LIG d   1       3.059   0.598  -1.373  0.00  0.00     0.062 H 
ATOM     25  C   LIG d   1       5.270  -1.492  -2.837  0.00  0.00    -0.052 A 
ATOM     26  H   LIG d   1       3.468  -1.766  -1.759  0.00  0.00     0.062 H 
ATOM     27  H   LIG d   1       5.443  -2.545  -3.004  0.00  0.00     0.062 H 
ATOM     28  H   LIG d   1       8.837   1.354  -6.016  0.00  0.00     0.053 H 
BRANCH   7  29
ATOM     29  C   LIG d   1      11.108   0.017  -5.919  0.00  0.00    -0.012 C 
ATOM     30  H   LIG d   1      11.311  -0.859  -6.534  0.00  0.00     0.039 H 
ATOM     31  H   LIG d   1      10.951   0.883  -6.560  0.00  0.00     0.039 H 
ATOM     32  H   LIG d   1      11.956   0.203  -5.259  0.00  0.00     0.039 H 
ENDBRANCH   7  29
ENDBRANCH   3   6
ENDBRANCH   1   3
BRANCH   1  33
ATOM     33  C   LIG d   1       9.229   4.597  -4.550  0.00  0.00     0.027 C 
ATOM     34  H   LIG d   1       8.446   4.916  -5.238  0.00  0.00     0.036 H 
ATOM     35  H   LIG d   1       8.793   4.394  -3.572  0.00  0.00     0.036 H 
BRANCH  33  36
ATOM     36  C   LIG d   1      10.276   5.707  -4.421  0.00  0.00     0.057 C 
ATOM     37  H   LIG d   1      11.212   5.381  -4.874  0.00  0.00     0.053 H 
ATOM     38  N   LIG d   1       9.794   6.922  -5.096  0.00  0.00    -0.296 N 
ATOM     39  C   LIG d   1      10.669   8.070  -4.820  0.00  0.00     0.003 C 
ATOM     40  C   LIG d   1      10.495   8.512  -3.361  0.00  0.00    -0.013 C 
ATOM     41  H   LIG d   1      10.406   8.895  -5.483  0.00  0.00     0.043 H 
ATOM     42  H   LIG d   1      11.706   7.784  -4.992  0.00  0.00     0.043 H 
ATOM     43  C   LIG d   1      10.599   7.287  -2.488  0.00  0.00    -0.016 A 
ATOM     44  H   LIG d   1       9.518   8.976  -3.229  0.00  0.00     0.033 H 
ATOM     45  H   LIG d   1      11.280   9.220  -3.094  0.00  0.00     0.033 H 
ATOM     46  C   LIG d   1      10.502   6.023  -2.961  0.00  0.00     0.038 A 
ATOM     47  C   LIG d   1      10.809   7.193  -1.060  0.00  0.00     0.003 A 
ATOM     48  N   LIG d   1      10.639   5.133  -1.932  0.00  0.00    -0.356 N 
ATOM     49  C   LIG d   1      10.826   5.806  -0.759  0.00  0.00     0.047 A 
ATOM     50  H   LIG d   1      10.606   4.167  -2.022  0.00  0.00     0.166 HD
ATOM     51  C   LIG d   1      11.011   5.366   0.550  0.00  0.00    -0.038 A 
ATOM     52  C   LIG d   1      11.174   6.339   1.521  0.00  0.00    -0.060 A 
ATOM     53  H   LIG d   1      11.027   4.315   0.796  0.00  0.00     0.064 H 
ATOM     54  C   LIG d   1      11.157   7.691   1.222  0.00  0.00    -0.061 A 
ATOM     55  H   LIG d   1      11.319   6.033   2.546  0.00  0.00     0.062 H 
ATOM     56  C   LIG d   1      10.977   8.154  -0.058  0.00  0.00    -0.052 A 
ATOM     57  H   LIG d   1      11.290   8.406   2.021  0.00  0.00     0.062 H 
ATOM     58  H   LIG d   1      10.966   9.211  -0.280  0.00  0.00     0.062 H 
BRANCH  38  59
ATOM     59  C   LIG d   1       9.651   6.699  -6.541  0.00  0.00    -0.012 C 
ATOM     60  H   LIG d   1      10.621   6.439  -6.967  0.00  0.00     0.039 H 
ATOM     61  H   LIG d   1       8.948   5.885  -6.715  0.00  0.00     0.039 H 
ATOM     62  H   LIG d   1       9.279   7.608  -7.014  0.00  0.00     0.039 H 
ENDBRANCH  38  59
ENDBRANCH  33  36
ENDBRANCH   1  33
TORSDOF 6
ENDMDL
MODEL 4
REMARK VINA RESULT:      -7.9      6.927      9.399
REMARK  6 active torsions:
REMARK  status: ('A' for Active; 'I' for Inactive)
REMARK    1  A    between atoms: C_1  and  N_2 
REMARK    2  A    between atoms: C_15  and  C_17 
REMARK    3  A    between atoms: C_17  and  C_18 
REMARK    4  A    between atoms: C_18  and  C_20 
REMARK    5  A    between atoms: C_20  and  C_21 
REMARK    6  A    between atoms: N_35  and  C_36 
ROOT
ATOM      1  C   LIG d   1       9.880   3.218  -5.130  0.00  0.00     0.137 C 
ATOM      2  O   LIG d   1      10.415   3.208  -6.212  0.00  0.00    -0.297 OA
ENDROOT
BRANCH   1   3
ATOM      3  C   LIG d   1       9.225   4.478  -4.625  0.00  0.00     0.027 C 
ATOM      4  H   LIG d   1       8.800   4.296  -3.638  0.00  0.00     0.036 H 
ATOM      5  H   LIG d   1       8.432   4.776  -5.312  0.00  0.00     0.036 H 
BRANCH   3   6
ATOM      6  C   LIG d   1      10.266   5.595  -4.535  0.00  0.00     0.057 C 
ATOM      7  N   LIG d   1       9.780   6.784  -5.253  0.00  0.00    -0.296 N 
ATOM      8  C   LIG d   1      10.650   7.945  -5.021  0.00  0.00     0.003 C 
ATOM      9  C   LIG d   1      10.468   8.440  -3.579  0.00  0.00    -0.013 C 
ATOM     10  H   LIG d   1      11.689   7.657  -5.178  0.00  0.00     0.043 H 
ATOM     11  H   LIG d   1      10.384   8.743  -5.714  0.00  0.00     0.043 H 
ATOM     12  C   LIG d   1      10.576   7.247  -2.661  0.00  0.00    -0.016 A 
ATOM     13  H   LIG d   1      11.246   9.163  -3.336  0.00  0.00     0.033 H 
ATOM     14  H   LIG d   1       9.487   8.901  -3.468  0.00  0.00     0.033 H 
ATOM     15  C   LIG d   1      10.487   5.967  -3.088  0.00  0.00     0.038 A 
ATOM     16  C   LIG d   1      10.784   7.209  -1.231  0.00  0.00     0.003 A 
ATOM     17  N   LIG d   1      10.625   5.115  -2.025  0.00  0.00    -0.356 N 
ATOM     18  C   LIG d   1      10.808   5.834  -0.878  0.00  0.00     0.047 A 
ATOM     19  H   LIG d   1      10.597   4.147  -2.079  0.00  0.00     0.166 HD
ATOM     20  C   LIG d   1      10.994   5.446   0.447  0.00  0.00    -0.038 A 
ATOM     21  C   LIG d   1      11.152   6.455   1.381  0.00  0.00    -0.060 A 
ATOM     22  H   LIG d   1      11.015   4.404   0.732  0.00  0.00     0.064 H 
ATOM     23  C   LIG d   1      11.129   7.795   1.031  0.00  0.00    -0.061 A 
ATOM     24  H   LIG d   1      11.298   6.189   2.417  0.00  0.00     0.062 H 
ATOM     25  C   LIG d   1      10.947   8.208  -0.266  0.00  0.00    -0.052 A 
ATOM     26  H   LIG d   1      11.258   8.540   1.802  0.00  0.00     0.062 H 
ATOM     27  H   LIG d   1      10.930   9.255  -0.529  0.00  0.00     0.062 H 
ATOM     28  H   LIG d   1      11.205   5.261  -4.975  0.00  0.00     0.053 H 
BRANCH   7  29
ATOM     29  C   LIG d   1       9.639   6.510  -6.689  0.00  0.00    -0.012 C 
ATOM     30  H   LIG d   1      10.347   5.736  -6.983  0.00  0.00     0.039 H 
ATOM     31  H   LIG d   1       8.624   6.172  -6.897  0.00  0.00     0.039 H 
ATOM     32  H   LIG d   1       9.840   7.421  -7.254  0.00  0.00     0.039 H 
ENDBRANCH   7  29
ENDBRANCH   3   6
ENDBRANCH   1   3
BRANCH   1  33
ATOM     33  C   LIG d   1       9.868   1.971  -4.284  0.00  0.00     0.027 C 
ATOM     34  H   LIG d   1      10.891   1.636  -4.115  0.00  0.00     0.036 H 
ATOM     35  H   LIG d   1       9.392   2.185  -3.327  0.00  0.00     0.036 H 
BRANCH  33  36
ATOM     36  C   LIG d   1       9.084   0.873  -5.007  0.00  0.00     0.057 C 
ATOM     37  H   LIG d   1       8.856   1.194  -6.022  0.00  0.00     0.053 H 
ATOM     38  N   LIG d   1       9.885  -0.362  -5.045  0.00  0.00    -0.296 N 
ATOM     39  C   LIG d   1       9.096  -1.497  -5.541  0.00  0.00     0.003 C 
ATOM     40  C   LIG d   1       8.059  -1.906  -4.485  0.00  0.00    -0.013 C 
ATOM     41  H   LIG d   1       9.758  -2.339  -5.745  0.00  0.00     0.043 H 
ATOM     42  H   LIG d   1       8.584  -1.208  -6.459  0.00  0.00     0.043 H 
ATOM     43  C   LIG d   1       7.343  -0.661  -4.028  0.00  0.00    -0.016 A 
ATOM     44  H   LIG d   1       8.561  -2.373  -3.638  0.00  0.00     0.033 H 
ATOM     45  H   LIG d   1       7.343  -2.602  -4.921  0.00  0.00     0.033 H 
ATOM     46  C   LIG d   1       7.800   0.591  -4.262  0.00  0.00     0.038 A 
ATOM     47  C   LIG d   1       6.103  -0.532  -3.296  0.00  0.00     0.003 A 
ATOM     48  N   LIG d   1       6.934   1.507  -3.730  0.00  0.00    -0.356 N 
ATOM     49  C   LIG d   1       5.889   0.862  -3.133  0.00  0.00     0.047 A 
ATOM     50  H   LIG d   1       7.046   2.470  -3.771  0.00  0.00     0.166 HD
ATOM     51  C   LIG d   1       4.765   1.334  -2.459  0.00  0.00    -0.038 A 
ATOM     52  C   LIG d   1       3.885   0.385  -1.967  0.00  0.00    -0.060 A 
ATOM     53  H   LIG d   1       4.587   2.391  -2.327  0.00  0.00     0.064 H 
ATOM     54  C   LIG d   1       4.098  -0.974  -2.129  0.00  0.00    -0.061 A 
ATOM     55  H   LIG d   1       3.003   0.715  -1.439  0.00  0.00     0.062 H 
ATOM     56  C   LIG d   1       5.196  -1.468  -2.789  0.00  0.00    -0.052 A 
ATOM     57  H   LIG d   1       3.377  -1.669  -1.724  0.00  0.00     0.062 H 
ATOM     58  H   LIG d   1       5.353  -2.529  -2.909  0.00  0.00     0.062 H 
BRANCH  38  59
ATOM     59  C   LIG d   1      11.104  -0.173  -5.844  0.00  0.00    -0.012 C 
ATOM     60  H   LIG d   1      11.477   0.842  -5.704  0.00  0.00     0.039 H 
ATOM     61  H   LIG d   1      11.862  -0.887  -5.523  0.00  0.00     0.039 H 
ATOM     62  H   LIG d   1      10.876  -0.334  -6.897  0.00  0.00     0.039 H 
ENDBRANCH  38  59
ENDBRANCH  33  36
ENDBRANCH   1  33
TORSDOF 6
ENDMDL
MODEL 5
REMARK VINA RESULT:      -7.7      5.998      8.103
REMARK  6 active torsions:
REMARK  status: ('A' for Active; 'I' for Inactive)
REMARK    1  A    between atoms: C_1  and  N_2 
REMARK    2  A    between atoms: C_15  and  C_17 
REMARK    3  A    between atoms: C_17  and  C_18 
REMARK    4  A    between atoms: C_18  and  C_20 
REMARK    5  A    between atoms: C_20  and  C_21 
REMARK    6  A    between atoms: N_35  and  C_36 
ROOT
ATOM      1  C   LIG d   1      10.279   1.244  -6.017  0.00  0.00     0.137 C 
ATOM      2  O   LIG d   1       9.755   1.232  -7.105  0.00  0.00    -0.297 OA
ENDROOT
BRANCH   1   3
ATOM      3  C   LIG d   1      10.180   0.036  -5.121  0.00  0.00     0.027 C 
ATOM      4  H   LIG d   1      10.020   0.360  -4.093  0.00  0.00     0.036 H 
ATOM      5  H   LIG d   1      11.105  -0.538  -5.181  0.00  0.00     0.036 H 
BRANCH   3   6
ATOM      6  C   LIG d   1       9.007  -0.837  -5.568  0.00  0.00     0.057 C 
ATOM      7  N   LIG d   1       9.399  -2.255  -5.519  0.00  0.00    -0.296 N 
ATOM      8  C   LIG d   1       8.247  -3.139  -5.742  0.00  0.00     0.003 C 
ATOM      9  C   LIG d   1       7.328  -3.099  -4.514  0.00  0.00    -0.013 C 
ATOM     10  H   LIG d   1       7.696  -2.804  -6.620  0.00  0.00     0.043 H 
ATOM     11  H   LIG d   1       8.597  -4.160  -5.899  0.00  0.00     0.043 H 
ATOM     12  C   LIG d   1       7.084  -1.652  -4.163  0.00  0.00    -0.016 A 
ATOM     13  H   LIG d   1       6.380  -3.586  -4.746  0.00  0.00     0.033 H 
ATOM     14  H   LIG d   1       7.807  -3.604  -3.676  0.00  0.00     0.033 H 
ATOM     15  C   LIG d   1       7.837  -0.633  -4.636  0.00  0.00     0.038 A 
ATOM     16  C   LIG d   1       6.070  -1.075  -3.309  0.00  0.00     0.003 A 
ATOM     17  N   LIG d   1       7.370   0.555  -4.141  0.00  0.00    -0.356 N 
ATOM     18  C   LIG d   1       6.295   0.326  -3.329  0.00  0.00     0.047 A 
ATOM     19  H   LIG d   1       7.746   1.428  -4.338  0.00  0.00     0.166 HD
ATOM     20  C   LIG d   1       5.478   1.187  -2.599  0.00  0.00    -0.038 A 
ATOM     21  C   LIG d   1       4.455   0.609  -1.866  0.00  0.00    -0.060 A 
ATOM     22  H   LIG d   1       5.635   2.255  -2.605  0.00  0.00     0.064 H 
ATOM     23  C   LIG d   1       4.240  -0.759  -1.850  0.00  0.00    -0.061 A 
ATOM     24  H   LIG d   1       3.803   1.248  -1.288  0.00  0.00     0.062 H 
ATOM     25  C   LIG d   1       5.028  -1.630  -2.559  0.00  0.00    -0.052 A 
ATOM     26  H   LIG d   1       3.426  -1.153  -1.260  0.00  0.00     0.062 H 
ATOM     27  H   LIG d   1       4.852  -2.696  -2.540  0.00  0.00     0.062 H 
ATOM     28  H   LIG d   1       8.716  -0.574  -6.585  0.00  0.00     0.053 H 
BRANCH   7  29
ATOM     29  C   LIG d   1      10.473  -2.538  -6.481  0.00  0.00    -0.012 C 
ATOM     30  H   LIG d   1      11.329  -2.964  -5.957  0.00  0.00     0.039 H 
ATOM     31  H   LIG d   1      10.116  -3.245  -7.228  0.00  0.00     0.039 H 
ATOM     32  H   LIG d   1      10.773  -1.612  -6.973  0.00  0.00     0.039 H 
ENDBRANCH   7  29
ENDBRANCH   3   6
ENDBRANCH   1   3
BRANCH   1  33
ATOM     33  C   LIG d   1      11.033   2.464  -5.557  0.00  0.00     0.027 C 
ATOM     34  H   LIG d   1      11.774   2.174  -4.812  0.00  0.00     0.036 H 
ATOM     35  H   LIG d   1      11.534   2.925  -6.408  0.00  0.00     0.036 H 
BRANCH  33  36
ATOM     36  C   LIG d   1      10.054   3.465  -4.939  0.00  0.00     0.057 C 
ATOM     37  H   LIG d   1       9.094   2.980  -4.768  0.00  0.00     0.053 H 
ATOM     38  N   LIG d   1      10.594   3.961  -3.662  0.00  0.00    -0.296 N 
ATOM     39  C   LIG d   1       9.791   5.075  -3.138  0.00  0.00     0.003 C 
ATOM     40  C   LIG d   1      10.014   6.323  -4.003  0.00  0.00    -0.013 C 
ATOM     41  H   LIG d   1      10.091   5.287  -2.111  0.00  0.00     0.043 H 
ATOM     42  H   LIG d   1       8.736   4.801  -3.159  0.00  0.00     0.043 H 
ATOM     43  C   LIG d   1       9.854   5.923  -5.448  0.00  0.00    -0.016 A 
ATOM     44  H   LIG d   1      11.018   6.712  -3.837  0.00  0.00     0.033 H 
ATOM     45  H   LIG d   1       9.275   7.084  -3.749  0.00  0.00     0.033 H 
ATOM     46  C   LIG d   1       9.871   4.639  -5.873  0.00  0.00     0.038 A 
ATOM     47  C   LIG d   1       9.663   6.755  -6.614  0.00  0.00     0.003 A 
ATOM     48  N   LIG d   1       9.700   4.598  -7.229  0.00  0.00    -0.356 N 
ATOM     49  C   LIG d   1       9.571   5.866  -7.717  0.00  0.00     0.047 A 
ATOM     50  H   LIG d   1       9.675   3.789  -7.764  0.00  0.00     0.166 HD
ATOM     51  C   LIG d   1       9.382   6.355  -9.008  0.00  0.00    -0.038 A 
ATOM     52  C   LIG d   1       9.291   7.728  -9.153  0.00  0.00    -0.060 A 
ATOM     53  H   LIG d   1       9.310   5.692  -9.858  0.00  0.00     0.064 H 
ATOM     54  C   LIG d   1       9.381   8.591  -8.073  0.00  0.00    -0.061 A 
ATOM     55  H   LIG d   1       9.145   8.141 -10.139  0.00  0.00     0.062 H 
ATOM     56  C   LIG d   1       9.566   8.140  -6.790  0.00  0.00    -0.052 A 
ATOM     57  H   LIG d   1       9.302   9.655  -8.245  0.00  0.00     0.062 H 
ATOM     58  H   LIG d   1       9.634   8.821  -5.955  0.00  0.00     0.062 H 
BRANCH  38  59
ATOM     59  C   LIG d   1      10.700   2.874  -2.679  0.00  0.00    -0.012 C 
ATOM     60  H   LIG d   1       9.735   2.727  -2.194  0.00  0.00     0.039 H 
ATOM     61  H   LIG d   1      10.997   1.955  -3.184  0.00  0.00     0.039 H 
ATOM     62  H   LIG d   1      11.447   3.134  -1.929  0.00  0.00     0.039 H 
ENDBRANCH  38  59
ENDBRANCH  33  36
ENDBRANCH   1  33
TORSDOF 6
ENDMDL
MODEL 6
REMARK VINA RESULT:      -7.7      6.022      8.496
REMARK  6 active torsions:
REMARK  status: ('A' for Active; 'I' for Inactive)
REMARK    1  A    between atoms: C_1  and  N_2 
REMARK    2  A    between atoms: C_15  and  C_17 
REMARK    3  A    between atoms: C_17  and  C_18 
REMARK    4  A    between atoms: C_18  and  C_20 
REMARK    5  A    between atoms: C_20  and  C_21 
REMARK    6  A    between atoms: N_35  and  C_36 
ROOT
ATOM      1  C   LIG d   1      10.281   1.280  -6.023  0.00  0.00     0.137 C 
ATOM      2  O   LIG d   1       9.756   1.270  -7.110  0.00  0.00    -0.297 OA
ENDROOT
BRANCH   1   3
ATOM      3  C   LIG d   1      11.032   2.503  -5.560  0.00  0.00     0.027 C 
ATOM      4  H   LIG d   1      11.526   2.968  -6.412  0.00  0.00     0.036 H 
ATOM      5  H   LIG d   1      11.779   2.212  -4.821  0.00  0.00     0.036 H 
BRANCH   3   6
ATOM      6  C   LIG d   1      10.053   3.496  -4.932  0.00  0.00     0.057 C 
ATOM      7  N   LIG d   1      10.594   3.980  -3.652  0.00  0.00    -0.296 N 
ATOM      8  C   LIG d   1       9.791   5.086  -3.113  0.00  0.00     0.003 C 
ATOM      9  C   LIG d   1      10.017   6.343  -3.964  0.00  0.00    -0.013 C 
ATOM     10  H   LIG d   1       8.736   4.815  -3.139  0.00  0.00     0.043 H 
ATOM     11  H   LIG d   1      10.090   5.285  -2.084  0.00  0.00     0.043 H 
ATOM     12  C   LIG d   1       9.856   5.959  -5.413  0.00  0.00    -0.016 A 
ATOM     13  H   LIG d   1       9.281   7.104  -3.701  0.00  0.00     0.033 H 
ATOM     14  H   LIG d   1      11.022   6.728  -3.795  0.00  0.00     0.033 H 
ATOM     15  C   LIG d   1       9.870   4.679  -5.852  0.00  0.00     0.038 A 
ATOM     16  C   LIG d   1       9.664   6.805  -6.570  0.00  0.00     0.003 A 
ATOM     17  N   LIG d   1       9.700   4.654  -7.210  0.00  0.00    -0.356 N 
ATOM     18  C   LIG d   1       9.571   5.930  -7.682  0.00  0.00     0.047 A 
ATOM     19  H   LIG d   1       9.676   3.852  -7.754  0.00  0.00     0.166 HD
ATOM     20  C   LIG d   1       9.380   6.434  -8.967  0.00  0.00    -0.038 A 
ATOM     21  C   LIG d   1       9.288   7.809  -9.095  0.00  0.00    -0.060 A 
ATOM     22  H   LIG d   1       9.306   5.781  -9.825  0.00  0.00     0.064 H 
ATOM     23  C   LIG d   1       9.379   8.659  -8.005  0.00  0.00    -0.061 A 
ATOM     24  H   LIG d   1       9.141   8.233 -10.077  0.00  0.00     0.062 H 
ATOM     25  C   LIG d   1       9.567   8.192  -6.728  0.00  0.00    -0.052 A 
ATOM     26  H   LIG d   1       9.299   9.724  -8.165  0.00  0.00     0.062 H 
ATOM     27  H   LIG d   1       9.636   8.863  -5.885  0.00  0.00     0.062 H 
ATOM     28  H   LIG d   1       9.092   3.011  -4.763  0.00  0.00     0.053 H 
BRANCH   7  29
ATOM     29  C   LIG d   1      10.703   2.885  -2.678  0.00  0.00    -0.012 C 
ATOM     30  H   LIG d   1      10.795   1.936  -3.207  0.00  0.00     0.039 H 
ATOM     31  H   LIG d   1      11.581   3.040  -2.053  0.00  0.00     0.039 H 
ATOM     32  H   LIG d   1       9.810   2.866  -2.052  0.00  0.00     0.039 H 
ENDBRANCH   7  29
ENDBRANCH   3   6
ENDBRANCH   1   3
BRANCH   1  33
ATOM     33  C   LIG d   1      10.186   0.071  -5.128  0.00  0.00     0.027 C 
ATOM     34  H   LIG d   1      11.112  -0.500  -5.190  0.00  0.00     0.036 H 
ATOM     35  H   LIG d   1      10.024   0.391  -4.099  0.00  0.00     0.036 H 
BRANCH  33  36
ATOM     36  C   LIG d   1       9.016  -0.806  -5.579  0.00  0.00     0.057 C 
ATOM     37  H   LIG d   1       8.725  -0.535  -6.593  0.00  0.00     0.053 H 
ATOM     38  N   LIG d   1       9.416  -2.222  -5.540  0.00  0.00    -0.296 N 
ATOM     39  C   LIG d   1       8.266  -3.110  -5.762  0.00  0.00     0.003 C 
ATOM     40  C   LIG d   1       7.344  -3.077  -4.535  0.00  0.00    -0.013 C 
ATOM     41  H   LIG d   1       8.619  -4.128  -5.924  0.00  0.00     0.043 H 
ATOM     42  H   LIG d   1       7.714  -2.773  -6.640  0.00  0.00     0.043 H 
ATOM     43  C   LIG d   1       7.096  -1.634  -4.177  0.00  0.00    -0.016 A 
ATOM     44  H   LIG d   1       7.824  -3.587  -3.700  0.00  0.00     0.033 H 
ATOM     45  H   LIG d   1       6.398  -3.565  -4.772  0.00  0.00     0.033 H 
ATOM     46  C   LIG d   1       7.845  -0.609  -4.645  0.00  0.00     0.038 A 
ATOM     47  C   LIG d   1       6.081  -1.064  -3.319  0.00  0.00     0.003 A 
ATOM     48  N   LIG d   1       7.374   0.574  -4.146  0.00  0.00    -0.356 N 
ATOM     49  C   LIG d   1       6.301   0.339  -3.334  0.00  0.00     0.047 A 
ATOM     50  H   LIG d   1       7.746   1.448  -4.339  0.00  0.00     0.166 HD
ATOM     51  C   LIG d   1       5.484   1.194  -2.598  0.00  0.00    -0.038 A 
ATOM     52  C   LIG d   1       4.464   0.610  -1.866  0.00  0.00    -0.060 A 
ATOM     53  H   LIG d   1       5.638   2.262  -2.599  0.00  0.00     0.064 H 
ATOM     54  C   LIG d   1       4.253  -0.759  -1.856  0.00  0.00    -0.061 A 
ATOM     55  H   LIG d   1       3.811   1.243  -1.284  0.00  0.00     0.062 H 
ATOM     56  C   LIG d   1       5.042  -1.625  -2.571  0.00  0.00    -0.052 A 
ATOM     57  H   LIG d   1       3.441  -1.159  -1.266  0.00  0.00     0.062 H 
ATOM     58  H   LIG d   1       4.868  -2.691  -2.556  0.00  0.00     0.062 H 
BRANCH  38  59
ATOM     59  C   LIG d   1      10.489  -2.493  -6.506  0.00  0.00    -0.012 C 
ATOM     60  H   LIG d   1      10.477  -3.548  -6.777  0.00  0.00     0.039 H 
ATOM     61  H   LIG d   1      10.336  -1.886  -7.398  0.00  0.00     0.039 H 
ATOM     62  H   LIG d   1      11.452  -2.244  -6.058  0.00  0.00     0.039 H 
ENDBRANCH  38  59
ENDBRANCH  33  36
ENDBRANCH   1  33
TORSDOF 6
ENDMDL
MODEL 7
REMARK VINA RESULT:      -7.4      5.863      7.898
REMARK  6 active torsions:
REMARK  status: ('A' for Active; 'I' for Inactive)
REMARK    1  A    between atoms: C_1  and  N_2 
REMARK    2  A    between atoms: C_15  and  C_17 
REMARK    3  A    between atoms: C_17  and  C_18 
REMARK    4  A    between atoms: C_18  and  C_20 
REMARK    5  A    between atoms: C_20  and  C_21 
REMARK    6  A    between atoms: N_35  and  C_36 
ROOT
ATOM      1  C   LIG d   1       9.662   1.135  -7.038  0.00  0.00     0.137 C 
ATOM      2  O   LIG d   1      10.330   0.824  -7.995  0.00  0.00    -0.297 OA
ENDROOT
BRANCH   1   3
ATOM      3  C   LIG d   1       9.624   0.242  -5.825  0.00  0.00     0.027 C 
ATOM      4  H   LIG d   1       9.445   0.845  -4.936  0.00  0.00     0.036 H 
ATOM      5  H   LIG d   1      10.578  -0.277  -5.725  0.00  0.00     0.036 H 
BRANCH   3   6
ATOM      6  C   LIG d   1       8.500  -0.784  -5.980  0.00  0.00     0.057 C 
ATOM      7  N   LIG d   1       9.040  -2.141  -5.797  0.00  0.00    -0.296 N 
ATOM      8  C   LIG d   1       7.967  -3.142  -5.733  0.00  0.00     0.003 C 
ATOM      9  C   LIG d   1       7.213  -2.998  -4.404  0.00  0.00    -0.013 C 
ATOM     10  H   LIG d   1       7.276  -2.988  -6.561  0.00  0.00     0.043 H 
ATOM     11  H   LIG d   1       8.398  -4.141  -5.800  0.00  0.00     0.043 H 
ATOM     12  C   LIG d   1       6.869  -1.542  -4.219  0.00  0.00    -0.016 A 
ATOM     13  H   LIG d   1       6.300  -3.593  -4.431  0.00  0.00     0.033 H 
ATOM     14  H   LIG d   1       7.846  -3.333  -3.582  0.00  0.00     0.033 H 
ATOM     15  C   LIG d   1       7.444  -0.544  -4.928  0.00  0.00     0.038 A 
ATOM     16  C   LIG d   1       5.918  -0.932  -3.316  0.00  0.00     0.003 A 
ATOM     17  N   LIG d   1       6.924   0.661  -4.536  0.00  0.00    -0.356 N 
ATOM     18  C   LIG d   1       5.992   0.464  -3.557  0.00  0.00     0.047 A 
ATOM     19  H   LIG d   1       7.179   1.523  -4.899  0.00  0.00     0.166 HD
ATOM     20  C   LIG d   1       5.191   1.351  -2.840  0.00  0.00    -0.038 A 
ATOM     21  C   LIG d   1       4.336   0.803  -1.899  0.00  0.00    -0.060 A 
ATOM     22  H   LIG d   1       5.234   2.416  -3.012  0.00  0.00     0.064 H 
ATOM     23  C   LIG d   1       4.267  -0.560  -1.668  0.00  0.00    -0.061 A 
ATOM     24  H   LIG d   1       3.701   1.463  -1.326  0.00  0.00     0.062 H 
ATOM     25  C   LIG d   1       5.044  -1.457  -2.358  0.00  0.00    -0.052 A 
ATOM     26  H   LIG d   1       3.581  -0.931  -0.922  0.00  0.00     0.062 H 
ATOM     27  H   LIG d   1       4.983  -2.519  -2.172  0.00  0.00     0.062 H 
ATOM     28  H   LIG d   1       8.056  -0.698  -6.971  0.00  0.00     0.053 H 
BRANCH   7  29
ATOM     29  C   LIG d   1      10.005  -2.470  -6.854  0.00  0.00    -0.012 C 
ATOM     30  H   LIG d   1       9.736  -1.943  -7.770  0.00  0.00     0.039 H 
ATOM     31  H   LIG d   1      11.004  -2.169  -6.542  0.00  0.00     0.039 H 
ATOM     32  H   LIG d   1       9.991  -3.545  -7.037  0.00  0.00     0.039 H 
ENDBRANCH   7  29
ENDBRANCH   3   6
ENDBRANCH   1   3
BRANCH   1  33
ATOM     33  C   LIG d   1       8.867   2.415  -7.057  0.00  0.00     0.027 C 
ATOM     34  H   LIG d   1       8.177   2.401  -7.901  0.00  0.00     0.036 H 
ATOM     35  H   LIG d   1       8.304   2.508  -6.129  0.00  0.00     0.036 H 
BRANCH  33  36
ATOM     36  C   LIG d   1       9.819   3.605  -7.197  0.00  0.00     0.057 C 
ATOM     37  H   LIG d   1      10.813   3.249  -7.467  0.00  0.00     0.053 H 
ATOM     38  N   LIG d   1       9.320   4.517  -8.239  0.00  0.00    -0.296 N 
ATOM     39  C   LIG d   1      10.085   5.772  -8.263  0.00  0.00     0.003 C 
ATOM     40  C   LIG d   1       9.748   6.606  -7.019  0.00  0.00    -0.013 C 
ATOM     41  H   LIG d   1       9.829   6.337  -9.159  0.00  0.00     0.043 H 
ATOM     42  H   LIG d   1      11.151   5.545  -8.270  0.00  0.00     0.043 H 
ATOM     43  C   LIG d   1       9.853   5.708  -5.813  0.00  0.00    -0.016 A 
ATOM     44  H   LIG d   1       8.734   6.995  -7.101  0.00  0.00     0.033 H 
ATOM     45  H   LIG d   1      10.454   7.431  -6.926  0.00  0.00     0.033 H 
ATOM     46  C   LIG d   1       9.887   4.357  -5.889  0.00  0.00     0.038 A 
ATOM     47  C   LIG d   1       9.936   6.058  -4.413  0.00  0.00     0.003 A 
ATOM     48  N   LIG d   1       9.988   3.825  -4.633  0.00  0.00    -0.356 N 
ATOM     49  C   LIG d   1      10.020   4.829  -3.708  0.00  0.00     0.047 A 
ATOM     50  H   LIG d   1      10.031   2.878  -4.430  0.00  0.00     0.166 HD
ATOM     51  C   LIG d   1      10.113   4.813  -2.317  0.00  0.00    -0.038 A 
ATOM     52  C   LIG d   1      10.119   6.039  -1.675  0.00  0.00    -0.060 A 
ATOM     53  H   LIG d   1      10.178   3.887  -1.766  0.00  0.00     0.064 H 
ATOM     54  C   LIG d   1      10.038   7.236  -2.369  0.00  0.00    -0.061 A 
ATOM     55  H   LIG d   1      10.190   6.065  -0.599  0.00  0.00     0.062 H 
ATOM     56  C   LIG d   1       9.946   7.283  -3.737  0.00  0.00    -0.052 A 
ATOM     57  H   LIG d   1      10.048   8.164  -1.814  0.00  0.00     0.062 H 
ATOM     58  H   LIG d   1       9.883   8.221  -4.268  0.00  0.00     0.062 H 
BRANCH  38  59
ATOM     59  C   LIG d   1       9.327   3.866  -9.556  0.00  0.00    -0.012 C 
ATOM     60  H   LIG d   1       8.758   4.470 -10.263  0.00  0.00     0.039 H 
ATOM     61  H   LIG d   1      10.354   3.767  -9.907  0.00  0.00     0.039 H 
ATOM     62  H   LIG d   1       8.874   2.878  -9.475  0.00  0.00     0.039 H 
ENDBRANCH  38  59
ENDBRANCH  33  36
ENDBRANCH   1  33
TORSDOF 6
ENDMDL
MODEL 8
REMARK VINA RESULT:      -7.4      1.708      6.677
REMARK  6 active torsions:
REMARK  status: ('A' for Active; 'I' for Inactive)
REMARK    1  A    between atoms: C_1  and  N_2 
REMARK    2  A    between atoms: C_15  and  C_17 
REMARK    3  A    between atoms: C_17  and  C_18 
REMARK    4  A    between atoms: C_18  and  C_20 
REMARK    5  A    between atoms: C_20  and  C_21 
REMARK    6  A    between atoms: N_35  and  C_36 
ROOT
ATOM      1  C   LIG d   1       4.089  -5.276  -6.687  0.00  0.00     0.137 C 
ATOM      2  O   LIG d   1       3.532  -5.554  -5.653  0.00  0.00    -0.297 OA
ENDROOT
BRANCH   1   3
ATOM      3  C   LIG d   1       3.693  -5.969  -7.966  0.00  0.00     0.027 C 
ATOM      4  H   LIG d   1       2.630  -5.816  -8.147  0.00  0.00     0.036 H 
ATOM      5  H   LIG d   1       3.897  -7.036  -7.879  0.00  0.00     0.036 H 
BRANCH   3   6
ATOM      6  C   LIG d   1       4.498  -5.389  -9.131  0.00  0.00     0.057 C 
ATOM      7  N   LIG d   1       4.867  -6.468 -10.061  0.00  0.00    -0.296 N 
ATOM      8  C   LIG d   1       5.460  -5.934 -11.295  0.00  0.00     0.003 C 
ATOM      9  C   LIG d   1       4.370  -5.253 -12.133  0.00  0.00    -0.013 C 
ATOM     10  H   LIG d   1       6.232  -5.207 -11.042  0.00  0.00     0.043 H 
ATOM     11  H   LIG d   1       5.903  -6.749 -11.868  0.00  0.00     0.043 H 
ATOM     12  C   LIG d   1       3.600  -4.324 -11.227  0.00  0.00    -0.016 A 
ATOM     13  H   LIG d   1       4.828  -4.683 -12.942  0.00  0.00     0.033 H 
ATOM     14  H   LIG d   1       3.698  -6.005 -12.545  0.00  0.00     0.033 H 
ATOM     15  C   LIG d   1       3.657  -4.382  -9.877  0.00  0.00     0.038 A 
ATOM     16  C   LIG d   1       2.700  -3.246 -11.572  0.00  0.00     0.003 A 
ATOM     17  N   LIG d   1       2.853  -3.413  -9.339  0.00  0.00    -0.356 N 
ATOM     18  C   LIG d   1       2.255  -2.701 -10.340  0.00  0.00     0.047 A 
ATOM     19  H   LIG d   1       2.728  -3.255  -8.390  0.00  0.00     0.166 HD
ATOM     20  C   LIG d   1       1.364  -1.630 -10.319  0.00  0.00    -0.038 A 
ATOM     21  C   LIG d   1       0.947  -1.137 -11.544  0.00  0.00    -0.060 A 
ATOM     22  H   LIG d   1       1.016  -1.203  -9.391  0.00  0.00     0.064 H 
ATOM     23  C   LIG d   1       1.385  -1.672 -12.744  0.00  0.00    -0.061 A 
ATOM     24  H   LIG d   1       0.256  -0.307 -11.564  0.00  0.00     0.062 H 
ATOM     25  C   LIG d   1       2.262  -2.727 -12.795  0.00  0.00    -0.052 A 
ATOM     26  H   LIG d   1       1.026  -1.246 -13.669  0.00  0.00     0.062 H 
ATOM     27  H   LIG d   1       2.599  -3.138 -13.736  0.00  0.00     0.062 H 
ATOM     28  H   LIG d   1       5.399  -4.907  -8.754  0.00  0.00     0.053 H 
BRANCH   7  29
ATOM     29  C   LIG d   1       5.770  -7.432  -9.417  0.00  0.00    -0.012 C 
ATOM     30  H   LIG d   1       6.792  -7.054  -9.453  0.00  0.00     0.039 H 
ATOM     31  H   LIG d   1       5.471  -7.574  -8.380  0.00  0.00     0.039 H 
ATOM     32  H   LIG d   1       5.718  -8.387  -9.943  0.00  0.00     0.039 H 
ENDBRANCH   7  29
ENDBRANCH   3   6
ENDBRANCH   1   3
BRANCH   1  33
ATOM     33  C   LIG d   1       5.180  -4.237  -6.699  0.00  0.00     0.027 C 
ATOM     34  H   LIG d   1       5.928  -4.504  -7.446  0.00  0.00     0.036 H 
ATOM     35  H   LIG d   1       4.754  -3.264  -6.943  0.00  0.00     0.036 H 
BRANCH  33  36
ATOM     36  C   LIG d   1       5.839  -4.173  -5.319  0.00  0.00     0.057 C 
ATOM     37  H   LIG d   1       5.629  -5.090  -4.770  0.00  0.00     0.053 H 
ATOM     38  N   LIG d   1       7.294  -4.010  -5.473  0.00  0.00    -0.296 N 
ATOM     39  C   LIG d   1       7.942  -3.736  -4.183  0.00  0.00     0.003 C 
ATOM     40  C   LIG d   1       7.581  -2.318  -3.716  0.00  0.00    -0.013 C 
ATOM     41  H   LIG d   1       9.023  -3.817  -4.294  0.00  0.00     0.043 H 
ATOM     42  H   LIG d   1       7.597  -4.459  -3.444  0.00  0.00     0.043 H 
ATOM     43  C   LIG d   1       6.087  -2.155  -3.835  0.00  0.00    -0.016 A 
ATOM     44  H   LIG d   1       8.083  -1.584  -4.346  0.00  0.00     0.033 H 
ATOM     45  H   LIG d   1       7.884  -2.184  -2.678  0.00  0.00     0.033 H 
ATOM     46  C   LIG d   1       5.300  -2.987  -4.554  0.00  0.00     0.038 A 
ATOM     47  C   LIG d   1       5.225  -1.150  -3.252  0.00  0.00     0.003 A 
ATOM     48  N   LIG d   1       3.996  -2.583  -4.466  0.00  0.00    -0.356 N 
ATOM     49  C   LIG d   1       3.911  -1.467  -3.683  0.00  0.00     0.047 A 
ATOM     50  H   LIG d   1       3.245  -3.022  -4.896  0.00  0.00     0.166 HD
ATOM     51  C   LIG d   1       2.827  -0.683  -3.293  0.00  0.00    -0.038 A 
ATOM     52  C   LIG d   1       3.100   0.401  -2.477  0.00  0.00    -0.060 A 
ATOM     53  H   LIG d   1       1.821  -0.910  -3.612  0.00  0.00     0.064 H 
ATOM     54  C   LIG d   1       4.385   0.706  -2.058  0.00  0.00    -0.061 A 
ATOM     55  H   LIG d   1       2.284   1.031  -2.155  0.00  0.00     0.062 H 
ATOM     56  C   LIG d   1       5.471  -0.048  -2.426  0.00  0.00    -0.052 A 
ATOM     57  H   LIG d   1       4.538   1.565  -1.421  0.00  0.00     0.062 H 
ATOM     58  H   LIG d   1       6.469   0.198  -2.095  0.00  0.00     0.062 H 
BRANCH  38  59
ATOM     59  C   LIG d   1       7.888  -5.185  -6.126  0.00  0.00    -0.012 C 
ATOM     60  H   LIG d   1       7.161  -5.631  -6.804  0.00  0.00     0.039 H 
ATOM     61  H   LIG d   1       8.771  -4.880  -6.688  0.00  0.00     0.039 H 
ATOM     62  H   LIG d   1       8.175  -5.915  -5.369  0.00  0.00     0.039 H 
ENDBRANCH  38  59
ENDBRANCH  33  36
ENDBRANCH   1  33
TORSDOF 6
ENDMDL
MODEL 9
REMARK VINA RESULT:      -7.4      7.346      9.880
REMARK  6 active torsions:
REMARK  status: ('A' for Active; 'I' for Inactive)
REMARK    1  A    between atoms: C_1  and  N_2 
REMARK    2  A    between atoms: C_15  and  C_17 
REMARK    3  A    between atoms: C_17  and  C_18 
REMARK    4  A    between atoms: C_18  and  C_20 
REMARK    5  A    between atoms: C_20  and  C_21 
REMARK    6  A    between atoms: N_35  and  C_36 
ROOT
ATOM      1  C   LIG d   1       9.569   3.659  -4.135  0.00  0.00     0.137 C 
ATOM      2  O   LIG d   1       8.785   3.977  -4.996  0.00  0.00    -0.297 OA
ENDROOT
BRANCH   1   3
ATOM      3  C   LIG d   1      10.617   4.638  -3.671  0.00  0.00     0.027 C 
ATOM      4  H   LIG d   1      11.246   4.923  -4.514  0.00  0.00     0.036 H 
ATOM      5  H   LIG d   1      11.232   4.174  -2.900  0.00  0.00     0.036 H 
BRANCH   3   6
ATOM      6  C   LIG d   1       9.936   5.883  -3.100  0.00  0.00     0.057 C 
ATOM      7  N   LIG d   1      10.708   6.386  -1.952  0.00  0.00    -0.296 N 
ATOM      8  C   LIG d   1      10.209   7.692  -1.501  0.00  0.00     0.003 C 
ATOM      9  C   LIG d   1      10.581   8.765  -2.532  0.00  0.00    -0.013 C 
ATOM     10  H   LIG d   1       9.126   7.650  -1.394  0.00  0.00     0.043 H 
ATOM     11  H   LIG d   1      10.660   7.941  -0.539  0.00  0.00     0.043 H 
ATOM     12  C   LIG d   1      10.179   8.259  -3.895  0.00  0.00    -0.016 A 
ATOM     13  H   LIG d   1      10.048   9.690  -2.312  0.00  0.00     0.033 H 
ATOM     14  H   LIG d   1      11.655   8.944  -2.508  0.00  0.00     0.033 H 
ATOM     15  C   LIG d   1       9.887   6.964  -4.154  0.00  0.00     0.038 A 
ATOM     16  C   LIG d   1      10.027   8.987  -5.135  0.00  0.00     0.003 A 
ATOM     17  N   LIG d   1       9.559   6.818  -5.475  0.00  0.00    -0.356 N 
ATOM     18  C   LIG d   1       9.633   8.029  -6.104  0.00  0.00     0.047 A 
ATOM     19  H   LIG d   1       9.312   5.982  -5.899  0.00  0.00     0.166 HD
ATOM     20  C   LIG d   1       9.399   8.410  -7.424  0.00  0.00    -0.038 A 
ATOM     21  C   LIG d   1       9.569   9.749  -7.730  0.00  0.00    -0.060 A 
ATOM     22  H   LIG d   1       9.097   7.693  -8.173  0.00  0.00     0.064 H 
ATOM     23  C   LIG d   1       9.953  10.680  -6.780  0.00  0.00    -0.061 A 
ATOM     24  H   LIG d   1       9.396  10.078  -8.744  0.00  0.00     0.062 H 
ATOM     25  C   LIG d   1      10.191  10.335  -5.473  0.00  0.00    -0.052 A 
ATOM     26  H   LIG d   1      10.070  11.712  -7.077  0.00  0.00     0.062 H 
ATOM     27  H   LIG d   1      10.490  11.069  -4.739  0.00  0.00     0.062 H 
ATOM     28  H   LIG d   1       8.924   5.637  -2.781  0.00  0.00     0.053 H 
BRANCH   7  29
ATOM     29  C   LIG d   1      10.708   5.413  -0.851  0.00  0.00    -0.012 C 
ATOM     30  H   LIG d   1      11.727   5.074  -0.665  0.00  0.00     0.039 H 
ATOM     31  H   LIG d   1      10.310   5.881   0.048  0.00  0.00     0.039 H 
ATOM     32  H   LIG d   1      10.085   4.559  -1.121  0.00  0.00     0.039 H 
ENDBRANCH   7  29
ENDBRANCH   3   6
ENDBRANCH   1   3
BRANCH   1  33
ATOM     33  C   LIG d   1       9.501   2.284  -3.524  0.00  0.00     0.027 C 
ATOM     34  H   LIG d   1      10.505   1.952  -3.262  0.00  0.00     0.036 H 
ATOM     35  H   LIG d   1       8.882   2.314  -2.627  0.00  0.00     0.036 H 
BRANCH  33  36
ATOM     36  C   LIG d   1       8.889   1.307  -4.532  0.00  0.00     0.057 C 
ATOM     37  H   LIG d   1       8.685   1.827  -5.467  0.00  0.00     0.053 H 
ATOM     38  N   LIG d   1       9.824   0.197  -4.775  0.00  0.00    -0.296 N 
ATOM     39  C   LIG d   1       9.196  -0.867  -5.571  0.00  0.00     0.003 C 
ATOM     40  C   LIG d   1       8.153  -1.602  -4.719  0.00  0.00    -0.013 C 
ATOM     41  H   LIG d   1       9.959  -1.573  -5.900  0.00  0.00     0.043 H 
ATOM     42  H   LIG d   1       8.709  -0.427  -6.442  0.00  0.00     0.043 H 
ATOM     43  C   LIG d   1       7.276  -0.568  -4.060  0.00  0.00    -0.016 A 
ATOM     44  H   LIG d   1       8.653  -2.199  -3.957  0.00  0.00     0.033 H 
ATOM     45  H   LIG d   1       7.545  -2.247  -5.354  0.00  0.00     0.033 H 
ATOM     46  C   LIG d   1       7.603   0.743  -3.975  0.00  0.00     0.038 A 
ATOM     47  C   LIG d   1       5.989  -0.728  -3.421  0.00  0.00     0.003 A 
ATOM     48  N   LIG d   1       6.610   1.426  -3.328  0.00  0.00    -0.356 N 
ATOM     49  C   LIG d   1       5.611   0.565  -2.975  0.00  0.00     0.047 A 
ATOM     50  H   LIG d   1       6.616   2.379  -3.147  0.00  0.00     0.166 HD
ATOM     51  C   LIG d   1       4.404   0.761  -2.307  0.00  0.00    -0.038 A 
ATOM     52  C   LIG d   1       3.609  -0.354  -2.109  0.00  0.00    -0.060 A 
ATOM     53  H   LIG d   1       4.102   1.739  -1.961  0.00  0.00     0.064 H 
ATOM     54  C   LIG d   1       3.982  -1.614  -2.548  0.00  0.00    -0.061 A 
ATOM     55  H   LIG d   1       2.666  -0.239  -1.595  0.00  0.00     0.062 H 
ATOM     56  C   LIG d   1       5.164  -1.837  -3.208  0.00  0.00    -0.052 A 
ATOM     57  H   LIG d   1       3.320  -2.449  -2.365  0.00  0.00     0.062 H 
ATOM     58  H   LIG d   1       5.446  -2.824  -3.545  0.00  0.00     0.062 H 
BRANCH  38  59
ATOM     59  C   LIG d   1      11.058   0.678  -5.410  0.00  0.00    -0.012 C 
ATOM     60  H   LIG d   1      11.106   1.764  -5.335  0.00  0.00     0.039 H 
ATOM     61  H   LIG d   1      11.920   0.240  -4.906  0.00  0.00     0.039 H 
ATOM     62  H   LIG d   1      11.064   0.385  -6.460  0.00  0.00     0.039 H 
ENDBRANCH  38  59
ENDBRANCH  33  36
ENDBRANCH   1  33
TORSDOF 6
ENDMDL
