MODEL 1
REMARK VINA RESULT:      -6.3      0.000      0.000
REMARK  7 active torsions:
REMARK  status: ('A' for Active; 'I' for Inactive)
REMARK    1  A    between atoms: C_1  and  O_2 
REMARK    2  A    between atoms: O_2  and  C_3 
REMARK    3  A    between atoms: C_5  and  C_17 
REMARK    4  A    between atoms: C_8  and  O_9 
REMARK    5  A    between atoms: O_9  and  C_10 
REMARK    6  A    between atoms: C_10  and  C_11 
REMARK    7  A    between atoms: C_18  and  N_19 
ROOT
ATOM      1  C   LIG d   1       4.633  -0.347  -6.958  0.00  0.00     0.162 A 
ATOM      2  C   LIG d   1       4.994  -1.187  -7.995  0.00  0.00    -0.009 A 
ATOM      3  C   LIG d   1       4.061  -1.520  -8.978  0.00  0.00    -0.016 A 
ATOM      4  C   LIG d   1       2.770  -0.993  -8.917  0.00  0.00    -0.051 A 
ATOM      5  C   LIG d   1       2.416  -0.154  -7.881  0.00  0.00    -0.016 A 
ATOM      6  C   LIG d   1       3.341   0.171  -6.900  0.00  0.00     0.162 A 
ATOM      7  H   LIG d   1       5.995  -1.590  -8.041  0.00  0.00     0.066 H 
ATOM      8  H   LIG d   1       2.048  -1.244  -9.680  0.00  0.00     0.062 H 
ATOM      9  H   LIG d   1       1.415   0.250  -7.834  0.00  0.00     0.066 H 
ENDROOT
BRANCH   6  10
ATOM     10  O   LIG d   1       2.986   0.998  -5.880  0.00  0.00    -0.484 OA
BRANCH  10  11
ATOM     11  C   LIG d   1       2.155   0.446  -4.857  0.00  0.00     0.115 C 
ATOM     12  H   LIG d   1       1.432   1.194  -4.532  0.00  0.00     0.075 H 
ATOM     13  H   LIG d   1       1.626  -0.423  -5.249  0.00  0.00     0.075 H 
BRANCH  11  14
ATOM     14  C   LIG d   1       3.008   0.030  -3.688  0.00  0.00    -0.010 A 
ATOM     15  C   LIG d   1       3.627   0.989  -2.908  0.00  0.00    -0.055 A 
ATOM     16  C   LIG d   1       4.410   0.607  -1.834  0.00  0.00    -0.061 A 
ATOM     17  H   LIG d   1       3.499   2.036  -3.138  0.00  0.00     0.062 H 
ATOM     18  C   LIG d   1       4.573  -0.734  -1.540  0.00  0.00    -0.062 A 
ATOM     19  H   LIG d   1       4.894   1.356  -1.225  0.00  0.00     0.062 H 
ATOM     20  C   LIG d   1       3.954  -1.693  -2.319  0.00  0.00    -0.061 A 
ATOM     21  H   LIG d   1       5.185  -1.033  -0.701  0.00  0.00     0.062 H 
ATOM     22  C   LIG d   1       3.167  -1.311  -3.390  0.00  0.00    -0.055 A 
ATOM     23  H   LIG d   1       4.082  -2.740  -2.089  0.00  0.00     0.062 H 
ATOM     24  H   LIG d   1       2.679  -2.061  -3.996  0.00  0.00     0.062 H 
ENDBRANCH  11  14
ENDBRANCH  10  11
ENDBRANCH   6  10
BRANCH   1  25
ATOM     25  O   LIG d   1       5.537  -0.026  -5.995  0.00  0.00    -0.491 OA
BRANCH  25  26
ATOM     26  C   LIG d   1       6.761  -0.763  -5.983  0.00  0.00     0.079 C 
ATOM     27  H   LIG d   1       7.495  -0.239  -5.371  0.00  0.00     0.066 H 
ATOM     28  H   LIG d   1       6.585  -1.755  -5.569  0.00  0.00     0.066 H 
ATOM     29  H   LIG d   1       7.139  -0.857  -7.002  0.00  0.00     0.066 H 
ENDBRANCH  25  26
ENDBRANCH   1  25
BRANCH   3  30
ATOM     30  C   LIG d   1       4.440  -2.423 -10.084  0.00  0.00     0.015 C 
ATOM     31  C   LIG d   1       4.861  -1.918 -11.237  0.00  0.00     0.239 C 
ATOM     32  H   LIG d   1       4.959  -2.557 -12.102  0.00  0.00     0.144 H 
ATOM     33  H   LIG d   1       4.375  -3.492  -9.955  0.00  0.00     0.069 H 
BRANCH  31  34
ATOM     34  N   LIG d   1       5.196  -0.479 -11.337  0.00  0.00     0.072 N 
ATOM     35  O   LIG d   1       6.283  -0.080 -10.959  0.00  0.00     0.041 OA
ATOM     36  O   LIG d   1       4.383   0.304 -11.796  0.00  0.00    -0.577 OA
ENDBRANCH  31  34
ENDBRANCH   3  30
TORSDOF 7
ENDMDL
MODEL 2
REMARK VINA RESULT:      -6.2      1.858      1.996
REMARK  7 active torsions:
REMARK  status: ('A' for Active; 'I' for Inactive)
REMARK    1  A    between atoms: C_1  and  O_2 
REMARK    2  A    between atoms: O_2  and  C_3 
REMARK    3  A    between atoms: C_5  and  C_17 
REMARK    4  A    between atoms: C_8  and  O_9 
REMARK    5  A    between atoms: O_9  and  C_10 
REMARK    6  A    between atoms: C_10  and  C_11 
REMARK    7  A    between atoms: C_18  and  N_19 
ROOT
ATOM      1  C   LIG d   1       4.198   0.956  -8.668  0.00  0.00     0.162 A 
ATOM      2  C   LIG d   1       3.962   0.644  -9.994  0.00  0.00    -0.009 A 
ATOM      3  C   LIG d   1       2.905  -0.202 -10.333  0.00  0.00    -0.016 A 
ATOM      4  C   LIG d   1       2.082  -0.720  -9.331  0.00  0.00    -0.051 A 
ATOM      5  C   LIG d   1       2.322  -0.404  -8.010  0.00  0.00    -0.016 A 
ATOM      6  C   LIG d   1       3.376   0.431  -7.673  0.00  0.00     0.162 A 
ATOM      7  H   LIG d   1       4.598   1.051 -10.767  0.00  0.00     0.066 H 
ATOM      8  H   LIG d   1       1.260  -1.371  -9.591  0.00  0.00     0.062 H 
ATOM      9  H   LIG d   1       1.686  -0.810  -7.236  0.00  0.00     0.066 H 
ENDROOT
BRANCH   6  10
ATOM     10  O   LIG d   1       3.609   0.738  -6.369  0.00  0.00    -0.484 OA
BRANCH  10  11
ATOM     11  C   LIG d   1       2.593   0.383  -5.428  0.00  0.00     0.115 C 
ATOM     12  H   LIG d   1       1.880   1.202  -5.336  0.00  0.00     0.075 H 
ATOM     13  H   LIG d   1       2.076  -0.512  -5.774  0.00  0.00     0.075 H 
BRANCH  11  14
ATOM     14  C   LIG d   1       3.225   0.112  -4.088  0.00  0.00    -0.010 A 
ATOM     15  C   LIG d   1       3.605   1.165  -3.277  0.00  0.00    -0.055 A 
ATOM     16  C   LIG d   1       4.184   0.917  -2.046  0.00  0.00    -0.061 A 
ATOM     17  H   LIG d   1       3.449   2.182  -3.606  0.00  0.00     0.062 H 
ATOM     18  C   LIG d   1       4.383  -0.385  -1.626  0.00  0.00    -0.062 A 
ATOM     19  H   LIG d   1       4.481   1.740  -1.414  0.00  0.00     0.062 H 
ATOM     20  C   LIG d   1       4.002  -1.438  -2.436  0.00  0.00    -0.061 A 
ATOM     21  H   LIG d   1       4.835  -0.579  -0.665  0.00  0.00     0.062 H 
ATOM     22  C   LIG d   1       3.418  -1.190  -3.665  0.00  0.00    -0.055 A 
ATOM     23  H   LIG d   1       4.158  -2.455  -2.108  0.00  0.00     0.062 H 
ATOM     24  H   LIG d   1       3.117  -2.013  -4.295  0.00  0.00     0.062 H 
ENDBRANCH  11  14
ENDBRANCH  10  11
ENDBRANCH   6  10
BRANCH   1  25
ATOM     25  O   LIG d   1       5.230   1.775  -8.335  0.00  0.00    -0.491 OA
BRANCH  25  26
ATOM     26  C   LIG d   1       6.529   1.404  -8.800  0.00  0.00     0.079 C 
ATOM     27  H   LIG d   1       7.281   2.025  -8.312  0.00  0.00     0.066 H 
ATOM     28  H   LIG d   1       6.714   0.356  -8.566  0.00  0.00     0.066 H 
ATOM     29  H   LIG d   1       6.584   1.550  -9.880  0.00  0.00     0.066 H 
ENDBRANCH  25  26
ENDBRANCH   1  25
BRANCH   3  30
ATOM     30  C   LIG d   1       2.653  -0.543 -11.748  0.00  0.00     0.015 C 
ATOM     31  C   LIG d   1       3.299  -1.557 -12.311  0.00  0.00     0.239 C 
ATOM     32  H   LIG d   1       3.261  -1.693 -13.381  0.00  0.00     0.144 H 
ATOM     33  H   LIG d   1       1.945   0.031 -12.325  0.00  0.00     0.069 H 
BRANCH  31  34
ATOM     34  N   LIG d   1       4.070  -2.501 -11.470  0.00  0.00     0.072 N 
ATOM     35  O   LIG d   1       5.261  -2.323 -11.290  0.00  0.00     0.041 OA
ATOM     36  O   LIG d   1       3.512  -3.456 -10.958  0.00  0.00    -0.577 OA
ENDBRANCH  31  34
ENDBRANCH   3  30
TORSDOF 7
ENDMDL
MODEL 3
REMARK VINA RESULT:      -6.1      2.871      6.753
REMARK  7 active torsions:
REMARK  status: ('A' for Active; 'I' for Inactive)
REMARK    1  A    between atoms: C_1  and  O_2 
REMARK    2  A    between atoms: O_2  and  C_3 
REMARK    3  A    between atoms: C_5  and  C_17 
REMARK    4  A    between atoms: C_8  and  O_9 
REMARK    5  A    between atoms: O_9  and  C_10 
REMARK    6  A    between atoms: C_10  and  C_11 
REMARK    7  A    between atoms: C_18  and  N_19 
ROOT
ATOM      1  C   LIG d   1       5.087  -0.455  -6.274  0.00  0.00     0.162 A 
ATOM      2  C   LIG d   1       5.053  -1.006  -5.007  0.00  0.00    -0.009 A 
ATOM      3  C   LIG d   1       3.904  -0.881  -4.225  0.00  0.00    -0.016 A 
ATOM      4  C   LIG d   1       2.789  -0.211  -4.730  0.00  0.00    -0.051 A 
ATOM      5  C   LIG d   1       2.829   0.335  -5.996  0.00  0.00    -0.016 A 
ATOM      6  C   LIG d   1       3.973   0.218  -6.771  0.00  0.00     0.162 A 
ATOM      7  H   LIG d   1       5.916  -1.528  -4.620  0.00  0.00     0.066 H 
ATOM      8  H   LIG d   1       1.897  -0.118  -4.129  0.00  0.00     0.062 H 
ATOM      9  H   LIG d   1       1.965   0.857  -6.384  0.00  0.00     0.066 H 
ENDROOT
BRANCH   6  10
ATOM     10  O   LIG d   1       4.006   0.759  -8.018  0.00  0.00    -0.484 OA
BRANCH  10  11
ATOM     11  C   LIG d   1       2.750   1.067  -8.625  0.00  0.00     0.115 C 
ATOM     12  H   LIG d   1       1.944   0.848  -7.925  0.00  0.00     0.075 H 
ATOM     13  H   LIG d   1       2.725   2.124  -8.889  0.00  0.00     0.075 H 
BRANCH  11  14
ATOM     14  C   LIG d   1       2.576   0.234  -9.868  0.00  0.00    -0.010 A 
ATOM     15  C   LIG d   1       3.534   0.271 -10.864  0.00  0.00    -0.055 A 
ATOM     16  C   LIG d   1       3.375  -0.494 -12.005  0.00  0.00    -0.061 A 
ATOM     17  H   LIG d   1       4.406   0.897 -10.752  0.00  0.00     0.062 H 
ATOM     18  C   LIG d   1       2.258  -1.295 -12.150  0.00  0.00    -0.062 A 
ATOM     19  H   LIG d   1       4.123  -0.465 -12.784  0.00  0.00     0.062 H 
ATOM     20  C   LIG d   1       1.300  -1.332 -11.154  0.00  0.00    -0.061 A 
ATOM     21  H   LIG d   1       2.132  -1.892 -13.041  0.00  0.00     0.062 H 
ATOM     22  C   LIG d   1       1.462  -0.572 -10.010  0.00  0.00    -0.055 A 
ATOM     23  H   LIG d   1       0.428  -1.958 -11.267  0.00  0.00     0.062 H 
ATOM     24  H   LIG d   1       0.716  -0.605  -9.230  0.00  0.00     0.062 H 
ENDBRANCH  11  14
ENDBRANCH  10  11
ENDBRANCH   6  10
BRANCH   1  25
ATOM     25  O   LIG d   1       6.207  -0.570  -7.037  0.00  0.00    -0.491 OA
BRANCH  25  26
ATOM     26  C   LIG d   1       7.461  -0.373  -6.381  0.00  0.00     0.079 C 
ATOM     27  H   LIG d   1       7.961  -1.333  -6.257  0.00  0.00     0.066 H 
ATOM     28  H   LIG d   1       8.086   0.288  -6.983  0.00  0.00     0.066 H 
ATOM     29  H   LIG d   1       7.293   0.078  -5.403  0.00  0.00     0.066 H 
ENDBRANCH  25  26
ENDBRANCH   1  25
BRANCH   3  30
ATOM     30  C   LIG d   1       3.866  -1.462  -2.866  0.00  0.00     0.015 C 
ATOM     31  C   LIG d   1       4.238  -0.733  -1.823  0.00  0.00     0.239 C 
ATOM     32  H   LIG d   1       4.391  -1.203  -0.863  0.00  0.00     0.144 H 
ATOM     33  H   LIG d   1       3.535  -2.479  -2.723  0.00  0.00     0.069 H 
BRANCH  31  34
ATOM     34  N   LIG d   1       4.445   0.725  -1.974  0.00  0.00     0.072 N 
ATOM     35  O   LIG d   1       3.500   1.488  -1.875  0.00  0.00     0.041 OA
ATOM     36  O   LIG d   1       5.560   1.162  -2.199  0.00  0.00    -0.577 OA
ENDBRANCH  31  34
ENDBRANCH   3  30
TORSDOF 7
ENDMDL
MODEL 4
REMARK VINA RESULT:      -6.0      2.522      3.692
REMARK  7 active torsions:
REMARK  status: ('A' for Active; 'I' for Inactive)
REMARK    1  A    between atoms: C_1  and  O_2 
REMARK    2  A    between atoms: O_2  and  C_3 
REMARK    3  A    between atoms: C_5  and  C_17 
REMARK    4  A    between atoms: C_8  and  O_9 
REMARK    5  A    between atoms: O_9  and  C_10 
REMARK    6  A    between atoms: C_10  and  C_11 
REMARK    7  A    between atoms: C_18  and  N_19 
ROOT
ATOM      1  C   LIG d   1       3.236  -0.864  -7.836  0.00  0.00     0.162 A 
ATOM      2  C   LIG d   1       3.819  -1.951  -8.460  0.00  0.00    -0.009 A 
ATOM      3  C   LIG d   1       5.029  -2.459  -7.984  0.00  0.00    -0.016 A 
ATOM      4  C   LIG d   1       5.639  -1.875  -6.873  0.00  0.00    -0.051 A 
ATOM      5  C   LIG d   1       5.052  -0.791  -6.255  0.00  0.00    -0.016 A 
ATOM      6  C   LIG d   1       3.853  -0.281  -6.731  0.00  0.00     0.162 A 
ATOM      7  H   LIG d   1       3.342  -2.404  -9.317  0.00  0.00     0.066 H 
ATOM      8  H   LIG d   1       6.573  -2.269  -6.500  0.00  0.00     0.062 H 
ATOM      9  H   LIG d   1       5.528  -0.337  -5.397  0.00  0.00     0.066 H 
ENDROOT
BRANCH   6  10
ATOM     10  O   LIG d   1       3.279   0.788  -6.118  0.00  0.00    -0.484 OA
BRANCH  10  11
ATOM     11  C   LIG d   1       2.355   0.512  -5.064  0.00  0.00     0.115 C 
ATOM     12  H   LIG d   1       1.742   1.394  -4.877  0.00  0.00     0.075 H 
ATOM     13  H   LIG d   1       1.714  -0.321  -5.352  0.00  0.00     0.075 H 
BRANCH  11  14
ATOM     14  C   LIG d   1       3.114   0.152  -3.814  0.00  0.00    -0.010 A 
ATOM     15  C   LIG d   1       3.148  -1.159  -3.379  0.00  0.00    -0.055 A 
ATOM     16  C   LIG d   1       3.845  -1.490  -2.231  0.00  0.00    -0.061 A 
ATOM     17  H   LIG d   1       2.630  -1.926  -3.936  0.00  0.00     0.062 H 
ATOM     18  C   LIG d   1       4.507  -0.509  -1.518  0.00  0.00    -0.062 A 
ATOM     19  H   LIG d   1       3.871  -2.515  -1.892  0.00  0.00     0.062 H 
ATOM     20  C   LIG d   1       4.473   0.803  -1.953  0.00  0.00    -0.061 A 
ATOM     21  H   LIG d   1       5.051  -0.766  -0.621  0.00  0.00     0.062 H 
ATOM     22  C   LIG d   1       3.781   1.133  -3.104  0.00  0.00    -0.055 A 
ATOM     23  H   LIG d   1       4.991   1.570  -1.396  0.00  0.00     0.062 H 
ATOM     24  H   LIG d   1       3.759   2.157  -3.446  0.00  0.00     0.062 H 
ENDBRANCH  11  14
ENDBRANCH  10  11
ENDBRANCH   6  10
BRANCH   1  25
ATOM     25  O   LIG d   1       2.060  -0.363  -8.300  0.00  0.00    -0.491 OA
BRANCH  25  26
ATOM     26  C   LIG d   1       1.687  -0.714  -9.634  0.00  0.00     0.079 C 
ATOM     27  H   LIG d   1       0.970   0.014 -10.014  0.00  0.00     0.066 H 
ATOM     28  H   LIG d   1       2.572  -0.718 -10.271  0.00  0.00     0.066 H 
ATOM     29  H   LIG d   1       1.234  -1.705  -9.637  0.00  0.00     0.066 H 
ENDBRANCH  25  26
ENDBRANCH   1  25
BRANCH   3  30
ATOM     30  C   LIG d   1       5.660  -3.617  -8.651  0.00  0.00     0.015 C 
ATOM     31  C   LIG d   1       5.490  -4.838  -8.161  0.00  0.00     0.239 C 
ATOM     32  H   LIG d   1       6.093  -5.655  -8.527  0.00  0.00     0.144 H 
ATOM     33  H   LIG d   1       6.259  -3.470  -9.537  0.00  0.00     0.069 H 
BRANCH  31  34
ATOM     34  N   LIG d   1       4.473  -5.079  -7.112  0.00  0.00     0.072 N 
ATOM     35  O   LIG d   1       3.317  -5.301  -7.425  0.00  0.00     0.041 OA
ATOM     36  O   LIG d   1       4.794  -5.055  -5.937  0.00  0.00    -0.577 OA
ENDBRANCH  31  34
ENDBRANCH   3  30
TORSDOF 7
ENDMDL
MODEL 5
REMARK VINA RESULT:      -5.7      4.641      7.006
REMARK  7 active torsions:
REMARK  status: ('A' for Active; 'I' for Inactive)
REMARK    1  A    between atoms: C_1  and  O_2 
REMARK    2  A    between atoms: O_2  and  C_3 
REMARK    3  A    between atoms: C_5  and  C_17 
REMARK    4  A    between atoms: C_8  and  O_9 
REMARK    5  A    between atoms: O_9  and  C_10 
REMARK    6  A    between atoms: C_10  and  C_11 
REMARK    7  A    between atoms: C_18  and  N_19 
ROOT
ATOM      1  C   LIG d   1       7.397  -0.339  -4.275  0.00  0.00     0.162 A 
ATOM      2  C   LIG d   1       6.568   0.479  -3.530  0.00  0.00    -0.009 A 
ATOM      3  C   LIG d   1       5.588  -0.084  -2.712  0.00  0.00    -0.016 A 
ATOM      4  C   LIG d   1       5.457  -1.472  -2.639  0.00  0.00    -0.051 A 
ATOM      5  C   LIG d   1       6.287  -2.283  -3.384  0.00  0.00    -0.016 A 
ATOM      6  C   LIG d   1       7.257  -1.724  -4.203  0.00  0.00     0.162 A 
ATOM      7  H   LIG d   1       6.676   1.553  -3.586  0.00  0.00     0.066 H 
ATOM      8  H   LIG d   1       4.702  -1.910  -2.002  0.00  0.00     0.062 H 
ATOM      9  H   LIG d   1       6.182  -3.357  -3.329  0.00  0.00     0.066 H 
ENDROOT
BRANCH   6  10
ATOM     10  O   LIG d   1       8.073  -2.528  -4.935  0.00  0.00    -0.484 OA
BRANCH  10  11
ATOM     11  C   LIG d   1       9.376  -2.784  -4.407  0.00  0.00     0.115 C 
ATOM     12  H   LIG d   1      10.104  -2.779  -5.218  0.00  0.00     0.075 H 
ATOM     13  H   LIG d   1       9.632  -2.010  -3.684  0.00  0.00     0.075 H 
BRANCH  11  14
ATOM     14  C   LIG d   1       9.387  -4.129  -3.730  0.00  0.00    -0.010 A 
ATOM     15  C   LIG d   1       9.066  -5.266  -4.446  0.00  0.00    -0.055 A 
ATOM     16  C   LIG d   1       9.077  -6.502  -3.824  0.00  0.00    -0.061 A 
ATOM     17  H   LIG d   1       8.807  -5.191  -5.491  0.00  0.00     0.062 H 
ATOM     18  C   LIG d   1       9.409  -6.599  -2.486  0.00  0.00    -0.062 A 
ATOM     19  H   LIG d   1       8.826  -7.390  -4.384  0.00  0.00     0.062 H 
ATOM     20  C   LIG d   1       9.730  -5.461  -1.769  0.00  0.00    -0.061 A 
ATOM     21  H   LIG d   1       9.417  -7.563  -1.999  0.00  0.00     0.062 H 
ATOM     22  C   LIG d   1       9.725  -4.227  -2.393  0.00  0.00    -0.055 A 
ATOM     23  H   LIG d   1       9.989  -5.537  -0.724  0.00  0.00     0.062 H 
ATOM     24  H   LIG d   1       9.981  -3.338  -1.834  0.00  0.00     0.062 H 
ENDBRANCH  11  14
ENDBRANCH  10  11
ENDBRANCH   6  10
BRANCH   1  25
ATOM     25  O   LIG d   1       8.350   0.206  -5.078  0.00  0.00    -0.491 OA
BRANCH  25  26
ATOM     26  C   LIG d   1       8.088   1.509  -5.602  0.00  0.00     0.079 C 
ATOM     27  H   LIG d   1       9.024   2.060  -5.691  0.00  0.00     0.066 H 
ATOM     28  H   LIG d   1       7.624   1.420  -6.585  0.00  0.00     0.066 H 
ATOM     29  H   LIG d   1       7.415   2.043  -4.930  0.00  0.00     0.066 H 
ENDBRANCH  25  26
ENDBRANCH   1  25
BRANCH   3  30
ATOM     30  C   LIG d   1       4.695   0.787  -1.919  0.00  0.00     0.015 C 
ATOM     31  C   LIG d   1       3.534   1.182  -2.425  0.00  0.00     0.239 C 
ATOM     32  H   LIG d   1       2.969   1.960  -1.935  0.00  0.00     0.144 H 
ATOM     33  H   LIG d   1       4.988   1.101  -0.929  0.00  0.00     0.069 H 
BRANCH  31  34
ATOM     34  N   LIG d   1       3.014   0.555  -3.661  0.00  0.00     0.072 N 
ATOM     35  O   LIG d   1       2.370  -0.476  -3.597  0.00  0.00     0.041 OA
ATOM     36  O   LIG d   1       3.232   1.071  -4.744  0.00  0.00    -0.577 OA
ENDBRANCH  31  34
ENDBRANCH   3  30
TORSDOF 7
ENDMDL
MODEL 6
REMARK VINA RESULT:      -5.7      4.463      6.966
REMARK  7 active torsions:
REMARK  status: ('A' for Active; 'I' for Inactive)
REMARK    1  A    between atoms: C_1  and  O_2 
REMARK    2  A    between atoms: O_2  and  C_3 
REMARK    3  A    between atoms: C_5  and  C_17 
REMARK    4  A    between atoms: C_8  and  O_9 
REMARK    5  A    between atoms: O_9  and  C_10 
REMARK    6  A    between atoms: C_10  and  C_11 
REMARK    7  A    between atoms: C_18  and  N_19 
ROOT
ATOM      1  C   LIG d   1       5.736  -3.216  -5.040  0.00  0.00     0.162 A 
ATOM      2  C   LIG d   1       4.555  -2.801  -4.454  0.00  0.00    -0.009 A 
ATOM      3  C   LIG d   1       4.589  -1.978  -3.328  0.00  0.00    -0.016 A 
ATOM      4  C   LIG d   1       5.816  -1.566  -2.804  0.00  0.00    -0.051 A 
ATOM      5  C   LIG d   1       6.991  -1.983  -3.393  0.00  0.00    -0.016 A 
ATOM      6  C   LIG d   1       6.958  -2.807  -4.509  0.00  0.00     0.162 A 
ATOM      7  H   LIG d   1       3.607  -3.117  -4.864  0.00  0.00     0.066 H 
ATOM      8  H   LIG d   1       5.845  -0.925  -1.936  0.00  0.00     0.062 H 
ATOM      9  H   LIG d   1       7.940  -1.667  -2.984  0.00  0.00     0.066 H 
ENDROOT
BRANCH   6  10
ATOM     10  O   LIG d   1       8.120  -3.216  -5.085  0.00  0.00    -0.484 OA
BRANCH  10  11
ATOM     11  C   LIG d   1       9.281  -3.244  -4.254  0.00  0.00     0.115 C 
ATOM     12  H   LIG d   1      10.172  -3.109  -4.868  0.00  0.00     0.075 H 
ATOM     13  H   LIG d   1       9.221  -2.442  -3.519  0.00  0.00     0.075 H 
BRANCH  11  14
ATOM     14  C   LIG d   1       9.358  -4.571  -3.544  0.00  0.00    -0.010 A 
ATOM     15  C   LIG d   1       9.091  -5.739  -4.232  0.00  0.00    -0.055 A 
ATOM     16  C   LIG d   1       9.162  -6.957  -3.581  0.00  0.00    -0.061 A 
ATOM     17  H   LIG d   1       8.828  -5.701  -5.278  0.00  0.00     0.062 H 
ATOM     18  C   LIG d   1       9.498  -7.006  -2.241  0.00  0.00    -0.062 A 
ATOM     19  H   LIG d   1       8.953  -7.870  -4.119  0.00  0.00     0.062 H 
ATOM     20  C   LIG d   1       9.765  -5.837  -1.553  0.00  0.00    -0.061 A 
ATOM     21  H   LIG d   1       9.553  -7.957  -1.731  0.00  0.00     0.062 H 
ATOM     22  C   LIG d   1       9.700  -4.620  -2.206  0.00  0.00    -0.055 A 
ATOM     23  H   LIG d   1      10.028  -5.875  -0.506  0.00  0.00     0.062 H 
ATOM     24  H   LIG d   1       9.914  -3.707  -1.668  0.00  0.00     0.062 H 
ENDBRANCH  11  14
ENDBRANCH  10  11
ENDBRANCH   6  10
BRANCH   1  25
ATOM     25  O   LIG d   1       5.707  -4.023  -6.134  0.00  0.00    -0.491 OA
BRANCH  25  26
ATOM     26  C   LIG d   1       4.663  -3.793  -7.081  0.00  0.00     0.079 C 
ATOM     27  H   LIG d   1       3.971  -4.635  -7.071  0.00  0.00     0.066 H 
ATOM     28  H   LIG d   1       4.128  -2.880  -6.819  0.00  0.00     0.066 H 
ATOM     29  H   LIG d   1       5.093  -3.689  -8.078  0.00  0.00     0.066 H 
ENDBRANCH  25  26
ENDBRANCH   1  25
BRANCH   3  30
ATOM     30  C   LIG d   1       3.329  -1.536  -2.694  0.00  0.00     0.015 C 
ATOM     31  C   LIG d   1       2.906  -0.289  -2.857  0.00  0.00     0.239 C 
ATOM     32  H   LIG d   1       2.097   0.090  -2.251  0.00  0.00     0.144 H 
ATOM     33  H   LIG d   1       2.753  -2.228  -2.099  0.00  0.00     0.069 H 
BRANCH  31  34
ATOM     34  N   LIG d   1       3.546   0.582  -3.869  0.00  0.00     0.072 N 
ATOM     35  O   LIG d   1       3.281   0.440  -5.049  0.00  0.00     0.041 OA
ATOM     36  O   LIG d   1       4.336   1.442  -3.520  0.00  0.00    -0.577 OA
ENDBRANCH  31  34
ENDBRANCH   3  30
TORSDOF 7
ENDMDL
MODEL 7
REMARK VINA RESULT:      -5.6      3.406      4.853
REMARK  7 active torsions:
REMARK  status: ('A' for Active; 'I' for Inactive)
REMARK    1  A    between atoms: C_1  and  O_2 
REMARK    2  A    between atoms: O_2  and  C_3 
REMARK    3  A    between atoms: C_5  and  C_17 
REMARK    4  A    between atoms: C_8  and  O_9 
REMARK    5  A    between atoms: O_9  and  C_10 
REMARK    6  A    between atoms: C_10  and  C_11 
REMARK    7  A    between atoms: C_18  and  N_19 
ROOT
ATOM      1  C   LIG d   1       6.119  -1.996  -6.459  0.00  0.00     0.162 A 
ATOM      2  C   LIG d   1       5.742  -3.045  -7.277  0.00  0.00    -0.009 A 
ATOM      3  C   LIG d   1       6.290  -4.313  -7.079  0.00  0.00    -0.016 A 
ATOM      4  C   LIG d   1       7.207  -4.520  -6.047  0.00  0.00    -0.051 A 
ATOM      5  C   LIG d   1       7.578  -3.470  -5.234  0.00  0.00    -0.016 A 
ATOM      6  C   LIG d   1       7.039  -2.208  -5.435  0.00  0.00     0.162 A 
ATOM      7  H   LIG d   1       5.028  -2.883  -8.072  0.00  0.00     0.066 H 
ATOM      8  H   LIG d   1       7.628  -5.502  -5.888  0.00  0.00     0.062 H 
ATOM      9  H   LIG d   1       8.291  -3.631  -4.438  0.00  0.00     0.066 H 
ENDROOT
BRANCH   6  10
ATOM     10  O   LIG d   1       7.409  -1.175  -4.631  0.00  0.00    -0.484 OA
BRANCH  10  11
ATOM     11  C   LIG d   1       7.101  -1.294  -3.241  0.00  0.00     0.115 C 
ATOM     12  H   LIG d   1       7.056  -2.348  -2.967  0.00  0.00     0.075 H 
ATOM     13  H   LIG d   1       7.875  -0.798  -2.654  0.00  0.00     0.075 H 
BRANCH  11  14
ATOM     14  C   LIG d   1       5.769  -0.646  -2.965  0.00  0.00    -0.010 A 
ATOM     15  C   LIG d   1       4.653  -1.429  -2.742  0.00  0.00    -0.055 A 
ATOM     16  C   LIG d   1       3.430  -0.834  -2.489  0.00  0.00    -0.061 A 
ATOM     17  H   LIG d   1       4.735  -2.505  -2.765  0.00  0.00     0.062 H 
ATOM     18  C   LIG d   1       3.325   0.544  -2.459  0.00  0.00    -0.062 A 
ATOM     19  H   LIG d   1       2.558  -1.446  -2.315  0.00  0.00     0.062 H 
ATOM     20  C   LIG d   1       4.442   1.327  -2.682  0.00  0.00    -0.061 A 
ATOM     21  H   LIG d   1       2.370   1.009  -2.262  0.00  0.00     0.062 H 
ATOM     22  C   LIG d   1       5.665   0.732  -2.930  0.00  0.00    -0.055 A 
ATOM     23  H   LIG d   1       4.360   2.403  -2.659  0.00  0.00     0.062 H 
ATOM     24  H   LIG d   1       6.539   1.345  -3.099  0.00  0.00     0.062 H 
ENDBRANCH  11  14
ENDBRANCH  10  11
ENDBRANCH   6  10
BRANCH   1  25
ATOM     25  O   LIG d   1       5.591  -0.758  -6.654  0.00  0.00    -0.491 OA
BRANCH  25  26
ATOM     26  C   LIG d   1       4.205  -0.589  -6.354  0.00  0.00     0.079 C 
ATOM     27  H   LIG d   1       4.095   0.108  -5.523  0.00  0.00     0.066 H 
ATOM     28  H   LIG d   1       3.688  -0.195  -7.230  0.00  0.00     0.066 H 
ATOM     29  H   LIG d   1       3.772  -1.552  -6.080  0.00  0.00     0.066 H 
ENDBRANCH  25  26
ENDBRANCH   1  25
BRANCH   3  30
ATOM     30  C   LIG d   1       5.895  -5.436  -7.954  0.00  0.00     0.015 C 
ATOM     31  C   LIG d   1       5.014  -6.331  -7.528  0.00  0.00     0.239 C 
ATOM     32  H   LIG d   1       4.864  -7.247  -8.080  0.00  0.00     0.144 H 
ATOM     33  H   LIG d   1       6.324  -5.529  -8.940  0.00  0.00     0.069 H 
BRANCH  31  34
ATOM     34  N   LIG d   1       4.236  -6.074  -6.294  0.00  0.00     0.072 N 
ATOM     35  O   LIG d   1       3.311  -5.281  -6.312  0.00  0.00     0.041 OA
ATOM     36  O   LIG d   1       4.522  -6.656  -5.262  0.00  0.00    -0.577 OA
ENDBRANCH  31  34
ENDBRANCH   3  30
TORSDOF 7
ENDMDL
MODEL 8
REMARK VINA RESULT:      -5.6      2.037      2.783
REMARK  7 active torsions:
REMARK  status: ('A' for Active; 'I' for Inactive)
REMARK    1  A    between atoms: C_1  and  O_2 
REMARK    2  A    between atoms: O_2  and  C_3 
REMARK    3  A    between atoms: C_5  and  C_17 
REMARK    4  A    between atoms: C_8  and  O_9 
REMARK    5  A    between atoms: O_9  and  C_10 
REMARK    6  A    between atoms: C_10  and  C_11 
REMARK    7  A    between atoms: C_18  and  N_19 
ROOT
ATOM      1  C   LIG d   1       4.940  -2.238  -7.821  0.00  0.00     0.162 A 
ATOM      2  C   LIG d   1       4.447  -1.596  -8.943  0.00  0.00    -0.009 A 
ATOM      3  C   LIG d   1       3.563  -0.526  -8.800  0.00  0.00    -0.016 A 
ATOM      4  C   LIG d   1       3.189  -0.099  -7.524  0.00  0.00    -0.051 A 
ATOM      5  C   LIG d   1       3.685  -0.743  -6.409  0.00  0.00    -0.016 A 
ATOM      6  C   LIG d   1       4.558  -1.811  -6.551  0.00  0.00     0.162 A 
ATOM      7  H   LIG d   1       4.742  -1.926  -9.928  0.00  0.00     0.066 H 
ATOM      8  H   LIG d   1       2.509   0.732  -7.411  0.00  0.00     0.062 H 
ATOM      9  H   LIG d   1       3.392  -0.413  -5.423  0.00  0.00     0.066 H 
ENDROOT
BRANCH   6  10
ATOM     10  O   LIG d   1       5.043  -2.442  -5.449  0.00  0.00    -0.484 OA
BRANCH  10  11
ATOM     11  C   LIG d   1       6.138  -1.819  -4.775  0.00  0.00     0.115 C 
ATOM     12  H   LIG d   1       6.777  -2.585  -4.334  0.00  0.00     0.075 H 
ATOM     13  H   LIG d   1       6.716  -1.231  -5.487  0.00  0.00     0.075 H 
BRANCH  11  14
ATOM     14  C   LIG d   1       5.612  -0.918  -3.689  0.00  0.00    -0.010 A 
ATOM     15  C   LIG d   1       5.945   0.424  -3.683  0.00  0.00    -0.055 A 
ATOM     16  C   LIG d   1       5.461   1.252  -2.686  0.00  0.00    -0.061 A 
ATOM     17  H   LIG d   1       6.582   0.825  -4.456  0.00  0.00     0.062 H 
ATOM     18  C   LIG d   1       4.645   0.738  -1.696  0.00  0.00    -0.062 A 
ATOM     19  H   LIG d   1       5.721   2.300  -2.682  0.00  0.00     0.062 H 
ATOM     20  C   LIG d   1       4.312  -0.604  -1.702  0.00  0.00    -0.061 A 
ATOM     21  H   LIG d   1       4.267   1.384  -0.917  0.00  0.00     0.062 H 
ATOM     22  C   LIG d   1       4.791  -1.430  -2.702  0.00  0.00    -0.055 A 
ATOM     23  H   LIG d   1       3.675  -1.005  -0.929  0.00  0.00     0.062 H 
ATOM     24  H   LIG d   1       4.527  -2.478  -2.709  0.00  0.00     0.062 H 
ENDBRANCH  11  14
ENDBRANCH  10  11
ENDBRANCH   6  10
BRANCH   1  25
ATOM     25  O   LIG d   1       5.797  -3.285  -7.957  0.00  0.00    -0.491 OA
BRANCH  25  26
ATOM     26  C   LIG d   1       5.238  -4.529  -8.382  0.00  0.00     0.079 C 
ATOM     27  H   LIG d   1       4.751  -5.016  -7.537  0.00  0.00     0.066 H 
ATOM     28  H   LIG d   1       4.506  -4.350  -9.169  0.00  0.00     0.066 H 
ATOM     29  H   LIG d   1       6.031  -5.173  -8.763  0.00  0.00     0.066 H 
ENDBRANCH  25  26
ENDBRANCH   1  25
BRANCH   3  30
ATOM     30  C   LIG d   1       3.028   0.158  -9.995  0.00  0.00     0.015 C 
ATOM     31  C   LIG d   1       3.552   1.312 -10.388  0.00  0.00     0.239 C 
ATOM     32  H   LIG d   1       3.051   1.904 -11.139  0.00  0.00     0.144 H 
ATOM     33  H   LIG d   1       2.212  -0.280 -10.549  0.00  0.00     0.069 H 
BRANCH  31  34
ATOM     34  N   LIG d   1       4.823   1.787  -9.796  0.00  0.00     0.072 N 
ATOM     35  O   LIG d   1       5.880   1.294 -10.147  0.00  0.00     0.041 OA
ATOM     36  O   LIG d   1       4.812   2.672  -8.958  0.00  0.00    -0.577 OA
ENDBRANCH  31  34
ENDBRANCH   3  30
TORSDOF 7
ENDMDL
MODEL 9
REMARK VINA RESULT:      -5.5      1.278      2.381
REMARK  7 active torsions:
REMARK  status: ('A' for Active; 'I' for Inactive)
REMARK    1  A    between atoms: C_1  and  O_2 
REMARK    2  A    between atoms: O_2  and  C_3 
REMARK    3  A    between atoms: C_5  and  C_17 
REMARK    4  A    between atoms: C_8  and  O_9 
REMARK    5  A    between atoms: O_9  and  C_10 
REMARK    6  A    between atoms: C_10  and  C_11 
REMARK    7  A    between atoms: C_18  and  N_19 
ROOT
ATOM      1  C   LIG d   1       3.300  -0.699  -7.912  0.00  0.00     0.162 A 
ATOM      2  C   LIG d   1       4.011  -1.643  -8.628  0.00  0.00    -0.009 A 
ATOM      3  C   LIG d   1       5.296  -2.004  -8.218  0.00  0.00    -0.016 A 
ATOM      4  C   LIG d   1       5.852  -1.418  -7.080  0.00  0.00    -0.051 A 
ATOM      5  C   LIG d   1       5.137  -0.477  -6.370  0.00  0.00    -0.016 A 
ATOM      6  C   LIG d   1       3.863  -0.113  -6.780  0.00  0.00     0.162 A 
ATOM      7  H   LIG d   1       3.575  -2.098  -9.505  0.00  0.00     0.066 H 
ATOM      8  H   LIG d   1       6.844  -1.700  -6.759  0.00  0.00     0.062 H 
ATOM      9  H   LIG d   1       5.572  -0.021  -5.491  0.00  0.00     0.066 H 
ENDROOT
BRANCH   6  10
ATOM     10  O   LIG d   1       3.163   0.816  -6.076  0.00  0.00    -0.484 OA
BRANCH  10  11
ATOM     11  C   LIG d   1       2.290   0.333  -5.054  0.00  0.00     0.115 C 
ATOM     12  H   LIG d   1       1.522   1.079  -4.848  0.00  0.00     0.075 H 
ATOM     13  H   LIG d   1       1.819  -0.592  -5.386  0.00  0.00     0.075 H 
BRANCH  11  14
ATOM     14  C   LIG d   1       3.084   0.070  -3.800  0.00  0.00    -0.010 A 
ATOM     15  C   LIG d   1       3.644   1.124  -3.103  0.00  0.00    -0.055 A 
ATOM     16  C   LIG d   1       4.372   0.882  -1.952  0.00  0.00    -0.061 A 
ATOM     17  H   LIG d   1       3.513   2.135  -3.457  0.00  0.00     0.062 H 
ATOM     18  C   LIG d   1       4.539  -0.413  -1.499  0.00  0.00    -0.062 A 
ATOM     19  H   LIG d   1       4.809   1.706  -1.408  0.00  0.00     0.062 H 
ATOM     20  C   LIG d   1       3.979  -1.467  -2.196  0.00  0.00    -0.061 A 
ATOM     21  H   LIG d   1       5.108  -0.602  -0.601  0.00  0.00     0.062 H 
ATOM     22  C   LIG d   1       3.246  -1.225  -3.344  0.00  0.00    -0.055 A 
ATOM     23  H   LIG d   1       4.110  -2.478  -1.842  0.00  0.00     0.062 H 
ATOM     24  H   LIG d   1       2.804  -2.048  -3.886  0.00  0.00     0.062 H 
ENDBRANCH  11  14
ENDBRANCH  10  11
ENDBRANCH   6  10
BRANCH   1  25
ATOM     25  O   LIG d   1       2.050  -0.340  -8.311  0.00  0.00    -0.491 OA
BRANCH  25  26
ATOM     26  C   LIG d   1       1.685  -0.653  -9.656  0.00  0.00     0.079 C 
ATOM     27  H   LIG d   1       0.882  -1.391  -9.653  0.00  0.00     0.066 H 
ATOM     28  H   LIG d   1       1.345   0.251 -10.161  0.00  0.00     0.066 H 
ATOM     29  H   LIG d   1       2.549  -1.060 -10.183  0.00  0.00     0.066 H 
ENDBRANCH  25  26
ENDBRANCH   1  25
BRANCH   3  30
ATOM     30  C   LIG d   1       6.062  -3.009  -8.984  0.00  0.00     0.015 C 
ATOM     31  C   LIG d   1       6.752  -2.641 -10.056  0.00  0.00     0.239 C 
ATOM     32  H   LIG d   1       7.156  -3.389 -10.721  0.00  0.00     0.144 H 
ATOM     33  H   LIG d   1       6.061  -4.042  -8.672  0.00  0.00     0.069 H 
BRANCH  31  34
ATOM     34  N   LIG d   1       6.968  -1.203 -10.339  0.00  0.00     0.072 N 
ATOM     35  O   LIG d   1       6.231  -0.618 -11.112  0.00  0.00     0.041 OA
ATOM     36  O   LIG d   1       7.883  -0.607  -9.799  0.00  0.00    -0.577 OA
ENDBRANCH  31  34
ENDBRANCH   3  30
TORSDOF 7
ENDMDL
