MODEL 1
REMARK VINA RESULT:      -7.5      0.000      0.000
REMARK  12 active torsions:
REMARK  status: ('A' for Active; 'I' for Inactive)
REMARK    1  A    between atoms: CD1_1  and  CG_2 
REMARK    2  A    between atoms: CG_2  and  CD2_3 
REMARK    3  A    between atoms: CG_2  and  CB_4 
REMARK    4  A    between atoms: CB_4  and  CA_5 
REMARK       I    between atoms: CA_5  and  C_7 
REMARK       I    between atoms: CA_5  and  N_9 
REMARK       I    between atoms: N_9  and  C_10 
REMARK    5  A    between atoms: C_10  and  C_12 
REMARK    6  A    between atoms: C_12  and  O_13 
REMARK    7  A    between atoms: O_13  and  N_14 
REMARK    8  A    between atoms: C_18  and  C_40 
REMARK    9  A    between atoms: C_23  and  C_39 
REMARK   10  A    between atoms: C_34  and  C_35 
REMARK   11  A    between atoms: C_34  and  O_38 
REMARK   12  A    between atoms: C_35  and  C_37 
ROOT
ATOM      1  N   UNK d   0       8.414   2.670  -5.295  0.00  0.00    -0.089 NA
ATOM      2  C   UNK d   0       9.284   3.508  -4.826  0.00  0.00     0.080 C 
ATOM      3  C   UNK d   0      10.069   3.218  -3.560  0.00  0.00    -0.006 C 
ATOM      4  C   UNK d   0       9.953   4.448  -2.661  0.00  0.00    -0.038 C 
ATOM      5  C   UNK d   0      10.465   5.700  -3.351  0.00  0.00    -0.007 C 
ATOM      6  C   UNK d   0       9.949   6.934  -2.601  0.00  0.00    -0.029 C 
ATOM      7  H   UNK d   0       8.858   6.916  -2.615  0.00  0.00     0.031 H 
ATOM      8  C   UNK d   0      10.421   6.884  -1.151  0.00  0.00    -0.049 C 
ATOM      9  C   UNK d   0      10.051   8.161  -0.378  0.00  0.00    -0.044 C 
ATOM     10  C   UNK d   0      10.666   9.329  -1.123  0.00  0.00     0.007 C 
ATOM     11  C   UNK d   0       9.969   9.404  -2.508  0.00  0.00    -0.029 C 
ATOM     12  H   UNK d   0       8.885   9.383  -2.392  0.00  0.00     0.031 H 
ATOM     13  C   UNK d   0      10.437   8.204  -3.311  0.00  0.00    -0.034 C 
ATOM     14  H   UNK d   0      11.525   8.200  -3.375  0.00  0.00     0.031 H 
ATOM     15  C   UNK d   0       9.832   8.254  -4.717  0.00  0.00    -0.046 C 
ATOM     16  C   UNK d   0      10.380   7.088  -5.541  0.00  0.00    -0.031 C 
ATOM     17  C   UNK d   0      10.103   5.792  -4.802  0.00  0.00    -0.062 C 
ATOM     18  C   UNK d   0       9.560   4.794  -5.488  0.00  0.00    -0.037 C 
ATOM     19  C   UNK d   0      10.422  10.772  -3.031  0.00  0.00    -0.046 C 
ATOM     20  C   UNK d   0      10.338  11.667  -1.755  0.00  0.00    -0.016 C 
ATOM     21  C   UNK d   0      10.429  10.716  -0.536  0.00  0.00     0.129 C 
ATOM     22  H   UNK d   0       9.650   2.348  -3.055  0.00  0.00     0.033 H 
ATOM     23  H   UNK d   0      11.116   3.037  -3.807  0.00  0.00     0.033 H 
ATOM     24  H   UNK d   0      10.533   4.280  -1.753  0.00  0.00     0.028 H 
ATOM     25  H   UNK d   0       8.907   4.593  -2.392  0.00  0.00     0.028 H 
ATOM     26  H   UNK d   0      11.504   6.763  -1.138  0.00  0.00     0.027 H 
ATOM     27  H   UNK d   0       9.962   6.026  -0.660  0.00  0.00     0.027 H 
ATOM     28  H   UNK d   0      10.455   8.111   0.634  0.00  0.00     0.027 H 
ATOM     29  H   UNK d   0       8.967   8.272  -0.340  0.00  0.00     0.027 H 
ATOM     30  H   UNK d   0      10.098   9.196  -5.196  0.00  0.00     0.027 H 
ATOM     31  H   UNK d   0       8.746   8.174  -4.650  0.00  0.00     0.027 H 
ATOM     32  H   UNK d   0      11.455   7.209  -5.676  0.00  0.00     0.031 H 
ATOM     33  H   UNK d   0       9.890   7.064  -6.515  0.00  0.00     0.031 H 
ATOM     34  H   UNK d   0       9.319   4.926  -6.532  0.00  0.00     0.064 H 
ATOM     35  H   UNK d   0      11.448  10.725  -3.396  0.00  0.00     0.027 H 
ATOM     36  H   UNK d   0       9.749  11.130  -3.811  0.00  0.00     0.027 H 
ATOM     37  H   UNK d   0       9.384  12.196  -1.746  0.00  0.00     0.030 H 
ATOM     38  H   UNK d   0      11.161  12.381  -1.734  0.00  0.00     0.030 H 
ENDROOT
BRANCH   1  39
ATOM     39  O   UNK d   0       8.180   1.443  -4.628  0.00  0.00    -0.384 OA
BRANCH  39  40
ATOM     40  C   UNK d   0       8.099   0.313  -5.499  0.00  0.00     0.193 C 
ATOM     41  H   UNK d   0       8.175   0.647  -6.533  0.00  0.00     0.082 H 
ATOM     42  H   UNK d   0       8.916  -0.374  -5.278  0.00  0.00     0.082 H 
BRANCH  40  43
ATOM     43  C   UNK d   0       6.783  -0.388  -5.291  0.00  0.00     0.254 C 
ATOM     44  N   LEU d   1       6.490  -0.931  -4.092  0.00  0.00    -0.304 N 
ATOM     45  CA  LEU d   1       5.210  -1.614  -3.890  0.00  0.00     0.063 C 
ATOM     46  H   LEU d   1       7.127  -0.869  -3.364  0.00  0.00     0.149 HD
ATOM     47  HA  LEU d   1       4.434  -1.111  -4.468  0.00  0.00     0.056 H 
ATOM     48  C   LEU d   1       5.326  -3.045  -4.346  0.00  0.00     0.062 C 
ATOM     49  O   LEU d   1       6.372  -3.453  -4.794  0.00  0.00    -0.548 OA
ATOM     50  OXT LEU d   1       4.270  -3.867  -4.255  0.00  0.00    -0.548 OA
ATOM     51  O   UNK d   0       5.986  -0.467  -6.203  0.00  0.00    -0.272 OA
BRANCH  45  52
ATOM     52  CB  LEU d   1       4.844  -1.580  -2.404  0.00  0.00    -0.027 C 
ATOM     53  HB1 LEU d   1       4.440  -2.549  -2.108  0.00  0.00     0.029 H 
ATOM     54  HB2 LEU d   1       5.734  -1.362  -1.815  0.00  0.00     0.029 H 
BRANCH  52  55
ATOM     55  CG  LEU d   1       3.793  -0.495  -2.163  0.00  0.00    -0.045 C 
ATOM     56  HG  LEU d   1       3.117  -0.814  -1.369  0.00  0.00     0.030 H 
BRANCH  55  57
ATOM     57  CD1 LEU d   1       4.488   0.804  -1.749  0.00  0.00    -0.063 C 
ATOM     58 1HD1 LEU d   1       4.262   1.584  -2.476  0.00  0.00     0.023 H 
ATOM     59 2HD1 LEU d   1       4.130   1.111  -0.766  0.00  0.00     0.023 H 
ATOM     60 3HD1 LEU d   1       5.564   0.644  -1.709  0.00  0.00     0.023 H 
ENDBRANCH  55  57
BRANCH  55  61
ATOM     61  CD2 LEU d   1       2.996  -0.261  -3.447  0.00  0.00    -0.063 C 
ATOM     62 1HD2 LEU d   1       3.485  -0.772  -4.277  0.00  0.00     0.023 H 
ATOM     63 2HD2 LEU d   1       1.985  -0.651  -3.324  0.00  0.00     0.023 H 
ATOM     64 3HD2 LEU d   1       2.950   0.807  -3.656  0.00  0.00     0.023 H 
ENDBRANCH  55  61
ENDBRANCH  52  55
ENDBRANCH  45  52
ENDBRANCH  40  43
ENDBRANCH  39  40
ENDBRANCH   1  39
BRANCH   5  65
ATOM     65  C   UNK d   0      11.992   5.689  -3.244  0.00  0.00    -0.056 C 
ATOM     66  H   UNK d   0      12.312   4.801  -2.700  0.00  0.00     0.024 H 
ATOM     67  H   UNK d   0      12.426   5.678  -4.244  0.00  0.00     0.024 H 
ATOM     68  H   UNK d   0      12.325   6.581  -2.713  0.00  0.00     0.024 H 
ENDBRANCH   5  65
BRANCH  10  69
ATOM     69  C   UNK d   0      12.166   9.094  -1.309  0.00  0.00    -0.056 C 
ATOM     70  H   UNK d   0      12.573   8.617  -0.417  0.00  0.00     0.024 H 
ATOM     71  H   UNK d   0      12.330   8.451  -2.173  0.00  0.00     0.024 H 
ATOM     72  H   UNK d   0      12.667  10.050  -1.468  0.00  0.00     0.024 H 
ENDBRANCH  10  69
BRANCH  21  73
ATOM     73  C   UNK d   0      11.582  11.112   0.350  0.00  0.00     0.162 C 
ATOM     74  O   UNK d   0      12.393  11.919  -0.038  0.00  0.00    -0.295 OA
BRANCH  73  75
ATOM     75  C   UNK d   0      11.723  10.501   1.721  0.00  0.00    -0.003 C 
ATOM     76  H   UNK d   0      11.339  11.123   2.403  0.00  0.00     0.031 H 
ATOM     77  H   UNK d   0      11.189   9.552   1.753  0.00  0.00     0.031 H 
ATOM     78  H   UNK d   0      12.778  10.332   1.936  0.00  0.00     0.031 H 
ENDBRANCH  73  75
ENDBRANCH  21  73
BRANCH  21  79
ATOM     79  O   UNK d   0       9.206  10.738   0.205  0.00  0.00    -0.381 OA
ATOM     80  H   UNK d   0       9.099  11.520   0.763  0.00  0.00     0.211 HD
ENDBRANCH  21  79
TORSDOF 14
ENDMDL
MODEL 2
REMARK VINA RESULT:      -7.4      8.017     10.492
REMARK  12 active torsions:
REMARK  status: ('A' for Active; 'I' for Inactive)
REMARK    1  A    between atoms: CD1_1  and  CG_2 
REMARK    2  A    between atoms: CG_2  and  CD2_3 
REMARK    3  A    between atoms: CG_2  and  CB_4 
REMARK    4  A    between atoms: CB_4  and  CA_5 
REMARK       I    between atoms: CA_5  and  C_7 
REMARK       I    between atoms: CA_5  and  N_9 
REMARK       I    between atoms: N_9  and  C_10 
REMARK    5  A    between atoms: C_10  and  C_12 
REMARK    6  A    between atoms: C_12  and  O_13 
REMARK    7  A    between atoms: O_13  and  N_14 
REMARK    8  A    between atoms: C_18  and  C_40 
REMARK    9  A    between atoms: C_23  and  C_39 
REMARK   10  A    between atoms: C_34  and  C_35 
REMARK   11  A    between atoms: C_34  and  O_38 
REMARK   12  A    between atoms: C_35  and  C_37 
ROOT
ATOM      1  N   UNK d   0       8.650  -7.277  -7.307  0.00  0.00    -0.089 NA
ATOM      2  C   UNK d   0       8.553  -6.034  -6.953  0.00  0.00     0.080 C 
ATOM      3  C   UNK d   0       9.117  -5.534  -5.636  0.00  0.00    -0.006 C 
ATOM      4  C   UNK d   0       8.015  -4.729  -4.947  0.00  0.00    -0.038 C 
ATOM      5  C   UNK d   0       7.536  -3.577  -5.812  0.00  0.00    -0.007 C 
ATOM      6  C   UNK d   0       6.185  -3.080  -5.282  0.00  0.00    -0.029 C 
ATOM      7  H   UNK d   0       5.472  -3.904  -5.324  0.00  0.00     0.031 H 
ATOM      8  C   UNK d   0       6.338  -2.638  -3.829  0.00  0.00    -0.049 C 
ATOM      9  C   UNK d   0       5.052  -2.001  -3.280  0.00  0.00    -0.044 C 
ATOM     10  C   UNK d   0       4.709  -0.833  -4.183  0.00  0.00     0.007 C 
ATOM     11  C   UNK d   0       4.378  -1.419  -5.582  0.00  0.00    -0.029 C 
ATOM     12  H   UNK d   0       3.654  -2.231  -5.494  0.00  0.00     0.031 H 
ATOM     13  C   UNK d   0       5.679  -1.935  -6.171  0.00  0.00    -0.034 C 
ATOM     14  H   UNK d   0       6.416  -1.134  -6.202  0.00  0.00     0.031 H 
ATOM     15  C   UNK d   0       5.431  -2.472  -7.583  0.00  0.00    -0.046 C 
ATOM     16  C   UNK d   0       6.762  -2.907  -8.196  0.00  0.00    -0.031 C 
ATOM     17  C   UNK d   0       7.425  -3.909  -7.268  0.00  0.00    -0.062 C 
ATOM     18  C   UNK d   0       7.887  -5.033  -7.803  0.00  0.00    -0.037 C 
ATOM     19  C   UNK d   0       3.751  -0.221  -6.302  0.00  0.00    -0.046 C 
ATOM     20  C   UNK d   0       2.865   0.419  -5.187  0.00  0.00    -0.016 C 
ATOM     21  C   UNK d   0       3.455  -0.040  -3.830  0.00  0.00     0.129 C 
ATOM     22  H   UNK d   0       9.404  -6.380  -5.011  0.00  0.00     0.033 H 
ATOM     23  H   UNK d   0       9.981  -4.897  -5.821  0.00  0.00     0.033 H 
ATOM     24  H   UNK d   0       8.402  -4.332  -4.008  0.00  0.00     0.028 H 
ATOM     25  H   UNK d   0       7.175  -5.388  -4.734  0.00  0.00     0.028 H 
ATOM     26  H   UNK d   0       7.149  -1.912  -3.767  0.00  0.00     0.027 H 
ATOM     27  H   UNK d   0       6.592  -3.506  -3.222  0.00  0.00     0.027 H 
ATOM     28  H   UNK d   0       5.219  -1.647  -2.262  0.00  0.00     0.027 H 
ATOM     29  H   UNK d   0       4.241  -2.730  -3.290  0.00  0.00     0.027 H 
ATOM     30  H   UNK d   0       4.984  -1.691  -8.198  0.00  0.00     0.027 H 
ATOM     31  H   UNK d   0       4.755  -3.327  -7.535  0.00  0.00     0.027 H 
ATOM     32  H   UNK d   0       7.410  -2.038  -8.318  0.00  0.00     0.031 H 
ATOM     33  H   UNK d   0       6.586  -3.370  -9.167  0.00  0.00     0.031 H 
ATOM     34  H   UNK d   0       7.772  -5.214  -8.861  0.00  0.00     0.064 H 
ATOM     35  H   UNK d   0       4.520   0.480  -6.626  0.00  0.00     0.027 H 
ATOM     36  H   UNK d   0       3.147  -0.550  -7.147  0.00  0.00     0.027 H 
ATOM     37  H   UNK d   0       1.840   0.060  -5.289  0.00  0.00     0.030 H 
ATOM     38  H   UNK d   0       2.889   1.506  -5.257  0.00  0.00     0.030 H 
ENDROOT
BRANCH   1  39
ATOM     39  O   UNK d   0       9.300  -8.208  -6.461  0.00  0.00    -0.384 OA
BRANCH  39  40
ATOM     40  C   UNK d   0       8.832  -9.550  -6.604  0.00  0.00     0.193 C 
ATOM     41  H   UNK d   0       9.087  -9.919  -7.597  0.00  0.00     0.082 H 
ATOM     42  H   UNK d   0       9.303 -10.180  -5.850  0.00  0.00     0.082 H 
BRANCH  40  43
ATOM     43  C   UNK d   0       7.337  -9.582  -6.424  0.00  0.00     0.254 C 
ATOM     44  N   LEU d   1       6.718  -8.594  -5.748  0.00  0.00    -0.304 N 
ATOM     45  CA  LEU d   1       5.264  -8.626  -5.572  0.00  0.00     0.063 C 
ATOM     46  H   LEU d   1       7.235  -7.862  -5.378  0.00  0.00     0.149 HD
ATOM     47  HA  LEU d   1       4.800  -9.057  -6.458  0.00  0.00     0.056 H 
ATOM     48  C   LEU d   1       4.922  -9.466  -4.368  0.00  0.00     0.062 C 
ATOM     49  O   LEU d   1       5.803  -9.984  -3.724  0.00  0.00    -0.548 OA
ATOM     50  OXT LEU d   1       3.639  -9.637  -4.011  0.00  0.00    -0.548 OA
ATOM     51  O   UNK d   0       6.690 -10.499  -6.885  0.00  0.00    -0.272 OA
BRANCH  45  52
ATOM     52  CB  LEU d   1       4.745  -7.202  -5.364  0.00  0.00    -0.027 C 
ATOM     53  HB1 LEU d   1       3.726  -7.240  -4.976  0.00  0.00     0.029 H 
ATOM     54  HB2 LEU d   1       5.386  -6.681  -4.653  0.00  0.00     0.029 H 
BRANCH  52  55
ATOM     55  CG  LEU d   1       4.753  -6.456  -6.700  0.00  0.00    -0.045 C 
ATOM     56  HG  LEU d   1       5.758  -6.087  -6.903  0.00  0.00     0.030 H 
BRANCH  55  57
ATOM     57  CD1 LEU d   1       4.323  -7.408  -7.818  0.00  0.00    -0.063 C 
ATOM     58 1HD1 LEU d   1       3.237  -7.398  -7.907  0.00  0.00     0.023 H 
ATOM     59 2HD1 LEU d   1       4.767  -7.086  -8.760  0.00  0.00     0.023 H 
ATOM     60 3HD1 LEU d   1       4.659  -8.418  -7.585  0.00  0.00     0.023 H 
ENDBRANCH  55  57
BRANCH  55  61
ATOM     61  CD2 LEU d   1       3.780  -5.277  -6.632  0.00  0.00    -0.063 C 
ATOM     62 1HD2 LEU d   1       4.342  -4.346  -6.561  0.00  0.00     0.023 H 
ATOM     63 2HD2 LEU d   1       3.163  -5.263  -7.531  0.00  0.00     0.023 H 
ATOM     64 3HD2 LEU d   1       3.142  -5.383  -5.755  0.00  0.00     0.023 H 
ENDBRANCH  55  61
ENDBRANCH  52  55
ENDBRANCH  45  52
ENDBRANCH  40  43
ENDBRANCH  39  40
ENDBRANCH   1  39
BRANCH   5  65
ATOM     65  C   UNK d   0       8.548  -2.440  -5.661  0.00  0.00    -0.056 C 
ATOM     66  H   UNK d   0       8.023  -1.484  -5.658  0.00  0.00     0.024 H 
ATOM     67  H   UNK d   0       9.092  -2.559  -4.723  0.00  0.00     0.024 H 
ATOM     68  H   UNK d   0       9.251  -2.466  -6.494  0.00  0.00     0.024 H 
ENDBRANCH   5  65
BRANCH  10  69
ATOM     69  C   UNK d   0       5.908   0.112  -4.287  0.00  0.00    -0.056 C 
ATOM     70  H   UNK d   0       6.831  -0.463  -4.213  0.00  0.00     0.024 H 
ATOM     71  H   UNK d   0       5.879   0.633  -5.244  0.00  0.00     0.024 H 
ATOM     72  H   UNK d   0       5.868   0.840  -3.476  0.00  0.00     0.024 H 
ENDBRANCH  10  69
BRANCH  21  73
ATOM     73  C   UNK d   0       3.814   1.156  -2.986  0.00  0.00     0.162 C 
ATOM     74  O   UNK d   0       3.607   2.272  -3.400  0.00  0.00    -0.295 OA
BRANCH  73  75
ATOM     75  C   UNK d   0       4.431   0.959  -1.625  0.00  0.00    -0.003 C 
ATOM     76  H   UNK d   0       3.805   0.436  -1.048  0.00  0.00     0.031 H 
ATOM     77  H   UNK d   0       5.371   0.415  -1.727  0.00  0.00     0.031 H 
ATOM     78  H   UNK d   0       4.621   1.930  -1.169  0.00  0.00     0.031 H 
ENDBRANCH  73  75
ENDBRANCH  21  73
BRANCH  21  79
ATOM     79  O   UNK d   0       2.522  -0.872  -3.138  0.00  0.00    -0.381 OA
ATOM     80  H   UNK d   0       2.073  -0.432  -2.402  0.00  0.00     0.211 HD
ENDBRANCH  21  79
TORSDOF 14
ENDMDL
MODEL 3
REMARK VINA RESULT:      -7.4      2.165      3.302
REMARK  12 active torsions:
REMARK  status: ('A' for Active; 'I' for Inactive)
REMARK    1  A    between atoms: CD1_1  and  CG_2 
REMARK    2  A    between atoms: CG_2  and  CD2_3 
REMARK    3  A    between atoms: CG_2  and  CB_4 
REMARK    4  A    between atoms: CB_4  and  CA_5 
REMARK       I    between atoms: CA_5  and  C_7 
REMARK       I    between atoms: CA_5  and  N_9 
REMARK       I    between atoms: N_9  and  C_10 
REMARK    5  A    between atoms: C_10  and  C_12 
REMARK    6  A    between atoms: C_12  and  O_13 
REMARK    7  A    between atoms: O_13  and  N_14 
REMARK    8  A    between atoms: C_18  and  C_40 
REMARK    9  A    between atoms: C_23  and  C_39 
REMARK   10  A    between atoms: C_34  and  C_35 
REMARK   11  A    between atoms: C_34  and  O_38 
REMARK   12  A    between atoms: C_35  and  C_37 
ROOT
ATOM      1  N   UNK d   0       7.715   2.668  -9.352  0.00  0.00    -0.089 NA
ATOM      2  C   UNK d   0       8.657   3.132  -8.592  0.00  0.00     0.080 C 
ATOM      3  C   UNK d   0       9.403   2.244  -7.614  0.00  0.00    -0.006 C 
ATOM      4  C   UNK d   0       9.396   2.953  -6.260  0.00  0.00    -0.038 C 
ATOM      5  C   UNK d   0      10.028   4.331  -6.344  0.00  0.00    -0.007 C 
ATOM      6  C   UNK d   0       9.624   5.144  -5.108  0.00  0.00    -0.029 C 
ATOM      7  H   UNK d   0       8.537   5.230  -5.090  0.00  0.00     0.031 H 
ATOM      8  C   UNK d   0      10.079   4.416  -3.847  0.00  0.00    -0.049 C 
ATOM      9  C   UNK d   0       9.825   5.245  -2.577  0.00  0.00    -0.044 C 
ATOM     10  C   UNK d   0      10.552   6.564  -2.750  0.00  0.00     0.007 C 
ATOM     11  C   UNK d   0       9.875   7.306  -3.934  0.00  0.00    -0.029 C 
ATOM     12  H   UNK d   0       8.793   7.329  -3.800  0.00  0.00     0.031 H 
ATOM     13  C   UNK d   0      10.234   6.550  -5.200  0.00  0.00    -0.034 C 
ATOM     14  H   UNK d   0      11.317   6.480  -5.298  0.00  0.00     0.031 H 
ATOM     15  C   UNK d   0       9.645   7.270  -6.417  0.00  0.00    -0.046 C 
ATOM     16  C   UNK d   0      10.088   6.548  -7.690  0.00  0.00    -0.031 C 
ATOM     17  C   UNK d   0       9.686   5.088  -7.590  0.00  0.00    -0.062 C 
ATOM     18  C   UNK d   0       9.056   4.549  -8.627  0.00  0.00    -0.037 C 
ATOM     19  C   UNK d   0      10.457   8.718  -3.814  0.00  0.00    -0.046 C 
ATOM     20  C   UNK d   0      10.448   8.959  -2.271  0.00  0.00    -0.016 C 
ATOM     21  C   UNK d   0      10.442   7.562  -1.602  0.00  0.00     0.129 C 
ATOM     22  H   UNK d   0       8.900   1.280  -7.531  0.00  0.00     0.033 H 
ATOM     23  H   UNK d   0      10.429   2.101  -7.952  0.00  0.00     0.033 H 
ATOM     24  H   UNK d   0       9.951   2.350  -5.542  0.00  0.00     0.028 H 
ATOM     25  H   UNK d   0       8.367   3.054  -5.918  0.00  0.00     0.028 H 
ATOM     26  H   UNK d   0      11.146   4.208  -3.927  0.00  0.00     0.027 H 
ATOM     27  H   UNK d   0       9.539   3.473  -3.769  0.00  0.00     0.027 H 
ATOM     28  H   UNK d   0      10.216   4.717  -1.706  0.00  0.00     0.027 H 
ATOM     29  H   UNK d   0       8.757   5.421  -2.454  0.00  0.00     0.027 H 
ATOM     30  H   UNK d   0      10.002   8.300  -6.439  0.00  0.00     0.027 H 
ATOM     31  H   UNK d   0       8.557   7.263  -6.354  0.00  0.00     0.027 H 
ATOM     32  H   UNK d   0      11.170   6.622  -7.796  0.00  0.00     0.031 H 
ATOM     33  H   UNK d   0       9.605   7.001  -8.556  0.00  0.00     0.031 H 
ATOM     34  H   UNK d   0       8.836   5.150  -9.497  0.00  0.00     0.064 H 
ATOM     35  H   UNK d   0      11.476   8.749  -4.198  0.00  0.00     0.027 H 
ATOM     36  H   UNK d   0       9.826   9.442  -4.331  0.00  0.00     0.027 H 
ATOM     37  H   UNK d   0       9.549   9.509  -1.996  0.00  0.00     0.030 H 
ATOM     38  H   UNK d   0      11.335   9.515  -1.967  0.00  0.00     0.030 H 
ENDROOT
BRANCH   1  39
ATOM     39  O   UNK d   0       7.363   1.298  -9.288  0.00  0.00    -0.384 OA
BRANCH  39  40
ATOM     40  C   UNK d   0       6.108   1.049  -8.651  0.00  0.00     0.193 C 
ATOM     41  H   UNK d   0       5.666   1.995  -8.339  0.00  0.00     0.082 H 
ATOM     42  H   UNK d   0       5.439   0.549  -9.350  0.00  0.00     0.082 H 
BRANCH  40  43
ATOM     43  C   UNK d   0       6.322   0.172  -7.446  0.00  0.00     0.254 C 
ATOM     44  N   LEU d   1       5.410   0.155  -6.453  0.00  0.00    -0.304 N 
ATOM     45  CA  LEU d   1       5.619  -0.698  -5.280  0.00  0.00     0.063 C 
ATOM     46  H   LEU d   1       4.616   0.708  -6.515  0.00  0.00     0.149 HD
ATOM     47  HA  LEU d   1       6.113  -1.620  -5.585  0.00  0.00     0.056 H 
ATOM     48  C   LEU d   1       6.481   0.026  -4.279  0.00  0.00     0.062 C 
ATOM     49  O   LEU d   1       6.880   1.141  -4.521  0.00  0.00    -0.548 OA
ATOM     50  OXT LEU d   1       6.806  -0.566  -3.119  0.00  0.00    -0.548 OA
ATOM     51  O   UNK d   0       7.317  -0.519  -7.367  0.00  0.00    -0.272 OA
BRANCH  45  52
ATOM     52  CB  LEU d   1       4.267  -1.029  -4.644  0.00  0.00    -0.027 C 
ATOM     53  HB1 LEU d   1       3.626  -1.509  -5.384  0.00  0.00     0.029 H 
ATOM     54  HB2 LEU d   1       4.417  -1.703  -3.801  0.00  0.00     0.029 H 
BRANCH  52  55
ATOM     55  CG  LEU d   1       3.604   0.260  -4.155  0.00  0.00    -0.045 C 
ATOM     56  HG  LEU d   1       4.275   1.101  -4.328  0.00  0.00     0.030 H 
BRANCH  55  57
ATOM     57  CD1 LEU d   1       2.298   0.484  -4.920  0.00  0.00    -0.063 C 
ATOM     58 1HD1 LEU d   1       1.777   1.346  -4.505  0.00  0.00     0.023 H 
ATOM     59 2HD1 LEU d   1       2.520   0.666  -5.972  0.00  0.00     0.023 H 
ATOM     60 3HD1 LEU d   1       1.668  -0.400  -4.830  0.00  0.00     0.023 H 
ENDBRANCH  55  57
BRANCH  55  61
ATOM     61  CD2 LEU d   1       3.306   0.144  -2.659  0.00  0.00    -0.063 C 
ATOM     62 1HD2 LEU d   1       2.940   1.101  -2.287  0.00  0.00     0.023 H 
ATOM     63 2HD2 LEU d   1       2.549  -0.623  -2.498  0.00  0.00     0.023 H 
ATOM     64 3HD2 LEU d   1       4.217  -0.127  -2.127  0.00  0.00     0.023 H 
ENDBRANCH  55  61
ENDBRANCH  52  55
ENDBRANCH  45  52
ENDBRANCH  40  43
ENDBRANCH  39  40
ENDBRANCH   1  39
BRANCH   5  65
ATOM     65  C   UNK d   0      11.546   4.142  -6.307  0.00  0.00    -0.056 C 
ATOM     66  H   UNK d   0      11.820   3.285  -6.923  0.00  0.00     0.024 H 
ATOM     67  H   UNK d   0      12.033   5.038  -6.693  0.00  0.00     0.024 H 
ATOM     68  H   UNK d   0      11.865   3.968  -5.279  0.00  0.00     0.024 H 
ENDBRANCH   5  65
BRANCH  10  69
ATOM     69  C   UNK d   0      12.025   6.307  -3.074  0.00  0.00    -0.056 C 
ATOM     70  H   UNK d   0      12.507   5.828  -2.220  0.00  0.00     0.024 H 
ATOM     71  H   UNK d   0      12.098   5.656  -3.945  0.00  0.00     0.024 H 
ATOM     72  H   UNK d   0      12.522   7.254  -3.285  0.00  0.00     0.024 H 
ENDBRANCH  10  69
BRANCH  21  73
ATOM     73  C   UNK d   0      11.621   7.422  -0.674  0.00  0.00     0.162 C 
ATOM     74  O   UNK d   0      12.551   8.189  -0.759  0.00  0.00    -0.295 OA
BRANCH  73  75
ATOM     75  C   UNK d   0      11.640   6.326   0.360  0.00  0.00    -0.003 C 
ATOM     76  H   UNK d   0      11.019   5.594   0.080  0.00  0.00     0.031 H 
ATOM     77  H   UNK d   0      12.651   5.929   0.451  0.00  0.00     0.031 H 
ATOM     78  H   UNK d   0      11.320   6.727   1.321  0.00  0.00     0.031 H 
ENDBRANCH  73  75
ENDBRANCH  21  73
BRANCH  21  79
ATOM     79  O   UNK d   0       9.222   7.359  -0.886  0.00  0.00    -0.381 OA
ATOM     80  H   UNK d   0       8.672   6.646  -1.238  0.00  0.00     0.211 HD
ENDBRANCH  21  79
TORSDOF 14
ENDMDL
MODEL 4
REMARK VINA RESULT:      -7.4      1.567      2.320
REMARK  12 active torsions:
REMARK  status: ('A' for Active; 'I' for Inactive)
REMARK    1  A    between atoms: CD1_1  and  CG_2 
REMARK    2  A    between atoms: CG_2  and  CD2_3 
REMARK    3  A    between atoms: CG_2  and  CB_4 
REMARK    4  A    between atoms: CB_4  and  CA_5 
REMARK       I    between atoms: CA_5  and  C_7 
REMARK       I    between atoms: CA_5  and  N_9 
REMARK       I    between atoms: N_9  and  C_10 
REMARK    5  A    between atoms: C_10  and  C_12 
REMARK    6  A    between atoms: C_12  and  O_13 
REMARK    7  A    between atoms: O_13  and  N_14 
REMARK    8  A    between atoms: C_18  and  C_40 
REMARK    9  A    between atoms: C_23  and  C_39 
REMARK   10  A    between atoms: C_34  and  C_35 
REMARK   11  A    between atoms: C_34  and  O_38 
REMARK   12  A    between atoms: C_35  and  C_37 
ROOT
ATOM      1  N   UNK d   0       7.671   1.664  -7.844  0.00  0.00    -0.089 NA
ATOM      2  C   UNK d   0       8.589   2.310  -7.198  0.00  0.00     0.080 C 
ATOM      3  C   UNK d   0       9.075   1.855  -5.835  0.00  0.00    -0.006 C 
ATOM      4  C   UNK d   0       9.039   3.071  -4.910  0.00  0.00    -0.038 C 
ATOM      5  C   UNK d   0       9.889   4.210  -5.444  0.00  0.00    -0.007 C 
ATOM      6  C   UNK d   0       9.492   5.509  -4.732  0.00  0.00    -0.029 C 
ATOM      7  H   UNK d   0       8.437   5.703  -4.928  0.00  0.00     0.031 H 
ATOM      8  C   UNK d   0       9.689   5.347  -3.227  0.00  0.00    -0.049 C 
ATOM      9  C   UNK d   0       9.439   6.659  -2.466  0.00  0.00    -0.044 C 
ATOM     10  C   UNK d   0      10.381   7.698  -3.043  0.00  0.00     0.007 C 
ATOM     11  C   UNK d   0       9.961   7.927  -4.519  0.00  0.00    -0.029 C 
ATOM     12  H   UNK d   0       8.888   8.114  -4.585  0.00  0.00     0.031 H 
ATOM     13  C   UNK d   0      10.326   6.671  -5.289  0.00  0.00    -0.034 C 
ATOM     14  H   UNK d   0      11.388   6.458  -5.171  0.00  0.00     0.031 H 
ATOM     15  C   UNK d   0       9.992   6.858  -6.772  0.00  0.00    -0.046 C 
ATOM     16  C   UNK d   0      10.445   5.621  -7.548  0.00  0.00    -0.031 C 
ATOM     17  C   UNK d   0       9.806   4.392  -6.928  0.00  0.00    -0.062 C 
ATOM     18  C   UNK d   0       9.211   3.528  -7.742  0.00  0.00    -0.037 C 
ATOM     19  C   UNK d   0      10.746   9.189  -4.893  0.00  0.00    -0.046 C 
ATOM     20  C   UNK d   0      10.613  10.064  -3.607  0.00  0.00    -0.016 C 
ATOM     21  C   UNK d   0      10.312   9.095  -2.437  0.00  0.00     0.129 C 
ATOM     22  H   UNK d   0       8.419   1.075  -5.448  0.00  0.00     0.033 H 
ATOM     23  H   UNK d   0      10.095   1.478  -5.912  0.00  0.00     0.033 H 
ATOM     24  H   UNK d   0       9.411   2.779  -3.927  0.00  0.00     0.028 H 
ATOM     25  H   UNK d   0       8.009   3.411  -4.812  0.00  0.00     0.028 H 
ATOM     26  H   UNK d   0      10.712   5.018  -3.041  0.00  0.00     0.027 H 
ATOM     27  H   UNK d   0       8.999   4.587  -2.861  0.00  0.00     0.027 H 
ATOM     28  H   UNK d   0       9.645   6.517  -1.405  0.00  0.00     0.027 H 
ATOM     29  H   UNK d   0       8.405   6.978  -2.604  0.00  0.00     0.027 H 
ATOM     30  H   UNK d   0      10.510   7.738  -7.154  0.00  0.00     0.027 H 
ATOM     31  H   UNK d   0       8.916   6.989  -6.890  0.00  0.00     0.027 H 
ATOM     32  H   UNK d   0      11.531   5.534  -7.497  0.00  0.00     0.031 H 
ATOM     33  H   UNK d   0      10.135   5.707  -8.590  0.00  0.00     0.031 H 
ATOM     34  H   UNK d   0       9.184   3.720  -8.805  0.00  0.00     0.064 H 
ATOM     35  H   UNK d   0      11.792   8.950  -5.084  0.00  0.00     0.027 H 
ATOM     36  H   UNK d   0      10.297   9.682  -5.756  0.00  0.00     0.027 H 
ATOM     37  H   UNK d   0       9.789  10.767  -3.732  0.00  0.00     0.030 H 
ATOM     38  H   UNK d   0      11.540  10.605  -3.416  0.00  0.00     0.030 H 
ENDROOT
BRANCH   1  39
ATOM     39  O   UNK d   0       7.098   0.495  -7.285  0.00  0.00    -0.384 OA
BRANCH  39  40
ATOM     40  C   UNK d   0       5.789   0.198  -7.774  0.00  0.00     0.193 C 
ATOM     41  H   UNK d   0       5.293   1.122  -8.069  0.00  0.00     0.082 H 
ATOM     42  H   UNK d   0       5.866  -0.464  -8.636  0.00  0.00     0.082 H 
BRANCH  40  43
ATOM     43  C   UNK d   0       4.990  -0.479  -6.691  0.00  0.00     0.254 C 
ATOM     44  N   LEU d   1       5.551  -0.715  -5.488  0.00  0.00    -0.304 N 
ATOM     45  CA  LEU d   1       4.774  -1.374  -4.435  0.00  0.00     0.063 C 
ATOM     46  H   LEU d   1       6.467  -0.449  -5.320  0.00  0.00     0.149 HD
ATOM     47  HA  LEU d   1       3.732  -1.062  -4.502  0.00  0.00     0.056 H 
ATOM     48  C   LEU d   1       4.861  -2.869  -4.607  0.00  0.00     0.062 C 
ATOM     49  O   LEU d   1       5.506  -3.335  -5.516  0.00  0.00    -0.548 OA
ATOM     50  OXT LEU d   1       4.223  -3.682  -3.750  0.00  0.00    -0.548 OA
ATOM     51  O   UNK d   0       3.843  -0.813  -6.902  0.00  0.00    -0.272 OA
BRANCH  45  52
ATOM     52  CB  LEU d   1       5.338  -0.985  -3.067  0.00  0.00    -0.027 C 
ATOM     53  HB1 LEU d   1       5.787  -1.860  -2.596  0.00  0.00     0.029 H 
ATOM     54  HB2 LEU d   1       6.094  -0.211  -3.192  0.00  0.00     0.029 H 
BRANCH  52  55
ATOM     55  CG  LEU d   1       4.208  -0.454  -2.182  0.00  0.00    -0.045 C 
ATOM     56  HG  LEU d   1       4.096  -1.099  -1.310  0.00  0.00     0.030 H 
BRANCH  55  57
ATOM     57  CD1 LEU d   1       4.542   0.967  -1.724  0.00  0.00    -0.063 C 
ATOM     58 1HD1 LEU d   1       5.117   0.925  -0.799  0.00  0.00     0.023 H 
ATOM     59 2HD1 LEU d   1       5.130   1.468  -2.493  0.00  0.00     0.023 H 
ATOM     60 3HD1 LEU d   1       3.620   1.520  -1.554  0.00  0.00     0.023 H 
ENDBRANCH  55  57
BRANCH  55  61
ATOM     61  CD2 LEU d   1       2.901  -0.440  -2.977  0.00  0.00    -0.063 C 
ATOM     62 1HD2 LEU d   1       2.143  -1.012  -2.441  0.00  0.00     0.023 H 
ATOM     63 2HD2 LEU d   1       2.561   0.589  -3.100  0.00  0.00     0.023 H 
ATOM     64 3HD2 LEU d   1       3.067  -0.887  -3.957  0.00  0.00     0.023 H 
ENDBRANCH  55  61
ENDBRANCH  52  55
ENDBRANCH  45  52
ENDBRANCH  40  43
ENDBRANCH  39  40
ENDBRANCH   1  39
BRANCH   5  65
ATOM     65  C   UNK d   0      11.344   3.902  -5.085  0.00  0.00    -0.056 C 
ATOM     66  H   UNK d   0      11.659   4.542  -4.261  0.00  0.00     0.024 H 
ATOM     67  H   UNK d   0      11.432   2.857  -4.786  0.00  0.00     0.024 H 
ATOM     68  H   UNK d   0      11.979   4.086  -5.952  0.00  0.00     0.024 H 
ENDBRANCH   5  65
BRANCH  10  69
ATOM     69  C   UNK d   0      11.820   7.180  -2.987  0.00  0.00    -0.056 C 
ATOM     70  H   UNK d   0      12.308   7.557  -2.088  0.00  0.00     0.024 H 
ATOM     71  H   UNK d   0      11.814   6.090  -2.967  0.00  0.00     0.024 H 
ATOM     72  H   UNK d   0      12.365   7.524  -3.867  0.00  0.00     0.024 H 
ENDBRANCH  10  69
BRANCH  21  73
ATOM     73  C   UNK d   0      11.349   9.247  -1.353  0.00  0.00     0.162 C 
ATOM     74  O   UNK d   0      12.394   9.804  -1.591  0.00  0.00    -0.295 OA
BRANCH  73  75
ATOM     75  C   UNK d   0      11.081   8.704   0.027  0.00  0.00    -0.003 C 
ATOM     76  H   UNK d   0      11.157   7.707   0.012  0.00  0.00     0.031 H 
ATOM     77  H   UNK d   0      11.810   9.113   0.726  0.00  0.00     0.031 H 
ATOM     78  H   UNK d   0      10.077   8.987   0.341  0.00  0.00     0.031 H 
ENDBRANCH  73  75
ENDBRANCH  21  73
BRANCH  21  79
ATOM     79  O   UNK d   0       9.006   9.342  -1.910  0.00  0.00    -0.381 OA
ATOM     80  H   UNK d   0       8.866   8.983  -1.023  0.00  0.00     0.211 HD
ENDBRANCH  21  79
TORSDOF 14
ENDMDL
MODEL 5
REMARK VINA RESULT:      -7.3      8.357     11.111
REMARK  12 active torsions:
REMARK  status: ('A' for Active; 'I' for Inactive)
REMARK    1  A    between atoms: CD1_1  and  CG_2 
REMARK    2  A    between atoms: CG_2  and  CD2_3 
REMARK    3  A    between atoms: CG_2  and  CB_4 
REMARK    4  A    between atoms: CB_4  and  CA_5 
REMARK       I    between atoms: CA_5  and  C_7 
REMARK       I    between atoms: CA_5  and  N_9 
REMARK       I    between atoms: N_9  and  C_10 
REMARK    5  A    between atoms: C_10  and  C_12 
REMARK    6  A    between atoms: C_12  and  O_13 
REMARK    7  A    between atoms: O_13  and  N_14 
REMARK    8  A    between atoms: C_18  and  C_40 
REMARK    9  A    between atoms: C_23  and  C_39 
REMARK   10  A    between atoms: C_34  and  C_35 
REMARK   11  A    between atoms: C_34  and  O_38 
REMARK   12  A    between atoms: C_35  and  C_37 
ROOT
ATOM      1  N   UNK d   0       4.239  -0.656 -13.320  0.00  0.00    -0.089 NA
ATOM      2  C   UNK d   0       4.663  -0.254 -12.163  0.00  0.00     0.080 C 
ATOM      3  C   UNK d   0       5.971  -0.751 -11.576  0.00  0.00    -0.006 C 
ATOM      4  C   UNK d   0       5.684  -1.205 -10.146  0.00  0.00    -0.038 C 
ATOM      5  C   UNK d   0       5.095  -0.086  -9.307  0.00  0.00    -0.007 C 
ATOM      6  C   UNK d   0       4.447  -0.685  -8.052  0.00  0.00    -0.029 C 
ATOM      7  H   UNK d   0       3.661  -1.373  -8.364  0.00  0.00     0.031 H 
ATOM      8  C   UNK d   0       5.494  -1.462  -7.259  0.00  0.00    -0.049 C 
ATOM      9  C   UNK d   0       4.941  -1.975  -5.919  0.00  0.00    -0.044 C 
ATOM     10  C   UNK d   0       4.443  -0.767  -5.149  0.00  0.00     0.007 C 
ATOM     11  C   UNK d   0       3.252  -0.175  -5.949  0.00  0.00    -0.029 C 
ATOM     12  H   UNK d   0       2.534  -0.958  -6.199  0.00  0.00     0.031 H 
ATOM     13  C   UNK d   0       3.823   0.439  -7.214  0.00  0.00    -0.034 C 
ATOM     14  H   UNK d   0       4.581   1.179  -6.959  0.00  0.00     0.031 H 
ATOM     15  C   UNK d   0       2.701   1.099  -8.021  0.00  0.00    -0.046 C 
ATOM     16  C   UNK d   0       3.302   1.788  -9.246  0.00  0.00    -0.031 C 
ATOM     17  C   UNK d   0       4.106   0.772 -10.035  0.00  0.00    -0.062 C 
ATOM     18  C   UNK d   0       3.898   0.702 -11.345  0.00  0.00    -0.037 C 
ATOM     19  C   UNK d   0       2.640   0.810  -4.948  0.00  0.00    -0.046 C 
ATOM     20  C   UNK d   0       2.723   0.022  -3.603  0.00  0.00    -0.016 C 
ATOM     21  C   UNK d   0       3.843  -1.034  -3.773  0.00  0.00     0.129 C 
ATOM     22  H   UNK d   0       6.346  -1.589 -12.164  0.00  0.00     0.033 H 
ATOM     23  H   UNK d   0       6.703   0.057 -11.569  0.00  0.00     0.033 H 
ATOM     24  H   UNK d   0       6.614  -1.542  -9.688  0.00  0.00     0.028 H 
ATOM     25  H   UNK d   0       4.981  -2.037 -10.172  0.00  0.00     0.028 H 
ATOM     26  H   UNK d   0       6.344  -0.808  -7.066  0.00  0.00     0.027 H 
ATOM     27  H   UNK d   0       5.828  -2.312  -7.854  0.00  0.00     0.027 H 
ATOM     28  H   UNK d   0       5.733  -2.473  -5.358  0.00  0.00     0.027 H 
ATOM     29  H   UNK d   0       4.119  -2.668  -6.096  0.00  0.00     0.027 H 
ATOM     30  H   UNK d   0       2.190   1.836  -7.402  0.00  0.00     0.027 H 
ATOM     31  H   UNK d   0       1.988   0.339  -8.344  0.00  0.00     0.027 H 
ATOM     32  H   UNK d   0       3.954   2.601  -8.926  0.00  0.00     0.031 H 
ATOM     33  H   UNK d   0       2.503   2.187  -9.873  0.00  0.00     0.031 H 
ATOM     34  H   UNK d   0       3.168   1.347 -11.810  0.00  0.00     0.064 H 
ATOM     35  H   UNK d   0       3.233   1.722  -4.892  0.00  0.00     0.027 H 
ATOM     36  H   UNK d   0       1.606   1.037  -5.211  0.00  0.00     0.027 H 
ATOM     37  H   UNK d   0       1.769  -0.472  -3.413  0.00  0.00     0.030 H 
ATOM     38  H   UNK d   0       2.965   0.695  -2.780  0.00  0.00     0.030 H 
ENDROOT
BRANCH   1  39
ATOM     39  O   UNK d   0       5.005  -1.576 -14.076  0.00  0.00    -0.384 OA
BRANCH  39  40
ATOM     40  C   UNK d   0       4.244  -2.324 -15.026  0.00  0.00     0.193 C 
ATOM     41  H   UNK d   0       4.176  -1.765 -15.958  0.00  0.00     0.082 H 
ATOM     42  H   UNK d   0       4.734  -3.280 -15.211  0.00  0.00     0.082 H 
BRANCH  40  43
ATOM     43  C   UNK d   0       2.861  -2.566 -14.482  0.00  0.00     0.254 C 
ATOM     44  N   LEU d   1       2.690  -3.351 -13.399  0.00  0.00    -0.304 N 
ATOM     45  CA  LEU d   1       1.344  -3.586 -12.870  0.00  0.00     0.063 C 
ATOM     46  H   LEU d   1       3.457  -3.758 -12.970  0.00  0.00     0.149 HD
ATOM     47  HA  LEU d   1       0.741  -2.687 -12.996  0.00  0.00     0.056 H 
ATOM     48  C   LEU d   1       0.703  -4.727 -13.618  0.00  0.00     0.062 C 
ATOM     49  O   LEU d   1       1.309  -5.286 -14.501  0.00  0.00    -0.548 OA
ATOM     50  OXT LEU d   1      -0.540  -5.123 -13.302  0.00  0.00    -0.548 OA
ATOM     51  O   UNK d   0       1.900  -2.056 -15.020  0.00  0.00    -0.272 OA
BRANCH  45  52
ATOM     52  CB  LEU d   1       1.434  -3.937 -11.384  0.00  0.00    -0.027 C 
ATOM     53  HB1 LEU d   1       0.437  -3.909 -10.943  0.00  0.00     0.029 H 
ATOM     54  HB2 LEU d   1       1.853  -4.937 -11.271  0.00  0.00     0.029 H 
BRANCH  52  55
ATOM     55  CG  LEU d   1       2.335  -2.924 -10.675  0.00  0.00    -0.045 C 
ATOM     56  HG  LEU d   1       3.068  -2.534 -11.380  0.00  0.00     0.030 H 
BRANCH  55  57
ATOM     57  CD1 LEU d   1       1.482  -1.774 -10.136  0.00  0.00    -0.063 C 
ATOM     58 1HD1 LEU d   1       1.701  -1.624  -9.079  0.00  0.00     0.023 H 
ATOM     59 2HD1 LEU d   1       1.713  -0.862 -10.686  0.00  0.00     0.023 H 
ATOM     60 3HD1 LEU d   1       0.427  -2.015 -10.258  0.00  0.00     0.023 H 
ENDBRANCH  55  57
BRANCH  55  61
ATOM     61  CD2 LEU d   1       3.059  -3.610  -9.514  0.00  0.00    -0.063 C 
ATOM     62 1HD2 LEU d   1       2.328  -4.079  -8.856  0.00  0.00     0.023 H 
ATOM     63 2HD2 LEU d   1       3.736  -4.370  -9.907  0.00  0.00     0.023 H 
ATOM     64 3HD2 LEU d   1       3.630  -2.870  -8.955  0.00  0.00     0.023 H 
ENDBRANCH  55  61
ENDBRANCH  52  55
ENDBRANCH  45  52
ENDBRANCH  40  43
ENDBRANCH  39  40
ENDBRANCH   1  39
BRANCH   5  65
ATOM     65  C   UNK d   0       6.254   0.807  -8.857  0.00  0.00    -0.056 C 
ATOM     66  H   UNK d   0       7.079   0.185  -8.511  0.00  0.00     0.024 H 
ATOM     67  H   UNK d   0       6.588   1.419  -9.695  0.00  0.00     0.024 H 
ATOM     68  H   UNK d   0       5.921   1.454  -8.045  0.00  0.00     0.024 H 
ENDBRANCH   5  65
BRANCH  10  69
ATOM     69  C   UNK d   0       5.559   0.273  -5.036  0.00  0.00    -0.056 C 
ATOM     70  H   UNK d   0       5.751   0.487  -3.984  0.00  0.00     0.024 H 
ATOM     71  H   UNK d   0       6.467  -0.115  -5.499  0.00  0.00     0.024 H 
ATOM     72  H   UNK d   0       5.255   1.189  -5.542  0.00  0.00     0.024 H 
ENDBRANCH  10  69
BRANCH  21  73
ATOM     73  C   UNK d   0       4.891  -0.860  -2.704  0.00  0.00     0.162 C 
ATOM     74  O   UNK d   0       5.855  -1.587  -2.678  0.00  0.00    -0.295 OA
BRANCH  73  75
ATOM     75  C   UNK d   0       4.735   0.223  -1.666  0.00  0.00    -0.003 C 
ATOM     76  H   UNK d   0       5.588   0.740  -1.595  0.00  0.00     0.031 H 
ATOM     77  H   UNK d   0       3.927   0.893  -1.958  0.00  0.00     0.031 H 
ATOM     78  H   UNK d   0       4.503  -0.229  -0.702  0.00  0.00     0.031 H 
ENDBRANCH  73  75
ENDBRANCH  21  73
BRANCH  21  79
ATOM     79  O   UNK d   0       3.296  -2.353  -3.718  0.00  0.00    -0.381 OA
ATOM     80  H   UNK d   0       2.677  -2.552  -4.434  0.00  0.00     0.211 HD
ENDBRANCH  21  79
TORSDOF 14
ENDMDL
MODEL 6
REMARK VINA RESULT:      -7.3      1.959      2.545
REMARK  12 active torsions:
REMARK  status: ('A' for Active; 'I' for Inactive)
REMARK    1  A    between atoms: CD1_1  and  CG_2 
REMARK    2  A    between atoms: CG_2  and  CD2_3 
REMARK    3  A    between atoms: CG_2  and  CB_4 
REMARK    4  A    between atoms: CB_4  and  CA_5 
REMARK       I    between atoms: CA_5  and  C_7 
REMARK       I    between atoms: CA_5  and  N_9 
REMARK       I    between atoms: N_9  and  C_10 
REMARK    5  A    between atoms: C_10  and  C_12 
REMARK    6  A    between atoms: C_12  and  O_13 
REMARK    7  A    between atoms: O_13  and  N_14 
REMARK    8  A    between atoms: C_18  and  C_40 
REMARK    9  A    between atoms: C_23  and  C_39 
REMARK   10  A    between atoms: C_34  and  C_35 
REMARK   11  A    between atoms: C_34  and  O_38 
REMARK   12  A    between atoms: C_35  and  C_37 
ROOT
ATOM      1  N   UNK d   0       8.903   2.660  -7.513  0.00  0.00    -0.089 NA
ATOM      2  C   UNK d   0       9.605   3.618  -6.993  0.00  0.00     0.080 C 
ATOM      3  C   UNK d   0      10.439   3.408  -5.743  0.00  0.00    -0.006 C 
ATOM      4  C   UNK d   0      10.101   4.542  -4.776  0.00  0.00    -0.038 C 
ATOM      5  C   UNK d   0      10.366   5.904  -5.391  0.00  0.00    -0.007 C 
ATOM      6  C   UNK d   0       9.634   6.975  -4.573  0.00  0.00    -0.029 C 
ATOM      7  H   UNK d   0       8.566   6.756  -4.593  0.00  0.00     0.031 H 
ATOM      8  C   UNK d   0      10.117   6.932  -3.127  0.00  0.00    -0.049 C 
ATOM      9  C   UNK d   0       9.521   8.071  -2.283  0.00  0.00    -0.044 C 
ATOM     10  C   UNK d   0       9.902   9.374  -2.958  0.00  0.00     0.007 C 
ATOM     11  C   UNK d   0       9.195   9.397  -4.340  0.00  0.00    -0.029 C 
ATOM     12  H   UNK d   0       8.134   9.167  -4.228  0.00  0.00     0.031 H 
ATOM     13  C   UNK d   0       9.873   8.352  -5.208  0.00  0.00    -0.034 C 
ATOM     14  H   UNK d   0      10.941   8.555  -5.267  0.00  0.00     0.031 H 
ATOM     15  C   UNK d   0       9.259   8.368  -6.611  0.00  0.00    -0.046 C 
ATOM     16  C   UNK d   0      10.009   7.374  -7.498  0.00  0.00    -0.031 C 
ATOM     17  C   UNK d   0       9.984   6.010  -6.835  0.00  0.00    -0.062 C 
ATOM     18  C   UNK d   0       9.631   4.968  -7.580  0.00  0.00    -0.037 C 
ATOM     19  C   UNK d   0       9.381  10.853  -4.781  0.00  0.00    -0.046 C 
ATOM     20  C   UNK d   0       9.140  11.642  -3.457  0.00  0.00    -0.016 C 
ATOM     21  C   UNK d   0       9.415  10.657  -2.293  0.00  0.00     0.129 C 
ATOM     22  H   UNK d   0      10.192   2.447  -5.290  0.00  0.00     0.033 H 
ATOM     23  H   UNK d   0      11.499   3.439  -5.996  0.00  0.00     0.033 H 
ATOM     24  H   UNK d   0      10.708   4.433  -3.877  0.00  0.00     0.028 H 
ATOM     25  H   UNK d   0       9.049   4.473  -4.503  0.00  0.00     0.028 H 
ATOM     26  H   UNK d   0      11.204   7.014  -3.117  0.00  0.00     0.027 H 
ATOM     27  H   UNK d   0       9.829   5.977  -2.687  0.00  0.00     0.027 H 
ATOM     28  H   UNK d   0       9.934   8.040  -1.274  0.00  0.00     0.027 H 
ATOM     29  H   UNK d   0       8.436   7.976  -2.243  0.00  0.00     0.027 H 
ATOM     30  H   UNK d   0       9.342   9.370  -7.034  0.00  0.00     0.027 H 
ATOM     31  H   UNK d   0       8.208   8.084  -6.553  0.00  0.00     0.027 H 
ATOM     32  H   UNK d   0      11.042   7.701  -7.622  0.00  0.00     0.031 H 
ATOM     33  H   UNK d   0       9.526   7.315  -8.474  0.00  0.00     0.031 H 
ATOM     34  H   UNK d   0       9.363   5.112  -8.616  0.00  0.00     0.064 H 
ATOM     35  H   UNK d   0      10.395  11.019  -5.145  0.00  0.00     0.027 H 
ATOM     36  H   UNK d   0       8.648  11.122  -5.542  0.00  0.00     0.027 H 
ATOM     37  H   UNK d   0       8.105  11.982  -3.421  0.00  0.00     0.030 H 
ATOM     38  H   UNK d   0       9.816  12.495  -3.392  0.00  0.00     0.030 H 
ENDROOT
BRANCH   1  39
ATOM     39  O   UNK d   0       8.906   1.375  -6.918  0.00  0.00    -0.384 OA
BRANCH  39  40
ATOM     40  C   UNK d   0       7.603   0.870  -6.619  0.00  0.00     0.193 C 
ATOM     41  H   UNK d   0       6.850   1.525  -7.055  0.00  0.00     0.082 H 
ATOM     42  H   UNK d   0       7.499  -0.132  -7.037  0.00  0.00     0.082 H 
BRANCH  40  43
ATOM     43  C   UNK d   0       7.417   0.812  -5.126  0.00  0.00     0.254 C 
ATOM     44  N   LEU d   1       6.589  -0.103  -4.584  0.00  0.00    -0.304 N 
ATOM     45  CA  LEU d   1       6.407  -0.158  -3.131  0.00  0.00     0.063 C 
ATOM     46  H   LEU d   1       6.113  -0.724  -5.155  0.00  0.00     0.149 HD
ATOM     47  HA  LEU d   1       7.347   0.090  -2.638  0.00  0.00     0.056 H 
ATOM     48  C   LEU d   1       5.348   0.832  -2.719  0.00  0.00     0.062 C 
ATOM     49  O   LEU d   1       4.801   1.513  -3.553  0.00  0.00    -0.548 OA
ATOM     50  OXT LEU d   1       5.012   0.956  -1.425  0.00  0.00    -0.548 OA
ATOM     51  O   UNK d   0       8.012   1.591  -4.410  0.00  0.00    -0.272 OA
BRANCH  45  52
ATOM     52  CB  LEU d   1       5.974  -1.568  -2.725  0.00  0.00    -0.027 C 
ATOM     53  HB1 LEU d   1       6.744  -2.283  -3.017  0.00  0.00     0.029 H 
ATOM     54  HB2 LEU d   1       5.831  -1.608  -1.646  0.00  0.00     0.029 H 
BRANCH  52  55
ATOM     55  CG  LEU d   1       4.660  -1.919  -3.426  0.00  0.00    -0.045 C 
ATOM     56  HG  LEU d   1       4.349  -1.085  -4.054  0.00  0.00     0.030 H 
BRANCH  55  57
ATOM     57  CD1 LEU d   1       4.863  -3.163  -4.295  0.00  0.00    -0.063 C 
ATOM     58 1HD1 LEU d   1       5.045  -4.026  -3.656  0.00  0.00     0.023 H 
ATOM     59 2HD1 LEU d   1       3.969  -3.337  -4.894  0.00  0.00     0.023 H 
ATOM     60 3HD1 LEU d   1       5.717  -3.011  -4.953  0.00  0.00     0.023 H 
ENDBRANCH  55  57
BRANCH  55  61
ATOM     61  CD2 LEU d   1       3.581  -2.199  -2.378  0.00  0.00    -0.063 C 
ATOM     62 1HD2 LEU d   1       3.804  -3.136  -1.868  0.00  0.00     0.023 H 
ATOM     63 2HD2 LEU d   1       3.560  -1.385  -1.653  0.00  0.00     0.023 H 
ATOM     64 3HD2 LEU d   1       2.611  -2.274  -2.868  0.00  0.00     0.023 H 
ENDBRANCH  55  61
ENDBRANCH  52  55
ENDBRANCH  45  52
ENDBRANCH  40  43
ENDBRANCH  39  40
ENDBRANCH   1  39
BRANCH   5  65
ATOM     65  C   UNK d   0      11.869   6.172  -5.279  0.00  0.00    -0.056 C 
ATOM     66  H   UNK d   0      12.417   5.405  -5.825  0.00  0.00     0.024 H 
ATOM     67  H   UNK d   0      12.096   7.151  -5.702  0.00  0.00     0.024 H 
ATOM     68  H   UNK d   0      12.164   6.153  -4.229  0.00  0.00     0.024 H 
ENDBRANCH   5  65
BRANCH  10  69
ATOM     69  C   UNK d   0      11.419   9.434  -3.151  0.00  0.00    -0.056 C 
ATOM     70  H   UNK d   0      11.869   9.989  -2.328  0.00  0.00     0.024 H 
ATOM     71  H   UNK d   0      11.824   8.422  -3.172  0.00  0.00     0.024 H 
ATOM     72  H   UNK d   0      11.646   9.936  -4.093  0.00  0.00     0.024 H 
ENDBRANCH  10  69
BRANCH  21  73
ATOM     73  C   UNK d   0      10.480  11.210  -1.382  0.00  0.00     0.162 C 
ATOM     74  O   UNK d   0      11.204  12.097  -1.767  0.00  0.00    -0.295 OA
BRANCH  73  75
ATOM     75  C   UNK d   0      10.642  10.655   0.010  0.00  0.00    -0.003 C 
ATOM     76  H   UNK d   0      11.039  11.356   0.603  0.00  0.00     0.031 H 
ATOM     77  H   UNK d   0       9.668  10.359   0.400  0.00  0.00     0.031 H 
ATOM     78  H   UNK d   0      11.301   9.788  -0.018  0.00  0.00     0.031 H 
ENDBRANCH  73  75
ENDBRANCH  21  73
BRANCH  21  79
ATOM     79  O   UNK d   0       8.215  10.408  -1.558  0.00  0.00    -0.381 OA
ATOM     80  H   UNK d   0       8.275   9.660  -0.948  0.00  0.00     0.211 HD
ENDBRANCH  21  79
TORSDOF 14
ENDMDL
MODEL 7
REMARK VINA RESULT:      -7.2      2.104      2.647
REMARK  12 active torsions:
REMARK  status: ('A' for Active; 'I' for Inactive)
REMARK    1  A    between atoms: CD1_1  and  CG_2 
REMARK    2  A    between atoms: CG_2  and  CD2_3 
REMARK    3  A    between atoms: CG_2  and  CB_4 
REMARK    4  A    between atoms: CB_4  and  CA_5 
REMARK       I    between atoms: CA_5  and  C_7 
REMARK       I    between atoms: CA_5  and  N_9 
REMARK       I    between atoms: N_9  and  C_10 
REMARK    5  A    between atoms: C_10  and  C_12 
REMARK    6  A    between atoms: C_12  and  O_13 
REMARK    7  A    between atoms: O_13  and  N_14 
REMARK    8  A    between atoms: C_18  and  C_40 
REMARK    9  A    between atoms: C_23  and  C_39 
REMARK   10  A    between atoms: C_34  and  C_35 
REMARK   11  A    between atoms: C_34  and  O_38 
REMARK   12  A    between atoms: C_35  and  C_37 
ROOT
ATOM      1  N   UNK d   0       8.397   1.704  -6.232  0.00  0.00    -0.089 NA
ATOM      2  C   UNK d   0       9.197   2.572  -5.698  0.00  0.00     0.080 C 
ATOM      3  C   UNK d   0       9.764   2.384  -4.304  0.00  0.00    -0.006 C 
ATOM      4  C   UNK d   0       9.530   3.686  -3.538  0.00  0.00    -0.038 C 
ATOM      5  C   UNK d   0      10.170   4.872  -4.235  0.00  0.00    -0.007 C 
ATOM      6  C   UNK d   0       9.564   6.167  -3.681  0.00  0.00    -0.029 C 
ATOM      7  H   UNK d   0       8.490   6.156  -3.869  0.00  0.00     0.031 H 
ATOM      8  C   UNK d   0       9.797   6.236  -2.174  0.00  0.00    -0.049 C 
ATOM      9  C   UNK d   0       9.334   7.574  -1.577  0.00  0.00    -0.044 C 
ATOM     10  C   UNK d   0      10.082   8.673  -2.306  0.00  0.00     0.007 C 
ATOM     11  C   UNK d   0       9.618   8.637  -3.787  0.00  0.00    -0.029 C 
ATOM     12  H   UNK d   0       8.528   8.632  -3.845  0.00  0.00     0.031 H 
ATOM     13  C   UNK d   0      10.184   7.371  -4.404  0.00  0.00    -0.034 C 
ATOM     14  H   UNK d   0      11.268   7.355  -4.291  0.00  0.00     0.031 H 
ATOM     15  C   UNK d   0       9.812   7.308  -5.888  0.00  0.00    -0.046 C 
ATOM     16  C   UNK d   0      10.463   6.074  -6.516  0.00  0.00    -0.031 C 
ATOM     17  C   UNK d   0      10.046   4.846  -5.728  0.00  0.00    -0.062 C 
ATOM     18  C   UNK d   0       9.600   3.797  -6.410  0.00  0.00    -0.037 C 
ATOM     19  C   UNK d   0      10.174   9.954  -4.339  0.00  0.00    -0.046 C 
ATOM     20  C   UNK d   0       9.905  10.952  -3.170  0.00  0.00    -0.016 C 
ATOM     21  C   UNK d   0       9.781  10.105  -1.879  0.00  0.00     0.129 C 
ATOM     22  H   UNK d   0       9.253   1.561  -3.803  0.00  0.00     0.033 H 
ATOM     23  H   UNK d   0      10.833   2.177  -4.363  0.00  0.00     0.033 H 
ATOM     24  H   UNK d   0       9.953   3.589  -2.538  0.00  0.00     0.028 H 
ATOM     25  H   UNK d   0       8.458   3.859  -3.453  0.00  0.00     0.028 H 
ATOM     26  H   UNK d   0      10.862   6.109  -1.978  0.00  0.00     0.027 H 
ATOM     27  H   UNK d   0       9.249   5.425  -1.696  0.00  0.00     0.027 H 
ATOM     28  H   UNK d   0       9.569   7.607  -0.513  0.00  0.00     0.027 H 
ATOM     29  H   UNK d   0       8.260   7.695  -1.723  0.00  0.00     0.027 H 
ATOM     30  H   UNK d   0      10.170   8.205  -6.393  0.00  0.00     0.027 H 
ATOM     31  H   UNK d   0       8.729   7.240  -5.990  0.00  0.00     0.027 H 
ATOM     32  H   UNK d   0      11.548   6.177  -6.486  0.00  0.00     0.031 H 
ATOM     33  H   UNK d   0      10.135   5.972  -7.551  0.00  0.00     0.031 H 
ATOM     34  H   UNK d   0       9.532   3.843  -7.486  0.00  0.00     0.064 H 
ATOM     35  H   UNK d   0      11.244   9.870  -4.530  0.00  0.00     0.027 H 
ATOM     36  H   UNK d   0       9.642  10.249  -5.243  0.00  0.00     0.027 H 
ATOM     37  H   UNK d   0       8.973  11.486  -3.358  0.00  0.00     0.030 H 
ATOM     38  H   UNK d   0      10.728  11.661  -3.075  0.00  0.00     0.030 H 
ENDROOT
BRANCH   1  39
ATOM     39  O   UNK d   0       8.035   0.538  -5.513  0.00  0.00    -0.384 OA
BRANCH  39  40
ATOM     40  C   UNK d   0       7.525  -0.515  -6.333  0.00  0.00     0.193 C 
ATOM     41  H   UNK d   0       7.489  -0.183  -7.370  0.00  0.00     0.082 H 
ATOM     42  H   UNK d   0       8.176  -1.385  -6.253  0.00  0.00     0.082 H 
BRANCH  40  43
ATOM     43  C   UNK d   0       6.138  -0.882  -5.874  0.00  0.00     0.254 C 
ATOM     44  N   LEU d   1       5.123  -0.010  -6.034  0.00  0.00    -0.304 N 
ATOM     45  CA  LEU d   1       3.774  -0.367  -5.586  0.00  0.00     0.063 C 
ATOM     46  H   LEU d   1       5.284   0.852  -6.444  0.00  0.00     0.149 HD
ATOM     47  HA  LEU d   1       3.610  -1.434  -5.740  0.00  0.00     0.056 H 
ATOM     48  C   LEU d   1       3.629  -0.044  -4.121  0.00  0.00     0.062 C 
ATOM     49  O   LEU d   1       4.557   0.435  -3.514  0.00  0.00    -0.548 OA
ATOM     50  OXT LEU d   1       2.469  -0.288  -3.491  0.00  0.00    -0.548 OA
ATOM     51  O   UNK d   0       5.936  -1.962  -5.358  0.00  0.00    -0.272 OA
BRANCH  45  52
ATOM     52  CB  LEU d   1       2.743   0.430  -6.388  0.00  0.00    -0.027 C 
ATOM     53  HB1 LEU d   1       1.781  -0.083  -6.354  0.00  0.00     0.029 H 
ATOM     54  HB2 LEU d   1       2.640   1.426  -5.960  0.00  0.00     0.029 H 
BRANCH  52  55
ATOM     55  CG  LEU d   1       3.207   0.546  -7.841  0.00  0.00    -0.045 C 
ATOM     56  HG  LEU d   1       4.276   0.343  -7.899  0.00  0.00     0.030 H 
BRANCH  55  57
ATOM     57  CD1 LEU d   1       2.450  -0.469  -8.701  0.00  0.00    -0.063 C 
ATOM     58 1HD1 LEU d   1       3.112  -0.854  -9.477  0.00  0.00     0.023 H 
ATOM     59 2HD1 LEU d   1       2.108  -1.292  -8.075  0.00  0.00     0.023 H 
ATOM     60 3HD1 LEU d   1       1.592   0.016  -9.164  0.00  0.00     0.023 H 
ENDBRANCH  55  57
BRANCH  55  61
ATOM     61  CD2 LEU d   1       2.927   1.959  -8.355  0.00  0.00    -0.063 C 
ATOM     62 1HD2 LEU d   1       3.578   2.668  -7.841  0.00  0.00     0.023 H 
ATOM     63 2HD2 LEU d   1       3.119   2.001  -9.428  0.00  0.00     0.023 H 
ATOM     64 3HD2 LEU d   1       1.887   2.216  -8.162  0.00  0.00     0.023 H 
ENDBRANCH  55  61
ENDBRANCH  52  55
ENDBRANCH  45  52
ENDBRANCH  40  43
ENDBRANCH  39  40
ENDBRANCH   1  39
BRANCH   5  65
ATOM     65  C   UNK d   0      11.659   4.861  -3.884  0.00  0.00    -0.056 C 
ATOM     66  H   UNK d   0      12.096   3.908  -4.181  0.00  0.00     0.024 H 
ATOM     67  H   UNK d   0      12.163   5.671  -4.412  0.00  0.00     0.024 H 
ATOM     68  H   UNK d   0      11.780   4.997  -2.809  0.00  0.00     0.024 H 
ENDBRANCH   5  65
BRANCH  10  69
ATOM     69  C   UNK d   0      11.588   8.414  -2.229  0.00  0.00    -0.056 C 
ATOM     70  H   UNK d   0      11.779   7.575  -1.560  0.00  0.00     0.024 H 
ATOM     71  H   UNK d   0      11.970   8.181  -3.223  0.00  0.00     0.024 H 
ATOM     72  H   UNK d   0      12.091   9.304  -1.846  0.00  0.00     0.024 H 
ENDBRANCH  10  69
BRANCH  21  73
ATOM     73  C   UNK d   0      10.786  10.567  -0.854  0.00  0.00     0.162 C 
ATOM     74  O   UNK d   0      11.689  11.299  -1.181  0.00  0.00    -0.295 OA
BRANCH  73  75
ATOM     75  C   UNK d   0      10.663  10.113   0.578  0.00  0.00    -0.003 C 
ATOM     76  H   UNK d   0      10.462   9.134   0.601  0.00  0.00     0.031 H 
ATOM     77  H   UNK d   0      11.600  10.304   1.102  0.00  0.00     0.031 H 
ATOM     78  H   UNK d   0       9.857  10.661   1.065  0.00  0.00     0.031 H 
ENDBRANCH  73  75
ENDBRANCH  21  73
BRANCH  21  79
ATOM     79  O   UNK d   0       8.457  10.196  -1.349  0.00  0.00    -0.381 OA
ATOM     80  H   UNK d   0       8.166   9.403  -0.879  0.00  0.00     0.211 HD
ENDBRANCH  21  79
TORSDOF 14
ENDMDL
MODEL 8
REMARK VINA RESULT:      -7.1      1.647      2.050
REMARK  12 active torsions:
REMARK  status: ('A' for Active; 'I' for Inactive)
REMARK    1  A    between atoms: CD1_1  and  CG_2 
REMARK    2  A    between atoms: CG_2  and  CD2_3 
REMARK    3  A    between atoms: CG_2  and  CB_4 
REMARK    4  A    between atoms: CB_4  and  CA_5 
REMARK       I    between atoms: CA_5  and  C_7 
REMARK       I    between atoms: CA_5  and  N_9 
REMARK       I    between atoms: N_9  and  C_10 
REMARK    5  A    between atoms: C_10  and  C_12 
REMARK    6  A    between atoms: C_12  and  O_13 
REMARK    7  A    between atoms: O_13  and  N_14 
REMARK    8  A    between atoms: C_18  and  C_40 
REMARK    9  A    between atoms: C_23  and  C_39 
REMARK   10  A    between atoms: C_34  and  C_35 
REMARK   11  A    between atoms: C_34  and  O_38 
REMARK   12  A    between atoms: C_35  and  C_37 
ROOT
ATOM      1  N   UNK d   0       9.118   1.328  -4.865  0.00  0.00    -0.089 NA
ATOM      2  C   UNK d   0       9.821   2.401  -4.686  0.00  0.00     0.080 C 
ATOM      3  C   UNK d   0      11.309   2.341  -4.396  0.00  0.00    -0.006 C 
ATOM      4  C   UNK d   0      11.570   3.225  -3.177  0.00  0.00    -0.038 C 
ATOM      5  C   UNK d   0      11.113   4.654  -3.409  0.00  0.00    -0.007 C 
ATOM      6  C   UNK d   0      11.004   5.372  -2.058  0.00  0.00    -0.029 C 
ATOM      7  H   UNK d   0      10.278   4.841  -1.441  0.00  0.00     0.031 H 
ATOM      8  C   UNK d   0      12.358   5.345  -1.355  0.00  0.00    -0.049 C 
ATOM      9  C   UNK d   0      12.351   6.167  -0.055  0.00  0.00    -0.044 C 
ATOM     10  C   UNK d   0      11.942   7.580  -0.421  0.00  0.00     0.007 C 
ATOM     11  C   UNK d   0      10.480   7.513  -0.938  0.00  0.00    -0.029 C 
ATOM     12  H   UNK d   0       9.853   6.962  -0.237  0.00  0.00     0.031 H 
ATOM     13  C   UNK d   0      10.512   6.809  -2.282  0.00  0.00    -0.034 C 
ATOM     14  H   UNK d   0      11.186   7.331  -2.960  0.00  0.00     0.031 H 
ATOM     15  C   UNK d   0       9.102   6.766  -2.877  0.00  0.00    -0.046 C 
ATOM     16  C   UNK d   0       9.163   6.133  -4.268  0.00  0.00    -0.031 C 
ATOM     17  C   UNK d   0       9.821   4.771  -4.158  0.00  0.00    -0.062 C 
ATOM     18  C   UNK d   0       9.219   3.744  -4.747  0.00  0.00    -0.037 C 
ATOM     19  C   UNK d   0      10.074   8.991  -0.970  0.00  0.00    -0.046 C 
ATOM     20  C   UNK d   0      10.706   9.544   0.345  0.00  0.00    -0.016 C 
ATOM     21  C   UNK d   0      11.865   8.587   0.721  0.00  0.00     0.129 C 
ATOM     22  H   UNK d   0      11.603   1.314  -4.180  0.00  0.00     0.033 H 
ATOM     23  H   UNK d   0      11.869   2.717  -5.252  0.00  0.00     0.033 H 
ATOM     24  H   UNK d   0      12.639   3.224  -2.961  0.00  0.00     0.028 H 
ATOM     25  H   UNK d   0      11.036   2.815  -2.321  0.00  0.00     0.028 H 
ATOM     26  H   UNK d   0      13.111   5.753  -2.029  0.00  0.00     0.027 H 
ATOM     27  H   UNK d   0      12.612   4.312  -1.120  0.00  0.00     0.027 H 
ATOM     28  H   UNK d   0      13.348   6.170   0.386  0.00  0.00     0.027 H 
ATOM     29  H   UNK d   0      11.636   5.743   0.650  0.00  0.00     0.027 H 
ATOM     30  H   UNK d   0       8.707   7.779  -2.955  0.00  0.00     0.027 H 
ATOM     31  H   UNK d   0       8.452   6.171  -2.235  0.00  0.00     0.027 H 
ATOM     32  H   UNK d   0       9.747   6.768  -4.934  0.00  0.00     0.031 H 
ATOM     33  H   UNK d   0       8.153   6.019  -4.665  0.00  0.00     0.031 H 
ATOM     34  H   UNK d   0       8.286   3.894  -5.269  0.00  0.00     0.064 H 
ATOM     35  H   UNK d   0      10.503   9.490  -1.839  0.00  0.00     0.027 H 
ATOM     36  H   UNK d   0       8.989   9.093  -0.962  0.00  0.00     0.027 H 
ATOM     37  H   UNK d   0       9.954   9.549   1.134  0.00  0.00     0.030 H 
ATOM     38  H   UNK d   0      11.090  10.553   0.189  0.00  0.00     0.030 H 
ENDROOT
BRANCH   1  39
ATOM     39  O   UNK d   0       9.736   0.056  -4.800  0.00  0.00    -0.384 OA
BRANCH  39  40
ATOM     40  C   UNK d   0       9.291  -0.860  -5.802  0.00  0.00     0.193 C 
ATOM     41  H   UNK d   0       9.475  -0.436  -6.789  0.00  0.00     0.082 H 
ATOM     42  H   UNK d   0       9.834  -1.799  -5.703  0.00  0.00     0.082 H 
BRANCH  40  43
ATOM     43  C   UNK d   0       7.816  -1.113  -5.631  0.00  0.00     0.254 C 
ATOM     44  N   LEU d   1       7.310  -1.347  -4.403  0.00  0.00    -0.304 N 
ATOM     45  CA  LEU d   1       5.875  -1.593  -4.237  0.00  0.00     0.063 C 
ATOM     46  H   LEU d   1       7.895  -1.351  -3.631  0.00  0.00     0.149 HD
ATOM     47  HA  LEU d   1       5.318  -0.991  -4.954  0.00  0.00     0.056 H 
ATOM     48  C   LEU d   1       5.586  -3.053  -4.475  0.00  0.00     0.062 C 
ATOM     49  O   LEU d   1       6.486  -3.809  -4.755  0.00  0.00    -0.548 OA
ATOM     50  OXT LEU d   1       4.329  -3.513  -4.375  0.00  0.00    -0.548 OA
ATOM     51  O   UNK d   0       7.083  -1.109  -6.598  0.00  0.00    -0.272 OA
BRANCH  45  52
ATOM     52  CB  LEU d   1       5.455  -1.215  -2.815  0.00  0.00    -0.027 C 
ATOM     53  HB1 LEU d   1       5.061  -2.096  -2.307  0.00  0.00     0.029 H 
ATOM     54  HB2 LEU d   1       6.318  -0.836  -2.269  0.00  0.00     0.029 H 
BRANCH  52  55
ATOM     55  CG  LEU d   1       4.374  -0.135  -2.873  0.00  0.00    -0.045 C 
ATOM     56  HG  LEU d   1       4.440   0.395  -3.823  0.00  0.00     0.030 H 
BRANCH  55  57
ATOM     57  CD1 LEU d   1       2.995  -0.786  -2.749  0.00  0.00    -0.063 C 
ATOM     58 1HD1 LEU d   1       2.225  -0.058  -3.005  0.00  0.00     0.023 H 
ATOM     59 2HD1 LEU d   1       2.931  -1.635  -3.429  0.00  0.00     0.023 H 
ATOM     60 3HD1 LEU d   1       2.845  -1.128  -1.725  0.00  0.00     0.023 H 
ENDBRANCH  55  57
BRANCH  55  61
ATOM     61  CD2 LEU d   1       4.577   0.853  -1.723  0.00  0.00    -0.063 C 
ATOM     62 1HD2 LEU d   1       3.990   1.753  -1.909  0.00  0.00     0.023 H 
ATOM     63 2HD2 LEU d   1       4.254   0.394  -0.789  0.00  0.00     0.023 H 
ATOM     64 3HD2 LEU d   1       5.632   1.116  -1.653  0.00  0.00     0.023 H 
ENDBRANCH  55  61
ENDBRANCH  52  55
ENDBRANCH  45  52
ENDBRANCH  40  43
ENDBRANCH  39  40
ENDBRANCH   1  39
BRANCH   5  65
ATOM     65  C   UNK d   0      12.200   5.355  -4.227  0.00  0.00    -0.056 C 
ATOM     66  H   UNK d   0      11.796   6.270  -4.659  0.00  0.00     0.024 H 
ATOM     67  H   UNK d   0      13.042   5.600  -3.579  0.00  0.00     0.024 H 
ATOM     68  H   UNK d   0      12.537   4.693  -5.026  0.00  0.00     0.024 H 
ENDBRANCH   5  65
BRANCH  10  69
ATOM     69  C   UNK d   0      12.858   8.116  -1.523  0.00  0.00    -0.056 C 
ATOM     70  H   UNK d   0      13.593   8.794  -1.088  0.00  0.00     0.024 H 
ATOM     71  H   UNK d   0      13.373   7.285  -2.006  0.00  0.00     0.024 H 
ATOM     72  H   UNK d   0      12.262   8.653  -2.262  0.00  0.00     0.024 H 
ENDBRANCH  10  69
BRANCH  21  73
ATOM     73  C   UNK d   0      13.159   9.352   0.832  0.00  0.00     0.162 C 
ATOM     74  O   UNK d   0      14.132   8.825   1.315  0.00  0.00    -0.295 OA
BRANCH  73  75
ATOM     75  C   UNK d   0      13.237  10.775   0.340  0.00  0.00    -0.003 C 
ATOM     76  H   UNK d   0      13.489  11.375   1.099  0.00  0.00     0.031 H 
ATOM     77  H   UNK d   0      13.989  10.847  -0.446  0.00  0.00     0.031 H 
ATOM     78  H   UNK d   0      12.268  11.076  -0.055  0.00  0.00     0.031 H 
ENDBRANCH  73  75
ENDBRANCH  21  73
BRANCH  21  79
ATOM     79  O   UNK d   0      11.578   7.919   1.952  0.00  0.00    -0.381 OA
ATOM     80  H   UNK d   0      12.229   7.246   2.195  0.00  0.00     0.211 HD
ENDBRANCH  21  79
TORSDOF 14
ENDMDL
MODEL 9
REMARK VINA RESULT:      -6.8      1.729      2.408
REMARK  12 active torsions:
REMARK  status: ('A' for Active; 'I' for Inactive)
REMARK    1  A    between atoms: CD1_1  and  CG_2 
REMARK    2  A    between atoms: CG_2  and  CD2_3 
REMARK    3  A    between atoms: CG_2  and  CB_4 
REMARK    4  A    between atoms: CB_4  and  CA_5 
REMARK       I    between atoms: CA_5  and  C_7 
REMARK       I    between atoms: CA_5  and  N_9 
REMARK       I    between atoms: N_9  and  C_10 
REMARK    5  A    between atoms: C_10  and  C_12 
REMARK    6  A    between atoms: C_12  and  O_13 
REMARK    7  A    between atoms: O_13  and  N_14 
REMARK    8  A    between atoms: C_18  and  C_40 
REMARK    9  A    between atoms: C_23  and  C_39 
REMARK   10  A    between atoms: C_34  and  C_35 
REMARK   11  A    between atoms: C_34  and  O_38 
REMARK   12  A    between atoms: C_35  and  C_37 
ROOT
ATOM      1  N   UNK d   0       8.216   2.172  -5.338  0.00  0.00    -0.089 NA
ATOM      2  C   UNK d   0       9.091   3.038  -4.931  0.00  0.00     0.080 C 
ATOM      3  C   UNK d   0       9.936   2.797  -3.694  0.00  0.00    -0.006 C 
ATOM      4  C   UNK d   0       9.837   4.049  -2.824  0.00  0.00    -0.038 C 
ATOM      5  C   UNK d   0      10.294   5.290  -3.568  0.00  0.00    -0.007 C 
ATOM      6  C   UNK d   0       9.788   6.534  -2.829  0.00  0.00    -0.029 C 
ATOM      7  H   UNK d   0       8.699   6.498  -2.795  0.00  0.00     0.031 H 
ATOM      8  C   UNK d   0      10.325   6.533  -1.401  0.00  0.00    -0.049 C 
ATOM      9  C   UNK d   0       9.966   7.823  -0.646  0.00  0.00    -0.044 C 
ATOM     10  C   UNK d   0      10.525   8.982  -1.449  0.00  0.00     0.007 C 
ATOM     11  C   UNK d   0       9.767   9.007  -2.803  0.00  0.00    -0.029 C 
ATOM     12  H   UNK d   0       8.689   8.969  -2.638  0.00  0.00     0.031 H 
ATOM     13  C   UNK d   0      10.221   7.793  -3.594  0.00  0.00    -0.034 C 
ATOM     14  H   UNK d   0      11.305   7.807  -3.706  0.00  0.00     0.031 H 
ATOM     15  C   UNK d   0       9.553   7.794  -4.972  0.00  0.00    -0.046 C 
ATOM     16  C   UNK d   0      10.087   6.616  -5.789  0.00  0.00    -0.031 C 
ATOM     17  C   UNK d   0       9.867   5.336  -5.003  0.00  0.00    -0.062 C 
ATOM     18  C   UNK d   0       9.313   4.310  -5.638  0.00  0.00    -0.037 C 
ATOM     19  C   UNK d   0      10.170  10.367  -3.381  0.00  0.00    -0.046 C 
ATOM     20  C   UNK d   0      10.125  11.296  -2.127  0.00  0.00    -0.016 C 
ATOM     21  C   UNK d   0      10.288  10.379  -0.888  0.00  0.00     0.129 C 
ATOM     22  H   UNK d   0       9.556   1.933  -3.148  0.00  0.00     0.033 H 
ATOM     23  H   UNK d   0      10.974   2.627  -3.982  0.00  0.00     0.033 H 
ATOM     24  H   UNK d   0      10.459   3.915  -1.939  0.00  0.00     0.028 H 
ATOM     25  H   UNK d   0       8.801   4.183  -2.512  0.00  0.00     0.028 H 
ATOM     26  H   UNK d   0      11.410   6.431  -1.433  0.00  0.00     0.027 H 
ATOM     27  H   UNK d   0       9.904   5.681  -0.867  0.00  0.00     0.027 H 
ATOM     28  H   UNK d   0      10.414   7.809   0.348  0.00  0.00     0.027 H 
ATOM     29  H   UNK d   0       8.883   7.917  -0.563  0.00  0.00     0.027 H 
ATOM     30  H   UNK d   0       9.781   8.727  -5.487  0.00  0.00     0.027 H 
ATOM     31  H   UNK d   0       8.474   7.697  -4.855  0.00  0.00     0.027 H 
ATOM     32  H   UNK d   0      11.152   6.752  -5.975  0.00  0.00     0.031 H 
ATOM     33  H   UNK d   0       9.555   6.557  -6.739  0.00  0.00     0.031 H 
ATOM     34  H   UNK d   0       9.024   4.409  -6.674  0.00  0.00     0.064 H 
ATOM     35  H   UNK d   0      11.179  10.329  -3.791  0.00  0.00     0.027 H 
ATOM     36  H   UNK d   0       9.457  10.692  -4.140  0.00  0.00     0.027 H 
ATOM     37  H   UNK d   0       9.164  11.807  -2.090  0.00  0.00     0.030 H 
ATOM     38  H   UNK d   0      10.935  12.024  -2.162  0.00  0.00     0.030 H 
ENDROOT
BRANCH   1  39
ATOM     39  O   UNK d   0       8.035   0.960  -4.629  0.00  0.00    -0.384 OA
BRANCH  39  40
ATOM     40  C   UNK d   0       7.212   1.084  -3.467  0.00  0.00     0.193 C 
ATOM     41  H   UNK d   0       7.741   0.682  -2.603  0.00  0.00     0.082 H 
ATOM     42  H   UNK d   0       6.982   2.135  -3.296  0.00  0.00     0.082 H 
BRANCH  40  43
ATOM     43  C   UNK d   0       5.932   0.318  -3.675  0.00  0.00     0.254 C 
ATOM     44  N   LEU d   1       5.320   0.342  -4.875  0.00  0.00    -0.304 N 
ATOM     45  CA  LEU d   1       4.074  -0.403  -5.077  0.00  0.00     0.063 C 
ATOM     46  H   LEU d   1       5.703   0.851  -5.605  0.00  0.00     0.149 HD
ATOM     47  HA  LEU d   1       4.102  -1.324  -4.495  0.00  0.00     0.056 H 
ATOM     48  C   LEU d   1       2.907   0.438  -4.628  0.00  0.00     0.062 C 
ATOM     49  O   LEU d   1       3.097   1.546  -4.185  0.00  0.00    -0.548 OA
ATOM     50  OXT LEU d   1       1.657  -0.042  -4.721  0.00  0.00    -0.548 OA
ATOM     51  O   UNK d   0       5.451  -0.319  -2.761  0.00  0.00    -0.272 OA
BRANCH  45  52
ATOM     52  CB  LEU d   1       3.917  -0.741  -6.561  0.00  0.00    -0.027 C 
ATOM     53  HB1 LEU d   1       2.864  -0.911  -6.786  0.00  0.00     0.029 H 
ATOM     54  HB2 LEU d   1       4.289   0.087  -7.164  0.00  0.00     0.029 H 
BRANCH  52  55
ATOM     55  CG  LEU d   1       4.717  -2.005  -6.883  0.00  0.00    -0.045 C 
ATOM     56  HG  LEU d   1       5.749  -1.736  -7.104  0.00  0.00     0.030 H 
BRANCH  55  57
ATOM     57  CD1 LEU d   1       4.682  -2.951  -5.681  0.00  0.00    -0.063 C 
ATOM     58 1HD1 LEU d   1       4.080  -2.509  -4.888  0.00  0.00     0.023 H 
ATOM     59 2HD1 LEU d   1       4.246  -3.903  -5.980  0.00  0.00     0.023 H 
ATOM     60 3HD1 LEU d   1       5.697  -3.114  -5.318  0.00  0.00     0.023 H 
ENDBRANCH  55  57
BRANCH  55  61
ATOM     61  CD2 LEU d   1       4.101  -2.702  -8.098  0.00  0.00    -0.063 C 
ATOM     62 1HD2 LEU d   1       4.895  -3.035  -8.767  0.00  0.00     0.023 H 
ATOM     63 2HD2 LEU d   1       3.520  -3.563  -7.767  0.00  0.00     0.023 H 
ATOM     64 3HD2 LEU d   1       3.451  -2.006  -8.625  0.00  0.00     0.023 H 
ENDBRANCH  55  61
ENDBRANCH  52  55
ENDBRANCH  45  52
ENDBRANCH  40  43
ENDBRANCH  39  40
ENDBRANCH   1  39
BRANCH   5  65
ATOM     65  C   UNK d   0      11.824   5.309  -3.530  0.00  0.00    -0.056 C 
ATOM     66  H   UNK d   0      12.211   4.417  -4.021  0.00  0.00     0.024 H 
ATOM     67  H   UNK d   0      12.189   6.196  -4.048  0.00  0.00     0.024 H 
ATOM     68  H   UNK d   0      12.161   5.329  -2.493  0.00  0.00     0.024 H 
ENDBRANCH   5  65
BRANCH  10  69
ATOM     69  C   UNK d   0      12.020   8.768  -1.695  0.00  0.00    -0.056 C 
ATOM     70  H   UNK d   0      12.564   9.678  -1.440  0.00  0.00     0.024 H 
ATOM     71  H   UNK d   0      12.377   7.945  -1.076  0.00  0.00     0.024 H 
ATOM     72  H   UNK d   0      12.185   8.530  -2.747  0.00  0.00     0.024 H 
ENDBRANCH  10  69
BRANCH  21  73
ATOM     73  C   UNK d   0      11.472  10.820  -0.066  0.00  0.00     0.162 C 
ATOM     74  O   UNK d   0      12.283  11.582  -0.534  0.00  0.00    -0.295 OA
BRANCH  73  75
ATOM     75  C   UNK d   0      11.642  10.309   1.342  0.00  0.00    -0.003 C 
ATOM     76  H   UNK d   0      10.968   9.592   1.519  0.00  0.00     0.031 H 
ATOM     77  H   UNK d   0      12.646   9.902   1.462  0.00  0.00     0.031 H 
ATOM     78  H   UNK d   0      11.495  11.127   2.046  0.00  0.00     0.031 H 
ENDBRANCH  73  75
ENDBRANCH  21  73
BRANCH  21  79
ATOM     79  O   UNK d   0       9.099  10.400  -0.095  0.00  0.00    -0.381 OA
ATOM     80  H   UNK d   0       9.096   9.756   0.626  0.00  0.00     0.211 HD
ENDBRANCH  21  79
TORSDOF 14
ENDMDL
