MODEL 1
REMARK VINA RESULT:      -6.9      0.000      0.000
REMARK  6 active torsions:
REMARK  status: ('A' for Active; 'I' for Inactive)
REMARK    1  A    between atoms: C_1  and  C_2 
REMARK    2  A    between atoms: C_3  and  N_21 
REMARK    3  A    between atoms: C_5  and  C_11 
REMARK    4  A    between atoms: C_7  and  N_8 
REMARK       I    between atoms: C_11  and  N_13 
REMARK    5  A    between atoms: N_13  and  C_14 
REMARK    6  A    between atoms: C_14  and  C_15 
ROOT
ATOM      1  C   LIG d   1       3.048  -2.838 -10.269  0.00  0.00     0.103 A 
ATOM      2  C   LIG d   1       3.482  -3.151  -8.992  0.00  0.00     0.283 A 
ATOM      3  C   LIG d   1       3.452  -2.198  -7.996  0.00  0.00     0.028 A 
ATOM      4  C   LIG d   1       2.991  -0.911  -8.280  0.00  0.00     0.050 A 
ATOM      5  C   LIG d   1       2.558  -0.599  -9.570  0.00  0.00     0.028 A 
ATOM      6  C   LIG d   1       2.590  -1.563 -10.555  0.00  0.00     0.283 A 
ATOM      7  H   LIG d   1       3.788  -2.444  -6.999  0.00  0.00     0.069 H 
ATOM      8  H   LIG d   1       2.202   0.395  -9.796  0.00  0.00     0.069 H 
ENDROOT
BRANCH   4   9
ATOM      9  C   LIG d   1       2.961   0.118  -7.218  0.00  0.00     0.245 C 
ATOM     10  O   LIG d   1       3.398   1.231  -7.438  0.00  0.00    -0.270 OA
ATOM     11  N   LIG d   1       2.449  -0.178  -6.008  0.00  0.00    -0.307 N 
ATOM     12  H   LIG d   1       2.100  -1.066  -5.832  0.00  0.00     0.149 HD
BRANCH  11  13
ATOM     13  C   LIG d   1       2.419   0.841  -4.956  0.00  0.00     0.037 C 
ATOM     14  H   LIG d   1       2.892   1.752  -5.320  0.00  0.00     0.051 H 
ATOM     15  H   LIG d   1       1.385   1.052  -4.684  0.00  0.00     0.051 H 
BRANCH  13  16
ATOM     16  C   LIG d   1       3.164   0.337  -3.746  0.00  0.00    -0.030 A 
ATOM     17  C   LIG d   1       3.207  -1.018  -3.476  0.00  0.00    -0.057 A 
ATOM     18  C   LIG d   1       3.891  -1.480  -2.367  0.00  0.00    -0.061 A 
ATOM     19  H   LIG d   1       2.707  -1.716  -4.131  0.00  0.00     0.062 H 
ATOM     20  C   LIG d   1       4.531  -0.587  -1.528  0.00  0.00    -0.062 A 
ATOM     21  H   LIG d   1       3.926  -2.539  -2.156  0.00  0.00     0.062 H 
ATOM     22  C   LIG d   1       4.488   0.767  -1.799  0.00  0.00    -0.061 A 
ATOM     23  H   LIG d   1       5.065  -0.949  -0.661  0.00  0.00     0.062 H 
ATOM     24  C   LIG d   1       3.809   1.230  -2.911  0.00  0.00    -0.057 A 
ATOM     25  H   LIG d   1       4.988   1.466  -1.143  0.00  0.00     0.062 H 
ATOM     26  H   LIG d   1       3.779   2.288  -3.124  0.00  0.00     0.062 H 
ENDBRANCH  13  16
ENDBRANCH  11  13
ENDBRANCH   4   9
BRANCH   2  27
ATOM     27  N   LIG d   1       3.976  -4.514  -8.695  0.00  0.00     0.080 N 
ATOM     28  O   LIG d   1       5.152  -4.785  -8.860  0.00  0.00     0.042 OA
ATOM     29  O   LIG d   1       3.207  -5.365  -8.285  0.00  0.00    -0.576 OA
ENDBRANCH   2  27
BRANCH   6  30
ATOM     30  N   LIG d   1       2.131  -1.235 -11.924  0.00  0.00     0.080 N 
ATOM     31  O   LIG d   1       0.944  -1.264 -12.192  0.00  0.00     0.042 OA
ATOM     32  O   LIG d   1       2.942  -0.935 -12.783  0.00  0.00    -0.576 OA
ENDBRANCH   6  30
BRANCH   1  33
ATOM     33  C   LIG d   1       3.079  -3.885 -11.350  0.00  0.00    -0.027 C 
ATOM     34  H   LIG d   1       2.194  -3.786 -11.979  0.00  0.00     0.028 H 
ATOM     35  H   LIG d   1       3.973  -3.753 -11.959  0.00  0.00     0.028 H 
ATOM     36  H   LIG d   1       3.091  -4.876 -10.896  0.00  0.00     0.028 H 
ENDBRANCH   1  33
TORSDOF 6
ENDMDL
MODEL 2
REMARK VINA RESULT:      -6.8      0.147      3.344
REMARK  6 active torsions:
REMARK  status: ('A' for Active; 'I' for Inactive)
REMARK    1  A    between atoms: C_1  and  C_2 
REMARK    2  A    between atoms: C_3  and  N_21 
REMARK    3  A    between atoms: C_5  and  C_11 
REMARK    4  A    between atoms: C_7  and  N_8 
REMARK       I    between atoms: C_11  and  N_13 
REMARK    5  A    between atoms: N_13  and  C_14 
REMARK    6  A    between atoms: C_14  and  C_15 
ROOT
ATOM      1  C   LIG d   1       3.122  -2.773 -10.297  0.00  0.00     0.103 A 
ATOM      2  C   LIG d   1       2.563  -1.533 -10.554  0.00  0.00     0.283 A 
ATOM      3  C   LIG d   1       2.521  -0.574  -9.564  0.00  0.00     0.028 A 
ATOM      4  C   LIG d   1       3.033  -0.859  -8.297  0.00  0.00     0.050 A 
ATOM      5  C   LIG d   1       3.591  -2.113  -8.042  0.00  0.00     0.028 A 
ATOM      6  C   LIG d   1       3.632  -3.062  -9.043  0.00  0.00     0.283 A 
ATOM      7  H   LIG d   1       2.088   0.395  -9.767  0.00  0.00     0.069 H 
ATOM      8  H   LIG d   1       3.988  -2.341  -7.064  0.00  0.00     0.069 H 
ENDROOT
BRANCH   4   9
ATOM      9  C   LIG d   1       2.986   0.163  -7.229  0.00  0.00     0.245 C 
ATOM     10  O   LIG d   1       3.384   1.290  -7.449  0.00  0.00    -0.270 OA
ATOM     11  N   LIG d   1       2.503  -0.156  -6.013  0.00  0.00    -0.307 N 
ATOM     12  H   LIG d   1       2.185  -1.055  -5.837  0.00  0.00     0.149 HD
BRANCH  11  13
ATOM     13  C   LIG d   1       2.456   0.857  -4.955  0.00  0.00     0.037 C 
ATOM     14  H   LIG d   1       2.931   1.772  -5.308  0.00  0.00     0.051 H 
ATOM     15  H   LIG d   1       1.418   1.063  -4.694  0.00  0.00     0.051 H 
BRANCH  13  16
ATOM     16  C   LIG d   1       3.189   0.348  -3.740  0.00  0.00    -0.030 A 
ATOM     17  C   LIG d   1       3.832   1.235  -2.898  0.00  0.00    -0.057 A 
ATOM     18  C   LIG d   1       4.503   0.768  -1.783  0.00  0.00    -0.061 A 
ATOM     19  H   LIG d   1       3.810   2.294  -3.111  0.00  0.00     0.062 H 
ATOM     20  C   LIG d   1       4.531  -0.587  -1.511  0.00  0.00    -0.062 A 
ATOM     21  H   LIG d   1       5.005   1.462  -1.125  0.00  0.00     0.062 H 
ATOM     22  C   LIG d   1       3.888  -1.474  -2.352  0.00  0.00    -0.061 A 
ATOM     23  H   LIG d   1       5.057  -0.952  -0.640  0.00  0.00     0.062 H 
ATOM     24  C   LIG d   1       3.211  -1.007  -3.464  0.00  0.00    -0.057 A 
ATOM     25  H   LIG d   1       3.910  -2.533  -2.141  0.00  0.00     0.062 H 
ATOM     26  H   LIG d   1       2.705  -1.700  -4.120  0.00  0.00     0.062 H 
ENDBRANCH  13  16
ENDBRANCH  11  13
ENDBRANCH   4   9
BRANCH   2  27
ATOM     27  N   LIG d   1       2.015  -1.235 -11.895  0.00  0.00     0.080 N 
ATOM     28  O   LIG d   1       0.812  -1.267 -12.083  0.00  0.00     0.042 OA
ATOM     29  O   LIG d   1       2.766  -0.956 -12.812  0.00  0.00    -0.576 OA
ENDBRANCH   2  27
BRANCH   6  30
ATOM     30  N   LIG d   1       4.222  -4.392  -8.775  0.00  0.00     0.080 N 
ATOM     31  O   LIG d   1       5.406  -4.588  -8.987  0.00  0.00     0.042 OA
ATOM     32  O   LIG d   1       3.525  -5.293  -8.341  0.00  0.00    -0.576 OA
ENDBRANCH   6  30
BRANCH   1  33
ATOM     33  C   LIG d   1       3.170  -3.814 -11.384  0.00  0.00    -0.027 C 
ATOM     34  H   LIG d   1       3.742  -4.676 -11.039  0.00  0.00     0.028 H 
ATOM     35  H   LIG d   1       2.156  -4.129 -11.631  0.00  0.00     0.028 H 
ATOM     36  H   LIG d   1       3.646  -3.394 -12.269  0.00  0.00     0.028 H 
ENDBRANCH   1  33
TORSDOF 6
ENDMDL
MODEL 3
REMARK VINA RESULT:      -6.7      1.727      2.303
REMARK  6 active torsions:
REMARK  status: ('A' for Active; 'I' for Inactive)
REMARK    1  A    between atoms: C_1  and  C_2 
REMARK    2  A    between atoms: C_3  and  N_21 
REMARK    3  A    between atoms: C_5  and  C_11 
REMARK    4  A    between atoms: C_7  and  N_8 
REMARK       I    between atoms: C_11  and  N_13 
REMARK    5  A    between atoms: N_13  and  C_14 
REMARK    6  A    between atoms: C_14  and  C_15 
ROOT
ATOM      1  C   LIG d   1       3.689  -1.707 -10.740  0.00  0.00     0.103 A 
ATOM      2  C   LIG d   1       4.740  -1.181 -10.009  0.00  0.00     0.283 A 
ATOM      3  C   LIG d   1       4.492  -0.455  -8.863  0.00  0.00     0.028 A 
ATOM      4  C   LIG d   1       3.177  -0.242  -8.445  0.00  0.00     0.050 A 
ATOM      5  C   LIG d   1       2.121  -0.772  -9.189  0.00  0.00     0.028 A 
ATOM      6  C   LIG d   1       2.383  -1.500 -10.330  0.00  0.00     0.283 A 
ATOM      7  H   LIG d   1       5.314  -0.047  -8.291  0.00  0.00     0.069 H 
ATOM      8  H   LIG d   1       1.101  -0.610  -8.872  0.00  0.00     0.069 H 
ENDROOT
BRANCH   4   9
ATOM      9  C   LIG d   1       2.904   0.540  -7.220  0.00  0.00     0.245 C 
ATOM     10  O   LIG d   1       2.934   1.755  -7.255  0.00  0.00    -0.270 OA
ATOM     11  N   LIG d   1       2.621  -0.095  -6.065  0.00  0.00    -0.307 N 
ATOM     12  H   LIG d   1       2.597  -1.064  -6.037  0.00  0.00     0.149 HD
BRANCH  11  13
ATOM     13  C   LIG d   1       2.351   0.680  -4.852  0.00  0.00     0.037 C 
ATOM     14  H   LIG d   1       2.656   1.715  -5.006  0.00  0.00     0.051 H 
ATOM     15  H   LIG d   1       1.285   0.645  -4.628  0.00  0.00     0.051 H 
BRANCH  13  16
ATOM     16  C   LIG d   1       3.126   0.095  -3.699  0.00  0.00    -0.030 A 
ATOM     17  C   LIG d   1       3.802   0.927  -2.826  0.00  0.00    -0.057 A 
ATOM     18  C   LIG d   1       4.511   0.390  -1.769  0.00  0.00    -0.061 A 
ATOM     19  H   LIG d   1       3.774   1.997  -2.970  0.00  0.00     0.062 H 
ATOM     20  C   LIG d   1       4.547  -0.979  -1.585  0.00  0.00    -0.062 A 
ATOM     21  H   LIG d   1       5.039   1.040  -1.087  0.00  0.00     0.062 H 
ATOM     22  C   LIG d   1       3.872  -1.812  -2.457  0.00  0.00    -0.061 A 
ATOM     23  H   LIG d   1       5.103  -1.399  -0.759  0.00  0.00     0.062 H 
ATOM     24  C   LIG d   1       3.156  -1.275  -3.511  0.00  0.00    -0.057 A 
ATOM     25  H   LIG d   1       3.900  -2.882  -2.314  0.00  0.00     0.062 H 
ATOM     26  H   LIG d   1       2.625  -1.925  -4.190  0.00  0.00     0.062 H 
ENDBRANCH  13  16
ENDBRANCH  11  13
ENDBRANCH   4   9
BRANCH   2  27
ATOM     27  N   LIG d   1       6.133  -1.401 -10.456  0.00  0.00     0.080 N 
ATOM     28  O   LIG d   1       6.663  -0.606 -11.211  0.00  0.00     0.042 OA
ATOM     29  O   LIG d   1       6.750  -2.378 -10.070  0.00  0.00    -0.576 OA
ENDBRANCH   2  27
BRANCH   6  30
ATOM     30  N   LIG d   1       1.265  -2.062 -11.120  0.00  0.00     0.080 N 
ATOM     31  O   LIG d   1       0.811  -3.158 -10.840  0.00  0.00     0.042 OA
ATOM     32  O   LIG d   1       0.796  -1.430 -12.050  0.00  0.00    -0.576 OA
ENDBRANCH   6  30
BRANCH   1  33
ATOM     33  C   LIG d   1       3.967  -2.503 -11.987  0.00  0.00    -0.027 C 
ATOM     34  H   LIG d   1       3.682  -1.920 -12.863  0.00  0.00     0.028 H 
ATOM     35  H   LIG d   1       5.030  -2.739 -12.038  0.00  0.00     0.028 H 
ATOM     36  H   LIG d   1       3.390  -3.428 -11.964  0.00  0.00     0.028 H 
ENDBRANCH   1  33
TORSDOF 6
ENDMDL
MODEL 4
REMARK VINA RESULT:      -6.7      1.749      2.797
REMARK  6 active torsions:
REMARK  status: ('A' for Active; 'I' for Inactive)
REMARK    1  A    between atoms: C_1  and  C_2 
REMARK    2  A    between atoms: C_3  and  N_21 
REMARK    3  A    between atoms: C_5  and  C_11 
REMARK    4  A    between atoms: C_7  and  N_8 
REMARK       I    between atoms: C_11  and  N_13 
REMARK    5  A    between atoms: N_13  and  C_14 
REMARK    6  A    between atoms: C_14  and  C_15 
ROOT
ATOM      1  C   LIG d   1       3.696  -1.648 -10.750  0.00  0.00     0.103 A 
ATOM      2  C   LIG d   1       2.388  -1.454 -10.339  0.00  0.00     0.283 A 
ATOM      3  C   LIG d   1       2.122  -0.733  -9.194  0.00  0.00     0.028 A 
ATOM      4  C   LIG d   1       3.174  -0.207  -8.443  0.00  0.00     0.050 A 
ATOM      5  C   LIG d   1       4.491  -0.409  -8.860  0.00  0.00     0.028 A 
ATOM      6  C   LIG d   1       4.743  -1.128 -10.010  0.00  0.00     0.283 A 
ATOM      7  H   LIG d   1       1.101  -0.580  -8.875  0.00  0.00     0.069 H 
ATOM      8  H   LIG d   1       5.310  -0.006  -8.283  0.00  0.00     0.069 H 
ENDROOT
BRANCH   4   9
ATOM      9  C   LIG d   1       2.896   0.563  -7.211  0.00  0.00     0.245 C 
ATOM     10  O   LIG d   1       2.926   1.778  -7.234  0.00  0.00    -0.270 OA
ATOM     11  N   LIG d   1       2.609  -0.083  -6.064  0.00  0.00    -0.307 N 
ATOM     12  H   LIG d   1       2.586  -1.053  -6.045  0.00  0.00     0.149 HD
BRANCH  11  13
ATOM     13  C   LIG d   1       2.334   0.679  -4.844  0.00  0.00     0.037 C 
ATOM     14  H   LIG d   1       2.631   1.718  -4.989  0.00  0.00     0.051 H 
ATOM     15  H   LIG d   1       1.268   0.634  -4.620  0.00  0.00     0.051 H 
BRANCH  13  16
ATOM     16  C   LIG d   1       3.114   0.090  -3.696  0.00  0.00    -0.030 A 
ATOM     17  C   LIG d   1       3.150  -1.280  -3.516  0.00  0.00    -0.057 A 
ATOM     18  C   LIG d   1       3.866  -1.820  -2.464  0.00  0.00    -0.061 A 
ATOM     19  H   LIG d   1       2.619  -1.929  -4.197  0.00  0.00     0.062 H 
ATOM     20  C   LIG d   1       4.545  -0.990  -1.592  0.00  0.00    -0.062 A 
ATOM     21  H   LIG d   1       3.895  -2.890  -2.323  0.00  0.00     0.062 H 
ATOM     22  C   LIG d   1       4.509   0.380  -1.772  0.00  0.00    -0.061 A 
ATOM     23  H   LIG d   1       5.104  -1.412  -0.769  0.00  0.00     0.062 H 
ATOM     24  C   LIG d   1       3.798   0.920  -2.828  0.00  0.00    -0.057 A 
ATOM     25  H   LIG d   1       5.039   1.029  -1.091  0.00  0.00     0.062 H 
ATOM     26  H   LIG d   1       3.774   1.990  -2.971  0.00  0.00     0.062 H 
ENDBRANCH  13  16
ENDBRANCH  11  13
ENDBRANCH   4   9
BRANCH   2  27
ATOM     27  N   LIG d   1       1.274  -2.018 -11.132  0.00  0.00     0.080 N 
ATOM     28  O   LIG d   1       0.799  -1.380 -12.055  0.00  0.00     0.042 OA
ATOM     29  O   LIG d   1       0.832  -3.121 -10.864  0.00  0.00    -0.576 OA
ENDBRANCH   2  27
BRANCH   6  30
ATOM     30  N   LIG d   1       6.139  -1.344 -10.454  0.00  0.00     0.080 N 
ATOM     31  O   LIG d   1       6.779  -2.283 -10.016  0.00  0.00     0.042 OA
ATOM     32  O   LIG d   1       6.647  -0.583 -11.259  0.00  0.00    -0.576 OA
ENDBRANCH   6  30
BRANCH   1  33
ATOM     33  C   LIG d   1       3.979  -2.431 -12.004  0.00  0.00    -0.027 C 
ATOM     34  H   LIG d   1       5.038  -2.690 -12.041  0.00  0.00     0.028 H 
ATOM     35  H   LIG d   1       3.383  -3.344 -12.006  0.00  0.00     0.028 H 
ATOM     36  H   LIG d   1       3.723  -1.829 -12.875  0.00  0.00     0.028 H 
ENDBRANCH   1  33
TORSDOF 6
ENDMDL
MODEL 5
REMARK VINA RESULT:      -6.6      7.238     10.262
REMARK  6 active torsions:
REMARK  status: ('A' for Active; 'I' for Inactive)
REMARK    1  A    between atoms: C_1  and  C_2 
REMARK    2  A    between atoms: C_3  and  N_21 
REMARK    3  A    between atoms: C_5  and  C_11 
REMARK    4  A    between atoms: C_7  and  N_8 
REMARK       I    between atoms: C_11  and  N_13 
REMARK    5  A    between atoms: N_13  and  C_14 
REMARK    6  A    between atoms: C_14  and  C_15 
ROOT
ATOM      1  C   LIG d   1      10.327   6.367  -3.502  0.00  0.00     0.103 A 
ATOM      2  C   LIG d   1      10.276   5.326  -2.590  0.00  0.00     0.283 A 
ATOM      3  C   LIG d   1       9.778   4.097  -2.970  0.00  0.00     0.028 A 
ATOM      4  C   LIG d   1       9.316   3.907  -4.273  0.00  0.00     0.050 A 
ATOM      5  C   LIG d   1       9.366   4.961  -5.187  0.00  0.00     0.028 A 
ATOM      6  C   LIG d   1       9.871   6.184  -4.795  0.00  0.00     0.283 A 
ATOM      7  H   LIG d   1       9.742   3.284  -2.259  0.00  0.00     0.069 H 
ATOM      8  H   LIG d   1       9.009   4.821  -6.196  0.00  0.00     0.069 H 
ENDROOT
BRANCH   4   9
ATOM      9  C   LIG d   1       8.776   2.593  -4.686  0.00  0.00     0.245 C 
ATOM     10  O   LIG d   1       8.914   2.212  -5.832  0.00  0.00    -0.270 OA
ATOM     11  N   LIG d   1       8.132   1.819  -3.791  0.00  0.00    -0.307 N 
ATOM     12  H   LIG d   1       8.022   2.122  -2.876  0.00  0.00     0.149 HD
BRANCH  11  13
ATOM     13  C   LIG d   1       7.597   0.517  -4.199  0.00  0.00     0.037 C 
ATOM     14  H   LIG d   1       7.309   0.556  -5.250  0.00  0.00     0.051 H 
ATOM     15  H   LIG d   1       8.360  -0.249  -4.060  0.00  0.00     0.051 H 
BRANCH  13  16
ATOM     16  C   LIG d   1       6.390   0.184  -3.360  0.00  0.00    -0.030 A 
ATOM     17  C   LIG d   1       5.652   1.197  -2.777  0.00  0.00    -0.057 A 
ATOM     18  C   LIG d   1       4.545   0.891  -2.009  0.00  0.00    -0.061 A 
ATOM     19  H   LIG d   1       5.940   2.228  -2.924  0.00  0.00     0.062 H 
ATOM     20  C   LIG d   1       4.176  -0.428  -1.821  0.00  0.00    -0.062 A 
ATOM     21  H   LIG d   1       3.968   1.683  -1.554  0.00  0.00     0.062 H 
ATOM     22  C   LIG d   1       4.914  -1.441  -2.404  0.00  0.00    -0.061 A 
ATOM     23  H   LIG d   1       3.311  -0.666  -1.219  0.00  0.00     0.062 H 
ATOM     24  C   LIG d   1       6.018  -1.135  -3.178  0.00  0.00    -0.057 A 
ATOM     25  H   LIG d   1       4.627  -2.472  -2.257  0.00  0.00     0.062 H 
ATOM     26  H   LIG d   1       6.592  -1.926  -3.636  0.00  0.00     0.062 H 
ENDBRANCH  13  16
ENDBRANCH  11  13
ENDBRANCH   4   9
BRANCH   2  27
ATOM     27  N   LIG d   1      10.760   5.532  -1.208  0.00  0.00     0.080 N 
ATOM     28  O   LIG d   1      11.853   5.108  -0.875  0.00  0.00     0.042 OA
ATOM     29  O   LIG d   1      10.067   6.125  -0.401  0.00  0.00    -0.576 OA
ENDBRANCH   2  27
BRANCH   6  30
ATOM     30  N   LIG d   1       9.925   7.303  -5.762  0.00  0.00     0.080 N 
ATOM     31  O   LIG d   1      10.896   7.439  -6.484  0.00  0.00     0.042 OA
ATOM     32  O   LIG d   1       8.997   8.090  -5.836  0.00  0.00    -0.576 OA
ENDBRANCH   6  30
BRANCH   1  33
ATOM     33  C   LIG d   1      10.877   7.705  -3.082  0.00  0.00    -0.027 C 
ATOM     34  H   LIG d   1      10.116   8.253  -2.526  0.00  0.00     0.028 H 
ATOM     35  H   LIG d   1      11.752   7.556  -2.449  0.00  0.00     0.028 H 
ATOM     36  H   LIG d   1      11.161   8.275  -3.966  0.00  0.00     0.028 H 
ENDBRANCH   1  33
TORSDOF 6
ENDMDL
MODEL 6
REMARK VINA RESULT:      -6.3      7.201     10.516
REMARK  6 active torsions:
REMARK  status: ('A' for Active; 'I' for Inactive)
REMARK    1  A    between atoms: C_1  and  C_2 
REMARK    2  A    between atoms: C_3  and  N_21 
REMARK    3  A    between atoms: C_5  and  C_11 
REMARK    4  A    between atoms: C_7  and  N_8 
REMARK       I    between atoms: C_11  and  N_13 
REMARK    5  A    between atoms: N_13  and  C_14 
REMARK    6  A    between atoms: C_14  and  C_15 
ROOT
ATOM      1  C   LIG d   1      10.243   6.360  -3.883  0.00  0.00     0.103 A 
ATOM      2  C   LIG d   1       9.996   5.918  -5.171  0.00  0.00     0.283 A 
ATOM      3  C   LIG d   1       9.613   4.611  -5.394  0.00  0.00     0.028 A 
ATOM      4  C   LIG d   1       9.484   3.732  -4.317  0.00  0.00     0.050 A 
ATOM      5  C   LIG d   1       9.738   4.182  -3.021  0.00  0.00     0.028 A 
ATOM      6  C   LIG d   1      10.116   5.492  -2.812  0.00  0.00     0.283 A 
ATOM      7  H   LIG d   1       9.417   4.268  -6.400  0.00  0.00     0.069 H 
ATOM      8  H   LIG d   1       9.642   3.507  -2.184  0.00  0.00     0.069 H 
ENDROOT
BRANCH   4   9
ATOM      9  C   LIG d   1       9.079   2.328  -4.549  0.00  0.00     0.245 C 
ATOM     10  O   LIG d   1       9.756   1.610  -5.259  0.00  0.00    -0.270 OA
ATOM     11  N   LIG d   1       7.959   1.847  -3.975  0.00  0.00    -0.307 N 
ATOM     12  H   LIG d   1       7.419   2.421  -3.409  0.00  0.00     0.149 HD
BRANCH  11  13
ATOM     13  C   LIG d   1       7.558   0.457  -4.205  0.00  0.00     0.037 C 
ATOM     14  H   LIG d   1       7.302   0.322  -5.255  0.00  0.00     0.051 H 
ATOM     15  H   LIG d   1       8.381  -0.207  -3.943  0.00  0.00     0.051 H 
BRANCH  13  16
ATOM     16  C   LIG d   1       6.359   0.133  -3.350  0.00  0.00    -0.030 A 
ATOM     17  C   LIG d   1       5.666   1.147  -2.717  0.00  0.00    -0.057 A 
ATOM     18  C   LIG d   1       4.566   0.849  -1.935  0.00  0.00    -0.061 A 
ATOM     19  H   LIG d   1       5.984   2.173  -2.834  0.00  0.00     0.062 H 
ATOM     20  C   LIG d   1       4.160  -0.463  -1.785  0.00  0.00    -0.062 A 
ATOM     21  H   LIG d   1       4.025   1.642  -1.440  0.00  0.00     0.062 H 
ATOM     22  C   LIG d   1       4.852  -1.477  -2.418  0.00  0.00    -0.061 A 
ATOM     23  H   LIG d   1       3.301  -0.695  -1.172  0.00  0.00     0.062 H 
ATOM     24  C   LIG d   1       5.949  -1.180  -3.206  0.00  0.00    -0.057 A 
ATOM     25  H   LIG d   1       4.535  -2.504  -2.301  0.00  0.00     0.062 H 
ATOM     26  H   LIG d   1       6.487  -1.972  -3.704  0.00  0.00     0.062 H 
ENDBRANCH  13  16
ENDBRANCH  11  13
ENDBRANCH   4   9
BRANCH   2  27
ATOM     27  N   LIG d   1      10.139   6.850  -6.311  0.00  0.00     0.080 N 
ATOM     28  O   LIG d   1       9.243   7.631  -6.576  0.00  0.00     0.042 OA
ATOM     29  O   LIG d   1      11.153   6.836  -6.986  0.00  0.00    -0.576 OA
ENDBRANCH   2  27
BRANCH   6  30
ATOM     30  N   LIG d   1      10.386   5.972  -1.438  0.00  0.00     0.080 N 
ATOM     31  O   LIG d   1       9.551   6.634  -0.848  0.00  0.00     0.042 OA
ATOM     32  O   LIG d   1      11.444   5.705  -0.896  0.00  0.00    -0.576 OA
ENDBRANCH   6  30
BRANCH   1  33
ATOM     33  C   LIG d   1      10.655   7.789  -3.647  0.00  0.00    -0.027 C 
ATOM     34  H   LIG d   1      11.393   7.827  -2.845  0.00  0.00     0.028 H 
ATOM     35  H   LIG d   1      11.090   8.197  -4.559  0.00  0.00     0.028 H 
ATOM     36  H   LIG d   1       9.782   8.377  -3.365  0.00  0.00     0.028 H 
ENDBRANCH   1  33
TORSDOF 6
ENDMDL
MODEL 7
REMARK VINA RESULT:      -6.1      7.536     10.484
REMARK  6 active torsions:
REMARK  status: ('A' for Active; 'I' for Inactive)
REMARK    1  A    between atoms: C_1  and  C_2 
REMARK    2  A    between atoms: C_3  and  N_21 
REMARK    3  A    between atoms: C_5  and  C_11 
REMARK    4  A    between atoms: C_7  and  N_8 
REMARK       I    between atoms: C_11  and  N_13 
REMARK    5  A    between atoms: N_13  and  C_14 
REMARK    6  A    between atoms: C_14  and  C_15 
ROOT
ATOM      1  C   LIG d   1      11.912   4.539  -2.775  0.00  0.00     0.103 A 
ATOM      2  C   LIG d   1      12.285   3.489  -3.597  0.00  0.00     0.283 A 
ATOM      3  C   LIG d   1      11.324   2.673  -4.157  0.00  0.00     0.028 A 
ATOM      4  C   LIG d   1       9.974   2.901  -3.884  0.00  0.00     0.050 A 
ATOM      5  C   LIG d   1       9.604   3.958  -3.050  0.00  0.00     0.028 A 
ATOM      6  C   LIG d   1      10.575   4.769  -2.502  0.00  0.00     0.283 A 
ATOM      7  H   LIG d   1      11.615   1.856  -4.801  0.00  0.00     0.069 H 
ATOM      8  H   LIG d   1       8.562   4.139  -2.835  0.00  0.00     0.069 H 
ENDROOT
BRANCH   4   9
ATOM      9  C   LIG d   1       8.938   2.026  -4.476  0.00  0.00     0.245 C 
ATOM     10  O   LIG d   1       8.412   2.334  -5.528  0.00  0.00    -0.270 OA
ATOM     11  N   LIG d   1       8.578   0.889  -3.849  0.00  0.00    -0.307 N 
ATOM     12  H   LIG d   1       8.998   0.644  -3.010  0.00  0.00     0.149 HD
BRANCH  11  13
ATOM     13  C   LIG d   1       7.553   0.023  -4.436  0.00  0.00     0.037 C 
ATOM     14  H   LIG d   1       7.213   0.450  -5.379  0.00  0.00     0.051 H 
ATOM     15  H   LIG d   1       7.972  -0.967  -4.615  0.00  0.00     0.051 H 
BRANCH  13  16
ATOM     16  C   LIG d   1       6.387  -0.089  -3.487  0.00  0.00    -0.030 A 
ATOM     17  C   LIG d   1       5.886  -1.332  -3.149  0.00  0.00    -0.057 A 
ATOM     18  C   LIG d   1       4.818  -1.434  -2.278  0.00  0.00    -0.061 A 
ATOM     19  H   LIG d   1       6.331  -2.225  -3.565  0.00  0.00     0.062 H 
ATOM     20  C   LIG d   1       4.249  -0.292  -1.746  0.00  0.00    -0.062 A 
ATOM     21  H   LIG d   1       4.427  -2.406  -2.014  0.00  0.00     0.062 H 
ATOM     22  C   LIG d   1       4.749   0.951  -2.083  0.00  0.00    -0.061 A 
ATOM     23  H   LIG d   1       3.413  -0.373  -1.066  0.00  0.00     0.062 H 
ATOM     24  C   LIG d   1       5.822   1.053  -2.949  0.00  0.00    -0.057 A 
ATOM     25  H   LIG d   1       4.305   1.843  -1.667  0.00  0.00     0.062 H 
ATOM     26  H   LIG d   1       6.216   2.025  -3.209  0.00  0.00     0.062 H 
ENDBRANCH  13  16
ENDBRANCH  11  13
ENDBRANCH   4   9
BRANCH   2  27
ATOM     27  N   LIG d   1      13.716   3.245  -3.880  0.00  0.00     0.080 N 
ATOM     28  O   LIG d   1      14.267   3.840  -4.790  0.00  0.00     0.042 OA
ATOM     29  O   LIG d   1      14.344   2.451  -3.204  0.00  0.00    -0.576 OA
ENDBRANCH   2  27
BRANCH   6  30
ATOM     30  N   LIG d   1      10.186   5.891  -1.618  0.00  0.00     0.080 N 
ATOM     31  O   LIG d   1       9.762   6.927  -2.098  0.00  0.00     0.042 OA
ATOM     32  O   LIG d   1      10.290   5.779  -0.409  0.00  0.00    -0.576 OA
ENDBRANCH   6  30
BRANCH   1  33
ATOM     33  C   LIG d   1      12.966   5.429  -2.172  0.00  0.00    -0.027 C 
ATOM     34  H   LIG d   1      13.686   5.714  -2.941  0.00  0.00     0.028 H 
ATOM     35  H   LIG d   1      12.496   6.325  -1.766  0.00  0.00     0.028 H 
ATOM     36  H   LIG d   1      13.480   4.895  -1.374  0.00  0.00     0.028 H 
ENDBRANCH   1  33
TORSDOF 6
ENDMDL
MODEL 8
REMARK VINA RESULT:      -6.0      1.788      2.578
REMARK  6 active torsions:
REMARK  status: ('A' for Active; 'I' for Inactive)
REMARK    1  A    between atoms: C_1  and  C_2 
REMARK    2  A    between atoms: C_3  and  N_21 
REMARK    3  A    between atoms: C_5  and  C_11 
REMARK    4  A    between atoms: C_7  and  N_8 
REMARK       I    between atoms: C_11  and  N_13 
REMARK    5  A    between atoms: N_13  and  C_14 
REMARK    6  A    between atoms: C_14  and  C_15 
ROOT
ATOM      1  C   LIG d   1       2.605  -3.382 -10.064  0.00  0.00     0.103 A 
ATOM      2  C   LIG d   1       3.072  -4.480  -9.360  0.00  0.00     0.283 A 
ATOM      3  C   LIG d   1       3.743  -4.304  -8.168  0.00  0.00     0.028 A 
ATOM      4  C   LIG d   1       3.961  -3.015  -7.677  0.00  0.00     0.050 A 
ATOM      5  C   LIG d   1       3.492  -1.912  -8.393  0.00  0.00     0.028 A 
ATOM      6  C   LIG d   1       2.817  -2.103  -9.581  0.00  0.00     0.283 A 
ATOM      7  H   LIG d   1       4.104  -5.161  -7.618  0.00  0.00     0.069 H 
ATOM      8  H   LIG d   1       3.658  -0.913  -8.019  0.00  0.00     0.069 H 
ENDROOT
BRANCH   4   9
ATOM      9  C   LIG d   1       4.685  -2.819  -6.402  0.00  0.00     0.245 C 
ATOM     10  O   LIG d   1       5.895  -2.698  -6.403  0.00  0.00    -0.270 OA
ATOM     11  N   LIG d   1       4.004  -2.775  -5.241  0.00  0.00    -0.307 N 
ATOM     12  H   LIG d   1       3.039  -2.872  -5.240  0.00  0.00     0.149 HD
BRANCH  11  13
ATOM     13  C   LIG d   1       4.721  -2.581  -3.978  0.00  0.00     0.037 C 
ATOM     14  H   LIG d   1       4.441  -3.366  -3.277  0.00  0.00     0.051 H 
ATOM     15  H   LIG d   1       5.794  -2.622  -4.160  0.00  0.00     0.051 H 
BRANCH  13  16
ATOM     16  C   LIG d   1       4.360  -1.237  -3.397  0.00  0.00    -0.030 A 
ATOM     17  C   LIG d   1       4.790  -0.893  -2.130  0.00  0.00    -0.057 A 
ATOM     18  C   LIG d   1       4.460   0.339  -1.598  0.00  0.00    -0.061 A 
ATOM     19  H   LIG d   1       5.386  -1.588  -1.555  0.00  0.00     0.062 H 
ATOM     20  C   LIG d   1       3.698   1.227  -2.333  0.00  0.00    -0.062 A 
ATOM     21  H   LIG d   1       4.797   0.607  -0.607  0.00  0.00     0.062 H 
ATOM     22  C   LIG d   1       3.268   0.884  -3.601  0.00  0.00    -0.061 A 
ATOM     23  H   LIG d   1       3.440   2.190  -1.916  0.00  0.00     0.062 H 
ATOM     24  C   LIG d   1       3.604  -0.346  -4.136  0.00  0.00    -0.057 A 
ATOM     25  H   LIG d   1       2.672   1.578  -4.176  0.00  0.00     0.062 H 
ATOM     26  H   LIG d   1       3.271  -0.612  -5.128  0.00  0.00     0.062 H 
ENDBRANCH  13  16
ENDBRANCH  11  13
ENDBRANCH   4   9
BRANCH   2  27
ATOM     27  N   LIG d   1       2.846  -5.844  -9.886  0.00  0.00     0.080 N 
ATOM     28  O   LIG d   1       1.864  -6.476  -9.538  0.00  0.00     0.042 OA
ATOM     29  O   LIG d   1       3.641  -6.335 -10.667  0.00  0.00    -0.576 OA
ENDBRANCH   2  27
BRANCH   6  30
ATOM     30  N   LIG d   1       2.319  -0.936 -10.342  0.00  0.00     0.080 N 
ATOM     31  O   LIG d   1       3.034  -0.395 -11.166  0.00  0.00     0.042 OA
ATOM     32  O   LIG d   1       1.192  -0.515 -10.145  0.00  0.00    -0.576 OA
ENDBRANCH   6  30
BRANCH   1  33
ATOM     33  C   LIG d   1       1.868  -3.582 -11.361  0.00  0.00    -0.027 C 
ATOM     34  H   LIG d   1       1.187  -4.429 -11.267  0.00  0.00     0.028 H 
ATOM     35  H   LIG d   1       1.298  -2.683 -11.598  0.00  0.00     0.028 H 
ATOM     36  H   LIG d   1       2.583  -3.779 -12.159  0.00  0.00     0.028 H 
ENDBRANCH   1  33
TORSDOF 6
ENDMDL
MODEL 9
REMARK VINA RESULT:      -5.9      6.293      8.983
REMARK  6 active torsions:
REMARK  status: ('A' for Active; 'I' for Inactive)
REMARK    1  A    between atoms: C_1  and  C_2 
REMARK    2  A    between atoms: C_3  and  N_21 
REMARK    3  A    between atoms: C_5  and  C_11 
REMARK    4  A    between atoms: C_7  and  N_8 
REMARK       I    between atoms: C_11  and  N_13 
REMARK    5  A    between atoms: N_13  and  C_14 
REMARK    6  A    between atoms: C_14  and  C_15 
ROOT
ATOM      1  C   LIG d   1      10.021   4.706  -5.478  0.00  0.00     0.103 A 
ATOM      2  C   LIG d   1       9.649   3.938  -6.568  0.00  0.00     0.283 A 
ATOM      3  C   LIG d   1       8.998   2.737  -6.379  0.00  0.00     0.028 A 
ATOM      4  C   LIG d   1       8.722   2.292  -5.085  0.00  0.00     0.050 A 
ATOM      5  C   LIG d   1       9.102   3.069  -3.989  0.00  0.00     0.028 A 
ATOM      6  C   LIG d   1       9.749   4.270  -4.192  0.00  0.00     0.283 A 
ATOM      7  H   LIG d   1       8.705   2.140  -7.231  0.00  0.00     0.069 H 
ATOM      8  H   LIG d   1       8.892   2.730  -2.986  0.00  0.00     0.069 H 
ENDROOT
BRANCH   4   9
ATOM      9  C   LIG d   1       8.028   1.003  -4.875  0.00  0.00     0.245 C 
ATOM     10  O   LIG d   1       7.658   0.349  -5.831  0.00  0.00    -0.270 OA
ATOM     11  N   LIG d   1       7.805   0.553  -3.625  0.00  0.00    -0.307 N 
ATOM     12  H   LIG d   1       8.100   1.075  -2.862  0.00  0.00     0.149 HD
BRANCH  11  13
ATOM     13  C   LIG d   1       7.118  -0.723  -3.417  0.00  0.00     0.037 C 
ATOM     14  H   LIG d   1       7.173  -1.318  -4.329  0.00  0.00     0.051 H 
ATOM     15  H   LIG d   1       7.595  -1.265  -2.601  0.00  0.00     0.051 H 
BRANCH  13  16
ATOM     16  C   LIG d   1       5.673  -0.466  -3.073  0.00  0.00    -0.030 A 
ATOM     17  C   LIG d   1       4.733  -1.465  -3.242  0.00  0.00    -0.057 A 
ATOM     18  C   LIG d   1       3.409  -1.229  -2.926  0.00  0.00    -0.061 A 
ATOM     19  H   LIG d   1       5.034  -2.431  -3.621  0.00  0.00     0.062 H 
ATOM     20  C   LIG d   1       3.023   0.007  -2.442  0.00  0.00    -0.062 A 
ATOM     21  H   LIG d   1       2.674  -2.010  -3.058  0.00  0.00     0.062 H 
ATOM     22  C   LIG d   1       3.963   1.006  -2.272  0.00  0.00    -0.061 A 
ATOM     23  H   LIG d   1       1.988   0.192  -2.196  0.00  0.00     0.062 H 
ATOM     24  C   LIG d   1       5.289   0.768  -2.582  0.00  0.00    -0.057 A 
ATOM     25  H   LIG d   1       3.663   1.973  -1.894  0.00  0.00     0.062 H 
ATOM     26  H   LIG d   1       6.024   1.548  -2.446  0.00  0.00     0.062 H 
ENDBRANCH  13  16
ENDBRANCH  11  13
ENDBRANCH   4   9
BRANCH   2  27
ATOM     27  N   LIG d   1       9.949   4.408  -7.938  0.00  0.00     0.080 N 
ATOM     28  O   LIG d   1      11.002   4.105  -8.470  0.00  0.00     0.042 OA
ATOM     29  O   LIG d   1       9.142   5.098  -8.535  0.00  0.00    -0.576 OA
ENDBRANCH   2  27
BRANCH   6  30
ATOM     30  N   LIG d   1      10.154   5.095  -3.033  0.00  0.00     0.080 N 
ATOM     31  O   LIG d   1      11.204   4.867  -2.459  0.00  0.00     0.042 OA
ATOM     32  O   LIG d   1       9.438   6.005  -2.652  0.00  0.00    -0.576 OA
ENDBRANCH   6  30
BRANCH   1  33
ATOM     33  C   LIG d   1      10.727   6.019  -5.691  0.00  0.00    -0.027 C 
ATOM     34  H   LIG d   1      10.189   6.811  -5.169  0.00  0.00     0.028 H 
ATOM     35  H   LIG d   1      11.743   5.953  -5.301  0.00  0.00     0.028 H 
ATOM     36  H   LIG d   1      10.761   6.244  -6.756  0.00  0.00     0.028 H 
ENDBRANCH   1  33
TORSDOF 6
ENDMDL
MODEL 10
REMARK VINA RESULT:      -5.8      4.861      6.705
REMARK  6 active torsions:
REMARK  status: ('A' for Active; 'I' for Inactive)
REMARK    1  A    between atoms: C_1  and  C_2 
REMARK    2  A    between atoms: C_3  and  N_21 
REMARK    3  A    between atoms: C_5  and  C_11 
REMARK    4  A    between atoms: C_7  and  N_8 
REMARK       I    between atoms: C_11  and  N_13 
REMARK    5  A    between atoms: N_13  and  C_14 
REMARK    6  A    between atoms: C_14  and  C_15 
ROOT
ATOM      1  C   LIG d   1       6.666  -8.020  -5.102  0.00  0.00     0.103 A 
ATOM      2  C   LIG d   1       5.297  -7.926  -5.284  0.00  0.00     0.283 A 
ATOM      3  C   LIG d   1       4.720  -6.707  -5.578  0.00  0.00     0.028 A 
ATOM      4  C   LIG d   1       5.518  -5.567  -5.681  0.00  0.00     0.050 A 
ATOM      5  C   LIG d   1       6.898  -5.668  -5.492  0.00  0.00     0.028 A 
ATOM      6  C   LIG d   1       7.462  -6.893  -5.203  0.00  0.00     0.283 A 
ATOM      7  H   LIG d   1       3.652  -6.635  -5.724  0.00  0.00     0.069 H 
ATOM      8  H   LIG d   1       7.521  -4.790  -5.570  0.00  0.00     0.069 H 
ENDROOT
BRANCH   4   9
ATOM      9  C   LIG d   1       4.906  -4.257  -5.991  0.00  0.00     0.245 C 
ATOM     10  O   LIG d   1       4.060  -4.172  -6.860  0.00  0.00    -0.270 OA
ATOM     11  N   LIG d   1       5.286  -3.158  -5.311  0.00  0.00    -0.307 N 
ATOM     12  H   LIG d   1       5.961  -3.225  -4.618  0.00  0.00     0.149 HD
BRANCH  11  13
ATOM     13  C   LIG d   1       4.679  -1.861  -5.618  0.00  0.00     0.037 C 
ATOM     14  H   LIG d   1       5.367  -1.272  -6.225  0.00  0.00     0.051 H 
ATOM     15  H   LIG d   1       3.751  -2.014  -6.168  0.00  0.00     0.051 H 
BRANCH  13  16
ATOM     16  C   LIG d   1       4.387  -1.126  -4.335  0.00  0.00    -0.030 A 
ATOM     17  C   LIG d   1       4.696  -1.708  -3.119  0.00  0.00    -0.057 A 
ATOM     18  C   LIG d   1       4.429  -1.033  -1.943  0.00  0.00    -0.061 A 
ATOM     19  H   LIG d   1       5.146  -2.689  -3.089  0.00  0.00     0.062 H 
ATOM     20  C   LIG d   1       3.853   0.222  -1.981  0.00  0.00    -0.062 A 
ATOM     21  H   LIG d   1       4.671  -1.488  -0.993  0.00  0.00     0.062 H 
ATOM     22  C   LIG d   1       3.545   0.805  -3.196  0.00  0.00    -0.061 A 
ATOM     23  H   LIG d   1       3.644   0.749  -1.061  0.00  0.00     0.062 H 
ATOM     24  C   LIG d   1       3.817   0.133  -4.374  0.00  0.00    -0.057 A 
ATOM     25  H   LIG d   1       3.094   1.786  -3.226  0.00  0.00     0.062 H 
ATOM     26  H   LIG d   1       3.580   0.590  -5.323  0.00  0.00     0.062 H 
ENDBRANCH  13  16
ENDBRANCH  11  13
ENDBRANCH   4   9
BRANCH   2  27
ATOM     27  N   LIG d   1       4.452  -9.134  -5.168  0.00  0.00     0.080 N 
ATOM     28  O   LIG d   1       4.298  -9.865  -6.131  0.00  0.00     0.042 OA
ATOM     29  O   LIG d   1       3.910  -9.399  -4.110  0.00  0.00    -0.576 OA
ENDBRANCH   2  27
BRANCH   6  30
ATOM     30  N   LIG d   1       8.924  -7.002  -5.002  0.00  0.00     0.080 N 
ATOM     31  O   LIG d   1       9.399  -6.857  -3.889  0.00  0.00     0.042 OA
ATOM     32  O   LIG d   1       9.654  -7.239  -5.948  0.00  0.00    -0.576 OA
ENDBRANCH   6  30
BRANCH   1  33
ATOM     33  C   LIG d   1       7.290  -9.354  -4.786  0.00  0.00    -0.027 C 
ATOM     34  H   LIG d   1       6.657  -9.895  -4.082  0.00  0.00     0.028 H 
ATOM     35  H   LIG d   1       7.390  -9.934  -5.704  0.00  0.00     0.028 H 
ATOM     36  H   LIG d   1       8.274  -9.200  -4.345  0.00  0.00     0.028 H 
ENDBRANCH   1  33
TORSDOF 6
ENDMDL
