MODEL 1
REMARK VINA RESULT:      -6.7      0.000      0.000
REMARK  3 active torsions:
REMARK  status: ('A' for Active; 'I' for Inactive)
REMARK    1  A    between atoms: C_1  and  C_2 
REMARK    2  A    between atoms: N_10  and  C_23 
REMARK    3  A    between atoms: N_21  and  C_22 
ROOT
ATOM      1  C   LIG d   1       3.430  -0.397  -6.869  0.00  0.00    -0.028 A 
ATOM      2  C   LIG d   1       3.717  -1.165  -7.992  0.00  0.00     0.030 A 
ATOM      3  C   LIG d   1       3.199  -1.183  -9.372  0.00  0.00     0.009 A 
ATOM      4  C   LIG d   1       2.237  -0.435 -10.045  0.00  0.00    -0.052 A 
ATOM      5  C   LIG d   1       1.970  -0.698 -11.372  0.00  0.00    -0.061 A 
ATOM      6  C   LIG d   1       2.657  -1.702 -12.037  0.00  0.00    -0.060 A 
ATOM      7  C   LIG d   1       3.611  -2.450 -11.382  0.00  0.00    -0.037 A 
ATOM      8  C   LIG d   1       3.895  -2.200 -10.043  0.00  0.00     0.051 A 
ATOM      9  N   LIG d   1       4.784  -2.780  -9.154  0.00  0.00    -0.328 N 
ATOM     10  C   LIG d   1       4.694  -2.174  -7.916  0.00  0.00     0.144 A 
ATOM     11  N   LIG d   1       5.340  -2.393  -6.779  0.00  0.00    -0.211 NA
ATOM     12  C   LIG d   1       5.099  -1.686  -5.683  0.00  0.00     0.144 A 
ATOM     13  C   LIG d   1       4.137  -0.660  -5.701  0.00  0.00     0.030 A 
ATOM     14  C   LIG d   1       4.120  -0.074  -4.348  0.00  0.00     0.009 A 
ATOM     15  C   LIG d   1       3.389   0.952  -3.756  0.00  0.00    -0.052 A 
ATOM     16  C   LIG d   1       3.607   1.274  -2.434  0.00  0.00    -0.061 A 
ATOM     17  C   LIG d   1       4.551   0.579  -1.694  0.00  0.00    -0.060 A 
ATOM     18  C   LIG d   1       5.281  -0.440  -2.268  0.00  0.00    -0.037 A 
ATOM     19  C   LIG d   1       5.075  -0.779  -3.601  0.00  0.00     0.051 A 
ATOM     20  N   LIG d   1       5.644  -1.743  -4.416  0.00  0.00    -0.328 N 
ATOM     21  H   LIG d   1       1.701   0.349  -9.530  0.00  0.00     0.062 H 
ATOM     22  H   LIG d   1       1.224  -0.118 -11.896  0.00  0.00     0.062 H 
ATOM     23  H   LIG d   1       2.441  -1.900 -13.076  0.00  0.00     0.062 H 
ATOM     24  H   LIG d   1       4.140  -3.230 -11.908  0.00  0.00     0.064 H 
ATOM     25  H   LIG d   1       2.653   1.495  -4.331  0.00  0.00     0.062 H 
ATOM     26  H   LIG d   1       3.041   2.070  -1.972  0.00  0.00     0.062 H 
ATOM     27  H   LIG d   1       4.716   0.837  -0.657  0.00  0.00     0.062 H 
ATOM     28  H   LIG d   1       6.015  -0.974  -1.682  0.00  0.00     0.064 H 
ENDROOT
BRANCH   1  29
ATOM     29  C   LIG d   1       2.389   0.692  -6.919  0.00  0.00    -0.038 C 
ATOM     30  H   LIG d   1       2.101   0.966  -5.905  0.00  0.00     0.028 H 
ATOM     31  H   LIG d   1       2.800   1.564  -7.429  0.00  0.00     0.028 H 
ATOM     32  H   LIG d   1       1.514   0.333  -7.462  0.00  0.00     0.028 H 
ENDBRANCH   1  29
BRANCH  20  33
ATOM     33  C   LIG d   1       6.687  -2.682  -3.997  0.00  0.00     0.014 C 
ATOM     34  H   LIG d   1       6.226  -3.549  -3.524  0.00  0.00     0.046 H 
ATOM     35  H   LIG d   1       7.257  -3.005  -4.868  0.00  0.00     0.046 H 
ATOM     36  H   LIG d   1       7.353  -2.191  -3.288  0.00  0.00     0.046 H 
ENDBRANCH  20  33
BRANCH   9  37
ATOM     37  C   LIG d   1       5.692  -3.882  -9.481  0.00  0.00     0.014 C 
ATOM     38  H   LIG d   1       5.121  -4.805  -9.585  0.00  0.00     0.046 H 
ATOM     39  H   LIG d   1       6.204  -3.664 -10.419  0.00  0.00     0.046 H 
ATOM     40  H   LIG d   1       6.426  -3.997  -8.684  0.00  0.00     0.046 H 
ENDBRANCH   9  37
TORSDOF 3
ENDMDL
MODEL 2
REMARK VINA RESULT:      -6.7      0.061      6.427
REMARK  3 active torsions:
REMARK  status: ('A' for Active; 'I' for Inactive)
REMARK    1  A    between atoms: C_1  and  C_2 
REMARK    2  A    between atoms: N_10  and  C_23 
REMARK    3  A    between atoms: N_21  and  C_22 
ROOT
ATOM      1  C   LIG d   1       3.459  -0.390  -6.919  0.00  0.00    -0.028 A 
ATOM      2  C   LIG d   1       4.147  -0.655  -5.739  0.00  0.00     0.030 A 
ATOM      3  C   LIG d   1       4.108  -0.072  -4.386  0.00  0.00     0.009 A 
ATOM      4  C   LIG d   1       3.366   0.953  -3.804  0.00  0.00    -0.052 A 
ATOM      5  C   LIG d   1       3.563   1.271  -2.477  0.00  0.00    -0.061 A 
ATOM      6  C   LIG d   1       4.496   0.576  -1.722  0.00  0.00    -0.060 A 
ATOM      7  C   LIG d   1       5.236  -0.440  -2.287  0.00  0.00    -0.037 A 
ATOM      8  C   LIG d   1       5.051  -0.777  -3.625  0.00  0.00     0.051 A 
ATOM      9  N   LIG d   1       5.641  -1.732  -4.435  0.00  0.00    -0.328 N 
ATOM     10  C   LIG d   1       5.113  -1.676  -5.710  0.00  0.00     0.144 A 
ATOM     11  N   LIG d   1       5.368  -2.386  -6.802  0.00  0.00    -0.211 NA
ATOM     12  C   LIG d   1       4.737  -2.168  -7.947  0.00  0.00     0.144 A 
ATOM     13  C   LIG d   1       3.757  -1.163  -8.036  0.00  0.00     0.030 A 
ATOM     14  C   LIG d   1       3.252  -1.186  -9.421  0.00  0.00     0.009 A 
ATOM     15  C   LIG d   1       2.296  -0.442 -10.106  0.00  0.00    -0.052 A 
ATOM     16  C   LIG d   1       2.042  -0.710 -11.434  0.00  0.00    -0.061 A 
ATOM     17  C   LIG d   1       2.736  -1.717 -12.087  0.00  0.00    -0.060 A 
ATOM     18  C   LIG d   1       3.685  -2.461 -11.420  0.00  0.00    -0.037 A 
ATOM     19  C   LIG d   1       3.955  -2.205 -10.080  0.00  0.00     0.051 A 
ATOM     20  N   LIG d   1       4.843  -2.775  -9.182  0.00  0.00    -0.328 N 
ATOM     21  H   LIG d   1       2.639   1.496  -4.389  0.00  0.00     0.062 H 
ATOM     22  H   LIG d   1       2.989   2.066  -2.024  0.00  0.00     0.062 H 
ATOM     23  H   LIG d   1       4.642   0.833  -0.684  0.00  0.00     0.062 H 
ATOM     24  H   LIG d   1       5.960  -0.976  -1.692  0.00  0.00     0.064 H 
ATOM     25  H   LIG d   1       1.755   0.343  -9.599  0.00  0.00     0.062 H 
ATOM     26  H   LIG d   1       1.301  -0.133 -11.968  0.00  0.00     0.062 H 
ATOM     27  H   LIG d   1       2.531  -1.920 -13.128  0.00  0.00     0.062 H 
ATOM     28  H   LIG d   1       4.219  -3.244 -11.938  0.00  0.00     0.064 H 
ENDROOT
BRANCH   1  29
ATOM     29  C   LIG d   1       2.417   0.697  -6.982  0.00  0.00    -0.038 C 
ATOM     30  H   LIG d   1       2.736   1.542  -6.373  0.00  0.00     0.028 H 
ATOM     31  H   LIG d   1       2.291   1.020  -8.015  0.00  0.00     0.028 H 
ATOM     32  H   LIG d   1       1.469   0.314  -6.603  0.00  0.00     0.028 H 
ENDBRANCH   1  29
BRANCH  20  33
ATOM     33  C   LIG d   1       5.757  -3.876  -9.496  0.00  0.00     0.014 C 
ATOM     34  H   LIG d   1       6.623  -3.829  -8.836  0.00  0.00     0.046 H 
ATOM     35  H   LIG d   1       5.244  -4.827  -9.353  0.00  0.00     0.046 H 
ATOM     36  H   LIG d   1       6.084  -3.792 -10.532  0.00  0.00     0.046 H 
ENDBRANCH  20  33
BRANCH   9  37
ATOM     37  C   LIG d   1       6.680  -2.669  -4.001  0.00  0.00     0.014 C 
ATOM     38  H   LIG d   1       6.215  -3.533  -3.526  0.00  0.00     0.046 H 
ATOM     39  H   LIG d   1       7.257  -2.999  -4.866  0.00  0.00     0.046 H 
ATOM     40  H   LIG d   1       7.341  -2.175  -3.289  0.00  0.00     0.046 H 
ENDBRANCH   9  37
TORSDOF 3
ENDMDL
MODEL 3
REMARK VINA RESULT:      -6.1     10.193     13.462
REMARK  3 active torsions:
REMARK  status: ('A' for Active; 'I' for Inactive)
REMARK    1  A    between atoms: C_1  and  C_2 
REMARK    2  A    between atoms: N_10  and  C_23 
REMARK    3  A    between atoms: N_21  and  C_22 
ROOT
ATOM      1  C   LIG d   1      10.254   7.008  -3.499  0.00  0.00    -0.028 A 
ATOM      2  C   LIG d   1      10.452   7.614  -2.263  0.00  0.00     0.030 A 
ATOM      3  C   LIG d   1      10.723   7.098  -0.909  0.00  0.00     0.009 A 
ATOM      4  C   LIG d   1      10.879   5.817  -0.384  0.00  0.00    -0.052 A 
ATOM      5  C   LIG d   1      11.133   5.656   0.961  0.00  0.00    -0.061 A 
ATOM      6  C   LIG d   1      11.233   6.762   1.791  0.00  0.00    -0.060 A 
ATOM      7  C   LIG d   1      11.081   8.034   1.283  0.00  0.00    -0.037 A 
ATOM      8  C   LIG d   1      10.825   8.218  -0.072  0.00  0.00     0.051 A 
ATOM      9  N   LIG d   1      10.632   9.355  -0.838  0.00  0.00    -0.328 N 
ATOM     10  C   LIG d   1      10.406   9.016  -2.158  0.00  0.00     0.144 A 
ATOM     11  N   LIG d   1      10.176   9.759  -3.232  0.00  0.00    -0.211 NA
ATOM     12  C   LIG d   1       9.981   9.225  -4.430  0.00  0.00     0.144 A 
ATOM     13  C   LIG d   1      10.020   7.829  -4.598  0.00  0.00     0.030 A 
ATOM     14  C   LIG d   1       9.777   7.568  -6.029  0.00  0.00     0.009 A 
ATOM     15  C   LIG d   1       9.694   6.407  -6.791  0.00  0.00    -0.052 A 
ATOM     16  C   LIG d   1       9.449   6.493  -8.145  0.00  0.00    -0.061 A 
ATOM     17  C   LIG d   1       9.285   7.731  -8.747  0.00  0.00    -0.060 A 
ATOM     18  C   LIG d   1       9.364   8.889  -8.002  0.00  0.00    -0.037 A 
ATOM     19  C   LIG d   1       9.611   8.822  -6.635  0.00  0.00     0.051 A 
ATOM     20  N   LIG d   1       9.730   9.799  -5.660  0.00  0.00    -0.328 N 
ATOM     21  H   LIG d   1      10.801   4.954  -1.028  0.00  0.00     0.062 H 
ATOM     22  H   LIG d   1      11.254   4.663   1.371  0.00  0.00     0.062 H 
ATOM     23  H   LIG d   1      11.433   6.625   2.843  0.00  0.00     0.062 H 
ATOM     24  H   LIG d   1      11.161   8.890   1.938  0.00  0.00     0.064 H 
ATOM     25  H   LIG d   1       9.822   5.442  -6.325  0.00  0.00     0.062 H 
ATOM     26  H   LIG d   1       9.384   5.594  -8.739  0.00  0.00     0.062 H 
ATOM     27  H   LIG d   1       9.092   7.790  -9.808  0.00  0.00     0.062 H 
ATOM     28  H   LIG d   1       9.236   9.849  -8.481  0.00  0.00     0.064 H 
ENDROOT
BRANCH   1  29
ATOM     29  C   LIG d   1      10.297   5.509  -3.645  0.00  0.00    -0.038 C 
ATOM     30  H   LIG d   1       9.433   5.174  -4.217  0.00  0.00     0.028 H 
ATOM     31  H   LIG d   1      11.211   5.221  -4.164  0.00  0.00     0.028 H 
ATOM     32  H   LIG d   1      10.280   5.048  -2.657  0.00  0.00     0.028 H 
ENDBRANCH   1  29
BRANCH  20  33
ATOM     33  C   LIG d   1       9.618  11.239  -5.903  0.00  0.00     0.014 C 
ATOM     34  H   LIG d   1      10.556  11.611  -6.315  0.00  0.00     0.046 H 
ATOM     35  H   LIG d   1       8.811  11.427  -6.610  0.00  0.00     0.046 H 
ATOM     36  H   LIG d   1       9.405  11.750  -4.964  0.00  0.00     0.046 H 
ENDBRANCH  20  33
BRANCH   9  37
ATOM     37  C   LIG d   1      10.663  10.725  -0.322  0.00  0.00     0.014 C 
ATOM     38  H   LIG d   1      10.629  11.429  -1.154  0.00  0.00     0.046 H 
ATOM     39  H   LIG d   1       9.802  10.889   0.327  0.00  0.00     0.046 H 
ATOM     40  H   LIG d   1      11.581  10.879   0.246  0.00  0.00     0.046 H 
ENDBRANCH   9  37
TORSDOF 3
ENDMDL
MODEL 4
REMARK VINA RESULT:      -6.1     10.178     11.892
REMARK  3 active torsions:
REMARK  status: ('A' for Active; 'I' for Inactive)
REMARK    1  A    between atoms: C_1  and  C_2 
REMARK    2  A    between atoms: N_10  and  C_23 
REMARK    3  A    between atoms: N_21  and  C_22 
ROOT
ATOM      1  C   LIG d   1      10.260   6.987  -3.487  0.00  0.00    -0.028 A 
ATOM      2  C   LIG d   1      10.021   7.799  -4.591  0.00  0.00     0.030 A 
ATOM      3  C   LIG d   1       9.766   7.529  -6.017  0.00  0.00     0.009 A 
ATOM      4  C   LIG d   1       9.672   6.361  -6.770  0.00  0.00    -0.052 A 
ATOM      5  C   LIG d   1       9.417   6.438  -8.123  0.00  0.00    -0.061 A 
ATOM      6  C   LIG d   1       9.252   7.672  -8.734  0.00  0.00    -0.060 A 
ATOM      7  C   LIG d   1       9.343   8.834  -7.999  0.00  0.00    -0.037 A 
ATOM      8  C   LIG d   1       9.600   8.778  -6.633  0.00  0.00     0.051 A 
ATOM      9  N   LIG d   1       9.740   9.762  -5.669  0.00  0.00    -0.328 N 
ATOM     10  C   LIG d   1       9.993   9.197  -4.435  0.00  0.00     0.144 A 
ATOM     11  N   LIG d   1      10.194   9.740  -3.241  0.00  0.00    -0.211 NA
ATOM     12  C   LIG d   1      10.425   9.005  -2.162  0.00  0.00     0.144 A 
ATOM     13  C   LIG d   1      10.459   7.601  -2.256  0.00  0.00     0.030 A 
ATOM     14  C   LIG d   1      10.727   7.094  -0.897  0.00  0.00     0.009 A 
ATOM     15  C   LIG d   1      10.875   5.818  -0.362  0.00  0.00    -0.052 A 
ATOM     16  C   LIG d   1      11.127   5.665   0.984  0.00  0.00    -0.061 A 
ATOM     17  C   LIG d   1      11.232   6.778   1.805  0.00  0.00    -0.060 A 
ATOM     18  C   LIG d   1      11.087   8.047   1.287  0.00  0.00    -0.037 A 
ATOM     19  C   LIG d   1      10.833   8.221  -0.069  0.00  0.00     0.051 A 
ATOM     20  N   LIG d   1      10.656   9.354  -0.847  0.00  0.00    -0.328 N 
ATOM     21  H   LIG d   1       9.800   5.399  -6.297  0.00  0.00     0.062 H 
ATOM     22  H   LIG d   1       9.343   5.533  -8.708  0.00  0.00     0.062 H 
ATOM     23  H   LIG d   1       9.052   7.721  -9.793  0.00  0.00     0.062 H 
ATOM     24  H   LIG d   1       9.214   9.791  -8.484  0.00  0.00     0.064 H 
ATOM     25  H   LIG d   1      10.794   4.950  -1.000  0.00  0.00     0.062 H 
ATOM     26  H   LIG d   1      11.243   4.676   1.402  0.00  0.00     0.062 H 
ATOM     27  H   LIG d   1      11.429   6.649   2.860  0.00  0.00     0.062 H 
ATOM     28  H   LIG d   1      11.169   8.907   1.936  0.00  0.00     0.064 H 
ENDROOT
BRANCH   1  29
ATOM     29  C   LIG d   1      10.295   5.486  -3.621  0.00  0.00    -0.038 C 
ATOM     30  H   LIG d   1      10.539   5.219  -4.649  0.00  0.00     0.028 H 
ATOM     31  H   LIG d   1      11.050   5.079  -2.950  0.00  0.00     0.028 H 
ATOM     32  H   LIG d   1       9.318   5.076  -3.361  0.00  0.00     0.028 H 
ENDBRANCH   1  29
BRANCH  20  33
ATOM     33  C   LIG d   1      10.696  10.728  -0.342  0.00  0.00     0.014 C 
ATOM     34  H   LIG d   1       9.678  11.107  -0.242  0.00  0.00     0.046 H 
ATOM     35  H   LIG d   1      11.186  10.744   0.631  0.00  0.00     0.046 H 
ATOM     36  H   LIG d   1      11.250  11.355  -1.039  0.00  0.00     0.046 H 
ENDBRANCH  20  33
BRANCH   9  37
ATOM     37  C   LIG d   1       9.634  11.201  -5.923  0.00  0.00     0.014 C 
ATOM     38  H   LIG d   1       9.199  11.693  -5.053  0.00  0.00     0.046 H 
ATOM     39  H   LIG d   1      10.627  11.611  -6.113  0.00  0.00     0.046 H 
ATOM     40  H   LIG d   1       8.999  11.371  -6.792  0.00  0.00     0.046 H 
ENDBRANCH   9  37
TORSDOF 3
ENDMDL
MODEL 5
REMARK VINA RESULT:      -6.1      4.477      5.401
REMARK  3 active torsions:
REMARK  status: ('A' for Active; 'I' for Inactive)
REMARK    1  A    between atoms: C_1  and  C_2 
REMARK    2  A    between atoms: N_10  and  C_23 
REMARK    3  A    between atoms: N_21  and  C_22 
ROOT
ATOM      1  C   LIG d   1       6.076  -3.084  -4.579  0.00  0.00    -0.028 A 
ATOM      2  C   LIG d   1       7.244  -3.610  -5.121  0.00  0.00     0.030 A 
ATOM      3  C   LIG d   1       7.603  -4.926  -5.680  0.00  0.00     0.009 A 
ATOM      4  C   LIG d   1       6.900  -6.114  -5.865  0.00  0.00    -0.052 A 
ATOM      5  C   LIG d   1       7.532  -7.201  -6.431  0.00  0.00    -0.061 A 
ATOM      6  C   LIG d   1       8.861  -7.115  -6.815  0.00  0.00    -0.060 A 
ATOM      7  C   LIG d   1       9.567  -5.945  -6.636  0.00  0.00    -0.037 A 
ATOM      8  C   LIG d   1       8.948  -4.837  -6.067  0.00  0.00     0.051 A 
ATOM      9  N   LIG d   1       9.403  -3.562  -5.776  0.00  0.00    -0.328 N 
ATOM     10  C   LIG d   1       8.396  -2.808  -5.206  0.00  0.00     0.144 A 
ATOM     11  N   LIG d   1       8.370  -1.555  -4.773  0.00  0.00    -0.211 NA
ATOM     12  C   LIG d   1       7.280  -1.012  -4.249  0.00  0.00     0.144 A 
ATOM     13  C   LIG d   1       6.096  -1.764  -4.143  0.00  0.00     0.030 A 
ATOM     14  C   LIG d   1       5.086  -0.878  -3.535  0.00  0.00     0.009 A 
ATOM     15  C   LIG d   1       3.751  -1.047  -3.180  0.00  0.00    -0.052 A 
ATOM     16  C   LIG d   1       3.055   0.000  -2.615  0.00  0.00    -0.061 A 
ATOM     17  C   LIG d   1       3.681   1.218  -2.399  0.00  0.00    -0.060 A 
ATOM     18  C   LIG d   1       5.003   1.398  -2.746  0.00  0.00    -0.037 A 
ATOM     19  C   LIG d   1       5.722   0.353  -3.317  0.00  0.00     0.051 A 
ATOM     20  N   LIG d   1       7.035   0.249  -3.745  0.00  0.00    -0.328 N 
ATOM     21  H   LIG d   1       5.865  -6.184  -5.567  0.00  0.00     0.062 H 
ATOM     22  H   LIG d   1       6.988  -8.123  -6.576  0.00  0.00     0.062 H 
ATOM     23  H   LIG d   1       9.346  -7.972  -7.258  0.00  0.00     0.062 H 
ATOM     24  H   LIG d   1      10.602  -5.888  -6.939  0.00  0.00     0.064 H 
ATOM     25  H   LIG d   1       3.261  -1.995  -3.348  0.00  0.00     0.062 H 
ATOM     26  H   LIG d   1       2.019  -0.129  -2.338  0.00  0.00     0.062 H 
ATOM     27  H   LIG d   1       3.128   2.034  -1.955  0.00  0.00     0.062 H 
ATOM     28  H   LIG d   1       5.481   2.352  -2.574  0.00  0.00     0.064 H 
ENDROOT
BRANCH   1  29
ATOM     29  C   LIG d   1       4.824  -3.918  -4.474  0.00  0.00    -0.038 C 
ATOM     30  H   LIG d   1       5.080  -4.913  -4.112  0.00  0.00     0.028 H 
ATOM     31  H   LIG d   1       4.130  -3.445  -3.780  0.00  0.00     0.028 H 
ATOM     32  H   LIG d   1       4.358  -3.997  -5.457  0.00  0.00     0.028 H 
ENDBRANCH   1  29
BRANCH  20  33
ATOM     33  C   LIG d   1       8.022   1.331  -3.684  0.00  0.00     0.014 C 
ATOM     34  H   LIG d   1       7.684   2.090  -2.978  0.00  0.00     0.046 H 
ATOM     35  H   LIG d   1       8.980   0.930  -3.354  0.00  0.00     0.046 H 
ATOM     36  H   LIG d   1       8.134   1.776  -4.672  0.00  0.00     0.046 H 
ENDBRANCH  20  33
BRANCH   9  37
ATOM     37  C   LIG d   1      10.762  -3.081  -6.035  0.00  0.00     0.014 C 
ATOM     38  H   LIG d   1      10.988  -3.184  -7.096  0.00  0.00     0.046 H 
ATOM     39  H   LIG d   1      10.837  -2.032  -5.749  0.00  0.00     0.046 H 
ATOM     40  H   LIG d   1      11.473  -3.668  -5.453  0.00  0.00     0.046 H 
ENDBRANCH   9  37
TORSDOF 3
ENDMDL
MODEL 6
REMARK VINA RESULT:      -6.1      4.464      6.989
REMARK  3 active torsions:
REMARK  status: ('A' for Active; 'I' for Inactive)
REMARK    1  A    between atoms: C_1  and  C_2 
REMARK    2  A    between atoms: N_10  and  C_23 
REMARK    3  A    between atoms: N_21  and  C_22 
ROOT
ATOM      1  C   LIG d   1       6.109  -3.050  -4.619  0.00  0.00    -0.028 A 
ATOM      2  C   LIG d   1       6.118  -1.734  -4.169  0.00  0.00     0.030 A 
ATOM      3  C   LIG d   1       5.105  -0.867  -3.540  0.00  0.00     0.009 A 
ATOM      4  C   LIG d   1       3.775  -1.056  -3.173  0.00  0.00    -0.052 A 
ATOM      5  C   LIG d   1       3.073  -0.024  -2.589  0.00  0.00    -0.061 A 
ATOM      6  C   LIG d   1       3.686   1.200  -2.366  0.00  0.00    -0.060 A 
ATOM      7  C   LIG d   1       5.001   1.400  -2.726  0.00  0.00    -0.037 A 
ATOM      8  C   LIG d   1       5.727   0.370  -3.316  0.00  0.00     0.051 A 
ATOM      9  N   LIG d   1       7.033   0.290  -3.768  0.00  0.00    -0.328 N 
ATOM     10  C   LIG d   1       7.290  -0.965  -4.284  0.00  0.00     0.144 A 
ATOM     11  N   LIG d   1       8.383  -1.491  -4.820  0.00  0.00    -0.211 NA
ATOM     12  C   LIG d   1       8.420  -2.740  -5.264  0.00  0.00     0.144 A 
ATOM     13  C   LIG d   1       7.280  -3.559  -5.170  0.00  0.00     0.030 A 
ATOM     14  C   LIG d   1       7.653  -4.869  -5.735  0.00  0.00     0.009 A 
ATOM     15  C   LIG d   1       6.965  -6.064  -5.920  0.00  0.00    -0.052 A 
ATOM     16  C   LIG d   1       7.606  -7.141  -6.494  0.00  0.00    -0.061 A 
ATOM     17  C   LIG d   1       8.932  -7.036  -6.885  0.00  0.00    -0.060 A 
ATOM     18  C   LIG d   1       9.625  -5.858  -6.707  0.00  0.00    -0.037 A 
ATOM     19  C   LIG d   1       8.994  -4.760  -6.130  0.00  0.00     0.051 A 
ATOM     20  N   LIG d   1       9.432  -3.477  -5.846  0.00  0.00    -0.328 N 
ATOM     21  H   LIG d   1       3.295  -2.008  -3.345  0.00  0.00     0.062 H 
ATOM     22  H   LIG d   1       2.041  -0.169  -2.303  0.00  0.00     0.062 H 
ATOM     23  H   LIG d   1       3.128   2.002  -1.908  0.00  0.00     0.062 H 
ATOM     24  H   LIG d   1       5.470   2.356  -2.548  0.00  0.00     0.064 H 
ATOM     25  H   LIG d   1       5.932  -6.148  -5.616  0.00  0.00     0.062 H 
ATOM     26  H   LIG d   1       7.074  -8.070  -6.639  0.00  0.00     0.062 H 
ATOM     27  H   LIG d   1       9.427  -7.886  -7.334  0.00  0.00     0.062 H 
ATOM     28  H   LIG d   1      10.658  -5.787  -7.014  0.00  0.00     0.064 H 
ENDROOT
BRANCH   1  29
ATOM     29  C   LIG d   1       4.869  -3.900  -4.508  0.00  0.00    -0.038 C 
ATOM     30  H   LIG d   1       4.749  -4.488  -5.418  0.00  0.00     0.028 H 
ATOM     31  H   LIG d   1       4.962  -4.568  -3.653  0.00  0.00     0.028 H 
ATOM     32  H   LIG d   1       3.999  -3.256  -4.374  0.00  0.00     0.028 H 
ENDBRANCH   1  29
BRANCH  20  33
ATOM     33  C   LIG d   1      10.783  -2.976  -6.113  0.00  0.00     0.014 C 
ATOM     34  H   LIG d   1      11.501  -3.786  -5.984  0.00  0.00     0.046 H 
ATOM     35  H   LIG d   1      10.837  -2.603  -7.135  0.00  0.00     0.046 H 
ATOM     36  H   LIG d   1      11.014  -2.169  -5.419  0.00  0.00     0.046 H 
ENDBRANCH  20  33
BRANCH   9  37
ATOM     37  C   LIG d   1       8.006   1.383  -3.707  0.00  0.00     0.014 C 
ATOM     38  H   LIG d   1       7.601   2.259  -4.213  0.00  0.00     0.046 H 
ATOM     39  H   LIG d   1       8.211   1.630  -2.665  0.00  0.00     0.046 H 
ATOM     40  H   LIG d   1       8.930   1.076  -4.197  0.00  0.00     0.046 H 
ENDBRANCH   9  37
TORSDOF 3
ENDMDL
MODEL 7
REMARK VINA RESULT:      -5.9      4.287      6.524
REMARK  3 active torsions:
REMARK  status: ('A' for Active; 'I' for Inactive)
REMARK    1  A    between atoms: C_1  and  C_2 
REMARK    2  A    between atoms: N_10  and  C_23 
REMARK    3  A    between atoms: N_21  and  C_22 
ROOT
ATOM      1  C   LIG d   1       7.361   0.977  -4.989  0.00  0.00    -0.028 A 
ATOM      2  C   LIG d   1       6.466  -0.085  -4.923  0.00  0.00     0.030 A 
ATOM      3  C   LIG d   1       5.612  -0.631  -3.852  0.00  0.00     0.009 A 
ATOM      4  C   LIG d   1       5.397  -0.277  -2.522  0.00  0.00    -0.052 A 
ATOM      5  C   LIG d   1       4.511  -1.003  -1.756  0.00  0.00    -0.061 A 
ATOM      6  C   LIG d   1       3.834  -2.083  -2.304  0.00  0.00    -0.060 A 
ATOM      7  C   LIG d   1       4.039  -2.443  -3.618  0.00  0.00    -0.037 A 
ATOM      8  C   LIG d   1       4.929  -1.722  -4.409  0.00  0.00     0.051 A 
ATOM      9  N   LIG d   1       5.321  -1.855  -5.730  0.00  0.00    -0.328 N 
ATOM     10  C   LIG d   1       6.244  -0.882  -6.060  0.00  0.00     0.144 A 
ATOM     11  N   LIG d   1       6.885  -0.623  -7.192  0.00  0.00    -0.211 NA
ATOM     12  C   LIG d   1       7.747   0.378  -7.301  0.00  0.00     0.144 A 
ATOM     13  C   LIG d   1       8.005   1.213  -6.199  0.00  0.00     0.030 A 
ATOM     14  C   LIG d   1       8.989   2.215  -6.649  0.00  0.00     0.009 A 
ATOM     15  C   LIG d   1       9.623   3.284  -6.024  0.00  0.00    -0.052 A 
ATOM     16  C   LIG d   1      10.518   4.058  -6.731  0.00  0.00    -0.061 A 
ATOM     17  C   LIG d   1      10.786   3.774  -8.062  0.00  0.00    -0.060 A 
ATOM     18  C   LIG d   1      10.164   2.718  -8.692  0.00  0.00    -0.037 A 
ATOM     19  C   LIG d   1       9.258   1.926  -7.994  0.00  0.00     0.051 A 
ATOM     20  N   LIG d   1       8.511   0.819  -8.362  0.00  0.00    -0.328 N 
ATOM     21  H   LIG d   1       5.922   0.563  -2.093  0.00  0.00     0.062 H 
ATOM     22  H   LIG d   1       4.342  -0.730  -0.724  0.00  0.00     0.062 H 
ATOM     23  H   LIG d   1       3.142  -2.645  -1.695  0.00  0.00     0.062 H 
ATOM     24  H   LIG d   1       3.508  -3.285  -4.036  0.00  0.00     0.064 H 
ATOM     25  H   LIG d   1       9.416   3.507  -4.988  0.00  0.00     0.062 H 
ATOM     26  H   LIG d   1      11.012   4.888  -6.248  0.00  0.00     0.062 H 
ATOM     27  H   LIG d   1      11.489   4.386  -8.609  0.00  0.00     0.062 H 
ATOM     28  H   LIG d   1      10.379   2.506  -9.730  0.00  0.00     0.064 H 
ENDROOT
BRANCH   1  29
ATOM     29  C   LIG d   1       7.619   1.850  -3.788  0.00  0.00    -0.038 C 
ATOM     30  H   LIG d   1       6.748   1.837  -3.134  0.00  0.00     0.028 H 
ATOM     31  H   LIG d   1       8.487   1.475  -3.246  0.00  0.00     0.028 H 
ATOM     32  H   LIG d   1       7.810   2.872  -4.117  0.00  0.00     0.028 H 
ENDBRANCH   1  29
BRANCH  20  33
ATOM     33  C   LIG d   1       8.519   0.211  -9.696  0.00  0.00     0.014 C 
ATOM     34  H   LIG d   1       9.380  -0.451  -9.787  0.00  0.00     0.046 H 
ATOM     35  H   LIG d   1       7.604  -0.363  -9.839  0.00  0.00     0.046 H 
ATOM     36  H   LIG d   1       8.580   0.994 -10.451  0.00  0.00     0.046 H 
ENDBRANCH  20  33
BRANCH   9  37
ATOM     37  C   LIG d   1       4.827  -2.884  -6.647  0.00  0.00     0.014 C 
ATOM     38  H   LIG d   1       4.743  -3.834  -6.119  0.00  0.00     0.046 H 
ATOM     39  H   LIG d   1       3.847  -2.593  -7.026  0.00  0.00     0.046 H 
ATOM     40  H   LIG d   1       5.521  -2.992  -7.481  0.00  0.00     0.046 H 
ENDBRANCH   9  37
TORSDOF 3
ENDMDL
MODEL 8
REMARK VINA RESULT:      -5.8      4.329      6.306
REMARK  3 active torsions:
REMARK  status: ('A' for Active; 'I' for Inactive)
REMARK    1  A    between atoms: C_1  and  C_2 
REMARK    2  A    between atoms: N_10  and  C_23 
REMARK    3  A    between atoms: N_21  and  C_22 
ROOT
ATOM      1  C   LIG d   1       8.119   0.742  -4.324  0.00  0.00    -0.028 A 
ATOM      2  C   LIG d   1       9.192   0.181  -5.009  0.00  0.00     0.030 A 
ATOM      3  C   LIG d   1      10.519   0.684  -5.407  0.00  0.00     0.009 A 
ATOM      4  C   LIG d   1      11.173   1.902  -5.239  0.00  0.00    -0.052 A 
ATOM      5  C   LIG d   1      12.447   2.069  -5.740  0.00  0.00    -0.061 A 
ATOM      6  C   LIG d   1      13.077   1.029  -6.408  0.00  0.00    -0.060 A 
ATOM      7  C   LIG d   1      12.439  -0.180  -6.580  0.00  0.00    -0.037 A 
ATOM      8  C   LIG d   1      11.154  -0.369  -6.082  0.00  0.00     0.051 A 
ATOM      9  N   LIG d   1      10.293  -1.453  -6.108  0.00  0.00    -0.328 N 
ATOM     10  C   LIG d   1       9.108  -1.145  -5.469  0.00  0.00     0.144 A 
ATOM     11  N   LIG d   1       8.013  -1.860  -5.252  0.00  0.00    -0.211 NA
ATOM     12  C   LIG d   1       6.966  -1.367  -4.605  0.00  0.00     0.144 A 
ATOM     13  C   LIG d   1       6.993  -0.048  -4.116  0.00  0.00     0.030 A 
ATOM     14  C   LIG d   1       5.698   0.182  -3.450  0.00  0.00     0.009 A 
ATOM     15  C   LIG d   1       5.139   1.273  -2.790  0.00  0.00    -0.052 A 
ATOM     16  C   LIG d   1       3.871   1.176  -2.259  0.00  0.00    -0.061 A 
ATOM     17  C   LIG d   1       3.152  -0.003  -2.380  0.00  0.00    -0.060 A 
ATOM     18  C   LIG d   1       3.695  -1.091  -3.031  0.00  0.00    -0.037 A 
ATOM     19  C   LIG d   1       4.973  -1.012  -3.574  0.00  0.00     0.051 A 
ATOM     20  N   LIG d   1       5.747  -1.923  -4.274  0.00  0.00    -0.328 N 
ATOM     21  H   LIG d   1      10.685   2.713  -4.719  0.00  0.00     0.062 H 
ATOM     22  H   LIG d   1      12.956   3.012  -5.610  0.00  0.00     0.062 H 
ATOM     23  H   LIG d   1      14.074   1.170  -6.795  0.00  0.00     0.062 H 
ATOM     24  H   LIG d   1      12.938  -0.984  -7.102  0.00  0.00     0.064 H 
ATOM     25  H   LIG d   1       5.697   2.193  -2.695  0.00  0.00     0.062 H 
ATOM     26  H   LIG d   1       3.434   2.022  -1.747  0.00  0.00     0.062 H 
ATOM     27  H   LIG d   1       2.159  -0.071  -1.961  0.00  0.00     0.062 H 
ATOM     28  H   LIG d   1       3.126  -2.006  -3.119  0.00  0.00     0.064 H 
ENDROOT
BRANCH   1  29
ATOM     29  C   LIG d   1       8.177   2.160  -3.817  0.00  0.00    -0.038 C 
ATOM     30  H   LIG d   1       9.008   2.681  -4.291  0.00  0.00     0.028 H 
ATOM     31  H   LIG d   1       7.244   2.670  -4.056  0.00  0.00     0.028 H 
ATOM     32  H   LIG d   1       8.321   2.153  -2.736  0.00  0.00     0.028 H 
ENDBRANCH   1  29
BRANCH  20  33
ATOM     33  C   LIG d   1       5.334  -3.289  -4.604  0.00  0.00     0.014 C 
ATOM     34  H   LIG d   1       4.267  -3.303  -4.823  0.00  0.00     0.046 H 
ATOM     35  H   LIG d   1       5.887  -3.635  -5.477  0.00  0.00     0.046 H 
ATOM     36  H   LIG d   1       5.542  -3.945  -3.759  0.00  0.00     0.046 H 
ENDBRANCH  20  33
BRANCH   9  37
ATOM     37  C   LIG d   1      10.598  -2.745  -6.727  0.00  0.00     0.014 C 
ATOM     38  H   LIG d   1      11.664  -2.952  -6.632  0.00  0.00     0.046 H 
ATOM     39  H   LIG d   1      10.031  -3.531  -6.226  0.00  0.00     0.046 H 
ATOM     40  H   LIG d   1      10.325  -2.717  -7.782  0.00  0.00     0.046 H 
ENDBRANCH   9  37
TORSDOF 3
ENDMDL
MODEL 9
REMARK VINA RESULT:      -5.8      9.221     12.388
REMARK  3 active torsions:
REMARK  status: ('A' for Active; 'I' for Inactive)
REMARK    1  A    between atoms: C_1  and  C_2 
REMARK    2  A    between atoms: N_10  and  C_23 
REMARK    3  A    between atoms: N_21  and  C_22 
ROOT
ATOM      1  C   LIG d   1      10.223   5.721  -4.041  0.00  0.00    -0.028 A 
ATOM      2  C   LIG d   1      10.331   6.698  -3.057  0.00  0.00     0.030 A 
ATOM      3  C   LIG d   1      10.598   6.657  -1.609  0.00  0.00     0.009 A 
ATOM      4  C   LIG d   1      10.837   5.624  -0.706  0.00  0.00    -0.052 A 
ATOM      5  C   LIG d   1      11.058   5.915   0.624  0.00  0.00    -0.061 A 
ATOM      6  C   LIG d   1      11.043   7.230   1.064  0.00  0.00    -0.060 A 
ATOM      7  C   LIG d   1      10.806   8.260   0.180  0.00  0.00    -0.037 A 
ATOM      8  C   LIG d   1      10.582   7.988  -1.166  0.00  0.00     0.051 A 
ATOM      9  N   LIG d   1      10.325   8.807  -2.253  0.00  0.00    -0.328 N 
ATOM     10  C   LIG d   1      10.171   8.053  -3.400  0.00  0.00     0.144 A 
ATOM     11  N   LIG d   1       9.918   8.399  -4.655  0.00  0.00    -0.211 NA
ATOM     12  C   LIG d   1       9.806   7.502  -5.625  0.00  0.00     0.144 A 
ATOM     13  C   LIG d   1       9.962   6.133  -5.344  0.00  0.00     0.030 A 
ATOM     14  C   LIG d   1       9.788   5.417  -6.622  0.00  0.00     0.009 A 
ATOM     15  C   LIG d   1       9.823   4.073  -6.980  0.00  0.00    -0.052 A 
ATOM     16  C   LIG d   1       9.617   3.709  -8.294  0.00  0.00    -0.061 A 
ATOM     17  C   LIG d   1       9.374   4.677  -9.256  0.00  0.00    -0.060 A 
ATOM     18  C   LIG d   1       9.337   6.012  -8.913  0.00  0.00    -0.037 A 
ATOM     19  C   LIG d   1       9.543   6.399  -7.593  0.00  0.00     0.051 A 
ATOM     20  N   LIG d   1       9.551   7.638  -6.974  0.00  0.00    -0.328 N 
ATOM     21  H   LIG d   1      10.850   4.599  -1.046  0.00  0.00     0.062 H 
ATOM     22  H   LIG d   1      11.245   5.115   1.326  0.00  0.00     0.062 H 
ATOM     23  H   LIG d   1      11.218   7.447   2.106  0.00  0.00     0.062 H 
ATOM     24  H   LIG d   1      10.797   9.281   0.532  0.00  0.00     0.064 H 
ATOM     25  H   LIG d   1      10.011   3.317  -6.232  0.00  0.00     0.062 H 
ATOM     26  H   LIG d   1       9.643   2.666  -8.575  0.00  0.00     0.062 H 
ATOM     27  H   LIG d   1       9.213   4.384 -10.283  0.00  0.00     0.062 H 
ATOM     28  H   LIG d   1       9.149   6.759  -9.671  0.00  0.00     0.064 H 
ENDROOT
BRANCH   1  29
ATOM     29  C   LIG d   1      10.391   4.261  -3.707  0.00  0.00    -0.038 C 
ATOM     30  H   LIG d   1      10.685   3.715  -4.602  0.00  0.00     0.028 H 
ATOM     31  H   LIG d   1      11.160   4.149  -2.943  0.00  0.00     0.028 H 
ATOM     32  H   LIG d   1       9.447   3.864  -3.333  0.00  0.00     0.028 H 
ENDBRANCH   1  29
BRANCH  20  33
ATOM     33  C   LIG d   1       9.333   8.915  -7.659  0.00  0.00     0.014 C 
ATOM     34  H   LIG d   1       8.333   9.283  -7.431  0.00  0.00     0.046 H 
ATOM     35  H   LIG d   1      10.073   9.640  -7.320  0.00  0.00     0.046 H 
ATOM     36  H   LIG d   1       9.431   8.771  -8.735  0.00  0.00     0.046 H 
ENDBRANCH  20  33
BRANCH   9  37
ATOM     37  C   LIG d   1      10.230  10.267  -2.194  0.00  0.00     0.014 C 
ATOM     38  H   LIG d   1      10.784  10.633  -1.329  0.00  0.00     0.046 H 
ATOM     39  H   LIG d   1      10.652  10.696  -3.103  0.00  0.00     0.046 H 
ATOM     40  H   LIG d   1       9.184  10.560  -2.105  0.00  0.00     0.046 H 
ENDBRANCH   9  37
TORSDOF 3
ENDMDL
MODEL 10
REMARK VINA RESULT:      -5.8     10.182     13.821
REMARK  3 active torsions:
REMARK  status: ('A' for Active; 'I' for Inactive)
REMARK    1  A    between atoms: C_1  and  C_2 
REMARK    2  A    between atoms: N_10  and  C_23 
REMARK    3  A    between atoms: N_21  and  C_22 
ROOT
ATOM      1  C   LIG d   1      10.709   7.018  -1.073  0.00  0.00    -0.028 A 
ATOM      2  C   LIG d   1      10.908   8.361  -0.773  0.00  0.00     0.030 A 
ATOM      3  C   LIG d   1      11.351   9.078   0.436  0.00  0.00     0.009 A 
ATOM      4  C   LIG d   1      11.728   8.665   1.712  0.00  0.00    -0.052 A 
ATOM      5  C   LIG d   1      12.102   9.603   2.652  0.00  0.00    -0.061 A 
ATOM      6  C   LIG d   1      12.103  10.952   2.331  0.00  0.00    -0.060 A 
ATOM      7  C   LIG d   1      11.731  11.372   1.072  0.00  0.00    -0.037 A 
ATOM      8  C   LIG d   1      11.351  10.442   0.110  0.00  0.00     0.051 A 
ATOM      9  N   LIG d   1      10.940  10.576  -1.206  0.00  0.00    -0.328 N 
ATOM     10  C   LIG d   1      10.669   9.338  -1.755  0.00  0.00     0.144 A 
ATOM     11  N   LIG d   1      10.255   8.982  -2.964  0.00  0.00    -0.211 NA
ATOM     12  C   LIG d   1      10.050   7.714  -3.295  0.00  0.00     0.144 A 
ATOM     13  C   LIG d   1      10.279   6.693  -2.355  0.00  0.00     0.030 A 
ATOM     14  C   LIG d   1       9.970   5.420  -3.033  0.00  0.00     0.009 A 
ATOM     15  C   LIG d   1      10.000   4.088  -2.631  0.00  0.00    -0.052 A 
ATOM     16  C   LIG d   1       9.645   3.096  -3.520  0.00  0.00    -0.061 A 
ATOM     17  C   LIG d   1       9.260   3.422  -4.811  0.00  0.00    -0.060 A 
ATOM     18  C   LIG d   1       9.226   4.738  -5.222  0.00  0.00    -0.037 A 
ATOM     19  C   LIG d   1       9.581   5.752  -4.338  0.00  0.00     0.051 A 
ATOM     20  N   LIG d   1       9.629   7.130  -4.472  0.00  0.00    -0.328 N 
ATOM     21  H   LIG d   1      11.729   7.615   1.965  0.00  0.00     0.062 H 
ATOM     22  H   LIG d   1      12.395   9.285   3.642  0.00  0.00     0.062 H 
ATOM     23  H   LIG d   1      12.397  11.678   3.073  0.00  0.00     0.062 H 
ATOM     24  H   LIG d   1      11.734  12.425   0.832  0.00  0.00     0.064 H 
ATOM     25  H   LIG d   1      10.300   3.831  -1.626  0.00  0.00     0.062 H 
ATOM     26  H   LIG d   1       9.667   2.061  -3.210  0.00  0.00     0.062 H 
ATOM     27  H   LIG d   1       8.983   2.639  -5.502  0.00  0.00     0.062 H 
ATOM     28  H   LIG d   1       8.925   4.981  -6.230  0.00  0.00     0.064 H 
ENDROOT
BRANCH   1  29
ATOM     29  C   LIG d   1      10.958   5.946  -0.043  0.00  0.00    -0.038 C 
ATOM     30  H   LIG d   1      11.356   5.058  -0.531  0.00  0.00     0.028 H 
ATOM     31  H   LIG d   1      11.675   6.310   0.693  0.00  0.00     0.028 H 
ATOM     32  H   LIG d   1      10.020   5.698   0.456  0.00  0.00     0.028 H 
ENDBRANCH   1  29
BRANCH  20  33
ATOM     33  C   LIG d   1       9.293   7.863  -5.695  0.00  0.00     0.014 C 
ATOM     34  H   LIG d   1       8.214   8.016  -5.742  0.00  0.00     0.046 H 
ATOM     35  H   LIG d   1       9.795   8.830  -5.689  0.00  0.00     0.046 H 
ATOM     36  H   LIG d   1       9.617   7.289  -6.562  0.00  0.00     0.046 H 
ENDBRANCH  20  33
BRANCH   9  37
ATOM     37  C   LIG d   1      10.811  11.851  -1.914  0.00  0.00     0.014 C 
ATOM     38  H   LIG d   1       9.763  12.151  -1.935  0.00  0.00     0.046 H 
ATOM     39  H   LIG d   1      11.396  12.614  -1.399  0.00  0.00     0.046 H 
ATOM     40  H   LIG d   1      11.178  11.739  -2.935  0.00  0.00     0.046 H 
ENDBRANCH   9  37
TORSDOF 3
ENDMDL
