MODEL 1
REMARK VINA RESULT:      -7.1      0.000      0.000
REMARK  6 active torsions:
REMARK  status: ('A' for Active; 'I' for Inactive)
REMARK    1  A    between atoms: C_1  and  C_2 
REMARK    2  A    between atoms: C_6  and  C_21 
REMARK    3  A    between atoms: C_10  and  C_20 
REMARK    4  A    between atoms: C_15  and  C_16 
REMARK    5  A    between atoms: C_16  and  C_17 
REMARK    6  A    between atoms: C_17  and  C_18 
ROOT
ATOM      1  C   LIG d   1       5.349  -1.495  -3.200  0.00  0.00    -0.030 A 
ATOM      2  C   LIG d   1       6.435  -2.071  -3.999  0.00  0.00     0.022 A 
ATOM      3  C   LIG d   1       6.449  -3.432  -4.307  0.00  0.00    -0.039 A 
ATOM      4  C   LIG d   1       7.490  -3.945  -5.065  0.00  0.00     0.029 A 
ATOM      5  C   LIG d   1       7.824  -5.292  -5.570  0.00  0.00     0.028 A 
ATOM      6  C   LIG d   1       8.982  -5.153  -6.254  0.00  0.00     0.101 A 
ATOM      7  O   LIG d   1       9.388  -3.872  -6.220  0.00  0.00    -0.462 OA
ATOM      8  C   LIG d   1       8.528  -3.106  -5.518  0.00  0.00     0.142 A 
ATOM      9  C   LIG d   1       8.507  -1.754  -5.206  0.00  0.00     0.035 A 
ATOM     10  C   LIG d   1       7.472  -1.230  -4.452  0.00  0.00     0.146 A 
ATOM     11  O   LIG d   1       7.448   0.087  -4.145  0.00  0.00    -0.422 OA
ATOM     12  C   LIG d   1       6.456   0.619  -3.415  0.00  0.00     0.341 A 
ATOM     13  O   LIG d   1       6.478   1.810  -3.165  0.00  0.00    -0.245 OA
ATOM     14  C   LIG d   1       5.388  -0.165  -2.930  0.00  0.00     0.041 A 
ATOM     15  H   LIG d   1       5.656  -4.079  -3.962  0.00  0.00     0.063 H 
ATOM     16  H   LIG d   1       9.505  -5.955  -6.754  0.00  0.00     0.104 H 
ENDROOT
BRANCH   5  17
ATOM     17  C   LIG d   1       7.049  -6.539  -5.369  0.00  0.00    -0.014 A 
ATOM     18  C   LIG d   1       7.645  -7.643  -4.761  0.00  0.00    -0.054 A 
ATOM     19  C   LIG d   1       6.917  -8.801  -4.576  0.00  0.00    -0.061 A 
ATOM     20  H   LIG d   1       8.674  -7.593  -4.437  0.00  0.00     0.062 H 
ATOM     21  C   LIG d   1       5.599  -8.867  -4.991  0.00  0.00    -0.062 A 
ATOM     22  H   LIG d   1       7.379  -9.658  -4.106  0.00  0.00     0.062 H 
ATOM     23  C   LIG d   1       5.003  -7.775  -5.594  0.00  0.00    -0.061 A 
ATOM     24  H   LIG d   1       5.035  -9.775  -4.844  0.00  0.00     0.062 H 
ATOM     25  C   LIG d   1       5.719  -6.609  -5.780  0.00  0.00    -0.054 A 
ATOM     26  H   LIG d   1       3.974  -7.832  -5.915  0.00  0.00     0.062 H 
ATOM     27  H   LIG d   1       5.251  -5.755  -6.246  0.00  0.00     0.062 H 
ENDBRANCH   5  17
BRANCH   9  28
ATOM     28  C   LIG d   1       9.615  -0.854  -5.690  0.00  0.00    -0.033 C 
ATOM     29  H   LIG d   1       9.241   0.166  -5.781  0.00  0.00     0.028 H 
ATOM     30  H   LIG d   1      10.439  -0.877  -4.977  0.00  0.00     0.028 H 
ATOM     31  H   LIG d   1       9.966  -1.201  -6.662  0.00  0.00     0.028 H 
ENDBRANCH   9  28
BRANCH   1  32
ATOM     32  C   LIG d   1       4.220  -2.355  -2.694  0.00  0.00    -0.039 C 
ATOM     33  H   LIG d   1       4.627  -3.215  -2.164  0.00  0.00     0.028 H 
ATOM     34  H   LIG d   1       3.597  -1.773  -2.015  0.00  0.00     0.028 H 
ATOM     35  H   LIG d   1       3.618  -2.697  -3.536  0.00  0.00     0.028 H 
ENDBRANCH   1  32
BRANCH  14  36
ATOM     36  C   LIG d   1       4.297   0.470  -2.107  0.00  0.00    -0.016 C 
ATOM     37  H   LIG d   1       3.638  -0.304  -1.716  0.00  0.00     0.032 H 
ATOM     38  H   LIG d   1       4.741   1.022  -1.279  0.00  0.00     0.032 H 
BRANCH  36  39
ATOM     39  C   LIG d   1       3.491   1.431  -2.985  0.00  0.00    -0.009 C 
ATOM     40  H   LIG d   1       2.710   1.900  -2.388  0.00  0.00     0.033 H 
ATOM     41  H   LIG d   1       4.154   2.199  -3.384  0.00  0.00     0.033 H 
BRANCH  39  42
ATOM     42  C   LIG d   1       2.866   0.667  -4.123  0.00  0.00     0.042 C 
ATOM     43  O   LIG d   1       2.062  -0.207  -3.896  0.00  0.00    -0.550 OA
ATOM     44  O   LIG d   1       3.201   0.956  -5.390  0.00  0.00    -0.550 OA
ENDBRANCH  39  42
ENDBRANCH  36  39
ENDBRANCH  14  36
TORSDOF 6
ENDMDL
MODEL 2
REMARK VINA RESULT:      -6.9      2.064      2.997
REMARK  6 active torsions:
REMARK  status: ('A' for Active; 'I' for Inactive)
REMARK    1  A    between atoms: C_1  and  C_2 
REMARK    2  A    between atoms: C_6  and  C_21 
REMARK    3  A    between atoms: C_10  and  C_20 
REMARK    4  A    between atoms: C_15  and  C_16 
REMARK    5  A    between atoms: C_16  and  C_17 
REMARK    6  A    between atoms: C_17  and  C_18 
ROOT
ATOM      1  C   LIG d   1       4.263  -1.797  -4.151  0.00  0.00    -0.030 A 
ATOM      2  C   LIG d   1       4.912  -2.440  -5.298  0.00  0.00     0.022 A 
ATOM      3  C   LIG d   1       5.657  -3.609  -5.134  0.00  0.00    -0.039 A 
ATOM      4  C   LIG d   1       6.257  -4.192  -6.239  0.00  0.00     0.029 A 
ATOM      5  C   LIG d   1       7.091  -5.393  -6.437  0.00  0.00     0.028 A 
ATOM      6  C   LIG d   1       7.374  -5.432  -7.759  0.00  0.00     0.101 A 
ATOM      7  O   LIG d   1       6.804  -4.387  -8.384  0.00  0.00    -0.462 OA
ATOM      8  C   LIG d   1       6.122  -3.612  -7.516  0.00  0.00     0.142 A 
ATOM      9  C   LIG d   1       5.380  -2.449  -7.671  0.00  0.00     0.035 A 
ATOM     10  C   LIG d   1       4.776  -1.860  -6.576  0.00  0.00     0.146 A 
ATOM     11  O   LIG d   1       4.053  -0.726  -6.722  0.00  0.00    -0.422 OA
ATOM     12  C   LIG d   1       3.457  -0.134  -5.676  0.00  0.00     0.341 A 
ATOM     13  O   LIG d   1       2.816   0.886  -5.858  0.00  0.00    -0.245 OA
ATOM     14  C   LIG d   1       3.552  -0.661  -4.370  0.00  0.00     0.041 A 
ATOM     15  H   LIG d   1       5.762  -4.056  -4.156  0.00  0.00     0.063 H 
ATOM     16  H   LIG d   1       7.971  -6.191  -8.242  0.00  0.00     0.104 H 
ENDROOT
BRANCH   5  17
ATOM     17  C   LIG d   1       7.529  -6.358  -5.401  0.00  0.00    -0.014 A 
ATOM     18  C   LIG d   1       6.863  -7.573  -5.250  0.00  0.00    -0.054 A 
ATOM     19  C   LIG d   1       7.276  -8.467  -4.284  0.00  0.00    -0.061 A 
ATOM     20  H   LIG d   1       6.024  -7.813  -5.887  0.00  0.00     0.062 H 
ATOM     21  C   LIG d   1       8.349  -8.161  -3.466  0.00  0.00    -0.062 A 
ATOM     22  H   LIG d   1       6.760  -9.409  -4.165  0.00  0.00     0.062 H 
ATOM     23  C   LIG d   1       9.015  -6.957  -3.612  0.00  0.00    -0.061 A 
ATOM     24  H   LIG d   1       8.668  -8.863  -2.712  0.00  0.00     0.062 H 
ATOM     25  C   LIG d   1       8.614  -6.056  -4.579  0.00  0.00    -0.054 A 
ATOM     26  H   LIG d   1       9.852  -6.723  -2.971  0.00  0.00     0.062 H 
ATOM     27  H   LIG d   1       9.136  -5.119  -4.694  0.00  0.00     0.062 H 
ENDBRANCH   5  17
BRANCH   9  28
ATOM     28  C   LIG d   1       5.235  -1.828  -9.037  0.00  0.00    -0.033 C 
ATOM     29  H   LIG d   1       4.517  -1.009  -8.988  0.00  0.00     0.028 H 
ATOM     30  H   LIG d   1       6.200  -1.445  -9.366  0.00  0.00     0.028 H 
ATOM     31  H   LIG d   1       4.881  -2.580  -9.742  0.00  0.00     0.028 H 
ENDBRANCH   9  28
BRANCH   1  32
ATOM     32  C   LIG d   1       4.381  -2.381  -2.767  0.00  0.00    -0.039 C 
ATOM     33  H   LIG d   1       5.378  -2.798  -2.632  0.00  0.00     0.028 H 
ATOM     34  H   LIG d   1       4.212  -1.599  -2.027  0.00  0.00     0.028 H 
ATOM     35  H   LIG d   1       3.637  -3.168  -2.641  0.00  0.00     0.028 H 
ENDBRANCH   1  32
BRANCH  14  36
ATOM     36  C   LIG d   1       2.873   0.038  -3.221  0.00  0.00    -0.016 C 
ATOM     37  H   LIG d   1       1.809   0.135  -3.432  0.00  0.00     0.032 H 
ATOM     38  H   LIG d   1       3.012  -0.543  -2.309  0.00  0.00     0.032 H 
BRANCH  36  39
ATOM     39  C   LIG d   1       3.485   1.428  -3.037  0.00  0.00    -0.009 C 
ATOM     40  H   LIG d   1       3.607   1.904  -4.010  0.00  0.00     0.033 H 
ATOM     41  H   LIG d   1       2.827   2.035  -2.416  0.00  0.00     0.033 H 
BRANCH  39  42
ATOM     42  C   LIG d   1       4.830   1.300  -2.368  0.00  0.00     0.042 C 
ATOM     43  O   LIG d   1       4.899   0.961  -1.211  0.00  0.00    -0.550 OA
ATOM     44  O   LIG d   1       5.951   1.563  -3.059  0.00  0.00    -0.550 OA
ENDBRANCH  39  42
ENDBRANCH  36  39
ENDBRANCH  14  36
TORSDOF 6
ENDMDL
MODEL 3
REMARK VINA RESULT:      -6.8      3.440      7.429
REMARK  6 active torsions:
REMARK  status: ('A' for Active; 'I' for Inactive)
REMARK    1  A    between atoms: C_1  and  C_2 
REMARK    2  A    between atoms: C_6  and  C_21 
REMARK    3  A    between atoms: C_10  and  C_20 
REMARK    4  A    between atoms: C_15  and  C_16 
REMARK    5  A    between atoms: C_16  and  C_17 
REMARK    6  A    between atoms: C_17  and  C_18 
ROOT
ATOM      1  C   LIG d   1       5.568   0.420  -3.173  0.00  0.00    -0.030 A 
ATOM      2  C   LIG d   1       6.903   0.506  -3.772  0.00  0.00     0.022 A 
ATOM      3  C   LIG d   1       7.637   1.692  -3.713  0.00  0.00    -0.039 A 
ATOM      4  C   LIG d   1       8.898   1.739  -4.289  0.00  0.00     0.029 A 
ATOM      5  C   LIG d   1       9.928   2.788  -4.415  0.00  0.00     0.028 A 
ATOM      6  C   LIG d   1      10.952   2.221  -5.091  0.00  0.00     0.101 A 
ATOM      7  O   LIG d   1      10.657   0.944  -5.390  0.00  0.00    -0.462 OA
ATOM      8  C   LIG d   1       9.435   0.606  -4.931  0.00  0.00     0.142 A 
ATOM      9  C   LIG d   1       8.698  -0.570  -4.986  0.00  0.00     0.035 A 
ATOM     10  C   LIG d   1       7.440  -0.629  -4.414  0.00  0.00     0.146 A 
ATOM     11  O   LIG d   1       6.719  -1.772  -4.466  0.00  0.00    -0.422 OA
ATOM     12  C   LIG d   1       5.496  -1.855  -3.919  0.00  0.00     0.341 A 
ATOM     13  O   LIG d   1       4.885  -2.906  -3.991  0.00  0.00    -0.245 OA
ATOM     14  C   LIG d   1       4.900  -0.758  -3.262  0.00  0.00     0.041 A 
ATOM     15  H   LIG d   1       7.229   2.563  -3.222  0.00  0.00     0.063 H 
ATOM     16  H   LIG d   1      11.873   2.720  -5.353  0.00  0.00     0.104 H 
ENDROOT
BRANCH   5  17
ATOM     17  C   LIG d   1       9.856   4.178  -3.904  0.00  0.00    -0.014 A 
ATOM     18  C   LIG d   1       9.423   5.208  -4.737  0.00  0.00    -0.054 A 
ATOM     19  C   LIG d   1       9.358   6.499  -4.255  0.00  0.00    -0.061 A 
ATOM     20  H   LIG d   1       9.142   4.996  -5.758  0.00  0.00     0.062 H 
ATOM     21  C   LIG d   1       9.719   6.773  -2.948  0.00  0.00    -0.062 A 
ATOM     22  H   LIG d   1       9.024   7.299  -4.900  0.00  0.00     0.062 H 
ATOM     23  C   LIG d   1      10.148   5.754  -2.116  0.00  0.00    -0.061 A 
ATOM     24  H   LIG d   1       9.666   7.784  -2.576  0.00  0.00     0.062 H 
ATOM     25  C   LIG d   1      10.213   4.457  -2.586  0.00  0.00    -0.054 A 
ATOM     26  H   LIG d   1      10.428   5.973  -1.097  0.00  0.00     0.062 H 
ATOM     27  H   LIG d   1      10.544   3.662  -1.935  0.00  0.00     0.062 H 
ENDBRANCH   5  17
BRANCH   9  28
ATOM     28  C   LIG d   1       9.271  -1.783  -5.672  0.00  0.00    -0.033 C 
ATOM     29  H   LIG d   1       8.845  -1.870  -6.672  0.00  0.00     0.028 H 
ATOM     30  H   LIG d   1      10.353  -1.681  -5.747  0.00  0.00     0.028 H 
ATOM     31  H   LIG d   1       9.029  -2.675  -5.095  0.00  0.00     0.028 H 
ENDBRANCH   9  28
BRANCH   1  32
ATOM     32  C   LIG d   1       4.954   1.608  -2.478  0.00  0.00    -0.039 C 
ATOM     33  H   LIG d   1       4.176   2.037  -3.109  0.00  0.00     0.028 H 
ATOM     34  H   LIG d   1       4.518   1.289  -1.531  0.00  0.00     0.028 H 
ATOM     35  H   LIG d   1       5.724   2.356  -2.289  0.00  0.00     0.028 H 
ENDBRANCH   1  32
BRANCH  14  36
ATOM     36  C   LIG d   1       3.522  -0.891  -2.667  0.00  0.00    -0.016 C 
ATOM     37  H   LIG d   1       3.467  -1.805  -2.077  0.00  0.00     0.032 H 
ATOM     38  H   LIG d   1       3.318  -0.033  -2.027  0.00  0.00     0.032 H 
BRANCH  36  39
ATOM     39  C   LIG d   1       2.485  -0.946  -3.790  0.00  0.00    -0.009 C 
ATOM     40  H   LIG d   1       2.544  -1.910  -4.294  0.00  0.00     0.033 H 
ATOM     41  H   LIG d   1       1.487  -0.817  -3.370  0.00  0.00     0.033 H 
BRANCH  39  42
ATOM     42  C   LIG d   1       2.759   0.156  -4.781  0.00  0.00     0.042 C 
ATOM     43  O   LIG d   1       2.489   1.301  -4.502  0.00  0.00    -0.550 OA
ATOM     44  O   LIG d   1       3.303  -0.133  -5.973  0.00  0.00    -0.550 OA
ENDBRANCH  39  42
ENDBRANCH  36  39
ENDBRANCH  14  36
TORSDOF 6
ENDMDL
MODEL 4
REMARK VINA RESULT:      -6.6      2.604      3.950
REMARK  6 active torsions:
REMARK  status: ('A' for Active; 'I' for Inactive)
REMARK    1  A    between atoms: C_1  and  C_2 
REMARK    2  A    between atoms: C_6  and  C_21 
REMARK    3  A    between atoms: C_10  and  C_20 
REMARK    4  A    between atoms: C_15  and  C_16 
REMARK    5  A    between atoms: C_16  and  C_17 
REMARK    6  A    between atoms: C_17  and  C_18 
ROOT
ATOM      1  C   LIG d   1       5.227  -2.465  -4.959  0.00  0.00    -0.030 A 
ATOM      2  C   LIG d   1       4.835  -3.551  -5.864  0.00  0.00     0.022 A 
ATOM      3  C   LIG d   1       5.095  -4.883  -5.535  0.00  0.00    -0.039 A 
ATOM      4  C   LIG d   1       4.710  -5.885  -6.412  0.00  0.00     0.029 A 
ATOM      5  C   LIG d   1       4.817  -7.357  -6.396  0.00  0.00     0.028 A 
ATOM      6  C   LIG d   1       4.254  -7.781  -7.550  0.00  0.00     0.101 A 
ATOM      7  O   LIG d   1       3.818  -6.728  -8.264  0.00  0.00    -0.462 OA
ATOM      8  C   LIG d   1       4.068  -5.568  -7.625  0.00  0.00     0.142 A 
ATOM      9  C   LIG d   1       3.815  -4.241  -7.945  0.00  0.00     0.035 A 
ATOM     10  C   LIG d   1       4.192  -3.232  -7.077  0.00  0.00     0.146 A 
ATOM     11  O   LIG d   1       3.948  -1.938  -7.385  0.00  0.00    -0.422 OA
ATOM     12  C   LIG d   1       4.304  -0.942  -6.560  0.00  0.00     0.341 A 
ATOM     13  O   LIG d   1       4.063   0.208  -6.881  0.00  0.00    -0.245 OA
ATOM     14  C   LIG d   1       4.951  -1.190  -5.331  0.00  0.00     0.041 A 
ATOM     15  H   LIG d   1       5.587  -5.130  -4.606  0.00  0.00     0.063 H 
ATOM     16  H   LIG d   1       4.167  -8.813  -7.854  0.00  0.00     0.104 H 
ENDROOT
BRANCH   5  17
ATOM     17  C   LIG d   1       5.417  -8.198  -5.334  0.00  0.00    -0.014 A 
ATOM     18  C   LIG d   1       6.761  -8.047  -4.997  0.00  0.00    -0.054 A 
ATOM     19  C   LIG d   1       7.313  -8.833  -4.006  0.00  0.00    -0.061 A 
ATOM     20  H   LIG d   1       7.370  -7.318  -5.512  0.00  0.00     0.062 H 
ATOM     21  C   LIG d   1       6.537  -9.768  -3.347  0.00  0.00    -0.062 A 
ATOM     22  H   LIG d   1       8.356  -8.717  -3.745  0.00  0.00     0.062 H 
ATOM     23  C   LIG d   1       5.202  -9.922  -3.676  0.00  0.00    -0.061 A 
ATOM     24  H   LIG d   1       6.973 -10.380  -2.573  0.00  0.00     0.062 H 
ATOM     25  C   LIG d   1       4.637  -9.138  -4.662  0.00  0.00    -0.054 A 
ATOM     26  H   LIG d   1       4.600 -10.654  -3.158  0.00  0.00     0.062 H 
ATOM     27  H   LIG d   1       3.594  -9.256  -4.915  0.00  0.00     0.062 H 
ENDBRANCH   5  17
BRANCH   9  28
ATOM     28  C   LIG d   1       3.128  -3.899  -9.243  0.00  0.00    -0.033 C 
ATOM     29  H   LIG d   1       2.068  -3.722  -9.056  0.00  0.00     0.028 H 
ATOM     30  H   LIG d   1       3.577  -3.001  -9.666  0.00  0.00     0.028 H 
ATOM     31  H   LIG d   1       3.240  -4.727  -9.943  0.00  0.00     0.028 H 
ENDBRANCH   9  28
BRANCH   1  32
ATOM     32  C   LIG d   1       5.917  -2.758  -3.651  0.00  0.00    -0.039 C 
ATOM     33  H   LIG d   1       6.858  -3.272  -3.844  0.00  0.00     0.028 H 
ATOM     34  H   LIG d   1       6.115  -1.823  -3.128  0.00  0.00     0.028 H 
ATOM     35  H   LIG d   1       5.276  -3.391  -3.037  0.00  0.00     0.028 H 
ENDBRANCH   1  32
BRANCH  14  36
ATOM     36  C   LIG d   1       5.340  -0.041  -4.436  0.00  0.00    -0.016 C 
ATOM     37  H   LIG d   1       6.149  -0.352  -3.776  0.00  0.00     0.032 H 
ATOM     38  H   LIG d   1       5.672   0.798  -5.047  0.00  0.00     0.032 H 
BRANCH  36  39
ATOM     39  C   LIG d   1       4.132   0.385  -3.599  0.00  0.00    -0.009 C 
ATOM     40  H   LIG d   1       3.869   1.414  -3.838  0.00  0.00     0.033 H 
ATOM     41  H   LIG d   1       3.288  -0.268  -3.822  0.00  0.00     0.033 H 
BRANCH  39  42
ATOM     42  C   LIG d   1       4.475   0.280  -2.135  0.00  0.00     0.042 C 
ATOM     43  O   LIG d   1       4.317  -0.766  -1.550  0.00  0.00    -0.550 OA
ATOM     44  O   LIG d   1       4.955   1.349  -1.480  0.00  0.00    -0.550 OA
ENDBRANCH  39  42
ENDBRANCH  36  39
ENDBRANCH  14  36
TORSDOF 6
ENDMDL
MODEL 5
REMARK VINA RESULT:      -6.4      4.603      6.908
REMARK  6 active torsions:
REMARK  status: ('A' for Active; 'I' for Inactive)
REMARK    1  A    between atoms: C_1  and  C_2 
REMARK    2  A    between atoms: C_6  and  C_21 
REMARK    3  A    between atoms: C_10  and  C_20 
REMARK    4  A    between atoms: C_15  and  C_16 
REMARK    5  A    between atoms: C_16  and  C_17 
REMARK    6  A    between atoms: C_17  and  C_18 
ROOT
ATOM      1  C   LIG d   1       3.359  -1.584  -8.849  0.00  0.00    -0.030 A 
ATOM      2  C   LIG d   1       4.330  -2.246  -7.973  0.00  0.00     0.022 A 
ATOM      3  C   LIG d   1       4.561  -1.776  -6.679  0.00  0.00    -0.039 A 
ATOM      4  C   LIG d   1       5.485  -2.425  -5.876  0.00  0.00     0.029 A 
ATOM      5  C   LIG d   1       5.972  -2.216  -4.498  0.00  0.00     0.028 A 
ATOM      6  C   LIG d   1       6.887  -3.187  -4.278  0.00  0.00     0.101 A 
ATOM      7  O   LIG d   1       7.009  -3.962  -5.370  0.00  0.00    -0.462 OA
ATOM      8  C   LIG d   1       6.190  -3.547  -6.357  0.00  0.00     0.142 A 
ATOM      9  C   LIG d   1       5.955  -4.008  -7.645  0.00  0.00     0.035 A 
ATOM     10  C   LIG d   1       5.034  -3.369  -8.455  0.00  0.00     0.146 A 
ATOM     11  O   LIG d   1       4.802  -3.814  -9.711  0.00  0.00    -0.422 OA
ATOM     12  C   LIG d   1       3.914  -3.212 -10.516  0.00  0.00     0.341 A 
ATOM     13  O   LIG d   1       3.740  -3.650 -11.640  0.00  0.00    -0.245 OA
ATOM     14  C   LIG d   1       3.176  -2.084 -10.097  0.00  0.00     0.041 A 
ATOM     15  H   LIG d   1       4.023  -0.916  -6.307  0.00  0.00     0.063 H 
ATOM     16  H   LIG d   1       7.438  -3.321  -3.360  0.00  0.00     0.104 H 
ENDROOT
BRANCH   5  17
ATOM     17  C   LIG d   1       5.546  -1.159  -3.551  0.00  0.00    -0.014 A 
ATOM     18  C   LIG d   1       4.699  -1.471  -2.489  0.00  0.00    -0.054 A 
ATOM     19  C   LIG d   1       4.306  -0.482  -1.610  0.00  0.00    -0.061 A 
ATOM     20  H   LIG d   1       4.349  -2.484  -2.355  0.00  0.00     0.062 H 
ATOM     21  C   LIG d   1       4.752   0.816  -1.780  0.00  0.00    -0.062 A 
ATOM     22  H   LIG d   1       3.648  -0.723  -0.787  0.00  0.00     0.062 H 
ATOM     23  C   LIG d   1       5.593   1.132  -2.832  0.00  0.00    -0.061 A 
ATOM     24  H   LIG d   1       4.442   1.586  -1.091  0.00  0.00     0.062 H 
ATOM     25  C   LIG d   1       5.997   0.150  -3.715  0.00  0.00    -0.054 A 
ATOM     26  H   LIG d   1       5.938   2.147  -2.960  0.00  0.00     0.062 H 
ATOM     27  H   LIG d   1       6.657   0.396  -4.533  0.00  0.00     0.062 H 
ENDBRANCH   5  17
BRANCH   9  28
ATOM     28  C   LIG d   1       6.707  -5.207  -8.162  0.00  0.00    -0.033 C 
ATOM     29  H   LIG d   1       6.272  -5.528  -9.109  0.00  0.00     0.028 H 
ATOM     30  H   LIG d   1       7.753  -4.942  -8.314  0.00  0.00     0.028 H 
ATOM     31  H   LIG d   1       6.639  -6.019  -7.437  0.00  0.00     0.028 H 
ENDBRANCH   9  28
BRANCH   1  32
ATOM     32  C   LIG d   1       2.584  -0.381  -8.377  0.00  0.00    -0.039 C 
ATOM     33  H   LIG d   1       1.517  -0.596  -8.419  0.00  0.00     0.028 H 
ATOM     34  H   LIG d   1       2.866  -0.147  -7.350  0.00  0.00     0.028 H 
ATOM     35  H   LIG d   1       2.809   0.471  -9.019  0.00  0.00     0.028 H 
ENDBRANCH   1  32
BRANCH  14  36
ATOM     36  C   LIG d   1       2.193  -1.433 -11.036  0.00  0.00    -0.016 C 
ATOM     37  H   LIG d   1       1.448  -2.164 -11.347  0.00  0.00     0.032 H 
ATOM     38  H   LIG d   1       1.700  -0.605 -10.527  0.00  0.00     0.032 H 
BRANCH  36  39
ATOM     39  C   LIG d   1       2.935  -0.906 -12.266  0.00  0.00    -0.009 C 
ATOM     40  H   LIG d   1       3.378  -1.740 -12.808  0.00  0.00     0.033 H 
ATOM     41  H   LIG d   1       2.234  -0.381 -12.915  0.00  0.00     0.033 H 
BRANCH  39  42
ATOM     42  C   LIG d   1       4.021   0.043 -11.828  0.00  0.00     0.042 C 
ATOM     43  O   LIG d   1       5.181  -0.230 -12.031  0.00  0.00    -0.550 OA
ATOM     44  O   LIG d   1       3.700   1.192 -11.212  0.00  0.00    -0.550 OA
ENDBRANCH  39  42
ENDBRANCH  36  39
ENDBRANCH  14  36
TORSDOF 6
ENDMDL
MODEL 6
REMARK VINA RESULT:      -6.4      3.117      7.414
REMARK  6 active torsions:
REMARK  status: ('A' for Active; 'I' for Inactive)
REMARK    1  A    between atoms: C_1  and  C_2 
REMARK    2  A    between atoms: C_6  and  C_21 
REMARK    3  A    between atoms: C_10  and  C_20 
REMARK    4  A    between atoms: C_15  and  C_16 
REMARK    5  A    between atoms: C_16  and  C_17 
REMARK    6  A    between atoms: C_17  and  C_18 
ROOT
ATOM      1  C   LIG d   1       7.625  -2.351  -5.711  0.00  0.00    -0.030 A 
ATOM      2  C   LIG d   1       6.373  -1.779  -5.205  0.00  0.00     0.022 A 
ATOM      3  C   LIG d   1       5.468  -1.163  -6.072  0.00  0.00    -0.039 A 
ATOM      4  C   LIG d   1       4.293  -0.634  -5.562  0.00  0.00     0.029 A 
ATOM      5  C   LIG d   1       3.140   0.067  -6.161  0.00  0.00     0.028 A 
ATOM      6  C   LIG d   1       2.300   0.339  -5.136  0.00  0.00     0.101 A 
ATOM      7  O   LIG d   1       2.817  -0.119  -3.982  0.00  0.00    -0.462 OA
ATOM      8  C   LIG d   1       4.012  -0.710  -4.183  0.00  0.00     0.142 A 
ATOM      9  C   LIG d   1       4.917  -1.323  -3.328  0.00  0.00     0.035 A 
ATOM     10  C   LIG d   1       6.092  -1.857  -3.826  0.00  0.00     0.146 A 
ATOM     11  O   LIG d   1       6.977  -2.455  -2.996  0.00  0.00    -0.422 OA
ATOM     12  C   LIG d   1       8.124  -2.980  -3.454  0.00  0.00     0.341 A 
ATOM     13  O   LIG d   1       8.889  -3.508  -2.667  0.00  0.00    -0.245 OA
ATOM     14  C   LIG d   1       8.467  -2.936  -4.822  0.00  0.00     0.041 A 
ATOM     15  H   LIG d   1       5.680  -1.102  -7.129  0.00  0.00     0.063 H 
ATOM     16  H   LIG d   1       1.354   0.849  -5.231  0.00  0.00     0.104 H 
ENDROOT
BRANCH   5  17
ATOM     17  C   LIG d   1       2.942   0.402  -7.591  0.00  0.00    -0.014 A 
ATOM     18  C   LIG d   1       3.226   1.686  -8.054  0.00  0.00    -0.054 A 
ATOM     19  C   LIG d   1       3.041   1.991  -9.387  0.00  0.00    -0.061 A 
ATOM     20  H   LIG d   1       3.589   2.440  -7.371  0.00  0.00     0.062 H 
ATOM     21  C   LIG d   1       2.575   1.027 -10.263  0.00  0.00    -0.062 A 
ATOM     22  H   LIG d   1       3.260   2.987  -9.747  0.00  0.00     0.062 H 
ATOM     23  C   LIG d   1       2.292  -0.249  -9.809  0.00  0.00    -0.061 A 
ATOM     24  H   LIG d   1       2.432   1.271 -11.304  0.00  0.00     0.062 H 
ATOM     25  C   LIG d   1       2.479  -0.567  -8.479  0.00  0.00    -0.054 A 
ATOM     26  H   LIG d   1       1.930  -0.997 -10.497  0.00  0.00     0.062 H 
ATOM     27  H   LIG d   1       2.262  -1.564  -8.126  0.00  0.00     0.062 H 
ENDBRANCH   5  17
BRANCH   9  28
ATOM     28  C   LIG d   1       4.618  -1.407  -1.853  0.00  0.00    -0.033 C 
ATOM     29  H   LIG d   1       5.338  -2.071  -1.374  0.00  0.00     0.028 H 
ATOM     30  H   LIG d   1       4.690  -0.413  -1.411  0.00  0.00     0.028 H 
ATOM     31  H   LIG d   1       3.611  -1.798  -1.708  0.00  0.00     0.028 H 
ENDBRANCH   9  28
BRANCH   1  32
ATOM     32  C   LIG d   1       7.967  -2.291  -7.177  0.00  0.00    -0.039 C 
ATOM     33  H   LIG d   1       8.637  -3.112  -7.428  0.00  0.00     0.028 H 
ATOM     34  H   LIG d   1       7.054  -2.374  -7.767  0.00  0.00     0.028 H 
ATOM     35  H   LIG d   1       8.457  -1.342  -7.397  0.00  0.00     0.028 H 
ENDBRANCH   1  32
BRANCH  14  36
ATOM     36  C   LIG d   1       9.768  -3.532  -5.294  0.00  0.00    -0.016 C 
ATOM     37  H   LIG d   1      10.086  -4.308  -4.599  0.00  0.00     0.032 H 
ATOM     38  H   LIG d   1       9.631  -3.965  -6.285  0.00  0.00     0.032 H 
BRANCH  36  39
ATOM     39  C   LIG d   1      10.835  -2.437  -5.360  0.00  0.00    -0.009 C 
ATOM     40  H   LIG d   1      11.335  -2.475  -6.327  0.00  0.00     0.033 H 
ATOM     41  H   LIG d   1      10.363  -1.463  -5.233  0.00  0.00     0.033 H 
BRANCH  39  42
ATOM     42  C   LIG d   1      11.845  -2.654  -4.263  0.00  0.00     0.042 C 
ATOM     43  O   LIG d   1      12.515  -1.729  -3.867  0.00  0.00    -0.550 OA
ATOM     44  O   LIG d   1      12.000  -3.873  -3.725  0.00  0.00    -0.550 OA
ENDBRANCH  39  42
ENDBRANCH  36  39
ENDBRANCH  14  36
TORSDOF 6
ENDMDL
MODEL 7
REMARK VINA RESULT:      -6.2      4.328      8.347
REMARK  6 active torsions:
REMARK  status: ('A' for Active; 'I' for Inactive)
REMARK    1  A    between atoms: C_1  and  C_2 
REMARK    2  A    between atoms: C_6  and  C_21 
REMARK    3  A    between atoms: C_10  and  C_20 
REMARK    4  A    between atoms: C_15  and  C_16 
REMARK    5  A    between atoms: C_16  and  C_17 
REMARK    6  A    between atoms: C_17  and  C_18 
ROOT
ATOM      1  C   LIG d   1       6.973   0.481  -4.585  0.00  0.00    -0.030 A 
ATOM      2  C   LIG d   1       7.809   1.455  -5.294  0.00  0.00     0.022 A 
ATOM      3  C   LIG d   1       8.393   2.524  -4.612  0.00  0.00    -0.039 A 
ATOM      4  C   LIG d   1       9.179   3.427  -5.311  0.00  0.00     0.029 A 
ATOM      5  C   LIG d   1       9.933   4.638  -4.932  0.00  0.00     0.028 A 
ATOM      6  C   LIG d   1      10.504   5.090  -6.072  0.00  0.00     0.101 A 
ATOM      7  O   LIG d   1      10.180   4.286  -7.100  0.00  0.00    -0.462 OA
ATOM      8  C   LIG d   1       9.386   3.274  -6.696  0.00  0.00     0.142 A 
ATOM      9  C   LIG d   1       8.801   2.209  -7.368  0.00  0.00     0.035 A 
ATOM     10  C   LIG d   1       8.016   1.300  -6.680  0.00  0.00     0.146 A 
ATOM     11  O   LIG d   1       7.444   0.262  -7.330  0.00  0.00    -0.422 OA
ATOM     12  C   LIG d   1       6.678  -0.632  -6.686  0.00  0.00     0.341 A 
ATOM     13  O   LIG d   1       6.184  -1.551  -7.314  0.00  0.00    -0.245 OA
ATOM     14  C   LIG d   1       6.430  -0.537  -5.300  0.00  0.00     0.041 A 
ATOM     15  H   LIG d   1       8.237   2.645  -3.550  0.00  0.00     0.063 H 
ATOM     16  H   LIG d   1      11.128   5.967  -6.145  0.00  0.00     0.104 H 
ENDROOT
BRANCH   5  17
ATOM     17  C   LIG d   1      10.041   5.237  -3.581  0.00  0.00    -0.014 A 
ATOM     18  C   LIG d   1       9.409   6.447  -3.298  0.00  0.00    -0.054 A 
ATOM     19  C   LIG d   1       9.514   6.998  -2.038  0.00  0.00    -0.061 A 
ATOM     20  H   LIG d   1       8.841   6.953  -4.065  0.00  0.00     0.062 H 
ATOM     21  C   LIG d   1      10.243   6.352  -1.055  0.00  0.00    -0.062 A 
ATOM     22  H   LIG d   1       9.026   7.937  -1.817  0.00  0.00     0.062 H 
ATOM     23  C   LIG d   1      10.871   5.151  -1.329  0.00  0.00    -0.061 A 
ATOM     24  H   LIG d   1      10.322   6.788  -0.070  0.00  0.00     0.062 H 
ATOM     25  C   LIG d   1      10.769   4.587  -2.585  0.00  0.00    -0.054 A 
ATOM     26  H   LIG d   1      11.438   4.652  -0.558  0.00  0.00     0.062 H 
ATOM     27  H   LIG d   1      11.257   3.648  -2.797  0.00  0.00     0.062 H 
ENDBRANCH   5  17
BRANCH   9  28
ATOM     28  C   LIG d   1       9.022   2.042  -8.849  0.00  0.00    -0.033 C 
ATOM     29  H   LIG d   1       8.273   1.360  -9.253  0.00  0.00     0.028 H 
ATOM     30  H   LIG d   1       8.932   3.011  -9.341  0.00  0.00     0.028 H 
ATOM     31  H   LIG d   1      10.017   1.635  -9.025  0.00  0.00     0.028 H 
ENDBRANCH   9  28
BRANCH   1  32
ATOM     32  C   LIG d   1       6.724   0.607  -3.104  0.00  0.00    -0.039 C 
ATOM     33  H   LIG d   1       6.302  -0.324  -2.726  0.00  0.00     0.028 H 
ATOM     34  H   LIG d   1       7.664   0.813  -2.594  0.00  0.00     0.028 H 
ATOM     35  H   LIG d   1       6.025   1.424  -2.922  0.00  0.00     0.028 H 
ENDBRANCH   1  32
BRANCH  14  36
ATOM     36  C   LIG d   1       5.558  -1.559  -4.616  0.00  0.00    -0.016 C 
ATOM     37  H   LIG d   1       5.666  -2.521  -5.115  0.00  0.00     0.032 H 
ATOM     38  H   LIG d   1       5.861  -1.654  -3.573  0.00  0.00     0.032 H 
BRANCH  36  39
ATOM     39  C   LIG d   1       4.097  -1.109  -4.683  0.00  0.00    -0.009 C 
ATOM     40  H   LIG d   1       4.054  -0.050  -4.937  0.00  0.00     0.033 H 
ATOM     41  H   LIG d   1       3.575  -1.687  -5.445  0.00  0.00     0.033 H 
BRANCH  39  42
ATOM     42  C   LIG d   1       3.441  -1.333  -3.345  0.00  0.00     0.042 C 
ATOM     43  O   LIG d   1       2.734  -0.477  -2.867  0.00  0.00    -0.550 OA
ATOM     44  O   LIG d   1       3.642  -2.484  -2.683  0.00  0.00    -0.550 OA
ENDBRANCH  39  42
ENDBRANCH  36  39
ENDBRANCH  14  36
TORSDOF 6
ENDMDL
MODEL 8
REMARK VINA RESULT:      -6.2      8.440     13.121
REMARK  6 active torsions:
REMARK  status: ('A' for Active; 'I' for Inactive)
REMARK    1  A    between atoms: C_1  and  C_2 
REMARK    2  A    between atoms: C_6  and  C_21 
REMARK    3  A    between atoms: C_10  and  C_20 
REMARK    4  A    between atoms: C_15  and  C_16 
REMARK    5  A    between atoms: C_16  and  C_17 
REMARK    6  A    between atoms: C_17  and  C_18 
ROOT
ATOM      1  C   LIG d   1       9.817   5.904  -3.759  0.00  0.00    -0.030 A 
ATOM      2  C   LIG d   1      10.109   6.622  -2.513  0.00  0.00     0.022 A 
ATOM      3  C   LIG d   1       9.965   8.008  -2.438  0.00  0.00    -0.039 A 
ATOM      4  C   LIG d   1      10.248   8.656  -1.245  0.00  0.00     0.029 A 
ATOM      5  C   LIG d   1      10.208  10.066  -0.810  0.00  0.00     0.028 A 
ATOM      6  C   LIG d   1      10.603  10.065   0.483  0.00  0.00     0.101 A 
ATOM      7  O   LIG d   1      10.877   8.810   0.880  0.00  0.00    -0.462 OA
ATOM      8  C   LIG d   1      10.680   7.927  -0.120  0.00  0.00     0.142 A 
ATOM      9  C   LIG d   1      10.822   6.549  -0.203  0.00  0.00     0.035 A 
ATOM     10  C   LIG d   1      10.541   5.892  -1.387  0.00  0.00     0.146 A 
ATOM     11  O   LIG d   1      10.679   4.549  -1.473  0.00  0.00    -0.422 OA
ATOM     12  C   LIG d   1      10.413   3.888  -2.610  0.00  0.00     0.341 A 
ATOM     13  O   LIG d   1      10.551   2.678  -2.639  0.00  0.00    -0.245 OA
ATOM     14  C   LIG d   1       9.977   4.557  -3.774  0.00  0.00     0.041 A 
ATOM     15  H   LIG d   1       9.634   8.570  -3.298  0.00  0.00     0.063 H 
ATOM     16  H   LIG d   1      10.685  10.943   1.105  0.00  0.00     0.104 H 
ENDROOT
BRANCH   5  17
ATOM     17  C   LIG d   1       9.817  11.241  -1.624  0.00  0.00    -0.014 A 
ATOM     18  C   LIG d   1       8.836  11.117  -2.606  0.00  0.00    -0.054 A 
ATOM     19  C   LIG d   1       8.476  12.216  -3.360  0.00  0.00    -0.061 A 
ATOM     20  H   LIG d   1       8.360  10.163  -2.779  0.00  0.00     0.062 H 
ATOM     21  C   LIG d   1       9.085  13.439  -3.142  0.00  0.00    -0.062 A 
ATOM     22  H   LIG d   1       7.716  12.121  -4.123  0.00  0.00     0.062 H 
ATOM     23  C   LIG d   1      10.059  13.568  -2.168  0.00  0.00    -0.061 A 
ATOM     24  H   LIG d   1       8.800  14.295  -3.734  0.00  0.00     0.062 H 
ATOM     25  C   LIG d   1      10.424  12.477  -1.404  0.00  0.00    -0.054 A 
ATOM     26  H   LIG d   1      10.531  14.524  -2.002  0.00  0.00     0.062 H 
ATOM     27  H   LIG d   1      11.181  12.580  -0.641  0.00  0.00     0.062 H 
ENDBRANCH   5  17
BRANCH   9  28
ATOM     28  C   LIG d   1      11.284   5.768   1.000  0.00  0.00    -0.033 C 
ATOM     29  H   LIG d   1      11.551   6.458   1.801  0.00  0.00     0.028 H 
ATOM     30  H   LIG d   1      10.481   5.112   1.338  0.00  0.00     0.028 H 
ATOM     31  H   LIG d   1      12.155   5.168   0.732  0.00  0.00     0.028 H 
ENDBRANCH   9  28
BRANCH   1  32
ATOM     32  C   LIG d   1       9.353   6.643  -4.987  0.00  0.00    -0.039 C 
ATOM     33  H   LIG d   1      10.163   6.683  -5.715  0.00  0.00     0.028 H 
ATOM     34  H   LIG d   1       8.500   6.124  -5.422  0.00  0.00     0.028 H 
ATOM     35  H   LIG d   1       9.061   7.657  -4.712  0.00  0.00     0.028 H 
ENDBRANCH   1  32
BRANCH  14  36
ATOM     36  C   LIG d   1       9.695   3.777  -5.033  0.00  0.00    -0.016 C 
ATOM     37  H   LIG d   1       9.644   4.461  -5.880  0.00  0.00     0.032 H 
ATOM     38  H   LIG d   1      10.493   3.053  -5.197  0.00  0.00     0.032 H 
BRANCH  36  39
ATOM     39  C   LIG d   1       8.361   3.042  -4.889  0.00  0.00    -0.009 C 
ATOM     40  H   LIG d   1       8.213   2.758  -3.848  0.00  0.00     0.033 H 
ATOM     41  H   LIG d   1       7.550   3.696  -5.207  0.00  0.00     0.033 H 
BRANCH  39  42
ATOM     42  C   LIG d   1       8.375   1.805  -5.750  0.00  0.00     0.042 C 
ATOM     43  O   LIG d   1       9.362   1.109  -5.793  0.00  0.00    -0.550 OA
ATOM     44  O   LIG d   1       7.291   1.475  -6.469  0.00  0.00    -0.550 OA
ENDBRANCH  39  42
ENDBRANCH  36  39
ENDBRANCH  14  36
TORSDOF 6
ENDMDL
MODEL 9
REMARK VINA RESULT:      -6.1      2.750      7.233
REMARK  6 active torsions:
REMARK  status: ('A' for Active; 'I' for Inactive)
REMARK    1  A    between atoms: C_1  and  C_2 
REMARK    2  A    between atoms: C_6  and  C_21 
REMARK    3  A    between atoms: C_10  and  C_20 
REMARK    4  A    between atoms: C_15  and  C_16 
REMARK    5  A    between atoms: C_16  and  C_17 
REMARK    6  A    between atoms: C_17  and  C_18 
ROOT
ATOM      1  C   LIG d   1       6.066  -6.279  -5.687  0.00  0.00    -0.030 A 
ATOM      2  C   LIG d   1       6.693  -5.010  -5.306  0.00  0.00     0.022 A 
ATOM      3  C   LIG d   1       5.921  -3.864  -5.108  0.00  0.00    -0.039 A 
ATOM      4  C   LIG d   1       6.545  -2.680  -4.746  0.00  0.00     0.029 A 
ATOM      5  C   LIG d   1       6.064  -1.314  -4.461  0.00  0.00     0.028 A 
ATOM      6  C   LIG d   1       7.166  -0.589  -4.163  0.00  0.00     0.101 A 
ATOM      7  O   LIG d   1       8.262  -1.364  -4.236  0.00  0.00    -0.462 OA
ATOM      8  C   LIG d   1       7.944  -2.627  -4.584  0.00  0.00     0.142 A 
ATOM      9  C   LIG d   1       8.704  -3.771  -4.784  0.00  0.00     0.035 A 
ATOM     10  C   LIG d   1       8.093  -4.959  -5.142  0.00  0.00     0.146 A 
ATOM     11  O   LIG d   1       8.830  -6.075  -5.339  0.00  0.00    -0.422 OA
ATOM     12  C   LIG d   1       8.261  -7.239  -5.688  0.00  0.00     0.341 A 
ATOM     13  O   LIG d   1       8.967  -8.218  -5.854  0.00  0.00    -0.245 OA
ATOM     14  C   LIG d   1       6.867  -7.360  -5.868  0.00  0.00     0.041 A 
ATOM     15  H   LIG d   1       4.849  -3.900  -5.231  0.00  0.00     0.063 H 
ATOM     16  H   LIG d   1       7.166   0.459  -3.904  0.00  0.00     0.104 H 
ENDROOT
BRANCH   5  17
ATOM     17  C   LIG d   1       4.662  -0.835  -4.493  0.00  0.00    -0.014 A 
ATOM     18  C   LIG d   1       3.856  -0.952  -3.362  0.00  0.00    -0.054 A 
ATOM     19  C   LIG d   1       2.552  -0.504  -3.399  0.00  0.00    -0.061 A 
ATOM     20  H   LIG d   1       4.251  -1.394  -2.459  0.00  0.00     0.062 H 
ATOM     21  C   LIG d   1       2.043   0.061  -4.555  0.00  0.00    -0.062 A 
ATOM     22  H   LIG d   1       1.925  -0.595  -2.523  0.00  0.00     0.062 H 
ATOM     23  C   LIG d   1       2.838   0.180  -5.680  0.00  0.00    -0.061 A 
ATOM     24  H   LIG d   1       1.022   0.410  -4.578  0.00  0.00     0.062 H 
ATOM     25  C   LIG d   1       4.146  -0.259  -5.654  0.00  0.00    -0.054 A 
ATOM     26  H   LIG d   1       2.436   0.622  -6.579  0.00  0.00     0.062 H 
ATOM     27  H   LIG d   1       4.768  -0.162  -6.531  0.00  0.00     0.062 H 
ENDBRANCH   5  17
BRANCH   9  28
ATOM     28  C   LIG d   1      10.201  -3.718  -4.610  0.00  0.00    -0.033 C 
ATOM     29  H   LIG d   1      10.480  -4.258  -3.705  0.00  0.00     0.028 H 
ATOM     30  H   LIG d   1      10.683  -4.179  -5.472  0.00  0.00     0.028 H 
ATOM     31  H   LIG d   1      10.520  -2.679  -4.526  0.00  0.00     0.028 H 
ENDBRANCH   9  28
BRANCH   1  32
ATOM     32  C   LIG d   1       4.574  -6.381  -5.873  0.00  0.00    -0.039 C 
ATOM     33  H   LIG d   1       4.071  -6.035  -4.971  0.00  0.00     0.028 H 
ATOM     34  H   LIG d   1       4.271  -5.762  -6.718  0.00  0.00     0.028 H 
ATOM     35  H   LIG d   1       4.303  -7.419  -6.067  0.00  0.00     0.028 H 
ENDBRANCH   1  32
BRANCH  14  36
ATOM     36  C   LIG d   1       6.268  -8.685  -6.267  0.00  0.00    -0.016 C 
ATOM     37  H   LIG d   1       5.335  -8.516  -6.803  0.00  0.00     0.032 H 
ATOM     38  H   LIG d   1       6.966  -9.219  -6.911  0.00  0.00     0.032 H 
BRANCH  36  39
ATOM     39  C   LIG d   1       5.993  -9.518  -5.013  0.00  0.00    -0.009 C 
ATOM     40  H   LIG d   1       6.564 -10.444  -5.060  0.00  0.00     0.033 H 
ATOM     41  H   LIG d   1       6.290  -8.952  -4.130  0.00  0.00     0.033 H 
BRANCH  39  42
ATOM     42  C   LIG d   1       4.522  -9.836  -4.934  0.00  0.00     0.042 C 
ATOM     43  O   LIG d   1       4.017 -10.568  -5.752  0.00  0.00    -0.550 OA
ATOM     44  O   LIG d   1       3.773  -9.306  -3.955  0.00  0.00    -0.550 OA
ENDBRANCH  39  42
ENDBRANCH  36  39
ENDBRANCH  14  36
TORSDOF 6
ENDMDL
MODEL 10
REMARK VINA RESULT:      -6.1      8.236     11.071
REMARK  6 active torsions:
REMARK  status: ('A' for Active; 'I' for Inactive)
REMARK    1  A    between atoms: C_1  and  C_2 
REMARK    2  A    between atoms: C_6  and  C_21 
REMARK    3  A    between atoms: C_10  and  C_20 
REMARK    4  A    between atoms: C_15  and  C_16 
REMARK    5  A    between atoms: C_16  and  C_17 
REMARK    6  A    between atoms: C_17  and  C_18 
ROOT
ATOM      1  C   LIG d   1       9.461   8.895  -5.489  0.00  0.00    -0.030 A 
ATOM      2  C   LIG d   1       9.652   7.731  -4.617  0.00  0.00     0.022 A 
ATOM      3  C   LIG d   1       9.478   6.436  -5.107  0.00  0.00    -0.039 A 
ATOM      4  C   LIG d   1       9.667   5.358  -4.257  0.00  0.00     0.029 A 
ATOM      5  C   LIG d   1       9.576   3.894  -4.423  0.00  0.00     0.028 A 
ATOM      6  C   LIG d   1       9.876   3.366  -3.214  0.00  0.00     0.101 A 
ATOM      7  O   LIG d   1      10.140   4.348  -2.335  0.00  0.00    -0.462 OA
ATOM      8  C   LIG d   1      10.028   5.562  -2.911  0.00  0.00     0.142 A 
ATOM      9  C   LIG d   1      10.197   6.853  -2.430  0.00  0.00     0.035 A 
ATOM     10  C   LIG d   1      10.013   7.937  -3.270  0.00  0.00     0.146 A 
ATOM     11  O   LIG d   1      10.177   9.197  -2.806  0.00  0.00    -0.422 OA
ATOM     12  C   LIG d   1      10.003  10.265  -3.600  0.00  0.00     0.341 A 
ATOM     13  O   LIG d   1      10.162  11.380  -3.136  0.00  0.00    -0.245 OA
ATOM     14  C   LIG d   1       9.642  10.130  -4.957  0.00  0.00     0.041 A 
ATOM     15  H   LIG d   1       9.202   6.275  -6.139  0.00  0.00     0.063 H 
ATOM     16  H   LIG d   1       9.900   2.311  -2.989  0.00  0.00     0.104 H 
ENDROOT
BRANCH   5  17
ATOM     17  C   LIG d   1       9.226   3.154  -5.659  0.00  0.00    -0.014 A 
ATOM     18  C   LIG d   1       9.801   3.515  -6.876  0.00  0.00    -0.054 A 
ATOM     19  C   LIG d   1       9.472   2.822  -8.023  0.00  0.00    -0.061 A 
ATOM     20  H   LIG d   1      10.501   4.337  -6.922  0.00  0.00     0.062 H 
ATOM     21  C   LIG d   1       8.575   1.771  -7.967  0.00  0.00    -0.062 A 
ATOM     22  H   LIG d   1       9.916   3.102  -8.968  0.00  0.00     0.062 H 
ATOM     23  C   LIG d   1       8.001   1.408  -6.761  0.00  0.00    -0.061 A 
ATOM     24  H   LIG d   1       8.320   1.232  -8.867  0.00  0.00     0.062 H 
ATOM     25  C   LIG d   1       8.327   2.090  -5.606  0.00  0.00    -0.054 A 
ATOM     26  H   LIG d   1       7.302   0.586  -6.723  0.00  0.00     0.062 H 
ATOM     27  H   LIG d   1       7.883   1.803  -4.665  0.00  0.00     0.062 H 
ENDBRANCH   5  17
BRANCH   9  28
ATOM     28  C   LIG d   1      10.583   7.074  -0.990  0.00  0.00    -0.033 C 
ATOM     29  H   LIG d   1       9.731   6.850  -0.348  0.00  0.00     0.028 H 
ATOM     30  H   LIG d   1      11.415   6.418  -0.732  0.00  0.00     0.028 H 
ATOM     31  H   LIG d   1      10.882   8.113  -0.849  0.00  0.00     0.028 H 
ENDBRANCH   9  28
BRANCH   1  32
ATOM     32  C   LIG d   1       9.074   8.724  -6.935  0.00  0.00    -0.039 C 
ATOM     33  H   LIG d   1       8.271   7.992  -7.013  0.00  0.00     0.028 H 
ATOM     34  H   LIG d   1       8.735   9.678  -7.336  0.00  0.00     0.028 H 
ATOM     35  H   LIG d   1       9.938   8.378  -7.503  0.00  0.00     0.028 H 
ENDBRANCH   1  32
BRANCH  14  36
ATOM     36  C   LIG d   1       9.450  11.356  -5.813  0.00  0.00    -0.016 C 
ATOM     37  H   LIG d   1       8.620  11.194  -6.499  0.00  0.00     0.032 H 
ATOM     38  H   LIG d   1       9.233  12.214  -5.176  0.00  0.00     0.032 H 
BRANCH  36  39
ATOM     39  C   LIG d   1      10.728  11.625  -6.611  0.00  0.00    -0.009 C 
ATOM     40  H   LIG d   1      11.384  12.278  -6.036  0.00  0.00     0.033 H 
ATOM     41  H   LIG d   1      11.236  10.682  -6.810  0.00  0.00     0.033 H 
BRANCH  39  42
ATOM     42  C   LIG d   1      10.374  12.290  -7.916  0.00  0.00     0.042 C 
ATOM     43  O   LIG d   1      11.112  12.187  -8.867  0.00  0.00    -0.550 OA
ATOM     44  O   LIG d   1       9.238  12.998  -8.022  0.00  0.00    -0.550 OA
ENDBRANCH  39  42
ENDBRANCH  36  39
ENDBRANCH  14  36
TORSDOF 6
ENDMDL
