MODEL 1
REMARK VINA RESULT:      -7.9      0.000      0.000
REMARK  4 active torsions:
REMARK  status: ('A' for Active; 'I' for Inactive)
REMARK    1  A    between atoms: C_1  and  C_2 
REMARK    2  A    between atoms: C_5  and  C_12 
REMARK    3  A    between atoms: C_6  and  C_7 
REMARK    4  A    between atoms: C_6  and  C_8 
REMARK       I    between atoms: C_12  and  N_14 
ROOT
ATOM      1  C   LIG d   1       3.643   0.003 -10.271  0.00  0.00     0.032 C 
ATOM      2  C   LIG d   1       2.117  -0.256 -10.087  0.00  0.00    -0.039 C 
ATOM      3  C   LIG d   1       1.937  -0.460  -8.565  0.00  0.00    -0.037 C 
ATOM      4  C   LIG d   1       3.375  -0.311  -7.980  0.00  0.00     0.060 C 
ATOM      5  C   LIG d   1       3.969   0.777  -8.945  0.00  0.00    -0.009 C 
ATOM      6  C   LIG d   1       4.132  -1.575  -8.490  0.00  0.00     0.021 C 
ATOM      7  C   LIG d   1       4.319  -1.346  -9.993  0.00  0.00     0.141 C 
ATOM      8  O   LIG d   1       4.862  -2.071 -10.792  0.00  0.00    -0.297 OA
ATOM      9  H   LIG d   1       1.541   0.605 -10.425  0.00  0.00     0.028 H 
ATOM     10  H   LIG d   1       1.815  -1.153 -10.628  0.00  0.00     0.028 H 
ATOM     11  H   LIG d   1       1.278   0.305  -8.153  0.00  0.00     0.028 H 
ATOM     12  H   LIG d   1       1.543  -1.454  -8.358  0.00  0.00     0.028 H 
ATOM     13  H   LIG d   1       5.104  -1.658  -8.004  0.00  0.00     0.035 H 
ATOM     14  H   LIG d   1       3.538  -2.472  -8.306  0.00  0.00     0.035 H 
ENDROOT
BRANCH   4  15
ATOM     15  C   LIG d   1       3.464  -0.017  -6.505  0.00  0.00     0.227 C 
ATOM     16  O   LIG d   1       2.879   0.938  -6.039  0.00  0.00    -0.275 OA
ATOM     17  N   LIG d   1       4.191  -0.818  -5.700  0.00  0.00    -0.271 N 
ATOM     18  C   LIG d   1       4.223  -0.600  -4.316  0.00  0.00     0.039 A 
ATOM     19  C   LIG d   1       4.972  -1.930  -6.261  0.00  0.00     0.020 C 
ATOM     20  C   LIG d   1       4.729  -1.565  -3.457  0.00  0.00    -0.026 A 
ATOM     21  C   LIG d   1       3.732   0.596  -3.808  0.00  0.00    -0.040 A 
ATOM     22  C   LIG d   1       5.279  -2.868  -3.975  0.00  0.00    -0.025 C 
ATOM     23  C   LIG d   1       4.738  -1.328  -2.094  0.00  0.00    -0.057 A 
ATOM     24  C   LIG d   1       4.739  -3.160  -5.375  0.00  0.00    -0.033 C 
ATOM     25  H   LIG d   1       4.987  -3.675  -3.301  0.00  0.00     0.031 H 
ATOM     26  H   LIG d   1       6.367  -2.809  -4.014  0.00  0.00     0.031 H 
ATOM     27  H   LIG d   1       3.671  -3.372  -5.317  0.00  0.00     0.028 H 
ATOM     28  H   LIG d   1       5.262  -4.018  -5.796  0.00  0.00     0.028 H 
ATOM     29  C   LIG d   1       4.258  -0.130  -1.591  0.00  0.00    -0.061 A 
ATOM     30  H   LIG d   1       5.134  -2.075  -1.421  0.00  0.00     0.062 H 
ATOM     31  C   LIG d   1       3.750   0.830  -2.447  0.00  0.00    -0.060 A 
ATOM     32  H   LIG d   1       4.272   0.051  -0.526  0.00  0.00     0.062 H 
ATOM     33  H   LIG d   1       3.370   1.760  -2.052  0.00  0.00     0.062 H 
ATOM     34  H   LIG d   1       3.336   1.345  -4.478  0.00  0.00     0.064 H 
ATOM     35  H   LIG d   1       4.638  -2.139  -7.278  0.00  0.00     0.047 H 
ATOM     36  H   LIG d   1       6.030  -1.672  -6.266  0.00  0.00     0.047 H 
ENDBRANCH   4  15
BRANCH   5  37
ATOM     37  C   LIG d   1       3.213   2.104  -8.851  0.00  0.00    -0.058 C 
ATOM     38  H   LIG d   1       3.709   2.754  -8.131  0.00  0.00     0.024 H 
ATOM     39  H   LIG d   1       3.203   2.586  -9.829  0.00  0.00     0.024 H 
ATOM     40  H   LIG d   1       2.190   1.917  -8.527  0.00  0.00     0.024 H 
ENDBRANCH   5  37
BRANCH   5  41
ATOM     41  C   LIG d   1       5.474   0.964  -8.743  0.00  0.00    -0.058 C 
ATOM     42  H   LIG d   1       5.709   0.905  -7.680  0.00  0.00     0.024 H 
ATOM     43  H   LIG d   1       6.012   0.182  -9.278  0.00  0.00     0.024 H 
ATOM     44  H   LIG d   1       5.774   1.939  -9.128  0.00  0.00     0.024 H 
ENDBRANCH   5  41
BRANCH   1  45
ATOM     45  C   LIG d   1       4.049   0.698 -11.572  0.00  0.00    -0.052 C 
ATOM     46  H   LIG d   1       4.046   1.778 -11.424  0.00  0.00     0.024 H 
ATOM     47  H   LIG d   1       5.049   0.374 -11.859  0.00  0.00     0.024 H 
ATOM     48  H   LIG d   1       3.342   0.437 -12.360  0.00  0.00     0.024 H 
ENDBRANCH   1  45
TORSDOF 4
ENDMDL
MODEL 2
REMARK VINA RESULT:      -7.0      2.428      6.251
REMARK  4 active torsions:
REMARK  status: ('A' for Active; 'I' for Inactive)
REMARK    1  A    between atoms: C_1  and  C_2 
REMARK    2  A    between atoms: C_5  and  C_12 
REMARK    3  A    between atoms: C_6  and  C_7 
REMARK    4  A    between atoms: C_6  and  C_8 
REMARK       I    between atoms: C_12  and  N_14 
ROOT
ATOM      1  C   LIG d   1       4.626   0.401  -2.989  0.00  0.00     0.032 C 
ATOM      2  C   LIG d   1       3.381   0.832  -3.822  0.00  0.00    -0.039 C 
ATOM      3  C   LIG d   1       3.301  -0.204  -4.967  0.00  0.00    -0.037 C 
ATOM      4  C   LIG d   1       4.511  -1.155  -4.716  0.00  0.00     0.060 C 
ATOM      5  C   LIG d   1       4.557  -1.159  -3.147  0.00  0.00    -0.009 C 
ATOM      6  C   LIG d   1       5.762  -0.277  -5.027  0.00  0.00     0.021 C 
ATOM      7  C   LIG d   1       5.838   0.728  -3.872  0.00  0.00     0.141 C 
ATOM      8  O   LIG d   1       6.656   1.598  -3.700  0.00  0.00    -0.297 OA
ATOM      9  H   LIG d   1       2.481   0.791  -3.209  0.00  0.00     0.028 H 
ATOM     10  H   LIG d   1       3.522   1.834  -4.226  0.00  0.00     0.028 H 
ATOM     11  H   LIG d   1       2.364  -0.759  -4.914  0.00  0.00     0.028 H 
ATOM     12  H   LIG d   1       3.398   0.289  -5.934  0.00  0.00     0.028 H 
ATOM     13  H   LIG d   1       6.663  -0.891  -5.042  0.00  0.00     0.035 H 
ATOM     14  H   LIG d   1       5.638   0.237  -5.981  0.00  0.00     0.035 H 
ENDROOT
BRANCH   4  15
ATOM     15  C   LIG d   1       4.446  -2.502  -5.388  0.00  0.00     0.227 C 
ATOM     16  O   LIG d   1       4.520  -3.515  -4.726  0.00  0.00    -0.275 OA
ATOM     17  N   LIG d   1       4.303  -2.583  -6.727  0.00  0.00    -0.271 N 
ATOM     18  C   LIG d   1       4.167  -3.828  -7.356  0.00  0.00     0.039 A 
ATOM     19  C   LIG d   1       4.295  -1.366  -7.551  0.00  0.00     0.020 C 
ATOM     20  C   LIG d   1       3.744  -3.913  -8.675  0.00  0.00    -0.026 A 
ATOM     21  C   LIG d   1       4.456  -4.983  -6.640  0.00  0.00    -0.040 A 
ATOM     22  C   LIG d   1       3.434  -2.681  -9.483  0.00  0.00    -0.025 C 
ATOM     23  C   LIG d   1       3.609  -5.156  -9.268  0.00  0.00    -0.057 A 
ATOM     24  C   LIG d   1       3.150  -1.494  -8.563  0.00  0.00    -0.033 C 
ATOM     25  H   LIG d   1       2.560  -2.870 -10.107  0.00  0.00     0.031 H 
ATOM     26  H   LIG d   1       4.286  -2.446 -10.121  0.00  0.00     0.031 H 
ATOM     27  H   LIG d   1       2.211  -1.659  -8.034  0.00  0.00     0.028 H 
ATOM     28  H   LIG d   1       3.082  -0.581  -9.155  0.00  0.00     0.028 H 
ATOM     29  C   LIG d   1       3.906  -6.306  -8.555  0.00  0.00    -0.061 A 
ATOM     30  H   LIG d   1       3.282  -5.228 -10.296  0.00  0.00     0.062 H 
ATOM     31  C   LIG d   1       4.325  -6.220  -7.240  0.00  0.00    -0.060 A 
ATOM     32  H   LIG d   1       3.803  -7.273  -9.025  0.00  0.00     0.062 H 
ATOM     33  H   LIG d   1       4.549  -7.118  -6.685  0.00  0.00     0.062 H 
ATOM     34  H   LIG d   1       4.782  -4.914  -5.612  0.00  0.00     0.064 H 
ATOM     35  H   LIG d   1       4.133  -0.493  -6.918  0.00  0.00     0.047 H 
ATOM     36  H   LIG d   1       5.244  -1.270  -8.077  0.00  0.00     0.047 H 
ENDBRANCH   4  15
BRANCH   5  37
ATOM     37  C   LIG d   1       3.281  -1.744  -2.536  0.00  0.00    -0.058 C 
ATOM     38  H   LIG d   1       2.572  -1.976  -3.330  0.00  0.00     0.024 H 
ATOM     39  H   LIG d   1       3.525  -2.655  -1.989  0.00  0.00     0.024 H 
ATOM     40  H   LIG d   1       2.839  -1.018  -1.855  0.00  0.00     0.024 H 
ENDBRANCH   5  37
BRANCH   5  41
ATOM     41  C   LIG d   1       5.812  -1.849  -2.609  0.00  0.00    -0.058 C 
ATOM     42  H   LIG d   1       6.685  -1.497  -3.160  0.00  0.00     0.024 H 
ATOM     43  H   LIG d   1       5.931  -1.613  -1.552  0.00  0.00     0.024 H 
ATOM     44  H   LIG d   1       5.716  -2.928  -2.732  0.00  0.00     0.024 H 
ENDBRANCH   5  41
BRANCH   1  45
ATOM     45  C   LIG d   1       4.684   0.929  -1.554  0.00  0.00    -0.052 C 
ATOM     46  H   LIG d   1       3.782   1.504  -1.342  0.00  0.00     0.024 H 
ATOM     47  H   LIG d   1       4.752   0.091  -0.861  0.00  0.00     0.024 H 
ATOM     48  H   LIG d   1       5.559   1.569  -1.437  0.00  0.00     0.024 H 
ENDBRANCH   1  45
TORSDOF 4
ENDMDL
MODEL 3
REMARK VINA RESULT:      -6.8      1.199      2.171
REMARK  4 active torsions:
REMARK  status: ('A' for Active; 'I' for Inactive)
REMARK    1  A    between atoms: C_1  and  C_2 
REMARK    2  A    between atoms: C_5  and  C_12 
REMARK    3  A    between atoms: C_6  and  C_7 
REMARK    4  A    between atoms: C_6  and  C_8 
REMARK       I    between atoms: C_12  and  N_14 
ROOT
ATOM      1  C   LIG d   1       4.045  -0.924 -10.472  0.00  0.00     0.032 C 
ATOM      2  C   LIG d   1       5.526  -1.298 -10.162  0.00  0.00    -0.039 C 
ATOM      3  C   LIG d   1       5.742  -0.851  -8.698  0.00  0.00    -0.037 C 
ATOM      4  C   LIG d   1       4.371  -0.245  -8.269  0.00  0.00     0.060 C 
ATOM      5  C   LIG d   1       3.383  -1.167  -9.070  0.00  0.00    -0.009 C 
ATOM      6  C   LIG d   1       4.255   1.070  -9.100  0.00  0.00     0.021 C 
ATOM      7  C   LIG d   1       4.020   0.609 -10.543  0.00  0.00     0.141 C 
ATOM      8  O   LIG d   1       3.867   1.294 -11.525  0.00  0.00    -0.297 OA
ATOM      9  H   LIG d   1       5.675  -2.374 -10.257  0.00  0.00     0.028 H 
ATOM     10  H   LIG d   1       6.201  -0.760 -10.827  0.00  0.00     0.028 H 
ATOM     11  H   LIG d   1       5.991  -1.708  -8.071  0.00  0.00     0.028 H 
ATOM     12  H   LIG d   1       6.526  -0.097  -8.642  0.00  0.00     0.028 H 
ATOM     13  H   LIG d   1       3.405   1.662  -8.759  0.00  0.00     0.035 H 
ATOM     14  H   LIG d   1       5.176   1.649  -9.024  0.00  0.00     0.035 H 
ENDROOT
BRANCH   4  15
ATOM     15  C   LIG d   1       4.129  -0.132  -6.787  0.00  0.00     0.227 C 
ATOM     16  O   LIG d   1       3.260   0.602  -6.367  0.00  0.00    -0.275 OA
ATOM     17  N   LIG d   1       4.879  -0.848  -5.925  0.00  0.00    -0.271 N 
ATOM     18  C   LIG d   1       4.617  -0.809  -4.548  0.00  0.00     0.039 A 
ATOM     19  C   LIG d   1       5.990  -1.677  -6.412  0.00  0.00     0.020 C 
ATOM     20  C   LIG d   1       5.185  -1.741  -3.691  0.00  0.00    -0.026 A 
ATOM     21  C   LIG d   1       3.771   0.173  -4.048  0.00  0.00    -0.040 A 
ATOM     22  C   LIG d   1       6.115  -2.811  -4.198  0.00  0.00    -0.025 C 
ATOM     23  C   LIG d   1       4.901  -1.685  -2.338  0.00  0.00    -0.057 A 
ATOM     24  C   LIG d   1       5.912  -3.032  -5.697  0.00  0.00    -0.033 C 
ATOM     25  H   LIG d   1       5.915  -3.742  -3.667  0.00  0.00     0.031 H 
ATOM     26  H   LIG d   1       7.146  -2.508  -4.015  0.00  0.00     0.031 H 
ATOM     27  H   LIG d   1       4.934  -3.481  -5.870  0.00  0.00     0.028 H 
ATOM     28  H   LIG d   1       6.692  -3.692  -6.078  0.00  0.00     0.028 H 
ATOM     29  C   LIG d   1       4.065  -0.699  -1.841  0.00  0.00    -0.061 A 
ATOM     30  H   LIG d   1       5.343  -2.406  -1.666  0.00  0.00     0.062 H 
ATOM     31  C   LIG d   1       3.496   0.228  -2.696  0.00  0.00    -0.060 A 
ATOM     32  H   LIG d   1       3.851  -0.657  -0.783  0.00  0.00     0.062 H 
ATOM     33  H   LIG d   1       2.840   0.991  -2.307  0.00  0.00     0.062 H 
ATOM     34  H   LIG d   1       3.327   0.895  -4.718  0.00  0.00     0.064 H 
ATOM     35  H   LIG d   1       5.897  -1.822  -7.489  0.00  0.00     0.047 H 
ATOM     36  H   LIG d   1       6.939  -1.193  -6.185  0.00  0.00     0.047 H 
ENDBRANCH   4  15
BRANCH   5  37
ATOM     37  C   LIG d   1       3.481  -2.630  -8.632  0.00  0.00    -0.058 C 
ATOM     38  H   LIG d   1       2.807  -3.236  -9.238  0.00  0.00     0.024 H 
ATOM     39  H   LIG d   1       4.504  -2.981  -8.765  0.00  0.00     0.024 H 
ATOM     40  H   LIG d   1       3.201  -2.715  -7.583  0.00  0.00     0.024 H 
ENDBRANCH   5  37
BRANCH   5  41
ATOM     41  C   LIG d   1       1.944  -0.652  -9.016  0.00  0.00    -0.058 C 
ATOM     42  H   LIG d   1       1.949   0.432  -8.897  0.00  0.00     0.024 H 
ATOM     43  H   LIG d   1       1.429  -0.914  -9.940  0.00  0.00     0.024 H 
ATOM     44  H   LIG d   1       1.426  -1.108  -8.171  0.00  0.00     0.024 H 
ENDBRANCH   5  41
BRANCH   1  45
ATOM     45  C   LIG d   1       3.405  -1.657 -11.653  0.00  0.00    -0.052 C 
ATOM     46  H   LIG d   1       3.054  -0.930 -12.385  0.00  0.00     0.024 H 
ATOM     47  H   LIG d   1       4.143  -2.311 -12.117  0.00  0.00     0.024 H 
ATOM     48  H   LIG d   1       2.563  -2.252 -11.300  0.00  0.00     0.024 H 
ENDBRANCH   1  45
TORSDOF 4
ENDMDL
MODEL 4
REMARK VINA RESULT:      -6.5      4.906      6.121
REMARK  4 active torsions:
REMARK  status: ('A' for Active; 'I' for Inactive)
REMARK    1  A    between atoms: C_1  and  C_2 
REMARK    2  A    between atoms: C_5  and  C_12 
REMARK    3  A    between atoms: C_6  and  C_7 
REMARK    4  A    between atoms: C_6  and  C_8 
REMARK       I    between atoms: C_12  and  N_14 
ROOT
ATOM      1  C   LIG d   1      10.918   2.702  -5.695  0.00  0.00     0.032 C 
ATOM      2  C   LIG d   1      10.000   2.726  -6.954  0.00  0.00    -0.039 C 
ATOM      3  C   LIG d   1       8.723   1.971  -6.519  0.00  0.00    -0.037 C 
ATOM      4  C   LIG d   1       8.998   1.560  -5.040  0.00  0.00     0.060 C 
ATOM      5  C   LIG d   1       9.847   2.788  -4.551  0.00  0.00    -0.009 C 
ATOM      6  C   LIG d   1      10.115   0.476  -5.143  0.00  0.00     0.021 C 
ATOM      7  C   LIG d   1      11.376   1.244  -5.554  0.00  0.00     0.141 C 
ATOM      8  O   LIG d   1      12.484   0.803  -5.745  0.00  0.00    -0.297 OA
ATOM      9  H   LIG d   1       9.760   3.752  -7.231  0.00  0.00     0.028 H 
ATOM     10  H   LIG d   1      10.481   2.210  -7.785  0.00  0.00     0.028 H 
ATOM     11  H   LIG d   1       7.854   2.629  -6.575  0.00  0.00     0.028 H 
ATOM     12  H   LIG d   1       8.573   1.087  -7.138  0.00  0.00     0.028 H 
ATOM     13  H   LIG d   1      10.272  -0.001  -4.176  0.00  0.00     0.035 H 
ATOM     14  H   LIG d   1       9.853  -0.268  -5.896  0.00  0.00     0.035 H 
ENDROOT
BRANCH   4  15
ATOM     15  C   LIG d   1       7.789   1.209  -4.213  0.00  0.00     0.227 C 
ATOM     16  O   LIG d   1       7.169   2.082  -3.644  0.00  0.00    -0.275 OA
ATOM     17  N   LIG d   1       7.394  -0.075  -4.106  0.00  0.00    -0.271 N 
ATOM     18  C   LIG d   1       6.229  -0.407  -3.401  0.00  0.00     0.039 A 
ATOM     19  C   LIG d   1       8.182  -1.152  -4.721  0.00  0.00     0.020 C 
ATOM     20  C   LIG d   1       5.665  -1.670  -3.517  0.00  0.00    -0.026 A 
ATOM     21  C   LIG d   1       5.637   0.548  -2.584  0.00  0.00    -0.040 A 
ATOM     22  C   LIG d   1       6.287  -2.732  -4.384  0.00  0.00    -0.025 C 
ATOM     23  C   LIG d   1       4.509  -1.967  -2.817  0.00  0.00    -0.057 A 
ATOM     24  C   LIG d   1       7.207  -2.101  -5.429  0.00  0.00    -0.033 C 
ATOM     25  H   LIG d   1       5.498  -3.291  -4.890  0.00  0.00     0.031 H 
ATOM     26  H   LIG d   1       6.865  -3.413  -3.759  0.00  0.00     0.031 H 
ATOM     27  H   LIG d   1       6.611  -1.541  -6.150  0.00  0.00     0.028 H 
ATOM     28  H   LIG d   1       7.766  -2.883  -5.943  0.00  0.00     0.028 H 
ATOM     29  C   LIG d   1       3.926  -1.016  -1.996  0.00  0.00    -0.061 A 
ATOM     30  H   LIG d   1       4.066  -2.949  -2.902  0.00  0.00     0.062 H 
ATOM     31  C   LIG d   1       4.487   0.243  -1.883  0.00  0.00    -0.060 A 
ATOM     32  H   LIG d   1       3.026  -1.255  -1.449  0.00  0.00     0.062 H 
ATOM     33  H   LIG d   1       4.027   0.985  -1.248  0.00  0.00     0.062 H 
ATOM     34  H   LIG d   1       6.077   1.532  -2.497  0.00  0.00     0.064 H 
ATOM     35  H   LIG d   1       8.880  -0.731  -5.446  0.00  0.00     0.047 H 
ATOM     36  H   LIG d   1       8.732  -1.693  -3.951  0.00  0.00     0.047 H 
ENDBRANCH   4  15
BRANCH   5  37
ATOM     37  C   LIG d   1       9.051   4.094  -4.604  0.00  0.00    -0.058 C 
ATOM     38  H   LIG d   1       9.700   4.900  -4.947  0.00  0.00     0.024 H 
ATOM     39  H   LIG d   1       8.215   3.982  -5.294  0.00  0.00     0.024 H 
ATOM     40  H   LIG d   1       8.673   4.329  -3.610  0.00  0.00     0.024 H 
ENDBRANCH   5  37
BRANCH   5  41
ATOM     41  C   LIG d   1      10.459   2.551  -3.170  0.00  0.00    -0.058 C 
ATOM     42  H   LIG d   1      11.514   2.297  -3.278  0.00  0.00     0.024 H 
ATOM     43  H   LIG d   1      10.363   3.455  -2.570  0.00  0.00     0.024 H 
ATOM     44  H   LIG d   1       9.937   1.731  -2.676  0.00  0.00     0.024 H 
ENDBRANCH   5  41
BRANCH   1  45
ATOM     45  C   LIG d   1      12.027   3.757  -5.658  0.00  0.00    -0.052 C 
ATOM     46  H   LIG d   1      11.902   4.385  -4.776  0.00  0.00     0.024 H 
ATOM     47  H   LIG d   1      12.997   3.261  -5.616  0.00  0.00     0.024 H 
ATOM     48  H   LIG d   1      11.972   4.373  -6.555  0.00  0.00     0.024 H 
ENDBRANCH   1  45
TORSDOF 4
ENDMDL
MODEL 5
REMARK VINA RESULT:      -6.5      1.582      2.756
REMARK  4 active torsions:
REMARK  status: ('A' for Active; 'I' for Inactive)
REMARK    1  A    between atoms: C_1  and  C_2 
REMARK    2  A    between atoms: C_5  and  C_12 
REMARK    3  A    between atoms: C_6  and  C_7 
REMARK    4  A    between atoms: C_6  and  C_8 
REMARK       I    between atoms: C_12  and  N_14 
ROOT
ATOM      1  C   LIG d   1       3.658   0.106 -11.113  0.00  0.00     0.032 C 
ATOM      2  C   LIG d   1       3.706   1.568 -10.576  0.00  0.00    -0.039 C 
ATOM      3  C   LIG d   1       3.978   1.417  -9.061  0.00  0.00    -0.037 C 
ATOM      4  C   LIG d   1       4.061  -0.124  -8.832  0.00  0.00     0.060 C 
ATOM      5  C   LIG d   1       4.717  -0.583 -10.182  0.00  0.00    -0.009 C 
ATOM      6  C   LIG d   1       2.600  -0.624  -9.051  0.00  0.00     0.021 C 
ATOM      7  C   LIG d   1       2.356  -0.488 -10.558  0.00  0.00     0.141 C 
ATOM      8  O   LIG d   1       1.356  -0.765 -11.175  0.00  0.00    -0.297 OA
ATOM      9  H   LIG d   1       4.514   2.122 -11.053  0.00  0.00     0.028 H 
ATOM     10  H   LIG d   1       2.751   2.066 -10.742  0.00  0.00     0.028 H 
ATOM     11  H   LIG d   1       4.923   1.892  -8.795  0.00  0.00     0.028 H 
ATOM     12  H   LIG d   1       3.160   1.845  -8.483  0.00  0.00     0.028 H 
ATOM     13  H   LIG d   1       2.507  -1.669  -8.756  0.00  0.00     0.035 H 
ATOM     14  H   LIG d   1       1.899  -0.007  -8.488  0.00  0.00     0.035 H 
ENDROOT
BRANCH   4  15
ATOM     15  C   LIG d   1       4.746  -0.571  -7.567  0.00  0.00     0.227 C 
ATOM     16  O   LIG d   1       5.897  -0.952  -7.603  0.00  0.00    -0.275 OA
ATOM     17  N   LIG d   1       4.082  -0.545  -6.394  0.00  0.00    -0.271 N 
ATOM     18  C   LIG d   1       4.730  -0.888  -5.200  0.00  0.00     0.039 A 
ATOM     19  C   LIG d   1       2.664  -0.165  -6.348  0.00  0.00     0.020 C 
ATOM     20  C   LIG d   1       4.152  -0.601  -3.971  0.00  0.00    -0.026 A 
ATOM     21  C   LIG d   1       5.969  -1.516  -5.258  0.00  0.00    -0.040 A 
ATOM     22  C   LIG d   1       2.807   0.068  -3.872  0.00  0.00    -0.025 C 
ATOM     23  C   LIG d   1       4.819  -0.941  -2.808  0.00  0.00    -0.057 A 
ATOM     24  C   LIG d   1       2.476   0.802  -5.172  0.00  0.00    -0.033 C 
ATOM     25  H   LIG d   1       2.820   0.783  -3.049  0.00  0.00     0.031 H 
ATOM     26  H   LIG d   1       2.044  -0.686  -3.680  0.00  0.00     0.031 H 
ATOM     27  H   LIG d   1       3.144   1.655  -5.290  0.00  0.00     0.028 H 
ATOM     28  H   LIG d   1       1.442   1.146  -5.143  0.00  0.00     0.028 H 
ATOM     29  C   LIG d   1       6.049  -1.575  -2.868  0.00  0.00    -0.061 A 
ATOM     30  H   LIG d   1       4.373  -0.722  -1.848  0.00  0.00     0.062 H 
ATOM     31  C   LIG d   1       6.626  -1.859  -4.093  0.00  0.00    -0.060 A 
ATOM     32  H   LIG d   1       6.563  -1.843  -1.956  0.00  0.00     0.062 H 
ATOM     33  H   LIG d   1       7.588  -2.347  -4.137  0.00  0.00     0.062 H 
ATOM     34  H   LIG d   1       6.418  -1.735  -6.215  0.00  0.00     0.064 H 
ATOM     35  H   LIG d   1       2.383   0.327  -7.279  0.00  0.00     0.047 H 
ATOM     36  H   LIG d   1       2.048  -1.052  -6.199  0.00  0.00     0.047 H 
ENDBRANCH   4  15
BRANCH   5  37
ATOM     37  C   LIG d   1       6.118   0.005 -10.370  0.00  0.00    -0.058 C 
ATOM     38  H   LIG d   1       6.517  -0.309 -11.334  0.00  0.00     0.024 H 
ATOM     39  H   LIG d   1       6.062   1.094 -10.338  0.00  0.00     0.024 H 
ATOM     40  H   LIG d   1       6.770  -0.349  -9.573  0.00  0.00     0.024 H 
ENDBRANCH   5  37
BRANCH   5  41
ATOM     41  C   LIG d   1       4.715  -2.105 -10.335  0.00  0.00    -0.058 C 
ATOM     42  H   LIG d   1       3.869  -2.524  -9.790  0.00  0.00     0.024 H 
ATOM     43  H   LIG d   1       4.631  -2.364 -11.390  0.00  0.00     0.024 H 
ATOM     44  H   LIG d   1       5.643  -2.512  -9.934  0.00  0.00     0.024 H 
ENDBRANCH   5  41
BRANCH   1  45
ATOM     45  C   LIG d   1       3.877  -0.059 -12.619  0.00  0.00    -0.052 C 
ATOM     46  H   LIG d   1       3.258   0.659 -13.157  0.00  0.00     0.024 H 
ATOM     47  H   LIG d   1       4.927   0.119 -12.854  0.00  0.00     0.024 H 
ATOM     48  H   LIG d   1       3.604  -1.071 -12.918  0.00  0.00     0.024 H 
ENDBRANCH   1  45
TORSDOF 4
ENDMDL
MODEL 6
REMARK VINA RESULT:      -6.2      3.405      6.109
REMARK  4 active torsions:
REMARK  status: ('A' for Active; 'I' for Inactive)
REMARK    1  A    between atoms: C_1  and  C_2 
REMARK    2  A    between atoms: C_5  and  C_12 
REMARK    3  A    between atoms: C_6  and  C_7 
REMARK    4  A    between atoms: C_6  and  C_8 
REMARK       I    between atoms: C_12  and  N_14 
ROOT
ATOM      1  C   LIG d   1       4.376   0.597  -3.195  0.00  0.00     0.032 C 
ATOM      2  C   LIG d   1       3.670   0.861  -4.560  0.00  0.00    -0.039 C 
ATOM      3  C   LIG d   1       3.972  -0.398  -5.405  0.00  0.00    -0.037 C 
ATOM      4  C   LIG d   1       4.837  -1.297  -4.468  0.00  0.00     0.060 C 
ATOM      5  C   LIG d   1       4.202  -0.958  -3.073  0.00  0.00    -0.009 C 
ATOM      6  C   LIG d   1       6.192  -0.534  -4.347  0.00  0.00     0.021 C 
ATOM      7  C   LIG d   1       5.879   0.697  -3.491  0.00  0.00     0.141 C 
ATOM      8  O   LIG d   1       6.638   1.568  -3.138  0.00  0.00    -0.297 OA
ATOM      9  H   LIG d   1       2.596   0.974  -4.417  0.00  0.00     0.028 H 
ATOM     10  H   LIG d   1       4.087   1.747  -5.038  0.00  0.00     0.028 H 
ATOM     11  H   LIG d   1       3.046  -0.909  -5.672  0.00  0.00     0.028 H 
ATOM     12  H   LIG d   1       4.532  -0.131  -6.300  0.00  0.00     0.028 H 
ATOM     13  H   LIG d   1       6.934  -1.155  -3.845  0.00  0.00     0.035 H 
ATOM     14  H   LIG d   1       6.551  -0.239  -5.334  0.00  0.00     0.035 H 
ENDROOT
BRANCH   4  15
ATOM     15  C   LIG d   1       4.913  -2.757  -4.834  0.00  0.00     0.227 C 
ATOM     16  O   LIG d   1       3.923  -3.335  -5.231  0.00  0.00    -0.275 OA
ATOM     17  N   LIG d   1       6.080  -3.421  -4.721  0.00  0.00    -0.271 N 
ATOM     18  C   LIG d   1       6.182  -4.759  -5.127  0.00  0.00     0.039 A 
ATOM     19  C   LIG d   1       7.266  -2.757  -4.163  0.00  0.00     0.020 C 
ATOM     20  C   LIG d   1       7.422  -5.362  -5.279  0.00  0.00    -0.026 A 
ATOM     21  C   LIG d   1       5.021  -5.478  -5.384  0.00  0.00    -0.040 A 
ATOM     22  C   LIG d   1       8.699  -4.615  -4.998  0.00  0.00    -0.025 C 
ATOM     23  C   LIG d   1       7.493  -6.681  -5.691  0.00  0.00    -0.057 A 
ATOM     24  C   LIG d   1       8.463  -3.107  -5.057  0.00  0.00    -0.033 C 
ATOM     25  H   LIG d   1       9.449  -4.892  -5.740  0.00  0.00     0.031 H 
ATOM     26  H   LIG d   1       9.061  -4.884  -4.005  0.00  0.00     0.031 H 
ATOM     27  H   LIG d   1       8.250  -2.811  -6.085  0.00  0.00     0.028 H 
ATOM     28  H   LIG d   1       9.350  -2.583  -4.701  0.00  0.00     0.028 H 
ATOM     29  C   LIG d   1       6.335  -7.399  -5.937  0.00  0.00    -0.061 A 
ATOM     30  H   LIG d   1       8.457  -7.156  -5.808  0.00  0.00     0.062 H 
ATOM     31  C   LIG d   1       5.099  -6.796  -5.788  0.00  0.00    -0.060 A 
ATOM     32  H   LIG d   1       6.396  -8.430  -6.254  0.00  0.00     0.062 H 
ATOM     33  H   LIG d   1       4.197  -7.355  -5.988  0.00  0.00     0.062 H 
ATOM     34  H   LIG d   1       4.056  -5.005  -5.268  0.00  0.00     0.064 H 
ATOM     35  H   LIG d   1       7.115  -1.677  -4.155  0.00  0.00     0.047 H 
ATOM     36  H   LIG d   1       7.446  -3.112  -3.149  0.00  0.00     0.047 H 
ENDBRANCH   4  15
BRANCH   5  37
ATOM     37  C   LIG d   1       2.730  -1.368  -2.997  0.00  0.00    -0.058 C 
ATOM     38  H   LIG d   1       2.531  -2.145  -3.735  0.00  0.00     0.024 H 
ATOM     39  H   LIG d   1       2.510  -1.750  -1.999  0.00  0.00     0.024 H 
ATOM     40  H   LIG d   1       2.100  -0.503  -3.202  0.00  0.00     0.024 H 
ENDBRANCH   5  37
BRANCH   5  41
ATOM     41  C   LIG d   1       5.015  -1.539  -1.914  0.00  0.00    -0.058 C 
ATOM     42  H   LIG d   1       5.393  -0.727  -1.292  0.00  0.00     0.024 H 
ATOM     43  H   LIG d   1       4.378  -2.190  -1.315  0.00  0.00     0.024 H 
ATOM     44  H   LIG d   1       5.852  -2.114  -2.310  0.00  0.00     0.024 H 
ENDBRANCH   5  41
BRANCH   1  45
ATOM     45  C   LIG d   1       3.872   1.426  -2.012  0.00  0.00    -0.052 C 
ATOM     46  H   LIG d   1       3.373   0.772  -1.297  0.00  0.00     0.024 H 
ATOM     47  H   LIG d   1       4.716   1.917  -1.527  0.00  0.00     0.024 H 
ATOM     48  H   LIG d   1       3.169   2.179  -2.369  0.00  0.00     0.024 H 
ENDBRANCH   1  45
TORSDOF 4
ENDMDL
MODEL 7
REMARK VINA RESULT:      -6.0      4.394      5.503
REMARK  4 active torsions:
REMARK  status: ('A' for Active; 'I' for Inactive)
REMARK    1  A    between atoms: C_1  and  C_2 
REMARK    2  A    between atoms: C_5  and  C_12 
REMARK    3  A    between atoms: C_6  and  C_7 
REMARK    4  A    between atoms: C_6  and  C_8 
REMARK       I    between atoms: C_12  and  N_14 
ROOT
ATOM      1  C   LIG d   1      10.589   1.529  -7.338  0.00  0.00     0.032 C 
ATOM      2  C   LIG d   1      10.125   0.110  -7.786  0.00  0.00    -0.039 C 
ATOM      3  C   LIG d   1       9.134  -0.341  -6.688  0.00  0.00    -0.037 C 
ATOM      4  C   LIG d   1       9.103   0.848  -5.680  0.00  0.00     0.060 C 
ATOM      5  C   LIG d   1       9.279   2.063  -6.659  0.00  0.00    -0.009 C 
ATOM      6  C   LIG d   1      10.513   0.825  -5.013  0.00  0.00     0.021 C 
ATOM      7  C   LIG d   1      11.477   1.294  -6.107  0.00  0.00     0.141 C 
ATOM      8  O   LIG d   1      12.674   1.433  -6.032  0.00  0.00    -0.297 OA
ATOM      9  H   LIG d   1       9.623   0.161  -8.752  0.00  0.00     0.028 H 
ATOM     10  H   LIG d   1      10.974  -0.571  -7.833  0.00  0.00     0.028 H 
ATOM     11  H   LIG d   1       8.143  -0.505  -7.113  0.00  0.00     0.028 H 
ATOM     12  H   LIG d   1       9.494  -1.246  -6.199  0.00  0.00     0.028 H 
ATOM     13  H   LIG d   1      10.546   1.516  -4.170  0.00  0.00     0.035 H 
ATOM     14  H   LIG d   1      10.761  -0.186  -4.685  0.00  0.00     0.035 H 
ENDROOT
BRANCH   4  15
ATOM     15  C   LIG d   1       7.916   0.901  -4.753  0.00  0.00     0.227 C 
ATOM     16  O   LIG d   1       7.445   1.971  -4.431  0.00  0.00    -0.275 OA
ATOM     17  N   LIG d   1       7.376  -0.241  -4.282  0.00  0.00    -0.271 N 
ATOM     18  C   LIG d   1       6.228  -0.209  -3.479  0.00  0.00     0.039 A 
ATOM     19  C   LIG d   1       7.986  -1.540  -4.597  0.00  0.00     0.020 C 
ATOM     20  C   LIG d   1       5.509  -1.368  -3.224  0.00  0.00    -0.026 A 
ATOM     21  C   LIG d   1       5.811   1.003  -2.942  0.00  0.00    -0.040 A 
ATOM     22  C   LIG d   1       5.939  -2.699  -3.780  0.00  0.00    -0.025 C 
ATOM     23  C   LIG d   1       4.373  -1.305  -2.435  0.00  0.00    -0.057 A 
ATOM     24  C   LIG d   1       6.859  -2.505  -4.985  0.00  0.00    -0.033 C 
ATOM     25  H   LIG d   1       5.057  -3.263  -4.087  0.00  0.00     0.031 H 
ATOM     26  H   LIG d   1       6.470  -3.256  -3.008  0.00  0.00     0.031 H 
ATOM     27  H   LIG d   1       6.290  -2.087  -5.815  0.00  0.00     0.028 H 
ATOM     28  H   LIG d   1       7.284  -3.465  -5.278  0.00  0.00     0.028 H 
ATOM     29  C   LIG d   1       3.964  -0.098  -1.894  0.00  0.00    -0.061 A 
ATOM     30  H   LIG d   1       3.810  -2.205  -2.232  0.00  0.00     0.062 H 
ATOM     31  C   LIG d   1       4.681   1.057  -2.151  0.00  0.00    -0.060 A 
ATOM     32  H   LIG d   1       3.080  -0.056  -1.276  0.00  0.00     0.062 H 
ATOM     33  H   LIG d   1       4.356   1.998  -1.734  0.00  0.00     0.062 H 
ATOM     34  H   LIG d   1       6.371   1.904  -3.145  0.00  0.00     0.064 H 
ATOM     35  H   LIG d   1       8.681  -1.430  -5.430  0.00  0.00     0.047 H 
ATOM     36  H   LIG d   1       8.515  -1.921  -3.723  0.00  0.00     0.047 H 
ENDBRANCH   4  15
BRANCH   5  37
ATOM     37  C   LIG d   1       8.120   2.174  -7.652  0.00  0.00    -0.058 C 
ATOM     38  H   LIG d   1       8.383   2.879  -8.440  0.00  0.00     0.024 H 
ATOM     39  H   LIG d   1       7.924   1.195  -8.091  0.00  0.00     0.024 H 
ATOM     40  H   LIG d   1       7.229   2.524  -7.133  0.00  0.00     0.024 H 
ENDBRANCH   5  37
BRANCH   5  41
ATOM     41  C   LIG d   1       9.513   3.377  -5.910  0.00  0.00    -0.058 C 
ATOM     42  H   LIG d   1       9.469   3.196  -4.836  0.00  0.00     0.024 H 
ATOM     43  H   LIG d   1      10.494   3.774  -6.172  0.00  0.00     0.024 H 
ATOM     44  H   LIG d   1       8.744   4.097  -6.190  0.00  0.00     0.024 H 
ENDBRANCH   5  41
BRANCH   1  45
ATOM     45  C   LIG d   1      11.188   2.412  -8.434  0.00  0.00    -0.052 C 
ATOM     46  H   LIG d   1      12.260   2.228  -8.504  0.00  0.00     0.024 H 
ATOM     47  H   LIG d   1      10.716   2.176  -9.388  0.00  0.00     0.024 H 
ATOM     48  H   LIG d   1      11.014   3.460  -8.192  0.00  0.00     0.024 H 
ENDBRANCH   1  45
TORSDOF 4
ENDMDL
MODEL 8
REMARK VINA RESULT:      -5.9      1.906      6.513
REMARK  4 active torsions:
REMARK  status: ('A' for Active; 'I' for Inactive)
REMARK    1  A    between atoms: C_1  and  C_2 
REMARK    2  A    between atoms: C_5  and  C_12 
REMARK    3  A    between atoms: C_6  and  C_7 
REMARK    4  A    between atoms: C_6  and  C_8 
REMARK       I    between atoms: C_12  and  N_14 
ROOT
ATOM      1  C   LIG d   1       4.284  -0.988  -2.804  0.00  0.00     0.032 C 
ATOM      2  C   LIG d   1       2.892  -0.755  -3.464  0.00  0.00    -0.039 C 
ATOM      3  C   LIG d   1       3.215  -0.333  -4.916  0.00  0.00    -0.037 C 
ATOM      4  C   LIG d   1       4.773  -0.347  -4.988  0.00  0.00     0.060 C 
ATOM      5  C   LIG d   1       5.096  -1.546  -4.026  0.00  0.00    -0.009 C 
ATOM      6  C   LIG d   1       5.211   0.852  -4.092  0.00  0.00     0.021 C 
ATOM      7  C   LIG d   1       4.903   0.409  -2.658  0.00  0.00     0.141 C 
ATOM      8  O   LIG d   1       5.087   1.024  -1.636  0.00  0.00    -0.297 OA
ATOM      9  H   LIG d   1       2.308  -1.675  -3.457  0.00  0.00     0.028 H 
ATOM     10  H   LIG d   1       2.355   0.042  -2.949  0.00  0.00     0.028 H 
ATOM     11  H   LIG d   1       2.796  -1.050  -5.623  0.00  0.00     0.028 H 
ATOM     12  H   LIG d   1       2.834   0.668  -5.116  0.00  0.00     0.028 H 
ATOM     13  H   LIG d   1       6.279   1.037  -4.200  0.00  0.00     0.035 H 
ATOM     14  H   LIG d   1       4.642   1.746  -4.351  0.00  0.00     0.035 H 
ENDROOT
BRANCH   4  15
ATOM     15  C   LIG d   1       5.373  -0.415  -6.368  0.00  0.00     0.227 C 
ATOM     16  O   LIG d   1       6.524  -0.770  -6.513  0.00  0.00    -0.275 OA
ATOM     17  N   LIG d   1       4.630  -0.084  -7.444  0.00  0.00    -0.271 N 
ATOM     18  C   LIG d   1       5.152  -0.213  -8.738  0.00  0.00     0.039 A 
ATOM     19  C   LIG d   1       3.263   0.426  -7.278  0.00  0.00     0.020 C 
ATOM     20  C   LIG d   1       4.322  -0.147  -9.848  0.00  0.00    -0.026 A 
ATOM     21  C   LIG d   1       6.517  -0.417  -8.900  0.00  0.00    -0.040 A 
ATOM     22  C   LIG d   1       2.841   0.083  -9.709  0.00  0.00    -0.025 C 
ATOM     23  C   LIG d   1       4.863  -0.288 -11.113  0.00  0.00    -0.057 A 
ATOM     24  C   LIG d   1       2.370  -0.286  -8.302  0.00  0.00    -0.033 C 
ATOM     25  H   LIG d   1       2.311  -0.530 -10.438  0.00  0.00     0.031 H 
ATOM     26  H   LIG d   1       2.621   1.134  -9.897  0.00  0.00     0.031 H 
ATOM     27  H   LIG d   1       2.445  -1.365  -8.165  0.00  0.00     0.028 H 
ATOM     28  H   LIG d   1       1.335   0.030  -8.168  0.00  0.00     0.028 H 
ATOM     29  C   LIG d   1       6.225  -0.482 -11.273  0.00  0.00    -0.061 A 
ATOM     30  H   LIG d   1       4.221  -0.235 -11.981  0.00  0.00     0.062 H 
ATOM     31  C   LIG d   1       7.052  -0.550 -10.166  0.00  0.00    -0.060 A 
ATOM     32  H   LIG d   1       6.642  -0.586 -12.264  0.00  0.00     0.062 H 
ATOM     33  H   LIG d   1       8.112  -0.708 -10.293  0.00  0.00     0.062 H 
ATOM     34  H   LIG d   1       7.162  -0.471  -8.034  0.00  0.00     0.064 H 
ATOM     35  H   LIG d   1       2.909   0.213  -6.269  0.00  0.00     0.047 H 
ATOM     36  H   LIG d   1       3.245   1.500  -7.456  0.00  0.00     0.047 H 
ENDBRANCH   4  15
BRANCH   5  37
ATOM     37  C   LIG d   1       4.525  -2.868  -4.542  0.00  0.00    -0.058 C 
ATOM     38  H   LIG d   1       3.437  -2.811  -4.558  0.00  0.00     0.024 H 
ATOM     39  H   LIG d   1       4.894  -3.053  -5.551  0.00  0.00     0.024 H 
ATOM     40  H   LIG d   1       4.837  -3.679  -3.886  0.00  0.00     0.024 H 
ENDBRANCH   5  37
BRANCH   5  41
ATOM     41  C   LIG d   1       6.592  -1.652  -3.722  0.00  0.00    -0.058 C 
ATOM     42  H   LIG d   1       6.961  -2.625  -4.048  0.00  0.00     0.024 H 
ATOM     43  H   LIG d   1       7.127  -0.865  -4.253  0.00  0.00     0.024 H 
ATOM     44  H   LIG d   1       6.754  -1.542  -2.650  0.00  0.00     0.024 H 
ENDBRANCH   5  41
BRANCH   1  45
ATOM     45  C   LIG d   1       4.287  -1.855  -1.543  0.00  0.00    -0.052 C 
ATOM     46  H   LIG d   1       5.072  -1.513  -0.869  0.00  0.00     0.024 H 
ATOM     47  H   LIG d   1       3.321  -1.775  -1.045  0.00  0.00     0.024 H 
ATOM     48  H   LIG d   1       4.470  -2.894  -1.816  0.00  0.00     0.024 H 
ENDBRANCH   1  45
TORSDOF 4
ENDMDL
MODEL 9
REMARK VINA RESULT:      -5.8      3.426      6.701
REMARK  4 active torsions:
REMARK  status: ('A' for Active; 'I' for Inactive)
REMARK    1  A    between atoms: C_1  and  C_2 
REMARK    2  A    between atoms: C_5  and  C_12 
REMARK    3  A    between atoms: C_6  and  C_7 
REMARK    4  A    between atoms: C_6  and  C_8 
REMARK       I    between atoms: C_12  and  N_14 
ROOT
ATOM      1  C   LIG d   1       4.255  -1.213  -3.048  0.00  0.00     0.032 C 
ATOM      2  C   LIG d   1       3.195  -0.762  -4.098  0.00  0.00    -0.039 C 
ATOM      3  C   LIG d   1       4.024  -0.145  -5.248  0.00  0.00    -0.037 C 
ATOM      4  C   LIG d   1       5.505  -0.279  -4.775  0.00  0.00     0.060 C 
ATOM      5  C   LIG d   1       5.436  -1.637  -3.990  0.00  0.00    -0.009 C 
ATOM      6  C   LIG d   1       5.621   0.722  -3.585  0.00  0.00     0.021 C 
ATOM      7  C   LIG d   1       4.812   0.086  -2.450  0.00  0.00     0.141 C 
ATOM      8  O   LIG d   1       4.634   0.515  -1.336  0.00  0.00    -0.297 OA
ATOM      9  H   LIG d   1       2.626  -1.619  -4.457  0.00  0.00     0.028 H 
ATOM     10  H   LIG d   1       2.528  -0.014  -3.668  0.00  0.00     0.028 H 
ATOM     11  H   LIG d   1       3.868  -0.703  -6.172  0.00  0.00     0.028 H 
ATOM     12  H   LIG d   1       3.763   0.903  -5.387  0.00  0.00     0.028 H 
ATOM     13  H   LIG d   1       6.662   0.832  -3.281  0.00  0.00     0.035 H 
ATOM     14  H   LIG d   1       5.203   1.691  -3.863  0.00  0.00     0.035 H 
ENDROOT
BRANCH   4  15
ATOM     15  C   LIG d   1       6.556  -0.179  -5.850  0.00  0.00     0.227 C 
ATOM     16  O   LIG d   1       6.403  -0.758  -6.904  0.00  0.00    -0.275 OA
ATOM     17  N   LIG d   1       7.666   0.557  -5.641  0.00  0.00    -0.271 N 
ATOM     18  C   LIG d   1       8.616   0.719  -6.659  0.00  0.00     0.039 A 
ATOM     19  C   LIG d   1       7.904   1.197  -4.340  0.00  0.00     0.020 C 
ATOM     20  C   LIG d   1       9.607   1.686  -6.558  0.00  0.00    -0.026 A 
ATOM     21  C   LIG d   1       8.552  -0.098  -7.781  0.00  0.00    -0.040 A 
ATOM     22  C   LIG d   1       9.712   2.581  -5.351  0.00  0.00    -0.025 C 
ATOM     23  C   LIG d   1      10.526   1.830  -7.582  0.00  0.00    -0.057 A 
ATOM     24  C   LIG d   1       8.379   2.632  -4.604  0.00  0.00    -0.033 C 
ATOM     25  H   LIG d   1       9.983   3.587  -5.672  0.00  0.00     0.031 H 
ATOM     26  H   LIG d   1      10.484   2.196  -4.685  0.00  0.00     0.031 H 
ATOM     27  H   LIG d   1       7.641   3.156  -5.210  0.00  0.00     0.028 H 
ATOM     28  H   LIG d   1       8.512   3.153  -3.655  0.00  0.00     0.028 H 
ATOM     29  C   LIG d   1      10.466   1.008  -8.695  0.00  0.00    -0.061 A 
ATOM     30  H   LIG d   1      11.300   2.580  -7.507  0.00  0.00     0.062 H 
ATOM     31  C   LIG d   1       9.477   0.046  -8.796  0.00  0.00    -0.060 A 
ATOM     32  H   LIG d   1      11.189   1.122  -9.489  0.00  0.00     0.062 H 
ATOM     33  H   LIG d   1       9.428  -0.588  -9.668  0.00  0.00     0.062 H 
ATOM     34  H   LIG d   1       7.778  -0.848  -7.859  0.00  0.00     0.064 H 
ATOM     35  H   LIG d   1       6.979   1.215  -3.763  0.00  0.00     0.047 H 
ATOM     36  H   LIG d   1       8.670   0.648  -3.793  0.00  0.00     0.047 H 
ENDBRANCH   4  15
BRANCH   5  37
ATOM     37  C   LIG d   1       5.057  -2.808  -4.898  0.00  0.00    -0.058 C 
ATOM     38  H   LIG d   1       3.987  -2.998  -4.819  0.00  0.00     0.024 H 
ATOM     39  H   LIG d   1       5.306  -2.563  -5.931  0.00  0.00     0.024 H 
ATOM     40  H   LIG d   1       5.607  -3.698  -4.593  0.00  0.00     0.024 H 
ENDBRANCH   5  37
BRANCH   5  41
ATOM     41  C   LIG d   1       6.722  -1.916  -3.210  0.00  0.00    -0.058 C 
ATOM     42  H   LIG d   1       6.525  -2.657  -2.435  0.00  0.00     0.024 H 
ATOM     43  H   LIG d   1       7.484  -2.296  -3.890  0.00  0.00     0.024 H 
ATOM     44  H   LIG d   1       7.076  -0.994  -2.749  0.00  0.00     0.024 H 
ENDBRANCH   5  41
BRANCH   1  45
ATOM     45  C   LIG d   1       3.788  -2.265  -2.039  0.00  0.00    -0.052 C 
ATOM     46  H   LIG d   1       2.701  -2.235  -1.959  0.00  0.00     0.024 H 
ATOM     47  H   LIG d   1       4.099  -3.254  -2.376  0.00  0.00     0.024 H 
ATOM     48  H   LIG d   1       4.231  -2.057  -1.065  0.00  0.00     0.024 H 
ENDBRANCH   1  45
TORSDOF 4
ENDMDL
MODEL 10
REMARK VINA RESULT:      -5.8      9.634     12.399
REMARK  4 active torsions:
REMARK  status: ('A' for Active; 'I' for Inactive)
REMARK    1  A    between atoms: C_1  and  C_2 
REMARK    2  A    between atoms: C_5  and  C_12 
REMARK    3  A    between atoms: C_6  and  C_7 
REMARK    4  A    between atoms: C_6  and  C_8 
REMARK       I    between atoms: C_12  and  N_14 
ROOT
ATOM      1  C   LIG d   1      11.502   7.982   0.037  0.00  0.00     0.032 C 
ATOM      2  C   LIG d   1      12.897   7.690  -0.595  0.00  0.00    -0.039 C 
ATOM      3  C   LIG d   1      12.602   7.438  -2.092  0.00  0.00    -0.037 C 
ATOM      4  C   LIG d   1      11.055   7.596  -2.215  0.00  0.00     0.060 C 
ATOM      5  C   LIG d   1      10.793   8.722  -1.152  0.00  0.00    -0.009 C 
ATOM      6  C   LIG d   1      10.480   6.361  -1.457  0.00  0.00     0.021 C 
ATOM      7  C   LIG d   1      10.762   6.637   0.023  0.00  0.00     0.141 C 
ATOM      8  O   LIG d   1      10.483   5.946   0.973  0.00  0.00    -0.297 OA
ATOM      9  H   LIG d   1      13.556   8.550  -0.477  0.00  0.00     0.028 H 
ATOM     10  H   LIG d   1      13.342   6.804  -0.142  0.00  0.00     0.028 H 
ATOM     11  H   LIG d   1      13.111   8.179  -2.710  0.00  0.00     0.028 H 
ATOM     12  H   LIG d   1      12.906   6.431  -2.376  0.00  0.00     0.028 H 
ATOM     13  H   LIG d   1       9.405   6.282  -1.620  0.00  0.00     0.035 H 
ATOM     14  H   LIG d   1      10.981   5.449  -1.783  0.00  0.00     0.035 H 
ENDROOT
BRANCH   4  15
ATOM     15  C   LIG d   1      10.523   7.848  -3.602  0.00  0.00     0.227 C 
ATOM     16  O   LIG d   1      10.202   8.969  -3.935  0.00  0.00    -0.275 OA
ATOM     17  N   LIG d   1      10.406   6.827  -4.475  0.00  0.00    -0.271 N 
ATOM     18  C   LIG d   1       9.982   7.059  -5.791  0.00  0.00     0.039 A 
ATOM     19  C   LIG d   1      10.712   5.451  -4.061  0.00  0.00     0.020 C 
ATOM     20  C   LIG d   1      10.124   6.081  -6.765  0.00  0.00    -0.026 A 
ATOM     21  C   LIG d   1       9.422   8.289  -6.115  0.00  0.00    -0.040 A 
ATOM     22  C   LIG d   1      10.716   4.733  -6.446  0.00  0.00    -0.025 C 
ATOM     23  C   LIG d   1       9.706   6.340  -8.058  0.00  0.00    -0.057 A 
ATOM     24  C   LIG d   1      11.553   4.804  -5.169  0.00  0.00    -0.033 C 
ATOM     25  H   LIG d   1      11.349   4.413  -7.274  0.00  0.00     0.031 H 
ATOM     26  H   LIG d   1       9.912   4.011  -6.309  0.00  0.00     0.031 H 
ATOM     27  H   LIG d   1      12.444   5.406  -5.349  0.00  0.00     0.028 H 
ATOM     28  H   LIG d   1      11.844   3.798  -4.866  0.00  0.00     0.028 H 
ATOM     29  C   LIG d   1       9.140   7.563  -8.377  0.00  0.00    -0.061 A 
ATOM     30  H   LIG d   1       9.812   5.581  -8.820  0.00  0.00     0.062 H 
ATOM     31  C   LIG d   1       9.002   8.539  -7.406  0.00  0.00    -0.060 A 
ATOM     32  H   LIG d   1       8.811   7.758  -9.387  0.00  0.00     0.062 H 
ATOM     33  H   LIG d   1       8.566   9.494  -7.658  0.00  0.00     0.062 H 
ATOM     34  H   LIG d   1       9.316   9.050  -5.356  0.00  0.00     0.064 H 
ATOM     35  H   LIG d   1      11.277   5.464  -3.128  0.00  0.00     0.047 H 
ATOM     36  H   LIG d   1       9.787   4.892  -3.924  0.00  0.00     0.047 H 
ENDBRANCH   4  15
BRANCH   5  37
ATOM     37  C   LIG d   1      11.496  10.032  -1.516  0.00  0.00    -0.058 C 
ATOM     38  H   LIG d   1      11.341  10.245  -2.574  0.00  0.00     0.024 H 
ATOM     39  H   LIG d   1      11.083  10.844  -0.917  0.00  0.00     0.024 H 
ATOM     40  H   LIG d   1      12.563   9.939  -1.316  0.00  0.00     0.024 H 
ENDBRANCH   5  37
BRANCH   5  41
ATOM     41  C   LIG d   1       9.300   8.931  -0.892  0.00  0.00    -0.058 C 
ATOM     42  H   LIG d   1       8.725   8.216  -1.480  0.00  0.00     0.024 H 
ATOM     43  H   LIG d   1       9.092   8.781   0.167  0.00  0.00     0.024 H 
ATOM     44  H   LIG d   1       9.020   9.945  -1.176  0.00  0.00     0.024 H 
ENDBRANCH   5  41
BRANCH   1  45
ATOM     45  C   LIG d   1      11.518   8.722   1.376  0.00  0.00    -0.052 C 
ATOM     46  H   LIG d   1      12.480   8.567   1.865  0.00  0.00     0.024 H 
ATOM     47  H   LIG d   1      11.366   9.787   1.204  0.00  0.00     0.024 H 
ATOM     48  H   LIG d   1      10.721   8.339   2.013  0.00  0.00     0.024 H 
ENDBRANCH   1  45
TORSDOF 4
ENDMDL
