MODEL 1
REMARK VINA RESULT:      -6.9      0.000      0.000
REMARK  10 active torsions:
REMARK  status: ('A' for Active; 'I' for Inactive)
REMARK    1  A    between atoms: C_1  and  N_2 
REMARK    2  A    between atoms: N_2  and  C_3 
REMARK       I    between atoms: N_2  and  C_6 
REMARK    3  A    between atoms: C_3  and  C_4 
REMARK    4  A    between atoms: C_6  and  C_8 
REMARK    5  A    between atoms: C_8  and  C_9 
REMARK    6  A    between atoms: C_15  and  C_17 
REMARK    7  A    between atoms: C_17  and  C_18 
REMARK    8  A    between atoms: C_20  and  C_23 
REMARK    9  A    between atoms: C_23  and  N_24 
REMARK   10  A    between atoms: N_27  and  C_30 
ROOT
ATOM      1  C   LIG d   1       3.865   0.467  -2.330  0.00  0.00    -0.086 C 
ATOM      2  C   LIG d   1       4.697   0.972  -1.675  0.00  0.00    -0.118 C 
ATOM      3  H   LIG d   1       5.442   1.423  -1.089  0.00  0.00     0.123 H 
ENDROOT
BRANCH   1   4
ATOM      4  C   LIG d   1       2.821  -0.167  -3.152  0.00  0.00     0.076 C 
ATOM      5  H   LIG d   1       2.031   0.556  -3.357  0.00  0.00     0.060 H 
ATOM      6  H   LIG d   1       2.402  -1.018  -2.615  0.00  0.00     0.060 H 
BRANCH   4   7
ATOM      7  N   LIG d   1       3.404  -0.625  -4.415  0.00  0.00    -0.293 N 
ATOM      8  C   LIG d   1       3.197   0.077  -5.547  0.00  0.00     0.216 C 
ATOM      9  O   LIG d   1       2.530   1.089  -5.520  0.00  0.00    -0.276 OA
BRANCH   7  10
ATOM     10  C   LIG d   1       4.212  -1.847  -4.448  0.00  0.00     0.004 C 
ATOM     11  H   LIG d   1       4.999  -1.782  -3.698  0.00  0.00     0.043 H 
ATOM     12  H   LIG d   1       3.578  -2.708  -4.236  0.00  0.00     0.043 H 
ATOM     13  H   LIG d   1       4.659  -1.960  -5.436  0.00  0.00     0.043 H 
ENDBRANCH   7  10
BRANCH   8  14
ATOM     14  C   LIG d   1       3.798  -0.394  -6.846  0.00  0.00     0.028 C 
ATOM     15  H   LIG d   1       4.771  -0.848  -6.653  0.00  0.00     0.036 H 
ATOM     16  H   LIG d   1       3.138  -1.131  -7.305  0.00  0.00     0.036 H 
BRANCH  14  17
ATOM     17  C   LIG d   1       3.968   0.797  -7.791  0.00  0.00    -0.020 C 
ATOM     18  H   LIG d   1       4.142   1.702  -7.209  0.00  0.00     0.031 H 
ATOM     19  C   LIG d   1       5.161   0.548  -8.718  0.00  0.00     0.008 C 
ATOM     20  C   LIG d   1       4.875  -0.680  -9.588  0.00  0.00    -0.030 C 
ATOM     21  H   LIG d   1       5.313   1.419  -9.356  0.00  0.00     0.036 H 
ATOM     22  N   LIG d   1       3.668  -0.445 -10.390  0.00  0.00     0.227 N 
ATOM     23  H   LIG d   1       4.723  -1.549  -8.949  0.00  0.00     0.082 H 
ATOM     24  H   LIG d   1       5.721  -0.860 -10.251  0.00  0.00     0.082 H 
ATOM     25  C   LIG d   1       2.507  -0.277  -9.507  0.00  0.00    -0.033 C 
ATOM     26  H   LIG d   1       3.512  -1.233 -11.001  0.00  0.00     0.201 HD
ATOM     27  H   LIG d   1       3.790   0.388 -10.946  0.00  0.00     0.201 HD
ATOM     28  C   LIG d   1       2.703   0.966  -8.635  0.00  0.00    -0.009 C 
ATOM     29  H   LIG d   1       2.406  -1.155  -8.870  0.00  0.00     0.081 H 
ATOM     30  H   LIG d   1       1.607  -0.160 -10.109  0.00  0.00     0.081 H 
ATOM     31  H   LIG d   1       1.840   1.088  -7.979  0.00  0.00     0.032 H 
ATOM     32  H   LIG d   1       2.803   1.845  -9.272  0.00  0.00     0.032 H 
BRANCH  19  33
ATOM     33  C   LIG d   1       6.417   0.302  -7.880  0.00  0.00     0.001 C 
ATOM     34  H   LIG d   1       6.139   0.195  -6.831  0.00  0.00     0.033 H 
ATOM     35  H   LIG d   1       6.908  -0.609  -8.221  0.00  0.00     0.033 H 
BRANCH  33  36
ATOM     36  C   LIG d   1       7.360   1.468  -8.034  0.00  0.00     0.084 A 
ATOM     37  N   LIG d   1       7.425   2.270  -9.059  0.00  0.00    -0.083 NA
ATOM     38  O   LIG d   1       8.437   3.226  -8.800  0.00  0.00    -0.358 OA
ATOM     39  C   LIG d   1       8.967   2.951  -7.598  0.00  0.00     0.151 A 
ATOM     40  C   LIG d   1       8.328   1.876  -7.098  0.00  0.00     0.005 A 
ATOM     41  H   LIG d   1       8.525   1.408  -6.144  0.00  0.00     0.067 H 
BRANCH  39  42
ATOM     42  C   LIG d   1      10.081   3.712  -6.926  0.00  0.00     0.060 C 
ATOM     43  H   LIG d   1      10.960   3.074  -6.847  0.00  0.00     0.051 H 
ATOM     44  H   LIG d   1      10.324   4.595  -7.515  0.00  0.00     0.051 H 
BRANCH  42  45
ATOM     45  N   LIG d   1       9.652   4.123  -5.582  0.00  0.00    -0.292 N 
ATOM     46  C   LIG d   1       9.781   5.575  -5.409  0.00  0.00     0.015 C 
ATOM     47  C   LIG d   1       9.157   5.985  -4.071  0.00  0.00     0.025 C 
ATOM     48  H   LIG d   1      10.835   5.851  -5.419  0.00  0.00     0.044 H 
ATOM     49  H   LIG d   1       9.263   6.086  -6.222  0.00  0.00     0.044 H 
ATOM     50  N   LIG d   1       9.767   5.175  -3.005  0.00  0.00    -0.328 N 
ATOM     51  H   LIG d   1       8.083   5.805  -4.097  0.00  0.00     0.048 H 
ATOM     52  H   LIG d   1       9.350   7.041  -3.885  0.00  0.00     0.048 H 
ATOM     53  C   LIG d   1       9.799   3.715  -3.172  0.00  0.00     0.025 C 
ATOM     54  C   LIG d   1      10.397   3.395  -4.546  0.00  0.00     0.015 C 
ATOM     55  H   LIG d   1       8.786   3.317  -3.112  0.00  0.00     0.048 H 
ATOM     56  H   LIG d   1      10.417   3.270  -2.392  0.00  0.00     0.048 H 
ATOM     57  H   LIG d   1      10.327   2.323  -4.733  0.00  0.00     0.044 H 
ATOM     58  H   LIG d   1      11.443   3.700  -4.568  0.00  0.00     0.044 H 
BRANCH  50  59
ATOM     59  C   LIG d   1      10.301   5.778  -1.864  0.00  0.00     0.030 A 
ATOM     60  C   LIG d   1      11.291   5.132  -1.135  0.00  0.00    -0.041 A 
ATOM     61  C   LIG d   1      11.822   5.733  -0.009  0.00  0.00    -0.060 A 
ATOM     62  H   LIG d   1      11.648   4.162  -1.448  0.00  0.00     0.064 H 
ATOM     63  C   LIG d   1      11.361   6.973   0.396  0.00  0.00    -0.062 A 
ATOM     64  H   LIG d   1      12.594   5.234   0.556  0.00  0.00     0.062 H 
ATOM     65  C   LIG d   1      10.371   7.617  -0.324  0.00  0.00    -0.060 A 
ATOM     66  H   LIG d   1      11.774   7.439   1.278  0.00  0.00     0.062 H 
ATOM     67  C   LIG d   1       9.840   7.023  -1.454  0.00  0.00    -0.041 A 
ATOM     68  H   LIG d   1      10.014   8.584  -0.006  0.00  0.00     0.062 H 
ATOM     69  H   LIG d   1       9.069   7.526  -2.017  0.00  0.00     0.064 H 
ENDBRANCH  50  59
ENDBRANCH  42  45
ENDBRANCH  39  42
ENDBRANCH  33  36
ENDBRANCH  19  33
ENDBRANCH  14  17
ENDBRANCH   8  14
ENDBRANCH   4   7
ENDBRANCH   1   4
TORSDOF 10
ENDMDL
MODEL 2
REMARK VINA RESULT:      -6.8      5.764     10.529
REMARK  10 active torsions:
REMARK  status: ('A' for Active; 'I' for Inactive)
REMARK    1  A    between atoms: C_1  and  N_2 
REMARK    2  A    between atoms: N_2  and  C_3 
REMARK       I    between atoms: N_2  and  C_6 
REMARK    3  A    between atoms: C_3  and  C_4 
REMARK    4  A    between atoms: C_6  and  C_8 
REMARK    5  A    between atoms: C_8  and  C_9 
REMARK    6  A    between atoms: C_15  and  C_17 
REMARK    7  A    between atoms: C_17  and  C_18 
REMARK    8  A    between atoms: C_20  and  C_23 
REMARK    9  A    between atoms: C_23  and  N_24 
REMARK   10  A    between atoms: N_27  and  C_30 
ROOT
ATOM      1  C   LIG d   1       3.640   1.701  -9.088  0.00  0.00    -0.086 C 
ATOM      2  C   LIG d   1       3.885   2.808  -9.394  0.00  0.00    -0.118 C 
ATOM      3  H   LIG d   1       4.103   3.797  -9.667  0.00  0.00     0.123 H 
ENDROOT
BRANCH   1   4
ATOM      4  C   LIG d   1       3.333   0.314  -8.704  0.00  0.00     0.076 C 
ATOM      5  H   LIG d   1       3.578  -0.354  -9.530  0.00  0.00     0.060 H 
ATOM      6  H   LIG d   1       2.272   0.227  -8.470  0.00  0.00     0.060 H 
BRANCH   4   7
ATOM      7  N   LIG d   1       4.124  -0.055  -7.527  0.00  0.00    -0.293 N 
ATOM      8  C   LIG d   1       3.552  -0.064  -6.307  0.00  0.00     0.216 C 
ATOM      9  O   LIG d   1       2.383   0.232  -6.183  0.00  0.00    -0.276 OA
BRANCH   7  10
ATOM     10  C   LIG d   1       5.537  -0.414  -7.677  0.00  0.00     0.004 C 
ATOM     11  H   LIG d   1       5.676  -0.957  -8.611  0.00  0.00     0.043 H 
ATOM     12  H   LIG d   1       6.143   0.491  -7.689  0.00  0.00     0.043 H 
ATOM     13  H   LIG d   1       5.842  -1.044  -6.841  0.00  0.00     0.043 H 
ENDBRANCH   7  10
BRANCH   8  14
ATOM     14  C   LIG d   1       4.365  -0.444  -5.097  0.00  0.00     0.028 C 
ATOM     15  H   LIG d   1       5.324  -0.853  -5.417  0.00  0.00     0.036 H 
ATOM     16  H   LIG d   1       4.534   0.439  -4.481  0.00  0.00     0.036 H 
BRANCH  14  17
ATOM     17  C   LIG d   1       3.608  -1.497  -4.284  0.00  0.00    -0.020 C 
ATOM     18  H   LIG d   1       2.985  -2.093  -4.950  0.00  0.00     0.031 H 
ATOM     19  C   LIG d   1       4.610  -2.407  -3.568  0.00  0.00     0.008 C 
ATOM     20  C   LIG d   1       5.428  -1.575  -2.576  0.00  0.00    -0.030 C 
ATOM     21  H   LIG d   1       4.071  -3.188  -3.030  0.00  0.00     0.036 H 
ATOM     22  N   LIG d   1       4.531  -0.959  -1.591  0.00  0.00     0.227 N 
ATOM     23  H   LIG d   1       5.966  -0.795  -3.115  0.00  0.00     0.082 H 
ATOM     24  H   LIG d   1       6.142  -2.220  -2.063  0.00  0.00     0.082 H 
ATOM     25  C   LIG d   1       3.615  -0.029  -2.264  0.00  0.00    -0.033 C 
ATOM     26  H   LIG d   1       5.077  -0.455  -0.908  0.00  0.00     0.201 HD
ATOM     27  H   LIG d   1       3.997  -1.678  -1.126  0.00  0.00     0.201 HD
ATOM     28  C   LIG d   1       2.727  -0.803  -3.242  0.00  0.00    -0.009 C 
ATOM     29  H   LIG d   1       4.192   0.717  -2.809  0.00  0.00     0.081 H 
ATOM     30  H   LIG d   1       2.991   0.466  -1.521  0.00  0.00     0.081 H 
ATOM     31  H   LIG d   1       2.049  -0.110  -3.742  0.00  0.00     0.032 H 
ATOM     32  H   LIG d   1       2.149  -1.549  -2.697  0.00  0.00     0.032 H 
BRANCH  19  33
ATOM     33  C   LIG d   1       5.545  -3.047  -4.596  0.00  0.00     0.001 C 
ATOM     34  H   LIG d   1       5.984  -2.269  -5.221  0.00  0.00     0.033 H 
ATOM     35  H   LIG d   1       6.337  -3.588  -4.079  0.00  0.00     0.033 H 
BRANCH  33  36
ATOM     36  C   LIG d   1       4.764  -4.004  -5.459  0.00  0.00     0.084 A 
ATOM     37  N   LIG d   1       4.168  -5.090  -5.054  0.00  0.00    -0.083 NA
ATOM     38  O   LIG d   1       3.551  -5.693  -6.176  0.00  0.00    -0.358 OA
ATOM     39  C   LIG d   1       3.811  -4.931  -7.250  0.00  0.00     0.151 A 
ATOM     40  C   LIG d   1       4.556  -3.884  -6.846  0.00  0.00     0.005 A 
ATOM     41  H   LIG d   1       4.928  -3.089  -7.476  0.00  0.00     0.067 H 
BRANCH  39  42
ATOM     42  C   LIG d   1       3.352  -5.200  -8.660  0.00  0.00     0.060 C 
ATOM     43  H   LIG d   1       4.001  -5.948  -9.116  0.00  0.00     0.051 H 
ATOM     44  H   LIG d   1       2.328  -5.569  -8.644  0.00  0.00     0.051 H 
BRANCH  42  45
ATOM     45  N   LIG d   1       3.413  -3.957  -9.440  0.00  0.00    -0.292 N 
ATOM     46  C   LIG d   1       2.184  -3.765 -10.220  0.00  0.00     0.015 C 
ATOM     47  C   LIG d   1       2.209  -2.379 -10.874  0.00  0.00     0.025 C 
ATOM     48  H   LIG d   1       2.120  -4.531 -10.993  0.00  0.00     0.044 H 
ATOM     49  H   LIG d   1       1.319  -3.840  -9.561  0.00  0.00     0.044 H 
ATOM     50  N   LIG d   1       3.458  -2.246 -11.639  0.00  0.00    -0.328 N 
ATOM     51  H   LIG d   1       2.168  -1.610 -10.103  0.00  0.00     0.048 H 
ATOM     52  H   LIG d   1       1.356  -2.275 -11.544  0.00  0.00     0.048 H 
ATOM     53  C   LIG d   1       4.725  -2.556 -10.962  0.00  0.00     0.025 C 
ATOM     54  C   LIG d   1       4.601  -3.935 -10.304  0.00  0.00     0.015 C 
ATOM     55  H   LIG d   1       4.927  -1.804 -10.199  0.00  0.00     0.048 H 
ATOM     56  H   LIG d   1       5.537  -2.570 -11.689  0.00  0.00     0.048 H 
ATOM     57  H   LIG d   1       5.490  -4.134  -9.705  0.00  0.00     0.044 H 
ATOM     58  H   LIG d   1       4.504  -4.699 -11.076  0.00  0.00     0.044 H 
BRANCH  50  59
ATOM     59  C   LIG d   1       3.440  -1.836 -12.973  0.00  0.00     0.030 A 
ATOM     60  C   LIG d   1       4.338  -0.873 -13.418  0.00  0.00    -0.041 A 
ATOM     61  C   LIG d   1       4.322  -0.472 -14.739  0.00  0.00    -0.060 A 
ATOM     62  H   LIG d   1       5.051  -0.440 -12.731  0.00  0.00     0.064 H 
ATOM     63  C   LIG d   1       3.406  -1.022 -15.618  0.00  0.00    -0.062 A 
ATOM     64  H   LIG d   1       5.022   0.272 -15.087  0.00  0.00     0.062 H 
ATOM     65  C   LIG d   1       2.506  -1.976 -15.179  0.00  0.00    -0.060 A 
ATOM     66  H   LIG d   1       3.392  -0.704 -16.650  0.00  0.00     0.062 H 
ATOM     67  C   LIG d   1       2.521  -2.385 -13.859  0.00  0.00    -0.041 A 
ATOM     68  H   LIG d   1       1.792  -2.403 -15.867  0.00  0.00     0.062 H 
ATOM     69  H   LIG d   1       1.820  -3.131 -13.516  0.00  0.00     0.064 H 
ENDBRANCH  50  59
ENDBRANCH  42  45
ENDBRANCH  39  42
ENDBRANCH  33  36
ENDBRANCH  19  33
ENDBRANCH  14  17
ENDBRANCH   8  14
ENDBRANCH   4   7
ENDBRANCH   1   4
TORSDOF 10
ENDMDL
MODEL 3
REMARK VINA RESULT:      -6.6      4.561      9.022
REMARK  10 active torsions:
REMARK  status: ('A' for Active; 'I' for Inactive)
REMARK    1  A    between atoms: C_1  and  N_2 
REMARK    2  A    between atoms: N_2  and  C_3 
REMARK       I    between atoms: N_2  and  C_6 
REMARK    3  A    between atoms: C_3  and  C_4 
REMARK    4  A    between atoms: C_6  and  C_8 
REMARK    5  A    between atoms: C_8  and  C_9 
REMARK    6  A    between atoms: C_15  and  C_17 
REMARK    7  A    between atoms: C_17  and  C_18 
REMARK    8  A    between atoms: C_20  and  C_23 
REMARK    9  A    between atoms: C_23  and  N_24 
REMARK   10  A    between atoms: N_27  and  C_30 
ROOT
ATOM      1  C   LIG d   1       7.537   1.427  -7.765  0.00  0.00    -0.086 C 
ATOM      2  C   LIG d   1       6.907   1.800  -8.682  0.00  0.00    -0.118 C 
ATOM      3  H   LIG d   1       6.343   2.133  -9.502  0.00  0.00     0.123 H 
ENDROOT
BRANCH   1   4
ATOM      4  C   LIG d   1       8.327   0.960  -6.614  0.00  0.00     0.076 C 
ATOM      5  H   LIG d   1       8.536   1.800  -5.951  0.00  0.00     0.060 H 
ATOM      6  H   LIG d   1       9.267   0.534  -6.967  0.00  0.00     0.060 H 
BRANCH   4   7
ATOM      7  N   LIG d   1       7.572  -0.062  -5.885  0.00  0.00    -0.293 N 
ATOM      8  C   LIG d   1       6.891   0.271  -4.771  0.00  0.00     0.216 C 
ATOM      9  O   LIG d   1       6.902   1.416  -4.372  0.00  0.00    -0.276 OA
BRANCH   7  10
ATOM     10  C   LIG d   1       7.558  -1.446  -6.366  0.00  0.00     0.004 C 
ATOM     11  H   LIG d   1       6.719  -1.584  -7.047  0.00  0.00     0.043 H 
ATOM     12  H   LIG d   1       8.489  -1.658  -6.890  0.00  0.00     0.043 H 
ATOM     13  H   LIG d   1       7.454  -2.124  -5.519  0.00  0.00     0.043 H 
ENDBRANCH   7  10
BRANCH   8  14
ATOM     14  C   LIG d   1       6.113  -0.780  -4.021  0.00  0.00     0.028 C 
ATOM     15  H   LIG d   1       6.714  -1.686  -3.937  0.00  0.00     0.036 H 
ATOM     16  H   LIG d   1       5.871  -0.410  -3.025  0.00  0.00     0.036 H 
BRANCH  14  17
ATOM     17  C   LIG d   1       4.821  -1.094  -4.777  0.00  0.00    -0.020 C 
ATOM     18  H   LIG d   1       5.050  -1.291  -5.825  0.00  0.00     0.031 H 
ATOM     19  C   LIG d   1       4.154  -2.326  -4.160  0.00  0.00     0.008 C 
ATOM     20  C   LIG d   1       3.764  -2.015  -2.712  0.00  0.00    -0.030 C 
ATOM     21  H   LIG d   1       3.260  -2.580  -4.731  0.00  0.00     0.036 H 
ATOM     22  N   LIG d   1       2.829  -0.884  -2.685  0.00  0.00     0.227 N 
ATOM     23  H   LIG d   1       4.658  -1.762  -2.142  0.00  0.00     0.082 H 
ATOM     24  H   LIG d   1       3.288  -2.890  -2.268  0.00  0.00     0.082 H 
ATOM     25  C   LIG d   1       3.487   0.319  -3.210  0.00  0.00    -0.033 C 
ATOM     26  H   LIG d   1       2.533  -0.716  -1.734  0.00  0.00     0.201 HD
ATOM     27  H   LIG d   1       2.023  -1.100  -3.252  0.00  0.00     0.201 HD
ATOM     28  C   LIG d   1       3.865   0.097  -4.676  0.00  0.00    -0.009 C 
ATOM     29  H   LIG d   1       4.387   0.523  -2.629  0.00  0.00     0.081 H 
ATOM     30  H   LIG d   1       2.807   1.167  -3.134  0.00  0.00     0.081 H 
ATOM     31  H   LIG d   1       4.355   0.991  -5.064  0.00  0.00     0.032 H 
ATOM     32  H   LIG d   1       2.966  -0.106  -5.257  0.00  0.00     0.032 H 
BRANCH  19  33
ATOM     33  C   LIG d   1       5.130  -3.504  -4.187  0.00  0.00     0.001 C 
ATOM     34  H   LIG d   1       6.143  -3.133  -4.347  0.00  0.00     0.033 H 
ATOM     35  H   LIG d   1       5.083  -4.037  -3.237  0.00  0.00     0.033 H 
BRANCH  33  36
ATOM     36  C   LIG d   1       4.756  -4.441  -5.307  0.00  0.00     0.084 A 
ATOM     37  N   LIG d   1       4.060  -5.537  -5.188  0.00  0.00    -0.083 NA
ATOM     38  O   LIG d   1       3.934  -6.114  -6.475  0.00  0.00    -0.358 OA
ATOM     39  C   LIG d   1       4.585  -5.328  -7.346  0.00  0.00     0.151 A 
ATOM     40  C   LIG d   1       5.104  -4.289  -6.661  0.00  0.00     0.005 A 
ATOM     41  H   LIG d   1       5.685  -3.481  -7.080  0.00  0.00     0.067 H 
BRANCH  39  42
ATOM     42  C   LIG d   1       4.715  -5.564  -8.829  0.00  0.00     0.060 C 
ATOM     43  H   LIG d   1       5.737  -5.863  -9.060  0.00  0.00     0.051 H 
ATOM     44  H   LIG d   1       4.028  -6.354  -9.131  0.00  0.00     0.051 H 
BRANCH  42  45
ATOM     45  N   LIG d   1       4.390  -4.328  -9.552  0.00  0.00    -0.292 N 
ATOM     46  C   LIG d   1       5.481  -3.352  -9.443  0.00  0.00     0.015 C 
ATOM     47  C   LIG d   1       5.186  -2.156 -10.354  0.00  0.00     0.025 C 
ATOM     48  H   LIG d   1       5.562  -3.011  -8.411  0.00  0.00     0.044 H 
ATOM     49  H   LIG d   1       6.419  -3.818  -9.747  0.00  0.00     0.044 H 
ATOM     50  N   LIG d   1       3.850  -1.635 -10.025  0.00  0.00    -0.328 N 
ATOM     51  H   LIG d   1       5.207  -2.476 -11.396  0.00  0.00     0.048 H 
ATOM     52  H   LIG d   1       5.932  -1.378 -10.192  0.00  0.00     0.048 H 
ATOM     53  C   LIG d   1       2.727  -2.582  -9.979  0.00  0.00     0.025 C 
ATOM     54  C   LIG d   1       3.119  -3.761  -9.082  0.00  0.00     0.015 C 
ATOM     55  H   LIG d   1       2.511  -2.943 -10.985  0.00  0.00     0.048 H 
ATOM     56  H   LIG d   1       1.846  -2.088  -9.569  0.00  0.00     0.048 H 
ATOM     57  H   LIG d   1       2.342  -4.525  -9.125  0.00  0.00     0.044 H 
ATOM     58  H   LIG d   1       3.233  -3.415  -8.055  0.00  0.00     0.044 H 
BRANCH  50  59
ATOM     59  C   LIG d   1       3.655  -0.278  -9.761  0.00  0.00     0.030 A 
ATOM     60  C   LIG d   1       3.212   0.131  -8.510  0.00  0.00    -0.041 A 
ATOM     61  C   LIG d   1       3.025   1.475  -8.251  0.00  0.00    -0.060 A 
ATOM     62  H   LIG d   1       3.017  -0.600  -7.739  0.00  0.00     0.064 H 
ATOM     63  C   LIG d   1       3.269   2.412  -9.239  0.00  0.00    -0.062 A 
ATOM     64  H   LIG d   1       2.684   1.795  -7.277  0.00  0.00     0.062 H 
ATOM     65  C   LIG d   1       3.705   2.008 -10.487  0.00  0.00    -0.060 A 
ATOM     66  H   LIG d   1       3.118   3.461  -9.035  0.00  0.00     0.062 H 
ATOM     67  C   LIG d   1       3.899   0.666 -10.752  0.00  0.00    -0.041 A 
ATOM     68  H   LIG d   1       3.895   2.741 -11.256  0.00  0.00     0.062 H 
ATOM     69  H   LIG d   1       4.241   0.350 -11.726  0.00  0.00     0.064 H 
ENDBRANCH  50  59
ENDBRANCH  42  45
ENDBRANCH  39  42
ENDBRANCH  33  36
ENDBRANCH  19  33
ENDBRANCH  14  17
ENDBRANCH   8  14
ENDBRANCH   4   7
ENDBRANCH   1   4
TORSDOF 10
ENDMDL
MODEL 4
REMARK VINA RESULT:      -6.5      7.764     11.800
REMARK  10 active torsions:
REMARK  status: ('A' for Active; 'I' for Inactive)
REMARK    1  A    between atoms: C_1  and  N_2 
REMARK    2  A    between atoms: N_2  and  C_3 
REMARK       I    between atoms: N_2  and  C_6 
REMARK    3  A    between atoms: C_3  and  C_4 
REMARK    4  A    between atoms: C_6  and  C_8 
REMARK    5  A    between atoms: C_8  and  C_9 
REMARK    6  A    between atoms: C_15  and  C_17 
REMARK    7  A    between atoms: C_17  and  C_18 
REMARK    8  A    between atoms: C_20  and  C_23 
REMARK    9  A    between atoms: C_23  and  N_24 
REMARK   10  A    between atoms: N_27  and  C_30 
ROOT
ATOM      1  C   LIG d   1       3.817   0.289  -2.309  0.00  0.00    -0.086 C 
ATOM      2  C   LIG d   1       4.481   1.035  -1.692  0.00  0.00    -0.118 C 
ATOM      3  H   LIG d   1       5.075   1.703  -1.141  0.00  0.00     0.123 H 
ENDROOT
BRANCH   1   4
ATOM      4  C   LIG d   1       2.985  -0.646  -3.083  0.00  0.00     0.076 C 
ATOM      5  H   LIG d   1       2.095  -0.129  -3.441  0.00  0.00     0.060 H 
ATOM      6  H   LIG d   1       2.688  -1.481  -2.447  0.00  0.00     0.060 H 
BRANCH   4   7
ATOM      7  N   LIG d   1       3.750  -1.151  -4.226  0.00  0.00    -0.293 N 
ATOM      8  C   LIG d   1       4.282  -2.389  -4.185  0.00  0.00     0.216 C 
ATOM      9  O   LIG d   1       4.130  -3.083  -3.204  0.00  0.00    -0.276 OA
BRANCH   7  10
ATOM     10  C   LIG d   1       3.934  -0.313  -5.413  0.00  0.00     0.004 C 
ATOM     11  H   LIG d   1       4.835   0.289  -5.296  0.00  0.00     0.043 H 
ATOM     12  H   LIG d   1       4.031  -0.946  -6.294  0.00  0.00     0.043 H 
ATOM     13  H   LIG d   1       3.072   0.344  -5.530  0.00  0.00     0.043 H 
ENDBRANCH   7  10
BRANCH   8  14
ATOM     14  C   LIG d   1       5.068  -2.909  -5.361  0.00  0.00     0.028 C 
ATOM     15  H   LIG d   1       4.381  -3.268  -6.128  0.00  0.00     0.036 H 
ATOM     16  H   LIG d   1       5.682  -2.107  -5.772  0.00  0.00     0.036 H 
BRANCH  14  17
ATOM     17  C   LIG d   1       5.969  -4.058  -4.905  0.00  0.00    -0.020 C 
ATOM     18  H   LIG d   1       5.562  -4.501  -3.996  0.00  0.00     0.031 H 
ATOM     19  C   LIG d   1       6.039  -5.121  -6.004  0.00  0.00     0.008 C 
ATOM     20  C   LIG d   1       6.684  -4.512  -7.253  0.00  0.00    -0.030 C 
ATOM     21  H   LIG d   1       6.640  -5.963  -5.658  0.00  0.00     0.036 H 
ATOM     22  N   LIG d   1       8.039  -4.047  -6.931  0.00  0.00     0.227 N 
ATOM     23  H   LIG d   1       6.084  -3.671  -7.598  0.00  0.00     0.082 H 
ATOM     24  H   LIG d   1       6.738  -5.266  -8.038  0.00  0.00     0.082 H 
ATOM     25  C   LIG d   1       7.972  -2.976  -5.928  0.00  0.00    -0.033 C 
ATOM     26  H   LIG d   1       8.481  -3.695  -7.767  0.00  0.00     0.201 HD
ATOM     27  H   LIG d   1       8.581  -4.816  -6.565  0.00  0.00     0.201 HD
ATOM     28  C   LIG d   1       7.378  -3.526  -4.629  0.00  0.00    -0.009 C 
ATOM     29  H   LIG d   1       7.344  -2.168  -6.301  0.00  0.00     0.081 H 
ATOM     30  H   LIG d   1       8.975  -2.596  -5.736  0.00  0.00     0.081 H 
ATOM     31  H   LIG d   1       7.328  -2.730  -3.887  0.00  0.00     0.032 H 
ATOM     32  H   LIG d   1       8.006  -4.335  -4.255  0.00  0.00     0.032 H 
BRANCH  19  33
ATOM     33  C   LIG d   1       4.627  -5.604  -6.340  0.00  0.00     0.001 C 
ATOM     34  H   LIG d   1       3.922  -5.201  -5.612  0.00  0.00     0.033 H 
ATOM     35  H   LIG d   1       4.354  -5.261  -7.338  0.00  0.00     0.033 H 
BRANCH  33  36
ATOM     36  C   LIG d   1       4.587  -7.110  -6.298  0.00  0.00     0.084 A 
ATOM     37  N   LIG d   1       4.103  -7.889  -7.224  0.00  0.00    -0.083 NA
ATOM     38  O   LIG d   1       4.264  -9.229  -6.794  0.00  0.00    -0.358 OA
ATOM     39  C   LIG d   1       4.847  -9.207  -5.585  0.00  0.00     0.151 A 
ATOM     40  C   LIG d   1       5.059  -7.920  -5.249  0.00  0.00     0.005 A 
ATOM     41  H   LIG d   1       5.514  -7.570  -4.334  0.00  0.00     0.067 H 
BRANCH  39  42
ATOM     42  C   LIG d   1       5.201 -10.410  -4.750  0.00  0.00     0.060 C 
ATOM     43  H   LIG d   1       4.329 -10.723  -4.176  0.00  0.00     0.051 H 
ATOM     44  H   LIG d   1       5.518 -11.224  -5.402  0.00  0.00     0.051 H 
BRANCH  42  45
ATOM     45  N   LIG d   1       6.294 -10.065  -3.832  0.00  0.00    -0.292 N 
ATOM     46  C   LIG d   1       7.508 -10.829  -4.146  0.00  0.00     0.015 C 
ATOM     47  C   LIG d   1       8.669 -10.313  -3.290  0.00  0.00     0.025 C 
ATOM     48  H   LIG d   1       7.339 -11.884  -3.932  0.00  0.00     0.044 H 
ATOM     49  H   LIG d   1       7.752 -10.706  -5.201  0.00  0.00     0.044 H 
ATOM     50  N   LIG d   1       8.260 -10.349  -1.877  0.00  0.00    -0.328 N 
ATOM     51  H   LIG d   1       8.907  -9.289  -3.576  0.00  0.00     0.048 H 
ATOM     52  H   LIG d   1       9.542 -10.949  -3.435  0.00  0.00     0.048 H 
ATOM     53  C   LIG d   1       6.984  -9.722  -1.506  0.00  0.00     0.025 C 
ATOM     54  C   LIG d   1       5.888 -10.261  -2.433  0.00  0.00     0.015 C 
ATOM     55  H   LIG d   1       7.059  -8.640  -1.621  0.00  0.00     0.048 H 
ATOM     56  H   LIG d   1       6.741  -9.966  -0.472  0.00  0.00     0.048 H 
ATOM     57  H   LIG d   1       4.957  -9.726  -2.246  0.00  0.00     0.044 H 
ATOM     58  H   LIG d   1       5.741 -11.324  -2.243  0.00  0.00     0.044 H 
BRANCH  50  59
ATOM     59  C   LIG d   1       9.064 -10.963  -0.915  0.00  0.00     0.030 A 
ATOM     60  C   LIG d   1       9.778 -10.189  -0.008  0.00  0.00    -0.041 A 
ATOM     61  C   LIG d   1      10.568 -10.799   0.947  0.00  0.00    -0.060 A 
ATOM     62  H   LIG d   1       9.713  -9.112  -0.047  0.00  0.00     0.064 H 
ATOM     63  C   LIG d   1      10.656 -12.179   0.994  0.00  0.00    -0.062 A 
ATOM     64  H   LIG d   1      11.120 -10.199   1.655  0.00  0.00     0.062 H 
ATOM     65  C   LIG d   1       9.952 -12.952   0.090  0.00  0.00    -0.060 A 
ATOM     66  H   LIG d   1      11.278 -12.653   1.739  0.00  0.00     0.062 H 
ATOM     67  C   LIG d   1       9.155 -12.348  -0.864  0.00  0.00    -0.041 A 
ATOM     68  H   LIG d   1      10.023 -14.028   0.129  0.00  0.00     0.062 H 
ATOM     69  H   LIG d   1       8.604 -12.952  -1.569  0.00  0.00     0.064 H 
ENDBRANCH  50  59
ENDBRANCH  42  45
ENDBRANCH  39  42
ENDBRANCH  33  36
ENDBRANCH  19  33
ENDBRANCH  14  17
ENDBRANCH   8  14
ENDBRANCH   4   7
ENDBRANCH   1   4
TORSDOF 10
ENDMDL
MODEL 5
REMARK VINA RESULT:      -6.5      2.861      3.816
REMARK  10 active torsions:
REMARK  status: ('A' for Active; 'I' for Inactive)
REMARK    1  A    between atoms: C_1  and  N_2 
REMARK    2  A    between atoms: N_2  and  C_3 
REMARK       I    between atoms: N_2  and  C_6 
REMARK    3  A    between atoms: C_3  and  C_4 
REMARK    4  A    between atoms: C_6  and  C_8 
REMARK    5  A    between atoms: C_8  and  C_9 
REMARK    6  A    between atoms: C_15  and  C_17 
REMARK    7  A    between atoms: C_17  and  C_18 
REMARK    8  A    between atoms: C_20  and  C_23 
REMARK    9  A    between atoms: C_23  and  N_24 
REMARK   10  A    between atoms: N_27  and  C_30 
ROOT
ATOM      1  C   LIG d   1       3.209   0.635  -2.888  0.00  0.00    -0.086 C 
ATOM      2  C   LIG d   1       3.643   1.556  -2.304  0.00  0.00    -0.118 C 
ATOM      3  H   LIG d   1       4.030   2.380  -1.781  0.00  0.00     0.123 H 
ENDROOT
BRANCH   1   4
ATOM      4  C   LIG d   1       2.665  -0.520  -3.620  0.00  0.00     0.076 C 
ATOM      5  H   LIG d   1       2.438  -0.226  -4.645  0.00  0.00     0.060 H 
ATOM      6  H   LIG d   1       1.753  -0.865  -3.131  0.00  0.00     0.060 H 
BRANCH   4   7
ATOM      7  N   LIG d   1       3.653  -1.602  -3.629  0.00  0.00    -0.293 N 
ATOM      8  C   LIG d   1       4.338  -1.879  -4.756  0.00  0.00     0.216 C 
ATOM      9  O   LIG d   1       4.138  -1.233  -5.762  0.00  0.00    -0.276 OA
BRANCH   7  10
ATOM     10  C   LIG d   1       3.896  -2.382  -2.414  0.00  0.00     0.004 C 
ATOM     11  H   LIG d   1       2.982  -2.900  -2.126  0.00  0.00     0.043 H 
ATOM     12  H   LIG d   1       4.683  -3.111  -2.601  0.00  0.00     0.043 H 
ATOM     13  H   LIG d   1       4.203  -1.714  -1.609  0.00  0.00     0.043 H 
ENDBRANCH   7  10
BRANCH   8  14
ATOM     14  C   LIG d   1       5.355  -2.991  -4.765  0.00  0.00     0.028 C 
ATOM     15  H   LIG d   1       5.626  -3.244  -3.740  0.00  0.00     0.036 H 
ATOM     16  H   LIG d   1       4.930  -3.867  -5.255  0.00  0.00     0.036 H 
BRANCH  14  17
ATOM     17  C   LIG d   1       6.602  -2.536  -5.526  0.00  0.00    -0.020 C 
ATOM     18  H   LIG d   1       6.362  -1.659  -6.127  0.00  0.00     0.031 H 
ATOM     19  C   LIG d   1       7.710  -2.186  -4.530  0.00  0.00     0.008 C 
ATOM     20  C   LIG d   1       8.096  -3.442  -3.743  0.00  0.00    -0.030 C 
ATOM     21  H   LIG d   1       8.581  -1.813  -5.070  0.00  0.00     0.036 H 
ATOM     22  N   LIG d   1       8.575  -4.476  -4.669  0.00  0.00     0.227 N 
ATOM     23  H   LIG d   1       7.225  -3.814  -3.204  0.00  0.00     0.082 H 
ATOM     24  H   LIG d   1       8.885  -3.198  -3.033  0.00  0.00     0.082 H 
ATOM     25  C   LIG d   1       7.493  -4.867  -5.582  0.00  0.00    -0.033 C 
ATOM     26  H   LIG d   1       8.878  -5.283  -4.144  0.00  0.00     0.201 HD
ATOM     27  H   LIG d   1       9.351  -4.115  -5.203  0.00  0.00     0.201 HD
ATOM     28  C   LIG d   1       7.086  -3.666  -6.438  0.00  0.00    -0.009 C 
ATOM     29  H   LIG d   1       6.636  -5.208  -5.003  0.00  0.00     0.081 H 
ATOM     30  H   LIG d   1       7.839  -5.674  -6.228  0.00  0.00     0.081 H 
ATOM     31  H   LIG d   1       6.282  -3.959  -7.115  0.00  0.00     0.032 H 
ATOM     32  H   LIG d   1       7.943  -3.325  -7.018  0.00  0.00     0.032 H 
BRANCH  19  33
ATOM     33  C   LIG d   1       7.208  -1.110  -3.564  0.00  0.00     0.001 C 
ATOM     34  H   LIG d   1       6.129  -1.206  -3.442  0.00  0.00     0.033 H 
ATOM     35  H   LIG d   1       7.696  -1.233  -2.597  0.00  0.00     0.033 H 
BRANCH  33  36
ATOM     36  C   LIG d   1       7.531   0.253  -4.119  0.00  0.00     0.084 A 
ATOM     37  N   LIG d   1       6.858   1.348  -3.901  0.00  0.00    -0.083 NA
ATOM     38  O   LIG d   1       7.498   2.399  -4.602  0.00  0.00    -0.358 OA
ATOM     39  C   LIG d   1       8.557   1.883  -5.244  0.00  0.00     0.151 A 
ATOM     40  C   LIG d   1       8.608   0.565  -4.970  0.00  0.00     0.005 A 
ATOM     41  H   LIG d   1       9.347  -0.131  -5.338  0.00  0.00     0.067 H 
BRANCH  39  42
ATOM     42  C   LIG d   1       9.521   2.643  -6.118  0.00  0.00     0.060 C 
ATOM     43  H   LIG d   1      10.186   1.941  -6.621  0.00  0.00     0.051 H 
ATOM     44  H   LIG d   1       8.964   3.213  -6.862  0.00  0.00     0.051 H 
BRANCH  42  45
ATOM     45  N   LIG d   1      10.313   3.562  -5.290  0.00  0.00    -0.292 N 
ATOM     46  C   LIG d   1      10.748   2.910  -4.049  0.00  0.00     0.015 C 
ATOM     47  C   LIG d   1      11.717   3.833  -3.303  0.00  0.00     0.025 C 
ATOM     48  H   LIG d   1       9.881   2.708  -3.421  0.00  0.00     0.044 H 
ATOM     49  H   LIG d   1      11.251   1.972  -4.287  0.00  0.00     0.044 H 
ATOM     50  N   LIG d   1      11.071   5.142  -3.124  0.00  0.00    -0.328 N 
ATOM     51  H   LIG d   1      12.630   3.953  -3.885  0.00  0.00     0.048 H 
ATOM     52  H   LIG d   1      11.954   3.405  -2.329  0.00  0.00     0.048 H 
ATOM     53  C   LIG d   1      10.487   5.797  -4.303  0.00  0.00     0.025 C 
ATOM     54  C   LIG d   1       9.567   4.796  -5.011  0.00  0.00     0.015 C 
ATOM     55  H   LIG d   1      11.282   6.105  -4.983  0.00  0.00     0.048 H 
ATOM     56  H   LIG d   1       9.910   6.668  -3.992  0.00  0.00     0.048 H 
ATOM     57  H   LIG d   1       9.211   5.226  -5.947  0.00  0.00     0.044 H 
ATOM     58  H   LIG d   1       8.715   4.568  -4.369  0.00  0.00     0.044 H 
BRANCH  50  59
ATOM     59  C   LIG d   1      11.013   5.747  -1.867  0.00  0.00     0.030 A 
ATOM     60  C   LIG d   1      10.259   6.899  -1.682  0.00  0.00    -0.041 A 
ATOM     61  C   LIG d   1      10.200   7.492  -0.436  0.00  0.00    -0.060 A 
ATOM     62  H   LIG d   1       9.717   7.329  -2.511  0.00  0.00     0.064 H 
ATOM     63  C   LIG d   1      10.899   6.945   0.625  0.00  0.00    -0.062 A 
ATOM     64  H   LIG d   1       9.611   8.385  -0.290  0.00  0.00     0.062 H 
ATOM     65  C   LIG d   1      11.656   5.802   0.444  0.00  0.00    -0.060 A 
ATOM     66  H   LIG d   1      10.854   7.414   1.597  0.00  0.00     0.062 H 
ATOM     67  C   LIG d   1      11.715   5.201  -0.798  0.00  0.00    -0.041 A 
ATOM     68  H   LIG d   1      12.200   5.378   1.274  0.00  0.00     0.062 H 
ATOM     69  H   LIG d   1      12.304   4.307  -0.939  0.00  0.00     0.064 H 
ENDBRANCH  50  59
ENDBRANCH  42  45
ENDBRANCH  39  42
ENDBRANCH  33  36
ENDBRANCH  19  33
ENDBRANCH  14  17
ENDBRANCH   8  14
ENDBRANCH   4   7
ENDBRANCH   1   4
TORSDOF 10
ENDMDL
MODEL 6
REMARK VINA RESULT:      -6.4      1.818      8.079
REMARK  10 active torsions:
REMARK  status: ('A' for Active; 'I' for Inactive)
REMARK    1  A    between atoms: C_1  and  N_2 
REMARK    2  A    between atoms: N_2  and  C_3 
REMARK       I    between atoms: N_2  and  C_6 
REMARK    3  A    between atoms: C_3  and  C_4 
REMARK    4  A    between atoms: C_6  and  C_8 
REMARK    5  A    between atoms: C_8  and  C_9 
REMARK    6  A    between atoms: C_15  and  C_17 
REMARK    7  A    between atoms: C_17  and  C_18 
REMARK    8  A    between atoms: C_20  and  C_23 
REMARK    9  A    between atoms: C_23  and  N_24 
REMARK   10  A    between atoms: N_27  and  C_30 
ROOT
ATOM      1  C   LIG d   1      10.358   7.251  -1.798  0.00  0.00    -0.086 C 
ATOM      2  C   LIG d   1      10.132   7.043  -0.665  0.00  0.00    -0.118 C 
ATOM      3  H   LIG d   1       9.931   6.856   0.348  0.00  0.00     0.123 H 
ENDROOT
BRANCH   1   4
ATOM      4  C   LIG d   1      10.641   7.512  -3.219  0.00  0.00     0.076 C 
ATOM      5  H   LIG d   1      11.503   8.172  -3.303  0.00  0.00     0.060 H 
ATOM      6  H   LIG d   1       9.774   7.987  -3.681  0.00  0.00     0.060 H 
BRANCH   4   7
ATOM      7  N   LIG d   1      10.926   6.247  -3.902  0.00  0.00    -0.293 N 
ATOM      8  C   LIG d   1      10.014   5.713  -4.738  0.00  0.00     0.216 C 
ATOM      9  O   LIG d   1       8.958   6.278  -4.925  0.00  0.00    -0.276 OA
BRANCH   7  10
ATOM     10  C   LIG d   1      12.202   5.564  -3.676  0.00  0.00     0.004 C 
ATOM     11  H   LIG d   1      12.556   5.781  -2.669  0.00  0.00     0.043 H 
ATOM     12  H   LIG d   1      12.065   4.490  -3.790  0.00  0.00     0.043 H 
ATOM     13  H   LIG d   1      12.935   5.916  -4.402  0.00  0.00     0.043 H 
ENDBRANCH   7  10
BRANCH   8  14
ATOM     14  C   LIG d   1      10.308   4.413  -5.441  0.00  0.00     0.028 C 
ATOM     15  H   LIG d   1      10.426   4.595  -6.509  0.00  0.00     0.036 H 
ATOM     16  H   LIG d   1      11.227   3.983  -5.041  0.00  0.00     0.036 H 
BRANCH  14  17
ATOM     17  C   LIG d   1       9.149   3.438  -5.216  0.00  0.00    -0.020 C 
ATOM     18  H   LIG d   1       8.204   3.944  -5.413  0.00  0.00     0.031 H 
ATOM     19  C   LIG d   1       9.297   2.242  -6.159  0.00  0.00     0.008 C 
ATOM     20  C   LIG d   1      10.589   1.491  -5.823  0.00  0.00    -0.030 C 
ATOM     21  H   LIG d   1       8.445   1.573  -6.035  0.00  0.00     0.036 H 
ATOM     22  N   LIG d   1      10.537   1.019  -4.434  0.00  0.00     0.227 N 
ATOM     23  H   LIG d   1      11.440   2.160  -5.947  0.00  0.00     0.082 H 
ATOM     24  H   LIG d   1      10.697   0.637  -6.492  0.00  0.00     0.082 H 
ATOM     25  C   LIG d   1      10.468   2.166  -3.520  0.00  0.00    -0.033 C 
ATOM     26  H   LIG d   1      11.366   0.479  -4.231  0.00  0.00     0.201 HD
ATOM     27  H   LIG d   1       9.721   0.438  -4.306  0.00  0.00     0.201 HD
ATOM     28  C   LIG d   1       9.172   2.942  -3.768  0.00  0.00    -0.009 C 
ATOM     29  H   LIG d   1      11.322   2.820  -3.694  0.00  0.00     0.081 H 
ATOM     30  H   LIG d   1      10.487   1.811  -2.490  0.00  0.00     0.081 H 
ATOM     31  H   LIG d   1       9.123   3.794  -3.089  0.00  0.00     0.032 H 
ATOM     32  H   LIG d   1       8.317   2.288  -3.593  0.00  0.00     0.032 H 
BRANCH  19  33
ATOM     33  C   LIG d   1       9.353   2.736  -7.606  0.00  0.00     0.001 C 
ATOM     34  H   LIG d   1       9.347   3.826  -7.619  0.00  0.00     0.033 H 
ATOM     35  H   LIG d   1      10.264   2.371  -8.080  0.00  0.00     0.033 H 
BRANCH  33  36
ATOM     36  C   LIG d   1       8.154   2.218  -8.360  0.00  0.00     0.084 A 
ATOM     37  N   LIG d   1       7.323   2.936  -9.062  0.00  0.00    -0.083 NA
ATOM     38  O   LIG d   1       6.348   2.065  -9.606  0.00  0.00    -0.358 OA
ATOM     39  C   LIG d   1       6.630   0.820  -9.192  0.00  0.00     0.151 A 
ATOM     40  C   LIG d   1       7.734   0.877  -8.423  0.00  0.00     0.005 A 
ATOM     41  H   LIG d   1       8.215   0.039  -7.941  0.00  0.00     0.067 H 
BRANCH  39  42
ATOM     42  C   LIG d   1       5.847  -0.424  -9.527  0.00  0.00     0.060 C 
ATOM     43  H   LIG d   1       5.161  -0.211 -10.347  0.00  0.00     0.051 H 
ATOM     44  H   LIG d   1       6.535  -1.216  -9.825  0.00  0.00     0.051 H 
BRANCH  42  45
ATOM     45  N   LIG d   1       5.084  -0.856  -8.349  0.00  0.00    -0.292 N 
ATOM     46  C   LIG d   1       4.457   0.290  -7.679  0.00  0.00     0.015 C 
ATOM     47  C   LIG d   1       3.528  -0.216  -6.570  0.00  0.00     0.025 C 
ATOM     48  H   LIG d   1       5.229   0.925  -7.245  0.00  0.00     0.044 H 
ATOM     49  H   LIG d   1       3.879   0.864  -8.404  0.00  0.00     0.044 H 
ATOM     50  N   LIG d   1       4.295  -1.108  -5.689  0.00  0.00    -0.328 N 
ATOM     51  H   LIG d   1       2.697  -0.765  -7.012  0.00  0.00     0.048 H 
ATOM     52  H   LIG d   1       3.149   0.629  -5.996  0.00  0.00     0.048 H 
ATOM     53  C   LIG d   1       5.064  -2.201  -6.303  0.00  0.00     0.025 C 
ATOM     54  C   LIG d   1       5.932  -1.617  -7.422  0.00  0.00     0.015 C 
ATOM     55  H   LIG d   1       4.380  -2.941  -6.719  0.00  0.00     0.048 H 
ATOM     56  H   LIG d   1       5.701  -2.669  -5.552  0.00  0.00     0.048 H 
ATOM     57  H   LIG d   1       6.425  -2.426  -7.961  0.00  0.00     0.044 H 
ATOM     58  H   LIG d   1       6.685  -0.956  -6.992  0.00  0.00     0.044 H 
BRANCH  50  59
ATOM     59  C   LIG d   1       4.295  -0.922  -4.305  0.00  0.00     0.030 A 
ATOM     60  C   LIG d   1       4.275  -2.021  -3.455  0.00  0.00    -0.041 A 
ATOM     61  C   LIG d   1       4.279  -1.833  -2.086  0.00  0.00    -0.060 A 
ATOM     62  H   LIG d   1       4.259  -3.020  -3.863  0.00  0.00     0.064 H 
ATOM     63  C   LIG d   1       4.293  -0.553  -1.562  0.00  0.00    -0.062 A 
ATOM     64  H   LIG d   1       4.268  -2.686  -1.424  0.00  0.00     0.062 H 
ATOM     65  C   LIG d   1       4.307   0.543  -2.405  0.00  0.00    -0.060 A 
ATOM     66  H   LIG d   1       4.292  -0.410  -0.492  0.00  0.00     0.062 H 
ATOM     67  C   LIG d   1       4.308   0.363  -3.775  0.00  0.00    -0.041 A 
ATOM     68  H   LIG d   1       4.318   1.541  -1.993  0.00  0.00     0.062 H 
ATOM     69  H   LIG d   1       4.320   1.218  -4.433  0.00  0.00     0.064 H 
ENDBRANCH  50  59
ENDBRANCH  42  45
ENDBRANCH  39  42
ENDBRANCH  33  36
ENDBRANCH  19  33
ENDBRANCH  14  17
ENDBRANCH   8  14
ENDBRANCH   4   7
ENDBRANCH   1   4
TORSDOF 10
ENDMDL
MODEL 7
REMARK VINA RESULT:      -6.3      1.753      2.181
REMARK  10 active torsions:
REMARK  status: ('A' for Active; 'I' for Inactive)
REMARK    1  A    between atoms: C_1  and  N_2 
REMARK    2  A    between atoms: N_2  and  C_3 
REMARK       I    between atoms: N_2  and  C_6 
REMARK    3  A    between atoms: C_3  and  C_4 
REMARK    4  A    between atoms: C_6  and  C_8 
REMARK    5  A    between atoms: C_8  and  C_9 
REMARK    6  A    between atoms: C_15  and  C_17 
REMARK    7  A    between atoms: C_17  and  C_18 
REMARK    8  A    between atoms: C_20  and  C_23 
REMARK    9  A    between atoms: C_23  and  N_24 
REMARK   10  A    between atoms: N_27  and  C_30 
ROOT
ATOM      1  C   LIG d   1       3.895   0.509  -2.309  0.00  0.00    -0.086 C 
ATOM      2  C   LIG d   1       4.737   0.981  -1.642  0.00  0.00    -0.118 C 
ATOM      3  H   LIG d   1       5.490   1.404  -1.044  0.00  0.00     0.123 H 
ENDROOT
BRANCH   1   4
ATOM      4  C   LIG d   1       2.839  -0.083  -3.147  0.00  0.00     0.076 C 
ATOM      5  H   LIG d   1       2.152   0.699  -3.473  0.00  0.00     0.060 H 
ATOM      6  H   LIG d   1       2.292  -0.829  -2.569  0.00  0.00     0.060 H 
BRANCH   4   7
ATOM      7  N   LIG d   1       3.444  -0.720  -4.319  0.00  0.00    -0.293 N 
ATOM      8  C   LIG d   1       3.326  -0.148  -5.533  0.00  0.00     0.216 C 
ATOM      9  O   LIG d   1       2.718   0.893  -5.657  0.00  0.00    -0.276 OA
BRANCH   7  10
ATOM     10  C   LIG d   1       4.179  -1.979  -4.170  0.00  0.00     0.004 C 
ATOM     11  H   LIG d   1       3.550  -2.807  -4.496  0.00  0.00     0.043 H 
ATOM     12  H   LIG d   1       5.082  -1.947  -4.779  0.00  0.00     0.043 H 
ATOM     13  H   LIG d   1       4.451  -2.119  -3.124  0.00  0.00     0.043 H 
ENDBRANCH   7  10
BRANCH   8  14
ATOM     14  C   LIG d   1       3.949  -0.804  -6.738  0.00  0.00     0.028 C 
ATOM     15  H   LIG d   1       4.594  -1.622  -6.415  0.00  0.00     0.036 H 
ATOM     16  H   LIG d   1       3.164  -1.195  -7.386  0.00  0.00     0.036 H 
BRANCH  14  17
ATOM     17  C   LIG d   1       4.779   0.226  -7.507  0.00  0.00    -0.020 C 
ATOM     18  H   LIG d   1       4.862   1.139  -6.918  0.00  0.00     0.031 H 
ATOM     19  C   LIG d   1       6.176  -0.339  -7.775  0.00  0.00     0.008 C 
ATOM     20  C   LIG d   1       6.056  -1.578  -8.668  0.00  0.00    -0.030 C 
ATOM     21  H   LIG d   1       6.783   0.414  -8.278  0.00  0.00     0.036 H 
ATOM     22  N   LIG d   1       5.422  -1.208  -9.940  0.00  0.00     0.227 N 
ATOM     23  H   LIG d   1       5.449  -2.330  -8.165  0.00  0.00     0.082 H 
ATOM     24  H   LIG d   1       7.049  -1.983  -8.862  0.00  0.00     0.082 H 
ATOM     25  C   LIG d   1       4.055  -0.733  -9.696  0.00  0.00    -0.033 C 
ATOM     26  H   LIG d   1       5.392  -2.015 -10.547  0.00  0.00     0.201 HD
ATOM     27  H   LIG d   1       5.958  -0.477 -10.383  0.00  0.00     0.201 HD
ATOM     28  C   LIG d   1       4.099   0.538  -8.843  0.00  0.00    -0.009 C 
ATOM     29  H   LIG d   1       3.491  -1.503  -9.171  0.00  0.00     0.081 H 
ATOM     30  H   LIG d   1       3.571  -0.515 -10.647  0.00  0.00     0.081 H 
ATOM     31  H   LIG d   1       3.083   0.889  -8.661  0.00  0.00     0.032 H 
ATOM     32  H   LIG d   1       4.662   1.309  -9.368  0.00  0.00     0.032 H 
BRANCH  19  33
ATOM     33  C   LIG d   1       6.834  -0.725  -6.449  0.00  0.00     0.001 C 
ATOM     34  H   LIG d   1       6.093  -1.184  -5.795  0.00  0.00     0.033 H 
ATOM     35  H   LIG d   1       7.642  -1.433  -6.637  0.00  0.00     0.033 H 
BRANCH  33  36
ATOM     36  C   LIG d   1       7.393   0.508  -5.787  0.00  0.00     0.084 A 
ATOM     37  N   LIG d   1       6.833   1.179  -4.819  0.00  0.00    -0.083 NA
ATOM     38  O   LIG d   1       7.685   2.260  -4.489  0.00  0.00    -0.358 OA
ATOM     39  C   LIG d   1       8.753   2.207  -5.300  0.00  0.00     0.151 A 
ATOM     40  C   LIG d   1       8.606   1.142  -6.112  0.00  0.00     0.005 A 
ATOM     41  H   LIG d   1       9.300   0.828  -6.878  0.00  0.00     0.067 H 
BRANCH  39  42
ATOM     42  C   LIG d   1       9.913   3.169  -5.302  0.00  0.00     0.060 C 
ATOM     43  H   LIG d   1      10.808   2.659  -4.946  0.00  0.00     0.051 H 
ATOM     44  H   LIG d   1      10.081   3.533  -6.315  0.00  0.00     0.051 H 
BRANCH  42  45
ATOM     45  N   LIG d   1       9.611   4.303  -4.419  0.00  0.00    -0.292 N 
ATOM     46  C   LIG d   1       9.748   5.579  -5.133  0.00  0.00     0.015 C 
ATOM     47  C   LIG d   1       9.252   6.719  -4.237  0.00  0.00     0.025 C 
ATOM     48  H   LIG d   1      10.795   5.743  -5.385  0.00  0.00     0.044 H 
ATOM     49  H   LIG d   1       9.154   5.550  -6.046  0.00  0.00     0.044 H 
ATOM     50  N   LIG d   1       9.964   6.646  -2.952  0.00  0.00    -0.328 N 
ATOM     51  H   LIG d   1       8.181   6.612  -4.068  0.00  0.00     0.048 H 
ATOM     52  H   LIG d   1       9.457   7.676  -4.715  0.00  0.00     0.048 H 
ATOM     53  C   LIG d   1       9.987   5.359  -2.241  0.00  0.00     0.025 C 
ATOM     54  C   LIG d   1      10.454   4.273  -3.216  0.00  0.00     0.015 C 
ATOM     55  H   LIG d   1       8.986   5.121  -1.880  0.00  0.00     0.048 H 
ATOM     56  H   LIG d   1      10.678   5.417  -1.400  0.00  0.00     0.048 H 
ATOM     57  H   LIG d   1      10.372   3.296  -2.739  0.00  0.00     0.044 H 
ATOM     58  H   LIG d   1      11.492   4.455  -3.495  0.00  0.00     0.044 H 
BRANCH  50  59
ATOM     59  C   LIG d   1      10.600   7.770  -2.421  0.00  0.00     0.030 A 
ATOM     60  C   LIG d   1      10.005   9.021  -2.525  0.00  0.00    -0.041 A 
ATOM     61  C   LIG d   1      10.635  10.130  -1.995  0.00  0.00    -0.060 A 
ATOM     62  H   LIG d   1       9.050   9.126  -3.018  0.00  0.00     0.064 H 
ATOM     63  C   LIG d   1      11.862   9.997  -1.369  0.00  0.00    -0.062 A 
ATOM     64  H   LIG d   1      10.172  11.102  -2.072  0.00  0.00     0.062 H 
ATOM     65  C   LIG d   1      12.460   8.754  -1.269  0.00  0.00    -0.060 A 
ATOM     66  H   LIG d   1      12.354  10.867  -0.959  0.00  0.00     0.062 H 
ATOM     67  C   LIG d   1      11.833   7.640  -1.792  0.00  0.00    -0.041 A 
ATOM     68  H   LIG d   1      13.417   8.654  -0.779  0.00  0.00     0.062 H 
ATOM     69  H   LIG d   1      12.299   6.670  -1.712  0.00  0.00     0.064 H 
ENDBRANCH  50  59
ENDBRANCH  42  45
ENDBRANCH  39  42
ENDBRANCH  33  36
ENDBRANCH  19  33
ENDBRANCH  14  17
ENDBRANCH   8  14
ENDBRANCH   4   7
ENDBRANCH   1   4
TORSDOF 10
ENDMDL
MODEL 8
REMARK VINA RESULT:      -6.2      7.060     11.371
REMARK  10 active torsions:
REMARK  status: ('A' for Active; 'I' for Inactive)
REMARK    1  A    between atoms: C_1  and  N_2 
REMARK    2  A    between atoms: N_2  and  C_3 
REMARK       I    between atoms: N_2  and  C_6 
REMARK    3  A    between atoms: C_3  and  C_4 
REMARK    4  A    between atoms: C_6  and  C_8 
REMARK    5  A    between atoms: C_8  and  C_9 
REMARK    6  A    between atoms: C_15  and  C_17 
REMARK    7  A    between atoms: C_17  and  C_18 
REMARK    8  A    between atoms: C_20  and  C_23 
REMARK    9  A    between atoms: C_23  and  N_24 
REMARK   10  A    between atoms: N_27  and  C_30 
ROOT
ATOM      1  C   LIG d   1       2.151  -0.155  -9.294  0.00  0.00    -0.086 C 
ATOM      2  C   LIG d   1       1.583  -0.876 -10.024  0.00  0.00    -0.118 C 
ATOM      3  H   LIG d   1       1.075  -1.523 -10.677  0.00  0.00     0.123 H 
ENDROOT
BRANCH   1   4
ATOM      4  C   LIG d   1       2.863   0.751  -8.377  0.00  0.00     0.076 C 
ATOM      5  H   LIG d   1       2.192   1.058  -7.575  0.00  0.00     0.060 H 
ATOM      6  H   LIG d   1       3.199   1.632  -8.925  0.00  0.00     0.060 H 
BRANCH   4   7
ATOM      7  N   LIG d   1       4.021   0.059  -7.808  0.00  0.00    -0.293 N 
ATOM      8  C   LIG d   1       4.138  -0.071  -6.471  0.00  0.00     0.216 C 
ATOM      9  O   LIG d   1       3.285   0.385  -5.741  0.00  0.00    -0.276 OA
BRANCH   7  10
ATOM     10  C   LIG d   1       5.052  -0.492  -8.690  0.00  0.00     0.004 C 
ATOM     11  H   LIG d   1       4.661  -0.563  -9.705  0.00  0.00     0.043 H 
ATOM     12  H   LIG d   1       5.925   0.159  -8.682  0.00  0.00     0.043 H 
ATOM     13  H   LIG d   1       5.337  -1.485  -8.340  0.00  0.00     0.043 H 
ENDBRANCH   7  10
BRANCH   8  14
ATOM     14  C   LIG d   1       5.329  -0.783  -5.885  0.00  0.00     0.028 C 
ATOM     15  H   LIG d   1       5.756  -1.454  -6.632  0.00  0.00     0.036 H 
ATOM     16  H   LIG d   1       6.079  -0.051  -5.585  0.00  0.00     0.036 H 
BRANCH  14  17
ATOM     17  C   LIG d   1       4.889  -1.594  -4.664  0.00  0.00    -0.020 C 
ATOM     18  H   LIG d   1       3.813  -1.760  -4.706  0.00  0.00     0.031 H 
ATOM     19  C   LIG d   1       5.615  -2.942  -4.656  0.00  0.00     0.008 C 
ATOM     20  C   LIG d   1       7.122  -2.702  -4.518  0.00  0.00    -0.030 C 
ATOM     21  H   LIG d   1       5.263  -3.539  -3.815  0.00  0.00     0.036 H 
ATOM     22  N   LIG d   1       7.394  -1.988  -3.264  0.00  0.00     0.227 N 
ATOM     23  H   LIG d   1       7.472  -2.105  -5.359  0.00  0.00     0.082 H 
ATOM     24  H   LIG d   1       7.642  -3.659  -4.510  0.00  0.00     0.082 H 
ATOM     25  C   LIG d   1       6.759  -0.664  -3.296  0.00  0.00    -0.033 C 
ATOM     26  H   LIG d   1       8.391  -1.878  -3.150  0.00  0.00     0.201 HD
ATOM     27  H   LIG d   1       7.026  -2.518  -2.489  0.00  0.00     0.201 HD
ATOM     28  C   LIG d   1       5.240  -0.827  -3.387  0.00  0.00    -0.009 C 
ATOM     29  H   LIG d   1       7.118  -0.111  -4.164  0.00  0.00     0.081 H 
ATOM     30  H   LIG d   1       7.013  -0.118  -2.388  0.00  0.00     0.081 H 
ATOM     31  H   LIG d   1       4.770   0.157  -3.412  0.00  0.00     0.032 H 
ATOM     32  H   LIG d   1       4.881  -1.380  -2.519  0.00  0.00     0.032 H 
BRANCH  19  33
ATOM     33  C   LIG d   1       5.332  -3.683  -5.964  0.00  0.00     0.001 C 
ATOM     34  H   LIG d   1       4.396  -3.322  -6.391  0.00  0.00     0.033 H 
ATOM     35  H   LIG d   1       6.145  -3.504  -6.667  0.00  0.00     0.033 H 
BRANCH  33  36
ATOM     36  C   LIG d   1       5.222  -5.161  -5.690  0.00  0.00     0.084 A 
ATOM     37  N   LIG d   1       4.120  -5.819  -5.465  0.00  0.00    -0.083 NA
ATOM     38  O   LIG d   1       4.458  -7.178  -5.259  0.00  0.00    -0.358 OA
ATOM     39  C   LIG d   1       5.791  -7.292  -5.362  0.00  0.00     0.151 A 
ATOM     40  C   LIG d   1       6.294  -6.071  -5.626  0.00  0.00     0.005 A 
ATOM     41  H   LIG d   1       7.338  -5.831  -5.765  0.00  0.00     0.067 H 
BRANCH  39  42
ATOM     42  C   LIG d   1       6.586  -8.563  -5.208  0.00  0.00     0.060 C 
ATOM     43  H   LIG d   1       5.984  -9.410  -5.537  0.00  0.00     0.051 H 
ATOM     44  H   LIG d   1       7.489  -8.502  -5.816  0.00  0.00     0.051 H 
BRANCH  42  45
ATOM     45  N   LIG d   1       6.956  -8.743  -3.798  0.00  0.00    -0.292 N 
ATOM     46  C   LIG d   1       8.398  -8.549  -3.603  0.00  0.00     0.015 C 
ATOM     47  C   LIG d   1       8.715  -8.564  -2.104  0.00  0.00     0.025 C 
ATOM     48  H   LIG d   1       8.944  -9.352  -4.098  0.00  0.00     0.044 H 
ATOM     49  H   LIG d   1       8.697  -7.590  -4.028  0.00  0.00     0.044 H 
ATOM     50  N   LIG d   1       8.170  -9.801  -1.524  0.00  0.00    -0.328 N 
ATOM     51  H   LIG d   1       8.253  -7.701  -1.624  0.00  0.00     0.048 H 
ATOM     52  H   LIG d   1       9.794  -8.535  -1.957  0.00  0.00     0.048 H 
ATOM     53  C   LIG d   1       6.763 -10.135  -1.792  0.00  0.00     0.025 C 
ATOM     54  C   LIG d   1       6.524 -10.057  -3.304  0.00  0.00     0.015 C 
ATOM     55  H   LIG d   1       6.114  -9.423  -1.282  0.00  0.00     0.048 H 
ATOM     56  H   LIG d   1       6.552 -11.144  -1.440  0.00  0.00     0.048 H 
ATOM     57  H   LIG d   1       5.462 -10.193  -3.512  0.00  0.00     0.044 H 
ATOM     58  H   LIG d   1       7.095 -10.840  -3.804  0.00  0.00     0.044 H 
BRANCH  50  59
ATOM     59  C   LIG d   1       8.968 -10.637  -0.740  0.00  0.00     0.030 A 
ATOM     60  C   LIG d   1       9.907 -10.090   0.126  0.00  0.00    -0.041 A 
ATOM     61  C   LIG d   1      10.692 -10.919   0.903  0.00  0.00    -0.060 A 
ATOM     62  H   LIG d   1      10.022  -9.019   0.193  0.00  0.00     0.064 H 
ATOM     63  C   LIG d   1      10.550 -12.292   0.814  0.00  0.00    -0.062 A 
ATOM     64  H   LIG d   1      11.419 -10.496   1.580  0.00  0.00     0.062 H 
ATOM     65  C   LIG d   1       9.620 -12.840  -0.051  0.00  0.00    -0.060 A 
ATOM     66  H   LIG d   1      11.168 -12.938   1.420  0.00  0.00     0.062 H 
ATOM     67  C   LIG d   1       8.828 -12.016  -0.828  0.00  0.00    -0.041 A 
ATOM     68  H   LIG d   1       9.512 -13.912  -0.119  0.00  0.00     0.062 H 
ATOM     69  H   LIG d   1       8.102 -12.444  -1.502  0.00  0.00     0.064 H 
ENDBRANCH  50  59
ENDBRANCH  42  45
ENDBRANCH  39  42
ENDBRANCH  33  36
ENDBRANCH  19  33
ENDBRANCH  14  17
ENDBRANCH   8  14
ENDBRANCH   4   7
ENDBRANCH   1   4
TORSDOF 10
ENDMDL
MODEL 9
REMARK VINA RESULT:      -6.2      7.250     10.212
REMARK  10 active torsions:
REMARK  status: ('A' for Active; 'I' for Inactive)
REMARK    1  A    between atoms: C_1  and  N_2 
REMARK    2  A    between atoms: N_2  and  C_3 
REMARK       I    between atoms: N_2  and  C_6 
REMARK    3  A    between atoms: C_3  and  C_4 
REMARK    4  A    between atoms: C_6  and  C_8 
REMARK    5  A    between atoms: C_8  and  C_9 
REMARK    6  A    between atoms: C_15  and  C_17 
REMARK    7  A    between atoms: C_17  and  C_18 
REMARK    8  A    between atoms: C_20  and  C_23 
REMARK    9  A    between atoms: C_23  and  N_24 
REMARK   10  A    between atoms: N_27  and  C_30 
ROOT
ATOM      1  C   LIG d   1       4.500 -10.516  -3.262  0.00  0.00    -0.086 C 
ATOM      2  C   LIG d   1       3.412 -10.100  -3.117  0.00  0.00    -0.118 C 
ATOM      3  H   LIG d   1       2.439  -9.728  -2.988  0.00  0.00     0.123 H 
ENDROOT
BRANCH   1   4
ATOM      4  C   LIG d   1       5.864 -11.037  -3.444  0.00  0.00     0.076 C 
ATOM      5  H   LIG d   1       6.190 -10.855  -4.468  0.00  0.00     0.060 H 
ATOM      6  H   LIG d   1       5.873 -12.110  -3.246  0.00  0.00     0.060 H 
BRANCH   4   7
ATOM      7  N   LIG d   1       6.774 -10.363  -2.515  0.00  0.00    -0.293 N 
ATOM      8  C   LIG d   1       7.514  -9.318  -2.936  0.00  0.00     0.216 C 
ATOM      9  O   LIG d   1       7.427  -8.936  -4.083  0.00  0.00    -0.276 OA
BRANCH   7  10
ATOM     10  C   LIG d   1       6.879 -10.823  -1.128  0.00  0.00     0.004 C 
ATOM     11  H   LIG d   1       7.017 -11.903  -1.113  0.00  0.00     0.043 H 
ATOM     12  H   LIG d   1       7.729 -10.341  -0.648  0.00  0.00     0.043 H 
ATOM     13  H   LIG d   1       5.965 -10.566  -0.591  0.00  0.00     0.043 H 
ENDBRANCH   7  10
BRANCH   8  14
ATOM     14  C   LIG d   1       8.449  -8.623  -1.980  0.00  0.00     0.028 C 
ATOM     15  H   LIG d   1       7.978  -7.713  -1.607  0.00  0.00     0.036 H 
ATOM     16  H   LIG d   1       8.671  -9.286  -1.143  0.00  0.00     0.036 H 
BRANCH  14  17
ATOM     17  C   LIG d   1       9.747  -8.265  -2.706  0.00  0.00    -0.020 C 
ATOM     18  H   LIG d   1       9.513  -7.819  -3.673  0.00  0.00     0.031 H 
ATOM     19  C   LIG d   1      10.547  -7.268  -1.863  0.00  0.00     0.008 C 
ATOM     20  C   LIG d   1      10.939  -7.930  -0.539  0.00  0.00    -0.030 C 
ATOM     21  H   LIG d   1      11.447  -6.975  -2.404  0.00  0.00     0.036 H 
ATOM     22  N   LIG d   1      11.759  -9.118  -0.805  0.00  0.00     0.227 N 
ATOM     23  H   LIG d   1      10.039  -8.223   0.001  0.00  0.00     0.082 H 
ATOM     24  H   LIG d   1      11.510  -7.224   0.065  0.00  0.00     0.082 H 
ATOM     25  C   LIG d   1      10.973 -10.109  -1.552  0.00  0.00    -0.033 C 
ATOM     26  H   LIG d   1      12.061  -9.522   0.070  0.00  0.00     0.201 HD
ATOM     27  H   LIG d   1      12.568  -8.854  -1.347  0.00  0.00     0.201 HD
ATOM     28  C   LIG d   1      10.583  -9.530  -2.915  0.00  0.00    -0.009 C 
ATOM     29  H   LIG d   1      10.073 -10.355  -0.991  0.00  0.00     0.081 H 
ATOM     30  H   LIG d   1      11.568 -11.010  -1.697  0.00  0.00     0.081 H 
ATOM     31  H   LIG d   1       9.998 -10.267  -3.468  0.00  0.00     0.032 H 
ATOM     32  H   LIG d   1      11.484  -9.284  -3.477  0.00  0.00     0.032 H 
BRANCH  19  33
ATOM     33  C   LIG d   1       9.690  -6.032  -1.585  0.00  0.00     0.001 C 
ATOM     34  H   LIG d   1       8.656  -6.335  -1.421  0.00  0.00     0.033 H 
ATOM     35  H   LIG d   1      10.065  -5.523  -0.697  0.00  0.00     0.033 H 
BRANCH  33  36
ATOM     36  C   LIG d   1       9.759  -5.097  -2.765  0.00  0.00     0.084 A 
ATOM     37  N   LIG d   1      10.518  -4.041  -2.863  0.00  0.00    -0.083 NA
ATOM     38  O   LIG d   1      10.280  -3.450  -4.127  0.00  0.00    -0.358 OA
ATOM     39  C   LIG d   1       9.354  -4.187  -4.760  0.00  0.00     0.151 A 
ATOM     40  C   LIG d   1       9.010  -5.207  -3.951  0.00  0.00     0.005 A 
ATOM     41  H   LIG d   1       8.287  -5.978  -4.174  0.00  0.00     0.067 H 
BRANCH  39  42
ATOM     42  C   LIG d   1       8.795  -3.919  -6.134  0.00  0.00     0.060 C 
ATOM     43  H   LIG d   1       9.538  -3.390  -6.731  0.00  0.00     0.051 H 
ATOM     44  H   LIG d   1       8.548  -4.864  -6.616  0.00  0.00     0.051 H 
BRANCH  42  45
ATOM     45  N   LIG d   1       7.584  -3.097  -6.019  0.00  0.00    -0.292 N 
ATOM     46  C   LIG d   1       7.924  -1.681  -5.830  0.00  0.00     0.015 C 
ATOM     47  C   LIG d   1       6.646  -0.838  -5.896  0.00  0.00     0.025 C 
ATOM     48  H   LIG d   1       8.398  -1.547  -4.857  0.00  0.00     0.044 H 
ATOM     49  H   LIG d   1       8.610  -1.363  -6.616  0.00  0.00     0.044 H 
ATOM     50  N   LIG d   1       5.678  -1.380  -4.930  0.00  0.00    -0.328 N 
ATOM     51  H   LIG d   1       6.226  -0.888  -6.901  0.00  0.00     0.048 H 
ATOM     52  H   LIG d   1       6.876   0.197  -5.644  0.00  0.00     0.048 H 
ATOM     53  C   LIG d   1       5.389  -2.820  -4.968  0.00  0.00     0.025 C 
ATOM     54  C   LIG d   1       6.717  -3.585  -4.938  0.00  0.00     0.015 C 
ATOM     55  H   LIG d   1       4.848  -3.062  -5.883  0.00  0.00     0.048 H 
ATOM     56  H   LIG d   1       4.788  -3.097  -4.102  0.00  0.00     0.048 H 
ATOM     57  H   LIG d   1       6.527  -4.650  -5.077  0.00  0.00     0.044 H 
ATOM     58  H   LIG d   1       7.207  -3.426  -3.978  0.00  0.00     0.044 H 
BRANCH  50  59
ATOM     59  C   LIG d   1       5.052  -0.547  -4.000  0.00  0.00     0.030 A 
ATOM     60  C   LIG d   1       3.692  -0.682  -3.750  0.00  0.00    -0.041 A 
ATOM     61  C   LIG d   1       3.076   0.140  -2.827  0.00  0.00    -0.060 A 
ATOM     62  H   LIG d   1       3.117  -1.431  -4.275  0.00  0.00     0.064 H 
ATOM     63  C   LIG d   1       3.810   1.103  -2.158  0.00  0.00    -0.062 A 
ATOM     64  H   LIG d   1       2.020   0.033  -2.628  0.00  0.00     0.062 H 
ATOM     65  C   LIG d   1       5.162   1.245  -2.409  0.00  0.00    -0.060 A 
ATOM     66  H   LIG d   1       3.325   1.747  -1.440  0.00  0.00     0.062 H 
ATOM     67  C   LIG d   1       5.786   0.422  -3.327  0.00  0.00    -0.041 A 
ATOM     68  H   LIG d   1       5.732   1.997  -1.885  0.00  0.00     0.062 H 
ATOM     69  H   LIG d   1       6.842   0.532  -3.522  0.00  0.00     0.064 H 
ENDBRANCH  50  59
ENDBRANCH  42  45
ENDBRANCH  39  42
ENDBRANCH  33  36
ENDBRANCH  19  33
ENDBRANCH  14  17
ENDBRANCH   8  14
ENDBRANCH   4   7
ENDBRANCH   1   4
TORSDOF 10
ENDMDL
