MODEL 1
REMARK VINA RESULT:      -8.2      0.000      0.000
REMARK  7 active torsions:
REMARK  status: ('A' for Active; 'I' for Inactive)
REMARK    1  A    between atoms: C_1  and  N_2 
REMARK    2  A    between atoms: C_11  and  C_14 
REMARK    3  A    between atoms: C_14  and  C_16 
REMARK    4  A    between atoms: C_16  and  C_17 
REMARK    5  A    between atoms: C_17  and  C_19 
REMARK    6  A    between atoms: C_17  and  N_26 
REMARK    7  A    between atoms: N_26  and  C_27 
ROOT
ATOM      1  C   LIG d   1       8.764   1.334  -5.922  0.00  0.00     0.053 C 
ATOM      2  H   LIG d   1       7.734   1.278  -6.306  0.00  0.00     0.055 H 
ENDROOT
BRANCH   1   3
ATOM      3  C   LIG d   1       9.752   0.703  -6.906  0.00  0.00     0.033 C 
ATOM      4  H   LIG d   1      10.270  -0.135  -6.417  0.00  0.00     0.037 H 
ATOM      5  H   LIG d   1      10.489   1.457  -7.220  0.00  0.00     0.037 H 
BRANCH   3   6
ATOM      6  C   LIG d   1       9.004   0.197  -8.113  0.00  0.00     0.170 C 
ATOM      7  O   LIG d   1       9.613  -0.278  -9.049  0.00  0.00    -0.292 OA
BRANCH   6   8
ATOM      8  C   LIG d   1       7.592   0.274  -8.153  0.00  0.00     0.073 A 
ATOM      9  C   LIG d   1       6.923   1.449  -8.727  0.00  0.00     0.199 A 
ATOM     10  C   LIG d   1       5.446   1.452  -8.733  0.00  0.00     0.046 A 
ATOM     11  O   LIG d   1       7.559   2.383  -9.181  0.00  0.00    -0.286 OA
ATOM     12  C   LIG d   1       4.765   0.351  -8.190  0.00  0.00     0.052 A 
ATOM     13  C   LIG d   1       4.733   2.528  -9.259  0.00  0.00    -0.049 A 
ATOM     14  N   LIG d   1       5.465  -0.721  -7.674  0.00  0.00    -0.356 N 
ATOM     15  C   LIG d   1       3.373   0.344  -8.196  0.00  0.00    -0.037 A 
ATOM     16  C   LIG d   1       6.808  -0.767  -7.646  0.00  0.00    -0.022 A 
ATOM     17  O   LIG d   1       7.415  -1.847  -7.120  0.00  0.00    -0.861 OA
ATOM     18  C   LIG d   1       2.680   1.414  -8.720  0.00  0.00    -0.060 A 
ATOM     19  H   LIG d   1       2.835  -0.498  -7.786  0.00  0.00     0.064 H 
ATOM     20  C   LIG d   1       3.356   2.503  -9.250  0.00  0.00    -0.061 A 
ATOM     21  H   LIG d   1       1.600   1.405  -8.718  0.00  0.00     0.062 H 
ATOM     22  H   LIG d   1       2.800   3.335  -9.656  0.00  0.00     0.062 H 
ATOM     23  H   LIG d   1       5.258   3.377  -9.672  0.00  0.00     0.062 H 
BRANCH  14  24
ATOM     24  C   LIG d   1       4.713  -1.852  -7.124  0.00  0.00     0.011 C 
ATOM     25  H   LIG d   1       4.683  -1.774  -6.028  0.00  0.00     0.045 H 
ATOM     26  H   LIG d   1       5.203  -2.793  -7.413  0.00  0.00     0.045 H 
ATOM     27  H   LIG d   1       3.686  -1.835  -7.521  0.00  0.00     0.045 H 
ENDBRANCH  14  24
ENDBRANCH   6   8
ENDBRANCH   3   6
ENDBRANCH   1   3
BRANCH   1  28
ATOM     28  C   LIG d   1       9.143   2.773  -5.683  0.00  0.00    -0.027 A 
ATOM     29  C   LIG d   1       9.069   3.304  -4.409  0.00  0.00    -0.055 A 
ATOM     30  C   LIG d   1       9.416   4.624  -4.190  0.00  0.00    -0.043 A 
ATOM     31  H   LIG d   1       8.741   2.689  -3.585  0.00  0.00     0.062 H 
ATOM     32  C   LIG d   1       9.837   5.414  -5.245  0.00  0.00     0.041 A 
ATOM     33  H   LIG d   1       9.359   5.040  -3.194  0.00  0.00     0.063 H 
ATOM     34  C   LIG d   1       9.910   4.882  -6.520  0.00  0.00    -0.043 A 
ATOM     35 CL   LIG d   1      10.273   7.072  -4.971  0.00  0.00    -0.084 Cl
ATOM     36  C   LIG d   1       9.568   3.559  -6.737  0.00  0.00    -0.055 A 
ATOM     37  H   LIG d   1      10.238   5.496  -7.344  0.00  0.00     0.063 H 
ATOM     38  H   LIG d   1       9.629   3.142  -7.731  0.00  0.00     0.062 H 
ENDBRANCH   1  28
BRANCH   1  39
ATOM     39  N   LIG d   1       8.803   0.602  -4.654  0.00  0.00    -0.337 N 
ATOM     40  H   LIG d   1       9.734   0.564  -4.068  0.00  0.00     0.147 HD
BRANCH  39  41
ATOM     41  C   LIG d   1       7.658  -0.045  -4.186  0.00  0.00     0.028 A 
ATOM     42  C   LIG d   1       6.526   0.688  -3.907  0.00  0.00    -0.033 A 
ATOM     43  C   LIG d   1       5.375   0.032  -3.440  0.00  0.00    -0.016 A 
ATOM     44  H   LIG d   1       6.523   1.759  -4.049  0.00  0.00     0.064 H 
ATOM     45  C   LIG d   1       5.400  -1.372  -3.255  0.00  0.00    -0.018 A 
ATOM     46  C   LIG d   1       4.199   0.746  -3.148  0.00  0.00    -0.054 A 
ATOM     47  C   LIG d   1       6.574  -2.089  -3.545  0.00  0.00    -0.052 A 
ATOM     48  C   LIG d   1       4.249  -2.025  -2.783  0.00  0.00    -0.054 A 
ATOM     49  C   LIG d   1       7.673  -1.433  -4.001  0.00  0.00    -0.040 A 
ATOM     50  H   LIG d   1       6.602  -3.160  -3.407  0.00  0.00     0.062 H 
ATOM     51  H   LIG d   1       8.573  -1.989  -4.221  0.00  0.00     0.064 H 
ATOM     52  C   LIG d   1       3.128  -1.302  -2.510  0.00  0.00    -0.061 A 
ATOM     53  H   LIG d   1       4.253  -3.095  -2.636  0.00  0.00     0.062 H 
ATOM     54  C   LIG d   1       3.103   0.080  -2.693  0.00  0.00    -0.061 A 
ATOM     55  H   LIG d   1       2.244  -1.806  -2.148  0.00  0.00     0.062 H 
ATOM     56  H   LIG d   1       2.202   0.630  -2.468  0.00  0.00     0.062 H 
ATOM     57  H   LIG d   1       4.166   1.817  -3.284  0.00  0.00     0.062 H 
ENDBRANCH  39  41
ENDBRANCH   1  39
TORSDOF 7
ENDMDL
MODEL 2
REMARK VINA RESULT:      -7.9      3.728      6.376
REMARK  7 active torsions:
REMARK  status: ('A' for Active; 'I' for Inactive)
REMARK    1  A    between atoms: C_1  and  N_2 
REMARK    2  A    between atoms: C_11  and  C_14 
REMARK    3  A    between atoms: C_14  and  C_16 
REMARK    4  A    between atoms: C_16  and  C_17 
REMARK    5  A    between atoms: C_17  and  C_19 
REMARK    6  A    between atoms: C_17  and  N_26 
REMARK    7  A    between atoms: N_26  and  C_27 
ROOT
ATOM      1  C   LIG d   1       4.113   0.516  -8.742  0.00  0.00     0.053 C 
ATOM      2  H   LIG d   1       4.724  -0.266  -8.266  0.00  0.00     0.055 H 
ENDROOT
BRANCH   1   3
ATOM      3  C   LIG d   1       4.996   1.612  -9.343  0.00  0.00     0.033 C 
ATOM      4  H   LIG d   1       4.783   2.569  -8.843  0.00  0.00     0.037 H 
ATOM      5  H   LIG d   1       4.786   1.705 -10.418  0.00  0.00     0.037 H 
BRANCH   3   6
ATOM      6  C   LIG d   1       6.447   1.254  -9.143  0.00  0.00     0.170 C 
ATOM      7  O   LIG d   1       7.315   1.924  -9.664  0.00  0.00    -0.292 OA
BRANCH   6   8
ATOM      8  C   LIG d   1       6.796   0.138  -8.348  0.00  0.00     0.073 A 
ATOM      9  C   LIG d   1       7.070   0.297  -6.913  0.00  0.00     0.199 A 
ATOM     10  C   LIG d   1       7.426  -0.917  -6.152  0.00  0.00     0.046 A 
ATOM     11  O   LIG d   1       7.005   1.387  -6.372  0.00  0.00    -0.286 OA
ATOM     12  C   LIG d   1       7.492  -2.146  -6.829  0.00  0.00     0.052 A 
ATOM     13  C   LIG d   1       7.700  -0.853  -4.787  0.00  0.00    -0.049 A 
ATOM     14  N   LIG d   1       7.214  -2.216  -8.179  0.00  0.00    -0.356 N 
ATOM     15  C   LIG d   1       7.822  -3.295  -6.117  0.00  0.00    -0.037 A 
ATOM     16  C   LIG d   1       6.887  -1.139  -8.913  0.00  0.00    -0.022 A 
ATOM     17  O   LIG d   1       6.637  -1.292 -10.226  0.00  0.00    -0.861 OA
ATOM     18  C   LIG d   1       8.091  -3.218  -4.768  0.00  0.00    -0.060 A 
ATOM     19  H   LIG d   1       7.872  -4.248  -6.624  0.00  0.00     0.064 H 
ATOM     20  C   LIG d   1       8.031  -2.002  -4.103  0.00  0.00    -0.061 A 
ATOM     21  H   LIG d   1       8.350  -4.114  -4.222  0.00  0.00     0.062 H 
ATOM     22  H   LIG d   1       8.245  -1.957  -3.045  0.00  0.00     0.062 H 
ATOM     23  H   LIG d   1       7.655   0.093  -4.267  0.00  0.00     0.062 H 
BRANCH  14  24
ATOM     24  C   LIG d   1       7.288  -3.521  -8.843  0.00  0.00     0.011 C 
ATOM     25  H   LIG d   1       7.536  -4.295  -8.103  0.00  0.00     0.045 H 
ATOM     26  H   LIG d   1       8.066  -3.493  -9.621  0.00  0.00     0.045 H 
ATOM     27  H   LIG d   1       6.316  -3.752  -9.304  0.00  0.00     0.045 H 
ENDBRANCH  14  24
ENDBRANCH   6   8
ENDBRANCH   3   6
ENDBRANCH   1   3
BRANCH   1  28
ATOM     28  C   LIG d   1       3.260  -0.091  -9.825  0.00  0.00    -0.027 A 
ATOM     29  C   LIG d   1       3.704  -0.094 -11.134  0.00  0.00    -0.055 A 
ATOM     30  C   LIG d   1       2.921  -0.651 -12.128  0.00  0.00    -0.043 A 
ATOM     31  H   LIG d   1       4.663   0.338 -11.381  0.00  0.00     0.062 H 
ATOM     32  C   LIG d   1       1.694  -1.205 -11.813  0.00  0.00     0.041 A 
ATOM     33  H   LIG d   1       3.268  -0.653 -13.151  0.00  0.00     0.063 H 
ATOM     34  C   LIG d   1       1.249  -1.202 -10.503  0.00  0.00    -0.043 A 
ATOM     35 CL   LIG d   1       0.710  -1.904 -13.061  0.00  0.00    -0.084 Cl
ATOM     36  C   LIG d   1       2.036  -0.650  -9.509  0.00  0.00    -0.055 A 
ATOM     37  H   LIG d   1       0.292  -1.634 -10.256  0.00  0.00     0.063 H 
ATOM     38  H   LIG d   1       1.692  -0.651  -8.485  0.00  0.00     0.062 H 
ENDBRANCH   1  28
BRANCH   1  39
ATOM     39  N   LIG d   1       3.253   1.094  -7.707  0.00  0.00    -0.337 N 
ATOM     40  H   LIG d   1       2.594   1.942  -7.950  0.00  0.00     0.147 HD
BRANCH  39  41
ATOM     41  C   LIG d   1       3.265   0.568  -6.415  0.00  0.00     0.028 A 
ATOM     42  C   LIG d   1       3.850  -0.658  -6.183  0.00  0.00    -0.033 A 
ATOM     43  C   LIG d   1       3.863  -1.182  -4.879  0.00  0.00    -0.016 A 
ATOM     44  H   LIG d   1       4.298  -1.209  -6.996  0.00  0.00     0.064 H 
ATOM     45  C   LIG d   1       3.266  -0.446  -3.827  0.00  0.00    -0.018 A 
ATOM     46  C   LIG d   1       4.455  -2.427  -4.602  0.00  0.00    -0.054 A 
ATOM     47  C   LIG d   1       2.672   0.799  -4.099  0.00  0.00    -0.052 A 
ATOM     48  C   LIG d   1       3.276  -0.975  -2.525  0.00  0.00    -0.054 A 
ATOM     49  C   LIG d   1       2.677   1.288  -5.368  0.00  0.00    -0.040 A 
ATOM     50  H   LIG d   1       2.214   1.367  -3.303  0.00  0.00     0.062 H 
ATOM     51  H   LIG d   1       2.219   2.245  -5.571  0.00  0.00     0.064 H 
ATOM     52  C   LIG d   1       3.857  -2.184  -2.293  0.00  0.00    -0.061 A 
ATOM     53  H   LIG d   1       2.823  -0.427  -1.712  0.00  0.00     0.062 H 
ATOM     54  C   LIG d   1       4.446  -2.907  -3.329  0.00  0.00    -0.061 A 
ATOM     55  H   LIG d   1       3.864  -2.588  -1.292  0.00  0.00     0.062 H 
ATOM     56  H   LIG d   1       4.900  -3.864  -3.119  0.00  0.00     0.062 H 
ATOM     57  H   LIG d   1       4.913  -2.999  -5.396  0.00  0.00     0.062 H 
ENDBRANCH  39  41
ENDBRANCH   1  39
TORSDOF 7
ENDMDL
MODEL 3
REMARK VINA RESULT:      -7.9      1.390      2.864
REMARK  7 active torsions:
REMARK  status: ('A' for Active; 'I' for Inactive)
REMARK    1  A    between atoms: C_1  and  N_2 
REMARK    2  A    between atoms: C_11  and  C_14 
REMARK    3  A    between atoms: C_14  and  C_16 
REMARK    4  A    between atoms: C_16  and  C_17 
REMARK    5  A    between atoms: C_17  and  C_19 
REMARK    6  A    between atoms: C_17  and  N_26 
REMARK    7  A    between atoms: N_26  and  C_27 
ROOT
ATOM      1  C   LIG d   1       8.767   1.616  -5.289  0.00  0.00     0.053 C 
ATOM      2  H   LIG d   1       7.729   1.694  -5.646  0.00  0.00     0.055 H 
ENDROOT
BRANCH   1   3
ATOM      3  C   LIG d   1       9.693   1.113  -6.398  0.00  0.00     0.033 C 
ATOM      4  H   LIG d   1      10.332   0.308  -6.006  0.00  0.00     0.037 H 
ATOM      5  H   LIG d   1      10.324   1.941  -6.753  0.00  0.00     0.037 H 
BRANCH   3   6
ATOM      6  C   LIG d   1       8.866   0.585  -7.542  0.00  0.00     0.170 C 
ATOM      7  O   LIG d   1       9.112   0.930  -8.679  0.00  0.00    -0.292 OA
BRANCH   6   8
ATOM      8  C   LIG d   1       7.804  -0.314  -7.290  0.00  0.00     0.073 A 
ATOM      9  C   LIG d   1       8.075  -1.726  -6.983  0.00  0.00     0.199 A 
ATOM     10  C   LIG d   1       6.911  -2.600  -6.730  0.00  0.00     0.046 A 
ATOM     11  O   LIG d   1       9.213  -2.158  -6.939  0.00  0.00    -0.286 OA
ATOM     12  C   LIG d   1       5.622  -2.048  -6.800  0.00  0.00     0.052 A 
ATOM     13  C   LIG d   1       7.081  -3.951  -6.432  0.00  0.00    -0.049 A 
ATOM     14  N   LIG d   1       5.449  -0.709  -7.088  0.00  0.00    -0.356 N 
ATOM     15  C   LIG d   1       4.521  -2.864  -6.558  0.00  0.00    -0.037 A 
ATOM     16  C   LIG d   1       6.476   0.123  -7.326  0.00  0.00    -0.022 A 
ATOM     17  O   LIG d   1       6.221   1.415  -7.606  0.00  0.00    -0.861 OA
ATOM     18  C   LIG d   1       4.703  -4.198  -6.264  0.00  0.00    -0.060 A 
ATOM     19  H   LIG d   1       3.523  -2.453  -6.605  0.00  0.00     0.064 H 
ATOM     20  C   LIG d   1       5.977  -4.742  -6.201  0.00  0.00    -0.061 A 
ATOM     21  H   LIG d   1       3.844  -4.828  -6.081  0.00  0.00     0.062 H 
ATOM     22  H   LIG d   1       6.104  -5.790  -5.971  0.00  0.00     0.062 H 
ATOM     23  H   LIG d   1       8.073  -4.376  -6.383  0.00  0.00     0.062 H 
BRANCH  14  24
ATOM     24  C   LIG d   1       4.085  -0.175  -7.144  0.00  0.00     0.011 C 
ATOM     25  H   LIG d   1       3.438  -0.749  -6.465  0.00  0.00     0.045 H 
ATOM     26  H   LIG d   1       3.701  -0.256  -8.172  0.00  0.00     0.045 H 
ATOM     27  H   LIG d   1       4.093   0.881  -6.837  0.00  0.00     0.045 H 
ENDBRANCH  14  24
ENDBRANCH   6   8
ENDBRANCH   3   6
ENDBRANCH   1   3
BRANCH   1  28
ATOM     28  C   LIG d   1       9.245   2.961  -4.807  0.00  0.00    -0.027 A 
ATOM     29  C   LIG d   1       9.434   3.184  -3.456  0.00  0.00    -0.055 A 
ATOM     30  C   LIG d   1       9.872   4.418  -3.013  0.00  0.00    -0.043 A 
ATOM     31  H   LIG d   1       9.239   2.394  -2.746  0.00  0.00     0.062 H 
ATOM     32  C   LIG d   1      10.120   5.430  -3.922  0.00  0.00     0.041 A 
ATOM     33  H   LIG d   1      10.019   4.592  -1.957  0.00  0.00     0.063 H 
ATOM     34  C   LIG d   1       9.931   5.207  -5.275  0.00  0.00    -0.043 A 
ATOM     35 CL   LIG d   1      10.671   6.981  -3.367  0.00  0.00    -0.084 Cl
ATOM     36  C   LIG d   1       9.499   3.970  -5.716  0.00  0.00    -0.055 A 
ATOM     37  H   LIG d   1      10.125   5.996  -5.985  0.00  0.00     0.063 H 
ATOM     38  H   LIG d   1       9.355   3.794  -6.772  0.00  0.00     0.062 H 
ENDBRANCH   1  28
BRANCH   1  39
ATOM     39  N   LIG d   1       8.779   0.665  -4.174  0.00  0.00    -0.337 N 
ATOM     40  H   LIG d   1       9.710   0.481  -3.618  0.00  0.00     0.147 HD
BRANCH  39  41
ATOM     41  C   LIG d   1       7.608  -0.006  -3.816  0.00  0.00     0.028 A 
ATOM     42  C   LIG d   1       6.424   0.692  -3.724  0.00  0.00    -0.033 A 
ATOM     43  C   LIG d   1       5.247   0.012  -3.367  0.00  0.00    -0.016 A 
ATOM     44  H   LIG d   1       6.399   1.752  -3.927  0.00  0.00     0.064 H 
ATOM     45  C   LIG d   1       5.300  -1.378  -3.099  0.00  0.00    -0.018 A 
ATOM     46  C   LIG d   1       4.019   0.688  -3.266  0.00  0.00    -0.054 A 
ATOM     47  C   LIG d   1       6.527  -2.058  -3.197  0.00  0.00    -0.052 A 
ATOM     48  C   LIG d   1       4.123  -2.054  -2.736  0.00  0.00    -0.054 A 
ATOM     49  C   LIG d   1       7.650  -1.379  -3.550  0.00  0.00    -0.040 A 
ATOM     50  H   LIG d   1       6.576  -3.118  -2.994  0.00  0.00     0.062 H 
ATOM     51  H   LIG d   1       8.590  -1.907  -3.623  0.00  0.00     0.064 H 
ATOM     52  C   LIG d   1       2.951  -1.368  -2.648  0.00  0.00    -0.061 A 
ATOM     53  H   LIG d   1       4.147  -3.114  -2.528  0.00  0.00     0.062 H 
ATOM     54  C   LIG d   1       2.899   0.000  -2.913  0.00  0.00    -0.061 A 
ATOM     55  H   LIG d   1       2.047  -1.890  -2.370  0.00  0.00     0.062 H 
ATOM     56  H   LIG d   1       1.957   0.522  -2.835  0.00  0.00     0.062 H 
ATOM     57  H   LIG d   1       3.964   1.748  -3.467  0.00  0.00     0.062 H 
ENDBRANCH  39  41
ENDBRANCH   1  39
TORSDOF 7
ENDMDL
MODEL 4
REMARK VINA RESULT:      -7.9      1.929      2.676
REMARK  7 active torsions:
REMARK  status: ('A' for Active; 'I' for Inactive)
REMARK    1  A    between atoms: C_1  and  N_2 
REMARK    2  A    between atoms: C_11  and  C_14 
REMARK    3  A    between atoms: C_14  and  C_16 
REMARK    4  A    between atoms: C_16  and  C_17 
REMARK    5  A    between atoms: C_17  and  C_19 
REMARK    6  A    between atoms: C_17  and  N_26 
REMARK    7  A    between atoms: N_26  and  C_27 
ROOT
ATOM      1  C   LIG d   1       8.828   2.200  -5.020  0.00  0.00     0.053 C 
ATOM      2  H   LIG d   1       7.793   2.260  -5.390  0.00  0.00     0.055 H 
ENDROOT
BRANCH   1   3
ATOM      3  C   LIG d   1       9.791   1.805  -6.142  0.00  0.00     0.033 C 
ATOM      4  H   LIG d   1      10.471   1.019  -5.780  0.00  0.00     0.037 H 
ATOM      5  H   LIG d   1      10.376   2.682  -6.450  0.00  0.00     0.037 H 
BRANCH   3   6
ATOM      6  C   LIG d   1       9.004   1.285  -7.318  0.00  0.00     0.170 C 
ATOM      7  O   LIG d   1       8.945   1.933  -8.342  0.00  0.00    -0.292 OA
BRANCH   6   8
ATOM      8  C   LIG d   1       8.337   0.041  -7.228  0.00  0.00     0.073 A 
ATOM      9  C   LIG d   1       6.875  -0.016  -7.093  0.00  0.00     0.199 A 
ATOM     10  C   LIG d   1       6.254  -1.353  -7.007  0.00  0.00     0.046 A 
ATOM     11  O   LIG d   1       6.201   0.998  -7.054  0.00  0.00    -0.286 OA
ATOM     12  C   LIG d   1       7.081  -2.487  -7.050  0.00  0.00     0.052 A 
ATOM     13  C   LIG d   1       4.873  -1.496  -6.877  0.00  0.00    -0.049 A 
ATOM     14  N   LIG d   1       8.447  -2.352  -7.185  0.00  0.00    -0.356 N 
ATOM     15  C   LIG d   1       6.502  -3.751  -6.974  0.00  0.00    -0.037 A 
ATOM     16  C   LIG d   1       9.057  -1.157  -7.266  0.00  0.00    -0.022 A 
ATOM     17  O   LIG d   1      10.396  -1.112  -7.391  0.00  0.00    -0.861 OA
ATOM     18  C   LIG d   1       5.136  -3.878  -6.847  0.00  0.00    -0.060 A 
ATOM     19  H   LIG d   1       7.125  -4.633  -7.010  0.00  0.00     0.064 H 
ATOM     20  C   LIG d   1       4.323  -2.756  -6.798  0.00  0.00    -0.061 A 
ATOM     21  H   LIG d   1       4.694  -4.862  -6.784  0.00  0.00     0.062 H 
ATOM     22  H   LIG d   1       3.253  -2.871  -6.697  0.00  0.00     0.062 H 
ATOM     23  H   LIG d   1       4.239  -0.623  -6.839  0.00  0.00     0.062 H 
BRANCH  14  24
ATOM     24  C   LIG d   1       9.271  -3.564  -7.233  0.00  0.00     0.011 C 
ATOM     25  H   LIG d   1       9.550  -3.858  -6.211  0.00  0.00     0.045 H 
ATOM     26  H   LIG d   1      10.180  -3.367  -7.820  0.00  0.00     0.045 H 
ATOM     27  H   LIG d   1       8.698  -4.377  -7.705  0.00  0.00     0.045 H 
ENDBRANCH  14  24
ENDBRANCH   6   8
ENDBRANCH   3   6
ENDBRANCH   1   3
BRANCH   1  28
ATOM     28  C   LIG d   1       9.244   3.531  -4.448  0.00  0.00    -0.027 A 
ATOM     29  C   LIG d   1       9.670   3.616  -3.135  0.00  0.00    -0.055 A 
ATOM     30  C   LIG d   1      10.051   4.836  -2.610  0.00  0.00    -0.043 A 
ATOM     31  H   LIG d   1       9.705   2.729  -2.520  0.00  0.00     0.062 H 
ATOM     32  C   LIG d   1      10.006   5.973  -3.397  0.00  0.00     0.041 A 
ATOM     33  H   LIG d   1      10.384   4.903  -1.585  0.00  0.00     0.063 H 
ATOM     34  C   LIG d   1       9.579   5.888  -4.711  0.00  0.00    -0.043 A 
ATOM     35 CL   LIG d   1      10.484   7.506  -2.739  0.00  0.00    -0.084 Cl
ATOM     36  C   LIG d   1       9.204   4.665  -5.237  0.00  0.00    -0.055 A 
ATOM     37  H   LIG d   1       9.544   6.774  -5.326  0.00  0.00     0.063 H 
ATOM     38  H   LIG d   1       8.875   4.597  -6.263  0.00  0.00     0.062 H 
ENDBRANCH   1  28
BRANCH   1  39
ATOM     39  N   LIG d   1       8.861   1.184  -3.966  0.00  0.00    -0.337 N 
ATOM     40  H   LIG d   1       9.776   1.036  -3.372  0.00  0.00     0.147 HD
BRANCH  39  41
ATOM     41  C   LIG d   1       7.732   0.403  -3.713  0.00  0.00     0.028 A 
ATOM     42  C   LIG d   1       6.520   1.014  -3.478  0.00  0.00    -0.033 A 
ATOM     43  C   LIG d   1       5.385   0.225  -3.227  0.00  0.00    -0.016 A 
ATOM     44  H   LIG d   1       6.442   2.092  -3.489  0.00  0.00     0.064 H 
ATOM     45  C   LIG d   1       5.508  -1.187  -3.211  0.00  0.00    -0.018 A 
ATOM     46  C   LIG d   1       4.130   0.811  -2.987  0.00  0.00    -0.054 A 
ATOM     47  C   LIG d   1       6.761  -1.777  -3.450  0.00  0.00    -0.052 A 
ATOM     48  C   LIG d   1       4.372  -1.973  -2.955  0.00  0.00    -0.054 A 
ATOM     49  C   LIG d   1       7.843  -0.992  -3.695  0.00  0.00    -0.040 A 
ATOM     50  H   LIG d   1       6.864  -2.852  -3.440  0.00  0.00     0.062 H 
ATOM     51  H   LIG d   1       8.804  -1.452  -3.878  0.00  0.00     0.064 H 
ATOM     52  C   LIG d   1       3.172  -1.372  -2.726  0.00  0.00    -0.061 A 
ATOM     53  H   LIG d   1       4.450  -3.051  -2.938  0.00  0.00     0.062 H 
ATOM     54  C   LIG d   1       3.052   0.017  -2.742  0.00  0.00    -0.061 A 
ATOM     55  H   LIG d   1       2.301  -1.978  -2.530  0.00  0.00     0.062 H 
ATOM     56  H   LIG d   1       2.089   0.470  -2.557  0.00  0.00     0.062 H 
ATOM     57  H   LIG d   1       4.022   1.886  -2.995  0.00  0.00     0.062 H 
ENDBRANCH  39  41
ENDBRANCH   1  39
TORSDOF 7
ENDMDL
MODEL 5
REMARK VINA RESULT:      -7.9      4.136      7.988
REMARK  7 active torsions:
REMARK  status: ('A' for Active; 'I' for Inactive)
REMARK    1  A    between atoms: C_1  and  N_2 
REMARK    2  A    between atoms: C_11  and  C_14 
REMARK    3  A    between atoms: C_14  and  C_16 
REMARK    4  A    between atoms: C_16  and  C_17 
REMARK    5  A    between atoms: C_17  and  C_19 
REMARK    6  A    between atoms: C_17  and  N_26 
REMARK    7  A    between atoms: N_26  and  C_27 
ROOT
ATOM      1  C   LIG d   1       5.656  -4.111  -6.838  0.00  0.00     0.053 C 
ATOM      2  H   LIG d   1       4.995  -3.648  -6.089  0.00  0.00     0.055 H 
ENDROOT
BRANCH   1   3
ATOM      3  C   LIG d   1       7.128  -3.902  -6.475  0.00  0.00     0.033 C 
ATOM      4  H   LIG d   1       7.525  -3.045  -7.040  0.00  0.00     0.037 H 
ATOM      5  H   LIG d   1       7.700  -4.806  -6.729  0.00  0.00     0.037 H 
BRANCH   3   6
ATOM      6  C   LIG d   1       7.247  -3.629  -4.998  0.00  0.00     0.170 C 
ATOM      7  O   LIG d   1       7.799  -4.431  -4.275  0.00  0.00    -0.292 OA
BRANCH   6   8
ATOM      8  C   LIG d   1       6.716  -2.435  -4.455  0.00  0.00     0.073 A 
ATOM      9  C   LIG d   1       5.350  -2.402  -3.913  0.00  0.00     0.199 A 
ATOM     10  C   LIG d   1       4.870  -1.118  -3.364  0.00  0.00     0.046 A 
ATOM     11  O   LIG d   1       4.642  -3.393  -3.917  0.00  0.00    -0.286 OA
ATOM     12  C   LIG d   1       5.727  -0.007  -3.391  0.00  0.00     0.052 A 
ATOM     13  C   LIG d   1       3.587  -1.002  -2.830  0.00  0.00    -0.049 A 
ATOM     14  N   LIG d   1       7.001  -0.119  -3.912  0.00  0.00    -0.356 N 
ATOM     15  C   LIG d   1       5.284   1.205  -2.870  0.00  0.00    -0.037 A 
ATOM     16  C   LIG d   1       7.481  -1.265  -4.424  0.00  0.00    -0.022 A 
ATOM     17  O   LIG d   1       8.732  -1.289  -4.917  0.00  0.00    -0.861 OA
ATOM     18  C   LIG d   1       4.014   1.307  -2.346  0.00  0.00    -0.060 A 
ATOM     19  H   LIG d   1       5.934   2.068  -2.881  0.00  0.00     0.064 H 
ATOM     20  C   LIG d   1       3.166   0.209  -2.325  0.00  0.00    -0.061 A 
ATOM     21  H   LIG d   1       3.674   2.252  -1.947  0.00  0.00     0.062 H 
ATOM     22  H   LIG d   1       2.173   0.304  -1.912  0.00  0.00     0.062 H 
ATOM     23  H   LIG d   1       2.926  -1.856  -2.814  0.00  0.00     0.062 H 
BRANCH  14  24
ATOM     24  C   LIG d   1       7.864   1.066  -3.914  0.00  0.00     0.011 C 
ATOM     25  H   LIG d   1       7.571   1.731  -4.739  0.00  0.00     0.045 H 
ATOM     26  H   LIG d   1       8.911   0.756  -4.046  0.00  0.00     0.045 H 
ATOM     27  H   LIG d   1       7.756   1.598  -2.957  0.00  0.00     0.045 H 
ENDBRANCH  14  24
ENDBRANCH   6   8
ENDBRANCH   3   6
ENDBRANCH   1   3
BRANCH   1  28
ATOM     28  C   LIG d   1       5.366  -5.587  -6.932  0.00  0.00    -0.027 A 
ATOM     29  C   LIG d   1       5.121  -6.317  -5.783  0.00  0.00    -0.055 A 
ATOM     30  C   LIG d   1       4.856  -7.671  -5.868  0.00  0.00    -0.043 A 
ATOM     31  H   LIG d   1       5.137  -5.830  -4.820  0.00  0.00     0.062 H 
ATOM     32  C   LIG d   1       4.836  -8.295  -7.102  0.00  0.00     0.041 A 
ATOM     33  H   LIG d   1       4.665  -8.241  -4.971  0.00  0.00     0.063 H 
ATOM     34  C   LIG d   1       5.081  -7.565  -8.252  0.00  0.00    -0.043 A 
ATOM     35 CL   LIG d   1       4.503  -9.996  -7.211  0.00  0.00    -0.084 Cl
ATOM     36  C   LIG d   1       5.341  -6.209  -8.165  0.00  0.00    -0.055 A 
ATOM     37  H   LIG d   1       5.066  -8.051  -9.215  0.00  0.00     0.063 H 
ATOM     38  H   LIG d   1       5.528  -5.637  -9.062  0.00  0.00     0.062 H 
ENDBRANCH   1  28
BRANCH   1  39
ATOM     39  N   LIG d   1       5.375  -3.475  -8.127  0.00  0.00    -0.337 N 
ATOM     40  H   LIG d   1       5.609  -4.003  -9.064  0.00  0.00     0.147 HD
BRANCH  39  41
ATOM     41  C   LIG d   1       4.807  -2.201  -8.168  0.00  0.00     0.028 A 
ATOM     42  C   LIG d   1       4.893  -1.453  -9.322  0.00  0.00    -0.033 A 
ATOM     43  C   LIG d   1       4.317  -0.172  -9.360  0.00  0.00    -0.016 A 
ATOM     44  H   LIG d   1       5.397  -1.849 -10.191  0.00  0.00     0.064 H 
ATOM     45  C   LIG d   1       3.665   0.333  -8.208  0.00  0.00    -0.018 A 
ATOM     46  C   LIG d   1       4.380   0.620 -10.520  0.00  0.00    -0.054 A 
ATOM     47  C   LIG d   1       3.600  -0.455  -7.046  0.00  0.00    -0.052 A 
ATOM     48  C   LIG d   1       3.094   1.616  -8.248  0.00  0.00    -0.054 A 
ATOM     49  C   LIG d   1       4.160  -1.694  -7.035  0.00  0.00    -0.040 A 
ATOM     50  H   LIG d   1       3.104  -0.078  -6.163  0.00  0.00     0.062 H 
ATOM     51  H   LIG d   1       4.107  -2.294  -6.139  0.00  0.00     0.064 H 
ATOM     52  C   LIG d   1       3.175   2.355  -9.388  0.00  0.00    -0.061 A 
ATOM     53  H   LIG d   1       2.594   2.016  -7.377  0.00  0.00     0.062 H 
ATOM     54  C   LIG d   1       3.816   1.858 -10.521  0.00  0.00    -0.061 A 
ATOM     55  H   LIG d   1       2.735   3.341  -9.416  0.00  0.00     0.062 H 
ATOM     56  H   LIG d   1       3.867   2.464 -11.413  0.00  0.00     0.062 H 
ATOM     57  H   LIG d   1       4.875   0.247 -11.405  0.00  0.00     0.062 H 
ENDBRANCH  39  41
ENDBRANCH   1  39
TORSDOF 7
ENDMDL
MODEL 6
REMARK VINA RESULT:      -7.7      4.417      6.954
REMARK  7 active torsions:
REMARK  status: ('A' for Active; 'I' for Inactive)
REMARK    1  A    between atoms: C_1  and  N_2 
REMARK    2  A    between atoms: C_11  and  C_14 
REMARK    3  A    between atoms: C_14  and  C_16 
REMARK    4  A    between atoms: C_16  and  C_17 
REMARK    5  A    between atoms: C_17  and  C_19 
REMARK    6  A    between atoms: C_17  and  N_26 
REMARK    7  A    between atoms: N_26  and  C_27 
ROOT
ATOM      1  C   LIG d   1       5.075  -4.828  -5.944  0.00  0.00     0.053 C 
ATOM      2  H   LIG d   1       5.880  -4.137  -6.238  0.00  0.00     0.055 H 
ENDROOT
BRANCH   1   3
ATOM      3  C   LIG d   1       3.997  -4.907  -7.028  0.00  0.00     0.033 C 
ATOM      4  H   LIG d   1       3.120  -4.320  -6.716  0.00  0.00     0.037 H 
ATOM      5  H   LIG d   1       3.702  -5.956  -7.177  0.00  0.00     0.037 H 
BRANCH   3   6
ATOM      6  C   LIG d   1       4.541  -4.350  -8.319  0.00  0.00     0.170 C 
ATOM      7  O   LIG d   1       5.251  -5.036  -9.025  0.00  0.00    -0.292 OA
BRANCH   6   8
ATOM      8  C   LIG d   1       4.223  -3.027  -8.707  0.00  0.00     0.073 A 
ATOM      9  C   LIG d   1       5.125  -1.914  -8.380  0.00  0.00     0.199 A 
ATOM     10  C   LIG d   1       4.722  -0.564  -8.822  0.00  0.00     0.046 A 
ATOM     11  O   LIG d   1       6.163  -2.096  -7.770  0.00  0.00    -0.286 OA
ATOM     12  C   LIG d   1       3.511  -0.412  -9.517  0.00  0.00     0.052 A 
ATOM     13  C   LIG d   1       5.521   0.547  -8.553  0.00  0.00    -0.049 A 
ATOM     14  N   LIG d   1       2.720  -1.509  -9.792  0.00  0.00    -0.356 N 
ATOM     15  C   LIG d   1       3.127   0.857  -9.941  0.00  0.00    -0.037 A 
ATOM     16  C   LIG d   1       3.045  -2.755  -9.409  0.00  0.00    -0.022 A 
ATOM     17  O   LIG d   1       2.215  -3.771  -9.713  0.00  0.00    -0.861 OA
ATOM     18  C   LIG d   1       3.926   1.946  -9.668  0.00  0.00    -0.060 A 
ATOM     19  H   LIG d   1       2.201   0.989 -10.480  0.00  0.00     0.064 H 
ATOM     20  C   LIG d   1       5.119   1.794  -8.977  0.00  0.00    -0.061 A 
ATOM     21  H   LIG d   1       3.620   2.930  -9.997  0.00  0.00     0.062 H 
ATOM     22  H   LIG d   1       5.734   2.658  -8.770  0.00  0.00     0.062 H 
ATOM     23  H   LIG d   1       6.450   0.430  -8.015  0.00  0.00     0.062 H 
BRANCH  14  24
ATOM     24  C   LIG d   1       1.468  -1.304 -10.526  0.00  0.00     0.011 C 
ATOM     25  H   LIG d   1       1.248  -2.196 -11.130  0.00  0.00     0.045 H 
ATOM     26  H   LIG d   1       1.568  -0.429 -11.185  0.00  0.00     0.045 H 
ATOM     27  H   LIG d   1       0.649  -1.134  -9.811  0.00  0.00     0.045 H 
ENDBRANCH  14  24
ENDBRANCH   6   8
ENDBRANCH   3   6
ENDBRANCH   1   3
BRANCH   1  28
ATOM     28  C   LIG d   1       5.644  -6.202  -5.700  0.00  0.00    -0.027 A 
ATOM     29  C   LIG d   1       4.802  -7.297  -5.641  0.00  0.00    -0.055 A 
ATOM     30  C   LIG d   1       5.324  -8.557  -5.417  0.00  0.00    -0.043 A 
ATOM     31  H   LIG d   1       3.738  -7.168  -5.769  0.00  0.00     0.062 H 
ATOM     32  C   LIG d   1       6.687  -8.723  -5.252  0.00  0.00     0.041 A 
ATOM     33  H   LIG d   1       4.666  -9.413  -5.370  0.00  0.00     0.063 H 
ATOM     34  C   LIG d   1       7.529  -7.626  -5.312  0.00  0.00    -0.043 A 
ATOM     35 CL   LIG d   1       7.343 -10.306  -4.971  0.00  0.00    -0.084 Cl
ATOM     36  C   LIG d   1       7.007  -6.367  -5.542  0.00  0.00    -0.055 A 
ATOM     37  H   LIG d   1       8.593  -7.754  -5.184  0.00  0.00     0.063 H 
ATOM     38  H   LIG d   1       7.663  -5.511  -5.593  0.00  0.00     0.062 H 
ENDBRANCH   1  28
BRANCH   1  39
ATOM     39  N   LIG d   1       4.485  -4.316  -4.705  0.00  0.00    -0.337 N 
ATOM     40  H   LIG d   1       3.761  -4.928  -4.146  0.00  0.00     0.147 HD
BRANCH  39  41
ATOM     41  C   LIG d   1       4.842  -3.052  -4.231  0.00  0.00     0.028 A 
ATOM     42  C   LIG d   1       3.877  -2.226  -3.698  0.00  0.00    -0.033 A 
ATOM     43  C   LIG d   1       4.242  -0.957  -3.219  0.00  0.00    -0.016 A 
ATOM     44  H   LIG d   1       2.849  -2.553  -3.646  0.00  0.00     0.064 H 
ATOM     45  C   LIG d   1       5.595  -0.543  -3.301  0.00  0.00    -0.018 A 
ATOM     46  C   LIG d   1       3.287  -0.087  -2.664  0.00  0.00    -0.054 A 
ATOM     47  C   LIG d   1       6.553  -1.409  -3.857  0.00  0.00    -0.052 A 
ATOM     48  C   LIG d   1       5.955   0.729  -2.826  0.00  0.00    -0.054 A 
ATOM     49  C   LIG d   1       6.176  -2.635  -4.308  0.00  0.00    -0.040 A 
ATOM     50  H   LIG d   1       7.586  -1.103  -3.923  0.00  0.00     0.062 H 
ATOM     51  H   LIG d   1       6.917  -3.296  -4.734  0.00  0.00     0.064 H 
ATOM     52  C   LIG d   1       5.004   1.545  -2.295  0.00  0.00    -0.061 A 
ATOM     53  H   LIG d   1       6.982   1.059  -2.883  0.00  0.00     0.062 H 
ATOM     54  C   LIG d   1       3.673   1.137  -2.214  0.00  0.00    -0.061 A 
ATOM     55  H   LIG d   1       5.284   2.522  -1.930  0.00  0.00     0.062 H 
ATOM     56  H   LIG d   1       2.938   1.804  -1.789  0.00  0.00     0.062 H 
ATOM     57  H   LIG d   1       2.252  -0.389  -2.596  0.00  0.00     0.062 H 
ENDBRANCH  39  41
ENDBRANCH   1  39
TORSDOF 7
ENDMDL
MODEL 7
REMARK VINA RESULT:      -7.7      3.427      6.561
REMARK  7 active torsions:
REMARK  status: ('A' for Active; 'I' for Inactive)
REMARK    1  A    between atoms: C_1  and  N_2 
REMARK    2  A    between atoms: C_11  and  C_14 
REMARK    3  A    between atoms: C_14  and  C_16 
REMARK    4  A    between atoms: C_16  and  C_17 
REMARK    5  A    between atoms: C_17  and  C_19 
REMARK    6  A    between atoms: C_17  and  N_26 
REMARK    7  A    between atoms: N_26  and  C_27 
ROOT
ATOM      1  C   LIG d   1       4.237   0.140  -8.930  0.00  0.00     0.053 C 
ATOM      2  H   LIG d   1       4.715  -0.713  -8.425  0.00  0.00     0.055 H 
ENDROOT
BRANCH   1   3
ATOM      3  C   LIG d   1       5.279   1.025  -9.617  0.00  0.00     0.033 C 
ATOM      4  H   LIG d   1       5.299   2.013  -9.132  0.00  0.00     0.037 H 
ATOM      5  H   LIG d   1       5.018   1.143 -10.679  0.00  0.00     0.037 H 
BRANCH   3   6
ATOM      6  C   LIG d   1       6.638   0.383  -9.502  0.00  0.00     0.170 C 
ATOM      7  O   LIG d   1       7.397   0.393 -10.449  0.00  0.00    -0.292 OA
BRANCH   6   8
ATOM      8  C   LIG d   1       7.029  -0.231  -8.289  0.00  0.00     0.073 A 
ATOM      9  C   LIG d   1       7.035  -1.695  -8.158  0.00  0.00     0.199 A 
ATOM     10  C   LIG d   1       7.457  -2.257  -6.859  0.00  0.00     0.046 A 
ATOM     11  O   LIG d   1       6.705  -2.415  -9.083  0.00  0.00    -0.286 OA
ATOM     12  C   LIG d   1       7.819  -1.378  -5.826  0.00  0.00     0.052 A 
ATOM     13  C   LIG d   1       7.491  -3.635  -6.652  0.00  0.00    -0.049 A 
ATOM     14  N   LIG d   1       7.794  -0.013  -6.028  0.00  0.00    -0.356 N 
ATOM     15  C   LIG d   1       8.223  -1.901  -4.601  0.00  0.00    -0.037 A 
ATOM     16  C   LIG d   1       7.417   0.545  -7.192  0.00  0.00    -0.022 A 
ATOM     17  O   LIG d   1       7.414   1.886  -7.305  0.00  0.00    -0.861 OA
ATOM     18  C   LIG d   1       8.252  -3.265  -4.410  0.00  0.00    -0.060 A 
ATOM     19  H   LIG d   1       8.509  -1.237  -3.799  0.00  0.00     0.064 H 
ATOM     20  C   LIG d   1       7.888  -4.131  -5.430  0.00  0.00    -0.061 A 
ATOM     21  H   LIG d   1       8.563  -3.665  -3.455  0.00  0.00     0.062 H 
ATOM     22  H   LIG d   1       7.915  -5.198  -5.265  0.00  0.00     0.062 H 
ATOM     23  H   LIG d   1       7.207  -4.311  -7.446  0.00  0.00     0.062 H 
BRANCH  14  24
ATOM     24  C   LIG d   1       8.188   0.867  -4.924  0.00  0.00     0.011 C 
ATOM     25  H   LIG d   1       8.495   0.258  -4.062  0.00  0.00     0.045 H 
ATOM     26  H   LIG d   1       7.337   1.503  -4.640  0.00  0.00     0.045 H 
ATOM     27  H   LIG d   1       9.029   1.500  -5.243  0.00  0.00     0.045 H 
ENDBRANCH  14  24
ENDBRANCH   6   8
ENDBRANCH   3   6
ENDBRANCH   1   3
BRANCH   1  28
ATOM     28  C   LIG d   1       3.249  -0.359  -9.953  0.00  0.00    -0.027 A 
ATOM     29  C   LIG d   1       1.923  -0.536  -9.603  0.00  0.00    -0.055 A 
ATOM     30  C   LIG d   1       1.017  -0.995 -10.540  0.00  0.00    -0.043 A 
ATOM     31  H   LIG d   1       1.596  -0.317  -8.598  0.00  0.00     0.062 H 
ATOM     32  C   LIG d   1       1.436  -1.276 -11.828  0.00  0.00     0.041 A 
ATOM     33  H   LIG d   1      -0.019  -1.133 -10.267  0.00  0.00     0.063 H 
ATOM     34  C   LIG d   1       2.763  -1.099 -12.178  0.00  0.00    -0.043 A 
ATOM     35 CL   LIG d   1       0.299  -1.852 -13.007  0.00  0.00    -0.084 Cl
ATOM     36  C   LIG d   1       3.668  -0.634 -11.240  0.00  0.00    -0.055 A 
ATOM     37  H   LIG d   1       3.092  -1.318 -13.182  0.00  0.00     0.063 H 
ATOM     38  H   LIG d   1       4.703  -0.492 -11.513  0.00  0.00     0.062 H 
ENDBRANCH   1  28
BRANCH   1  39
ATOM     39  N   LIG d   1       3.532   0.919  -7.909  0.00  0.00    -0.337 N 
ATOM     40  H   LIG d   1       3.089   1.892  -8.168  0.00  0.00     0.147 HD
BRANCH  39  41
ATOM     41  C   LIG d   1       3.420   0.425  -6.608  0.00  0.00     0.028 A 
ATOM     42  C   LIG d   1       4.086  -0.728  -6.257  0.00  0.00    -0.033 A 
ATOM     43  C   LIG d   1       3.974  -1.220  -4.945  0.00  0.00    -0.016 A 
ATOM     44  H   LIG d   1       4.693  -1.249  -6.983  0.00  0.00     0.064 H 
ATOM     45  C   LIG d   1       3.170  -0.525  -4.008  0.00  0.00    -0.018 A 
ATOM     46  C   LIG d   1       4.642  -2.391  -4.548  0.00  0.00    -0.054 A 
ATOM     47  C   LIG d   1       2.499   0.646  -4.402  0.00  0.00    -0.052 A 
ATOM     48  C   LIG d   1       3.055  -1.022  -2.699  0.00  0.00    -0.054 A 
ATOM     49  C   LIG d   1       2.628   1.105  -5.675  0.00  0.00    -0.040 A 
ATOM     50  H   LIG d   1       1.884   1.182  -3.694  0.00  0.00     0.062 H 
ATOM     51  H   LIG d   1       2.110   2.005  -5.971  0.00  0.00     0.064 H 
ATOM     52  C   LIG d   1       3.716  -2.160  -2.349  0.00  0.00    -0.061 A 
ATOM     53  H   LIG d   1       2.445  -0.505  -1.973  0.00  0.00     0.062 H 
ATOM     54  C   LIG d   1       4.508  -2.842  -3.271  0.00  0.00    -0.061 A 
ATOM     55  H   LIG d   1       3.626  -2.539  -1.342  0.00  0.00     0.062 H 
ATOM     56  H   LIG d   1       5.021  -3.742  -2.969  0.00  0.00     0.062 H 
ATOM     57  H   LIG d   1       5.258  -2.930  -5.253  0.00  0.00     0.062 H 
ENDBRANCH  39  41
ENDBRANCH   1  39
TORSDOF 7
ENDMDL
MODEL 8
REMARK VINA RESULT:      -7.7      3.325      6.676
REMARK  7 active torsions:
REMARK  status: ('A' for Active; 'I' for Inactive)
REMARK    1  A    between atoms: C_1  and  N_2 
REMARK    2  A    between atoms: C_11  and  C_14 
REMARK    3  A    between atoms: C_14  and  C_16 
REMARK    4  A    between atoms: C_16  and  C_17 
REMARK    5  A    between atoms: C_17  and  C_19 
REMARK    6  A    between atoms: C_17  and  N_26 
REMARK    7  A    between atoms: N_26  and  C_27 
ROOT
ATOM      1  C   LIG d   1      10.830   3.064  -4.871  0.00  0.00     0.053 C 
ATOM      2  H   LIG d   1      11.490   3.059  -5.751  0.00  0.00     0.055 H 
ENDROOT
BRANCH   1   3
ATOM      3  C   LIG d   1      10.512   1.639  -4.414  0.00  0.00     0.033 C 
ATOM      4  H   LIG d   1      10.223   1.651  -3.352  0.00  0.00     0.037 H 
ATOM      5  H   LIG d   1      11.400   1.004  -4.545  0.00  0.00     0.037 H 
BRANCH   3   6
ATOM      6  C   LIG d   1       9.374   1.089  -5.237  0.00  0.00     0.170 C 
ATOM      7  O   LIG d   1       9.382   1.216  -6.443  0.00  0.00    -0.292 OA
BRANCH   6   8
ATOM      8  C   LIG d   1       8.300   0.425  -4.602  0.00  0.00     0.073 A 
ATOM      9  C   LIG d   1       7.298   1.181  -3.837  0.00  0.00     0.199 A 
ATOM     10  C   LIG d   1       6.206   0.414  -3.206  0.00  0.00     0.046 A 
ATOM     11  O   LIG d   1       7.365   2.393  -3.729  0.00  0.00    -0.286 OA
ATOM     12  C   LIG d   1       6.183  -0.982  -3.359  0.00  0.00     0.052 A 
ATOM     13  C   LIG d   1       5.215   1.055  -2.464  0.00  0.00    -0.049 A 
ATOM     14  N   LIG d   1       7.157  -1.621  -4.098  0.00  0.00    -0.356 N 
ATOM     15  C   LIG d   1       5.154  -1.712  -2.771  0.00  0.00    -0.037 A 
ATOM     16  C   LIG d   1       8.170  -0.965  -4.690  0.00  0.00    -0.022 A 
ATOM     17  O   LIG d   1       9.083  -1.664  -5.389  0.00  0.00    -0.861 OA
ATOM     18  C   LIG d   1       4.181  -1.066  -2.040  0.00  0.00    -0.060 A 
ATOM     19  H   LIG d   1       5.121  -2.785  -2.883  0.00  0.00     0.064 H 
ATOM     20  C   LIG d   1       4.209   0.313  -1.885  0.00  0.00    -0.061 A 
ATOM     21  H   LIG d   1       3.386  -1.638  -1.582  0.00  0.00     0.062 H 
ATOM     22  H   LIG d   1       3.440   0.805  -1.309  0.00  0.00     0.062 H 
ATOM     23  H   LIG d   1       5.236   2.128  -2.342  0.00  0.00     0.062 H 
BRANCH  14  24
ATOM     24  C   LIG d   1       7.089  -3.079  -4.237  0.00  0.00     0.011 C 
ATOM     25  H   LIG d   1       6.045  -3.383  -4.401  0.00  0.00     0.045 H 
ATOM     26  H   LIG d   1       7.470  -3.552  -3.320  0.00  0.00     0.045 H 
ATOM     27  H   LIG d   1       7.702  -3.393  -5.095  0.00  0.00     0.045 H 
ENDBRANCH  14  24
ENDBRANCH   6   8
ENDBRANCH   3   6
ENDBRANCH   1   3
BRANCH   1  28
ATOM     28  C   LIG d   1      11.487   3.818  -3.744  0.00  0.00    -0.027 A 
ATOM     29  C   LIG d   1      10.794   4.047  -2.569  0.00  0.00    -0.055 A 
ATOM     30  C   LIG d   1      11.397   4.739  -1.535  0.00  0.00    -0.043 A 
ATOM     31  H   LIG d   1       9.783   3.686  -2.460  0.00  0.00     0.062 H 
ATOM     32  C   LIG d   1      12.693   5.202  -1.676  0.00  0.00     0.041 A 
ATOM     33  H   LIG d   1      10.856   4.918  -0.618  0.00  0.00     0.063 H 
ATOM     34  C   LIG d   1      13.386   4.972  -2.851  0.00  0.00    -0.043 A 
ATOM     35 CL   LIG d   1      13.451   6.071  -0.377  0.00  0.00    -0.084 Cl
ATOM     36  C   LIG d   1      12.784   4.275  -3.883  0.00  0.00    -0.055 A 
ATOM     37  H   LIG d   1      14.397   5.333  -2.961  0.00  0.00     0.063 H 
ATOM     38  H   LIG d   1      13.326   4.092  -4.798  0.00  0.00     0.062 H 
ENDBRANCH   1  28
BRANCH   1  39
ATOM     39  N   LIG d   1       9.589   3.743  -5.254  0.00  0.00    -0.337 N 
ATOM     40  H   LIG d   1       8.618   3.329  -4.945  0.00  0.00     0.147 HD
BRANCH  39  41
ATOM     41  C   LIG d   1       9.640   4.915  -6.010  0.00  0.00     0.028 A 
ATOM     42  C   LIG d   1       9.540   6.136  -5.380  0.00  0.00    -0.033 A 
ATOM     43  C   LIG d   1       9.595   7.315  -6.144  0.00  0.00    -0.016 A 
ATOM     44  H   LIG d   1       9.424   6.188  -4.307  0.00  0.00     0.064 H 
ATOM     45  C   LIG d   1       9.742   7.226  -7.550  0.00  0.00    -0.018 A 
ATOM     46  C   LIG d   1       9.501   8.579  -5.537  0.00  0.00    -0.054 A 
ATOM     47  C   LIG d   1       9.835   5.964  -8.161  0.00  0.00    -0.052 A 
ATOM     48  C   LIG d   1       9.791   8.406  -8.312  0.00  0.00    -0.054 A 
ATOM     49  C   LIG d   1       9.785   4.838  -7.400  0.00  0.00    -0.040 A 
ATOM     50  H   LIG d   1       9.947   5.887  -9.233  0.00  0.00     0.062 H 
ATOM     51  H   LIG d   1       9.856   3.871  -7.875  0.00  0.00     0.064 H 
ATOM     52  C   LIG d   1       9.697   9.614  -7.691  0.00  0.00    -0.061 A 
ATOM     53  H   LIG d   1       9.902   8.356  -9.385  0.00  0.00     0.062 H 
ATOM     54  C   LIG d   1       9.553   9.700  -6.307  0.00  0.00    -0.061 A 
ATOM     55  H   LIG d   1       9.735  10.519  -8.279  0.00  0.00     0.062 H 
ATOM     56  H   LIG d   1       9.480  10.671  -5.839  0.00  0.00     0.062 H 
ATOM     57  H   LIG d   1       9.388   8.661  -4.466  0.00  0.00     0.062 H 
ENDBRANCH  39  41
ENDBRANCH   1  39
TORSDOF 7
ENDMDL
MODEL 9
REMARK VINA RESULT:      -7.6      5.244      8.015
REMARK  7 active torsions:
REMARK  status: ('A' for Active; 'I' for Inactive)
REMARK    1  A    between atoms: C_1  and  N_2 
REMARK    2  A    between atoms: C_11  and  C_14 
REMARK    3  A    between atoms: C_14  and  C_16 
REMARK    4  A    between atoms: C_16  and  C_17 
REMARK    5  A    between atoms: C_17  and  C_19 
REMARK    6  A    between atoms: C_17  and  N_26 
REMARK    7  A    between atoms: N_26  and  C_27 
ROOT
ATOM      1  C   LIG d   1       6.331  -3.379  -5.117  0.00  0.00     0.053 C 
ATOM      2  H   LIG d   1       5.937  -4.346  -4.766  0.00  0.00     0.055 H 
ENDROOT
BRANCH   1   3
ATOM      3  C   LIG d   1       5.857  -3.077  -6.540  0.00  0.00     0.033 C 
ATOM      4  H   LIG d   1       6.730  -2.947  -7.197  0.00  0.00     0.037 H 
ATOM      5  H   LIG d   1       5.258  -2.155  -6.540  0.00  0.00     0.037 H 
BRANCH   3   6
ATOM      6  C   LIG d   1       5.016  -4.223  -7.043  0.00  0.00     0.170 C 
ATOM      7  O   LIG d   1       3.957  -4.003  -7.592  0.00  0.00    -0.292 OA
BRANCH   6   8
ATOM      8  C   LIG d   1       5.464  -5.554  -6.876  0.00  0.00     0.073 A 
ATOM      9  C   LIG d   1       4.906  -6.404  -5.814  0.00  0.00     0.199 A 
ATOM     10  C   LIG d   1       5.425  -7.782  -5.707  0.00  0.00     0.046 A 
ATOM     11  O   LIG d   1       4.050  -5.988  -5.054  0.00  0.00    -0.286 OA
ATOM     12  C   LIG d   1       6.417  -8.204  -6.607  0.00  0.00     0.052 A 
ATOM     13  C   LIG d   1       4.949  -8.653  -4.728  0.00  0.00    -0.049 A 
ATOM     14  N   LIG d   1       6.886  -7.348  -7.583  0.00  0.00    -0.356 N 
ATOM     15  C   LIG d   1       6.907  -9.503  -6.515  0.00  0.00    -0.037 A 
ATOM     16  C   LIG d   1       6.445  -6.086  -7.718  0.00  0.00    -0.022 A 
ATOM     17  O   LIG d   1       6.959  -5.314  -8.693  0.00  0.00    -0.861 OA
ATOM     18  C   LIG d   1       6.428 -10.354  -5.542  0.00  0.00    -0.060 A 
ATOM     19  H   LIG d   1       7.667  -9.844  -7.203  0.00  0.00     0.064 H 
ATOM     20  C   LIG d   1       5.453  -9.933  -4.651  0.00  0.00    -0.061 A 
ATOM     21  H   LIG d   1       6.816 -11.361  -5.474  0.00  0.00     0.062 H 
ATOM     22  H   LIG d   1       5.087 -10.610  -3.893  0.00  0.00     0.062 H 
ATOM     23  H   LIG d   1       4.190  -8.326  -4.033  0.00  0.00     0.062 H 
BRANCH  14  24
ATOM     24  C   LIG d   1       7.916  -7.834  -8.505  0.00  0.00     0.011 C 
ATOM     25  H   LIG d   1       8.835  -8.059  -7.943  0.00  0.00     0.045 H 
ATOM     26  H   LIG d   1       8.127  -7.062  -9.259  0.00  0.00     0.045 H 
ATOM     27  H   LIG d   1       7.559  -8.747  -9.004  0.00  0.00     0.045 H 
ENDBRANCH  14  24
ENDBRANCH   6   8
ENDBRANCH   3   6
ENDBRANCH   1   3
BRANCH   1  28
ATOM     28  C   LIG d   1       5.879  -2.278  -4.192  0.00  0.00    -0.027 A 
ATOM     29  C   LIG d   1       4.707  -2.419  -3.473  0.00  0.00    -0.055 A 
ATOM     30  C   LIG d   1       4.291  -1.409  -2.625  0.00  0.00    -0.043 A 
ATOM     31  H   LIG d   1       4.116  -3.317  -3.572  0.00  0.00     0.062 H 
ATOM     32  C   LIG d   1       5.048  -0.258  -2.497  0.00  0.00     0.041 A 
ATOM     33  H   LIG d   1       3.376  -1.518  -2.063  0.00  0.00     0.063 H 
ATOM     34  C   LIG d   1       6.221  -0.118  -3.217  0.00  0.00    -0.043 A 
ATOM     35 CL   LIG d   1       4.528   1.011  -1.432  0.00  0.00    -0.084 Cl
ATOM     36  C   LIG d   1       6.639  -1.132  -4.060  0.00  0.00    -0.055 A 
ATOM     37  H   LIG d   1       6.813   0.779  -3.118  0.00  0.00     0.063 H 
ATOM     38  H   LIG d   1       7.556  -1.025  -4.620  0.00  0.00     0.062 H 
ENDBRANCH   1  28
BRANCH   1  39
ATOM     39  N   LIG d   1       7.793  -3.465  -5.096  0.00  0.00    -0.337 N 
ATOM     40  H   LIG d   1       8.391  -2.822  -5.759  0.00  0.00     0.147 HD
BRANCH  39  41
ATOM     41  C   LIG d   1       8.428  -4.360  -4.234  0.00  0.00     0.028 A 
ATOM     42  C   LIG d   1       8.341  -5.714  -4.473  0.00  0.00    -0.033 A 
ATOM     43  C   LIG d   1       8.984  -6.612  -3.604  0.00  0.00    -0.016 A 
ATOM     44  H   LIG d   1       7.784  -6.083  -5.322  0.00  0.00     0.064 H 
ATOM     45  C   LIG d   1       9.705  -6.110  -2.493  0.00  0.00    -0.018 A 
ATOM     46  C   LIG d   1       8.922  -8.001  -3.817  0.00  0.00    -0.054 A 
ATOM     47  C   LIG d   1       9.769  -4.723  -2.276  0.00  0.00    -0.052 A 
ATOM     48  C   LIG d   1      10.343  -7.011  -1.623  0.00  0.00    -0.054 A 
ATOM     49  C   LIG d   1       9.143  -3.874  -3.133  0.00  0.00    -0.040 A 
ATOM     50  H   LIG d   1      10.316  -4.331  -1.431  0.00  0.00     0.062 H 
ATOM     51  H   LIG d   1       9.195  -2.809  -2.961  0.00  0.00     0.064 H 
ATOM     52  C   LIG d   1      10.262  -8.349  -1.860  0.00  0.00    -0.061 A 
ATOM     53  H   LIG d   1      10.896  -6.644  -0.771  0.00  0.00     0.062 H 
ATOM     54  C   LIG d   1       9.553  -8.842  -2.954  0.00  0.00    -0.061 A 
ATOM     55  H   LIG d   1      10.753  -9.039  -1.190  0.00  0.00     0.062 H 
ATOM     56  H   LIG d   1       9.503  -9.908  -3.119  0.00  0.00     0.062 H 
ATOM     57  H   LIG d   1       8.375  -8.397  -4.660  0.00  0.00     0.062 H 
ENDBRANCH  39  41
ENDBRANCH   1  39
TORSDOF 7
ENDMDL
