MODEL 1
REMARK VINA RESULT:      -7.8      0.000      0.000
REMARK  6 active torsions:
REMARK  status: ('A' for Active; 'I' for Inactive)
REMARK    1  A    between atoms: C_1  and  C_2 
REMARK    2  A    between atoms: C_2  and  C_4 
REMARK    3  A    between atoms: C_6  and  C_31 
REMARK    4  A    between atoms: C_24  and  O_29 
REMARK    5  A    between atoms: O_29  and  C_30 
REMARK    6  A    between atoms: C_31  and  C_33 
ROOT
ATOM      1  C   LIG d   1       5.645  -4.038  -5.982  0.00  0.00     0.093 C 
ATOM      2  H   LIG d   1       5.023  -4.582  -5.419  0.00  0.00     0.059 H 
ATOM      3  C   LIG d   1       5.333  -2.519  -5.861  0.00  0.00     0.067 C 
ATOM      4  H   LIG d   1       4.375  -2.395  -5.602  0.00  0.00     0.042 H 
ATOM      5  C   LIG d   1       6.306  -2.006  -4.780  0.00  0.00     0.108 A 
ATOM      6  C   LIG d   1       5.581  -1.319  -3.674  0.00  0.00    -0.008 A 
ATOM      7  C   LIG d   1       4.616  -1.757  -2.793  0.00  0.00    -0.056 A 
ATOM      8  C   LIG d   1       4.144  -0.836  -1.863  0.00  0.00    -0.061 A 
ATOM      9  C   LIG d   1       4.622   0.457  -1.825  0.00  0.00    -0.060 A 
ATOM     10  C   LIG d   1       5.593   0.905  -2.707  0.00  0.00    -0.040 A 
ATOM     11  C   LIG d   1       6.075  -0.008  -3.645  0.00  0.00     0.038 A 
ATOM     12  N   LIG d   1       7.032   0.168  -4.632  0.00  0.00    -0.284 N 
ATOM     13  C   LIG d   1       7.231  -0.960  -5.350  0.00  0.00     0.231 A 
ATOM     14  O   LIG d   1       8.004  -1.103  -6.273  0.00  0.00    -0.274 OA
ATOM     15  C   LIG d   1       7.062  -3.240  -4.314  0.00  0.00     0.062 C 
ATOM     16  H   LIG d   1       6.532  -3.705  -3.482  0.00  0.00     0.056 H 
ATOM     17  N   LIG d   1       7.028  -4.142  -5.499  0.00  0.00    -0.311 NA
ATOM     18  C   LIG d   1       7.512  -5.381  -5.142  0.00  0.00     0.038 A 
ATOM     19  C   LIG d   1       6.924  -6.570  -5.521  0.00  0.00    -0.037 A 
ATOM     20  C   LIG d   1       7.464  -7.773  -5.103  0.00  0.00    -0.018 A 
ATOM     21  C   LIG d   1       8.598  -7.794  -4.303  0.00  0.00     0.121 A 
ATOM     22  C   LIG d   1       9.204  -6.609  -3.917  0.00  0.00    -0.011 A 
ATOM     23  C   LIG d   1       8.669  -5.396  -4.333  0.00  0.00    -0.001 A 
ATOM     24  C   LIG d   1       9.288  -4.104  -3.955  0.00  0.00    -0.055 C 
ATOM     25  C   LIG d   1       8.495  -3.017  -3.939  0.00  0.00    -0.062 C 
ATOM     26  H   LIG d   1       4.243  -2.770  -2.823  0.00  0.00     0.062 H 
ATOM     27  H   LIG d   1       3.386  -1.141  -1.156  0.00  0.00     0.062 H 
ATOM     28  H   LIG d   1       4.227   1.140  -1.088  0.00  0.00     0.062 H 
ATOM     29  H   LIG d   1       5.962   1.920  -2.669  0.00  0.00     0.064 H 
ATOM     30  H   LIG d   1       7.503   1.001  -4.788  0.00  0.00     0.155 HD
ATOM     31  H   LIG d   1       6.041  -6.562  -6.145  0.00  0.00     0.064 H 
ATOM     32  H   LIG d   1       7.001  -8.702  -5.402  0.00  0.00     0.066 H 
ATOM     33  H   LIG d   1      10.086  -6.628  -3.295  0.00  0.00     0.066 H 
ATOM     34  H   LIG d   1      10.336  -4.037  -3.701  0.00  0.00     0.062 H 
ATOM     35  H   LIG d   1       8.870  -2.040  -3.671  0.00  0.00     0.059 H 
ENDROOT
BRANCH   3  36
ATOM     36  C   LIG d   1       5.591  -1.824  -7.174  0.00  0.00     0.170 C 
ATOM     37  O   LIG d   1       6.551  -2.136  -7.847  0.00  0.00    -0.292 OA
BRANCH  36  38
ATOM     38  C   LIG d   1       4.680  -0.768  -7.638  0.00  0.00     0.018 A 
ATOM     39  C   LIG d   1       3.681  -0.279  -6.788  0.00  0.00    -0.049 A 
ATOM     40  C   LIG d   1       2.831   0.711  -7.228  0.00  0.00    -0.026 A 
ATOM     41  H   LIG d   1       3.578  -0.677  -5.789  0.00  0.00     0.062 H 
ATOM     42  C   LIG d   1       2.961   1.223  -8.511  0.00  0.00     0.123 A 
ATOM     43  H   LIG d   1       2.059   1.090  -6.573  0.00  0.00     0.065 H 
ATOM     44  C   LIG d   1       3.950   0.742  -9.358  0.00  0.00    -0.026 A 
ATOM     45  F   LIG d   1       2.124   2.195  -8.936  0.00  0.00    -0.205 F 
ATOM     46  C   LIG d   1       4.810  -0.243  -8.928  0.00  0.00    -0.049 A 
ATOM     47  H   LIG d   1       4.047   1.145 -10.355  0.00  0.00     0.065 H 
ATOM     48  H   LIG d   1       5.581  -0.614  -9.588  0.00  0.00     0.062 H 
ENDBRANCH  36  38
ENDBRANCH   3  36
BRANCH   1  49
ATOM     49  C   LIG d   1       5.549  -4.488  -7.416  0.00  0.00     0.151 C 
ATOM     50  O   LIG d   1       6.553  -4.695  -8.053  0.00  0.00    -0.296 OA
BRANCH  49  51
ATOM     51  C   LIG d   1       4.197  -4.681  -8.056  0.00  0.00    -0.004 C 
ATOM     52  H   LIG d   1       3.838  -5.581  -7.812  0.00  0.00     0.031 H 
ATOM     53  H   LIG d   1       3.514  -3.908  -7.704  0.00  0.00     0.031 H 
ATOM     54  H   LIG d   1       4.296  -4.611  -9.140  0.00  0.00     0.031 H 
ENDBRANCH  49  51
ENDBRANCH   1  49
BRANCH  21  55
ATOM     55  O   LIG d   1       9.121  -8.983  -3.901  0.00  0.00    -0.495 OA
BRANCH  55  56
ATOM     56  C   LIG d   1       9.186  -9.221  -2.493  0.00  0.00     0.079 C 
ATOM     57  H   LIG d   1       8.333  -8.749  -2.006  0.00  0.00     0.066 H 
ATOM     58  H   LIG d   1       9.163 -10.295  -2.305  0.00  0.00     0.066 H 
ATOM     59  H   LIG d   1      10.110  -8.803  -2.096  0.00  0.00     0.066 H 
ENDBRANCH  55  56
ENDBRANCH  21  55
TORSDOF 6
ENDMDL
MODEL 2
REMARK VINA RESULT:      -7.3      1.498      1.946
REMARK  6 active torsions:
REMARK  status: ('A' for Active; 'I' for Inactive)
REMARK    1  A    between atoms: C_1  and  C_2 
REMARK    2  A    between atoms: C_2  and  C_4 
REMARK    3  A    between atoms: C_6  and  C_31 
REMARK    4  A    between atoms: C_24  and  O_29 
REMARK    5  A    between atoms: O_29  and  C_30 
REMARK    6  A    between atoms: C_31  and  C_33 
ROOT
ATOM      1  C   LIG d   1       4.403  -4.797  -6.480  0.00  0.00     0.093 C 
ATOM      2  H   LIG d   1       3.734  -5.201  -5.857  0.00  0.00     0.059 H 
ATOM      3  C   LIG d   1       4.468  -3.252  -6.315  0.00  0.00     0.067 C 
ATOM      4  H   LIG d   1       3.599  -2.919  -5.951  0.00  0.00     0.042 H 
ATOM      5  C   LIG d   1       5.643  -3.014  -5.343  0.00  0.00     0.108 A 
ATOM      6  C   LIG d   1       5.219  -2.214  -4.159  0.00  0.00    -0.008 A 
ATOM      7  C   LIG d   1       4.276  -2.447  -3.180  0.00  0.00    -0.056 A 
ATOM      8  C   LIG d   1       4.132  -1.473  -2.197  0.00  0.00    -0.061 A 
ATOM      9  C   LIG d   1       4.899  -0.327  -2.203  0.00  0.00    -0.060 A 
ATOM     10  C   LIG d   1       5.850  -0.086  -3.182  0.00  0.00    -0.040 A 
ATOM     11  C   LIG d   1       6.005  -1.055  -4.175  0.00  0.00     0.038 A 
ATOM     12  N   LIG d   1       6.867  -1.072  -5.259  0.00  0.00    -0.284 N 
ATOM     13  C   LIG d   1       6.721  -2.192  -6.003  0.00  0.00     0.231 A 
ATOM     14  O   LIG d   1       7.338  -2.478  -7.006  0.00  0.00    -0.274 OA
ATOM     15  C   LIG d   1       6.135  -4.403  -4.973  0.00  0.00     0.062 C 
ATOM     16  H   LIG d   1       5.601  -4.760  -4.091  0.00  0.00     0.056 H 
ATOM     17  N   LIG d   1       5.767  -5.234  -6.153  0.00  0.00    -0.311 NA
ATOM     18  C   LIG d   1       5.983  -6.562  -5.860  0.00  0.00     0.038 A 
ATOM     19  C   LIG d   1       5.097  -7.570  -6.182  0.00  0.00    -0.037 A 
ATOM     20  C   LIG d   1       5.383  -8.878  -5.835  0.00  0.00    -0.018 A 
ATOM     21  C   LIG d   1       6.558  -9.187  -5.164  0.00  0.00     0.121 A 
ATOM     22  C   LIG d   1       7.461  -8.188  -4.838  0.00  0.00    -0.011 A 
ATOM     23  C   LIG d   1       7.183  -6.871  -5.184  0.00  0.00    -0.001 A 
ATOM     24  C   LIG d   1       8.123  -5.770  -4.866  0.00  0.00    -0.055 C 
ATOM     25  C   LIG d   1       7.611  -4.530  -4.755  0.00  0.00    -0.062 C 
ATOM     26  H   LIG d   1       3.676  -3.344  -3.177  0.00  0.00     0.062 H 
ATOM     27  H   LIG d   1       3.402  -1.617  -1.414  0.00  0.00     0.062 H 
ATOM     28  H   LIG d   1       4.755   0.405  -1.422  0.00  0.00     0.062 H 
ATOM     29  H   LIG d   1       6.447   0.814  -3.177  0.00  0.00     0.064 H 
ATOM     30  H   LIG d   1       7.501  -0.366  -5.460  0.00  0.00     0.155 HD
ATOM     31  H   LIG d   1       4.180  -7.338  -6.705  0.00  0.00     0.064 H 
ATOM     32  H   LIG d   1       4.687  -9.664  -6.088  0.00  0.00     0.066 H 
ATOM     33  H   LIG d   1       8.375  -8.430  -4.317  0.00  0.00     0.066 H 
ATOM     34  H   LIG d   1       9.178  -5.955  -4.728  0.00  0.00     0.062 H 
ATOM     35  H   LIG d   1       8.229  -3.676  -4.522  0.00  0.00     0.059 H 
ENDROOT
BRANCH   3  36
ATOM     36  C   LIG d   1       4.742  -2.593  -7.643  0.00  0.00     0.170 C 
ATOM     37  O   LIG d   1       5.533  -3.091  -8.416  0.00  0.00    -0.292 OA
BRANCH  36  38
ATOM     38  C   LIG d   1       4.052  -1.345  -8.000  0.00  0.00     0.018 A 
ATOM     39  C   LIG d   1       3.854  -1.012  -9.345  0.00  0.00    -0.049 A 
ATOM     40  C   LIG d   1       3.206   0.158  -9.673  0.00  0.00    -0.026 A 
ATOM     41  H   LIG d   1       4.208  -1.672 -10.123  0.00  0.00     0.062 H 
ATOM     42  C   LIG d   1       2.750   1.007  -8.675  0.00  0.00     0.123 A 
ATOM     43  H   LIG d   1       3.052   0.416 -10.711  0.00  0.00     0.065 H 
ATOM     44  C   LIG d   1       2.944   0.682  -7.339  0.00  0.00    -0.026 A 
ATOM     45  F   LIG d   1       2.114   2.153  -9.003  0.00  0.00    -0.205 F 
ATOM     46  C   LIG d   1       3.585  -0.488  -6.998  0.00  0.00    -0.049 A 
ATOM     47  H   LIG d   1       2.586   1.346  -6.566  0.00  0.00     0.065 H 
ATOM     48  H   LIG d   1       3.731  -0.741  -5.958  0.00  0.00     0.062 H 
ENDBRANCH  36  38
ENDBRANCH   3  36
BRANCH   1  49
ATOM     49  C   LIG d   1       4.055  -5.165  -7.898  0.00  0.00     0.151 C 
ATOM     50  O   LIG d   1       2.913  -5.075  -8.283  0.00  0.00    -0.296 OA
BRANCH  49  51
ATOM     51  C   LIG d   1       5.130  -5.647  -8.839  0.00  0.00    -0.004 C 
ATOM     52  H   LIG d   1       5.792  -6.200  -8.333  0.00  0.00     0.031 H 
ATOM     53  H   LIG d   1       4.680  -6.250  -9.627  0.00  0.00     0.031 H 
ATOM     54  H   LIG d   1       5.636  -4.789  -9.282  0.00  0.00     0.031 H 
ENDBRANCH  49  51
ENDBRANCH   1  49
BRANCH  21  55
ATOM     55  O   LIG d   1       6.828 -10.478  -4.831  0.00  0.00    -0.495 OA
BRANCH  55  56
ATOM     56  C   LIG d   1       6.140 -11.013  -3.699  0.00  0.00     0.079 C 
ATOM     57  H   LIG d   1       6.360 -12.077  -3.611  0.00  0.00     0.066 H 
ATOM     58  H   LIG d   1       6.470 -10.498  -2.797  0.00  0.00     0.066 H 
ATOM     59  H   LIG d   1       5.067 -10.873  -3.826  0.00  0.00     0.066 H 
ENDBRANCH  55  56
ENDBRANCH  21  55
TORSDOF 6
ENDMDL
MODEL 3
REMARK VINA RESULT:      -7.1      3.661      6.616
REMARK  6 active torsions:
REMARK  status: ('A' for Active; 'I' for Inactive)
REMARK    1  A    between atoms: C_1  and  C_2 
REMARK    2  A    between atoms: C_2  and  C_4 
REMARK    3  A    between atoms: C_6  and  C_31 
REMARK    4  A    between atoms: C_24  and  O_29 
REMARK    5  A    between atoms: O_29  and  C_30 
REMARK    6  A    between atoms: C_31  and  C_33 
ROOT
ATOM      1  C   LIG d   1       4.541   0.195  -8.182  0.00  0.00     0.093 C 
ATOM      2  H   LIG d   1       3.663   0.660  -8.061  0.00  0.00     0.059 H 
ATOM      3  C   LIG d   1       5.325   0.115  -6.841  0.00  0.00     0.067 C 
ATOM      4  H   LIG d   1       5.031   0.856  -6.238  0.00  0.00     0.042 H 
ATOM      5  C   LIG d   1       4.980  -1.278  -6.272  0.00  0.00     0.108 A 
ATOM      6  C   LIG d   1       4.423  -1.182  -4.893  0.00  0.00    -0.008 A 
ATOM      7  C   LIG d   1       3.305  -0.550  -4.394  0.00  0.00    -0.056 A 
ATOM      8  C   LIG d   1       3.071  -0.665  -3.027  0.00  0.00    -0.061 A 
ATOM      9  C   LIG d   1       3.920  -1.381  -2.211  0.00  0.00    -0.060 A 
ATOM     10  C   LIG d   1       5.046  -2.021  -2.705  0.00  0.00    -0.040 A 
ATOM     11  C   LIG d   1       5.293  -1.913  -4.074  0.00  0.00     0.038 A 
ATOM     12  N   LIG d   1       6.330  -2.444  -4.824  0.00  0.00    -0.284 N 
ATOM     13  C   LIG d   1       6.225  -2.118  -6.133  0.00  0.00     0.231 A 
ATOM     14  O   LIG d   1       6.985  -2.440  -7.021  0.00  0.00    -0.274 OA
ATOM     15  C   LIG d   1       3.999  -1.877  -7.267  0.00  0.00     0.062 C 
ATOM     16  H   LIG d   1       2.980  -1.613  -6.983  0.00  0.00     0.056 H 
ATOM     17  N   LIG d   1       4.351  -1.212  -8.553  0.00  0.00    -0.311 NA
ATOM     18  C   LIG d   1       3.402  -1.524  -9.500  0.00  0.00     0.038 A 
ATOM     19  C   LIG d   1       2.859  -0.602 -10.372  0.00  0.00    -0.037 A 
ATOM     20  C   LIG d   1       1.895  -0.995 -11.283  0.00  0.00    -0.018 A 
ATOM     21  C   LIG d   1       1.468  -2.315 -11.329  0.00  0.00     0.121 A 
ATOM     22  C   LIG d   1       2.006  -3.255 -10.464  0.00  0.00    -0.011 A 
ATOM     23  C   LIG d   1       2.975  -2.869  -9.547  0.00  0.00    -0.001 A 
ATOM     24  C   LIG d   1       3.587  -3.841  -8.610  0.00  0.00    -0.055 C 
ATOM     25  C   LIG d   1       4.102  -3.358  -7.463  0.00  0.00    -0.062 C 
ATOM     26  H   LIG d   1       2.640   0.011  -5.034  0.00  0.00     0.062 H 
ATOM     27  H   LIG d   1       2.206  -0.182  -2.598  0.00  0.00     0.062 H 
ATOM     28  H   LIG d   1       3.703  -1.444  -1.155  0.00  0.00     0.062 H 
ATOM     29  H   LIG d   1       5.705  -2.581  -2.057  0.00  0.00     0.064 H 
ATOM     30  H   LIG d   1       7.045  -2.985  -4.456  0.00  0.00     0.155 HD
ATOM     31  H   LIG d   1       3.188   0.427 -10.343  0.00  0.00     0.064 H 
ATOM     32  H   LIG d   1       1.473  -0.270 -11.963  0.00  0.00     0.066 H 
ATOM     33  H   LIG d   1       1.672  -4.281 -10.502  0.00  0.00     0.066 H 
ATOM     34  H   LIG d   1       3.619  -4.896  -8.837  0.00  0.00     0.062 H 
ATOM     35  H   LIG d   1       4.561  -4.002  -6.728  0.00  0.00     0.059 H 
ENDROOT
BRANCH   3  36
ATOM     36  C   LIG d   1       6.807   0.229  -7.092  0.00  0.00     0.170 C 
ATOM     37  O   LIG d   1       7.321  -0.404  -7.990  0.00  0.00    -0.292 OA
BRANCH  36  38
ATOM     38  C   LIG d   1       7.630   1.106  -6.246  0.00  0.00     0.018 A 
ATOM     39  C   LIG d   1       8.511   2.022  -6.833  0.00  0.00    -0.049 A 
ATOM     40  C   LIG d   1       9.278   2.841  -6.035  0.00  0.00    -0.026 A 
ATOM     41  H   LIG d   1       8.587   2.087  -7.908  0.00  0.00     0.062 H 
ATOM     42  C   LIG d   1       9.182   2.760  -4.654  0.00  0.00     0.123 A 
ATOM     43  H   LIG d   1       9.958   3.550  -6.487  0.00  0.00     0.065 H 
ATOM     44  C   LIG d   1       8.311   1.852  -4.067  0.00  0.00    -0.026 A 
ATOM     45  F   LIG d   1       9.937   3.566  -3.877  0.00  0.00    -0.205 F 
ATOM     46  C   LIG d   1       7.533   1.032  -4.853  0.00  0.00    -0.049 A 
ATOM     47  H   LIG d   1       8.240   1.794  -2.991  0.00  0.00     0.065 H 
ATOM     48  H   LIG d   1       6.853   0.329  -4.394  0.00  0.00     0.062 H 
ENDBRANCH  36  38
ENDBRANCH   3  36
BRANCH   1  49
ATOM     49  C   LIG d   1       5.351   0.915  -9.228  0.00  0.00     0.151 C 
ATOM     50  O   LIG d   1       5.909   0.289 -10.097  0.00  0.00    -0.296 OA
BRANCH  49  51
ATOM     51  C   LIG d   1       5.466   2.418  -9.191  0.00  0.00    -0.004 C 
ATOM     52  H   LIG d   1       6.412   2.684  -9.372  0.00  0.00     0.031 H 
ATOM     53  H   LIG d   1       4.815   2.851  -9.950  0.00  0.00     0.031 H 
ATOM     54  H   LIG d   1       5.168   2.781  -8.207  0.00  0.00     0.031 H 
ENDBRANCH  49  51
ENDBRANCH   1  49
BRANCH  21  55
ATOM     55  O   LIG d   1       0.521  -2.689 -12.231  0.00  0.00    -0.495 OA
BRANCH  55  56
ATOM     56  C   LIG d   1      -0.198  -3.892 -11.956  0.00  0.00     0.079 C 
ATOM     57  H   LIG d   1       0.477  -4.625 -11.513  0.00  0.00     0.066 H 
ATOM     58  H   LIG d   1      -1.010  -3.679 -11.260  0.00  0.00     0.066 H 
ATOM     59  H   LIG d   1      -0.609  -4.290 -12.883  0.00  0.00     0.066 H 
ENDBRANCH  55  56
ENDBRANCH  21  55
TORSDOF 6
ENDMDL
MODEL 4
REMARK VINA RESULT:      -7.0      3.238      5.024
REMARK  6 active torsions:
REMARK  status: ('A' for Active; 'I' for Inactive)
REMARK    1  A    between atoms: C_1  and  C_2 
REMARK    2  A    between atoms: C_2  and  C_4 
REMARK    3  A    between atoms: C_6  and  C_31 
REMARK    4  A    between atoms: C_24  and  O_29 
REMARK    5  A    between atoms: O_29  and  C_30 
REMARK    6  A    between atoms: C_31  and  C_33 
ROOT
ATOM      1  C   LIG d   1       5.605  -1.065  -7.546  0.00  0.00     0.093 C 
ATOM      2  H   LIG d   1       4.705  -0.759  -7.856  0.00  0.00     0.059 H 
ATOM      3  C   LIG d   1       6.118  -0.200  -6.360  0.00  0.00     0.067 C 
ATOM      4  H   LIG d   1       5.687   0.702  -6.395  0.00  0.00     0.042 H 
ATOM      5  C   LIG d   1       5.721  -0.994  -5.098  0.00  0.00     0.108 A 
ATOM      6  C   LIG d   1       4.905  -0.166  -4.166  0.00  0.00    -0.008 A 
ATOM      7  C   LIG d   1       3.689   0.465  -4.318  0.00  0.00    -0.056 A 
ATOM      8  C   LIG d   1       3.200   1.169  -3.222  0.00  0.00    -0.061 A 
ATOM      9  C   LIG d   1       3.902   1.230  -2.037  0.00  0.00    -0.060 A 
ATOM     10  C   LIG d   1       5.124   0.598  -1.875  0.00  0.00    -0.040 A 
ATOM     11  C   LIG d   1       5.627  -0.112  -2.966  0.00  0.00     0.038 A 
ATOM     12  N   LIG d   1       6.807  -0.827  -3.081  0.00  0.00    -0.284 N 
ATOM     13  C   LIG d   1       6.945  -1.382  -4.307  0.00  0.00     0.231 A 
ATOM     14  O   LIG d   1       7.873  -2.059  -4.694  0.00  0.00    -0.274 OA
ATOM     15  C   LIG d   1       4.973  -2.210  -5.619  0.00  0.00     0.062 C 
ATOM     16  H   LIG d   1       3.908  -1.983  -5.695  0.00  0.00     0.056 H 
ATOM     17  N   LIG d   1       5.542  -2.419  -6.980  0.00  0.00    -0.311 NA
ATOM     18  C   LIG d   1       4.805  -3.377  -7.639  0.00  0.00     0.038 A 
ATOM     19  C   LIG d   1       4.408  -3.265  -8.955  0.00  0.00    -0.037 A 
ATOM     20  C   LIG d   1       3.653  -4.267  -9.538  0.00  0.00    -0.018 A 
ATOM     21  C   LIG d   1       3.290  -5.390  -8.806  0.00  0.00     0.121 A 
ATOM     22  C   LIG d   1       3.685  -5.520  -7.484  0.00  0.00    -0.011 A 
ATOM     23  C   LIG d   1       4.444  -4.520  -6.891  0.00  0.00    -0.001 A 
ATOM     24  C   LIG d   1       4.899  -4.620  -5.484  0.00  0.00    -0.055 C 
ATOM     25  C   LIG d   1       5.165  -3.472  -4.835  0.00  0.00    -0.062 C 
ATOM     26  H   LIG d   1       3.141   0.416  -5.247  0.00  0.00     0.062 H 
ATOM     27  H   LIG d   1       2.252   1.679  -3.303  0.00  0.00     0.062 H 
ATOM     28  H   LIG d   1       3.487   1.789  -1.210  0.00  0.00     0.062 H 
ATOM     29  H   LIG d   1       5.666   0.651  -0.941  0.00  0.00     0.064 H 
ATOM     30  H   LIG d   1       7.457  -0.921  -2.367  0.00  0.00     0.155 HD
ATOM     31  H   LIG d   1       4.686  -2.395  -9.532  0.00  0.00     0.064 H 
ATOM     32  H   LIG d   1       3.343  -4.176 -10.568  0.00  0.00     0.066 H 
ATOM     33  H   LIG d   1       3.402  -6.395  -6.917  0.00  0.00     0.066 H 
ATOM     34  H   LIG d   1       5.012  -5.578  -4.999  0.00  0.00     0.062 H 
ATOM     35  H   LIG d   1       5.497  -3.461  -3.807  0.00  0.00     0.059 H 
ENDROOT
BRANCH   3  36
ATOM     36  C   LIG d   1       7.616  -0.043  -6.434  0.00  0.00     0.170 C 
ATOM     37  O   LIG d   1       8.315  -1.004  -6.678  0.00  0.00    -0.292 OA
BRANCH  36  38
ATOM     38  C   LIG d   1       8.229   1.274  -6.209  0.00  0.00     0.018 A 
ATOM     39  C   LIG d   1       8.880   1.934  -7.257  0.00  0.00    -0.049 A 
ATOM     40  C   LIG d   1       9.452   3.168  -7.040  0.00  0.00    -0.026 A 
ATOM     41  H   LIG d   1       8.933   1.477  -8.234  0.00  0.00     0.062 H 
ATOM     42  C   LIG d   1       9.384   3.757  -5.785  0.00  0.00     0.123 A 
ATOM     43  H   LIG d   1       9.955   3.679  -7.848  0.00  0.00     0.065 H 
ATOM     44  C   LIG d   1       8.740   3.107  -4.742  0.00  0.00    -0.026 A 
ATOM     45  F   LIG d   1       9.947   4.968  -5.579  0.00  0.00    -0.205 F 
ATOM     46  C   LIG d   1       8.159   1.876  -4.948  0.00  0.00    -0.049 A 
ATOM     47  H   LIG d   1       8.690   3.570  -3.768  0.00  0.00     0.065 H 
ATOM     48  H   LIG d   1       7.655   1.373  -4.135  0.00  0.00     0.062 H 
ENDBRANCH  36  38
ENDBRANCH   3  36
BRANCH   1  49
ATOM     49  C   LIG d   1       6.575  -1.018  -8.697  0.00  0.00     0.151 C 
ATOM     50  O   LIG d   1       7.335  -1.937  -8.886  0.00  0.00    -0.296 OA
BRANCH  49  51
ATOM     51  C   LIG d   1       6.598   0.179  -9.615  0.00  0.00    -0.004 C 
ATOM     52  H   LIG d   1       5.693   0.305 -10.020  0.00  0.00     0.031 H 
ATOM     53  H   LIG d   1       6.869   1.068  -9.046  0.00  0.00     0.031 H 
ATOM     54  H   LIG d   1       7.331   0.016 -10.406  0.00  0.00     0.031 H 
ENDBRANCH  49  51
ENDBRANCH   1  49
BRANCH  21  55
ATOM     55  O   LIG d   1       2.550  -6.369  -9.391  0.00  0.00    -0.495 OA
BRANCH  55  56
ATOM     56  C   LIG d   1       1.406  -5.957 -10.142  0.00  0.00     0.079 C 
ATOM     57  H   LIG d   1       1.686  -5.145 -10.813  0.00  0.00     0.066 H 
ATOM     58  H   LIG d   1       1.034  -6.799 -10.727  0.00  0.00     0.066 H 
ATOM     59  H   LIG d   1       0.628  -5.616  -9.461  0.00  0.00     0.066 H 
ENDBRANCH  55  56
ENDBRANCH  21  55
TORSDOF 6
ENDMDL
MODEL 5
REMARK VINA RESULT:      -6.8      3.404      6.265
REMARK  6 active torsions:
REMARK  status: ('A' for Active; 'I' for Inactive)
REMARK    1  A    between atoms: C_1  and  C_2 
REMARK    2  A    between atoms: C_2  and  C_4 
REMARK    3  A    between atoms: C_6  and  C_31 
REMARK    4  A    between atoms: C_24  and  O_29 
REMARK    5  A    between atoms: O_29  and  C_30 
REMARK    6  A    between atoms: C_31  and  C_33 
ROOT
ATOM      1  C   LIG d   1       6.598   0.134  -7.912  0.00  0.00     0.093 C 
ATOM      2  H   LIG d   1       7.445  -0.264  -8.265  0.00  0.00     0.059 H 
ATOM      3  C   LIG d   1       5.512  -0.957  -7.689  0.00  0.00     0.067 C 
ATOM      4  H   LIG d   1       5.693  -1.735  -8.290  0.00  0.00     0.042 H 
ATOM      5  C   LIG d   1       5.634  -1.327  -6.196  0.00  0.00     0.108 A 
ATOM      6  C   LIG d   1       5.850  -2.790  -6.011  0.00  0.00    -0.008 A 
ATOM      7  C   LIG d   1       6.848  -3.636  -6.444  0.00  0.00    -0.056 A 
ATOM      8  C   LIG d   1       6.742  -4.976  -6.085  0.00  0.00    -0.061 A 
ATOM      9  C   LIG d   1       5.684  -5.435  -5.330  0.00  0.00    -0.060 A 
ATOM     10  C   LIG d   1       4.676  -4.592  -4.890  0.00  0.00    -0.040 A 
ATOM     11  C   LIG d   1       4.770  -3.245  -5.243  0.00  0.00     0.038 A 
ATOM     12  N   LIG d   1       3.916  -2.196  -4.943  0.00  0.00    -0.284 N 
ATOM     13  C   LIG d   1       4.349  -1.027  -5.467  0.00  0.00     0.231 A 
ATOM     14  O   LIG d   1       3.807   0.053  -5.369  0.00  0.00    -0.274 OA
ATOM     15  C   LIG d   1       6.791  -0.489  -5.677  0.00  0.00     0.062 C 
ATOM     16  H   LIG d   1       7.725  -1.039  -5.791  0.00  0.00     0.056 H 
ATOM     17  N   LIG d   1       6.794   0.702  -6.573  0.00  0.00    -0.311 NA
ATOM     18  C   LIG d   1       7.924   1.450  -6.330  0.00  0.00     0.038 A 
ATOM     19  C   LIG d   1       8.709   1.994  -7.327  0.00  0.00    -0.037 A 
ATOM     20  C   LIG d   1       9.840   2.719  -6.998  0.00  0.00    -0.018 A 
ATOM     21  C   LIG d   1      10.193   2.906  -5.668  0.00  0.00     0.121 A 
ATOM     22  C   LIG d   1       9.414   2.370  -4.656  0.00  0.00    -0.011 A 
ATOM     23  C   LIG d   1       8.275   1.642  -4.976  0.00  0.00    -0.001 A 
ATOM     24  C   LIG d   1       7.405   1.060  -3.928  0.00  0.00    -0.055 C 
ATOM     25  C   LIG d   1       6.658  -0.009  -4.264  0.00  0.00    -0.062 C 
ATOM     26  H   LIG d   1       7.677  -3.275  -7.035  0.00  0.00     0.062 H 
ATOM     27  H   LIG d   1       7.504  -5.670  -6.406  0.00  0.00     0.062 H 
ATOM     28  H   LIG d   1       5.639  -6.484  -5.074  0.00  0.00     0.062 H 
ATOM     29  H   LIG d   1       3.851  -4.961  -4.297  0.00  0.00     0.064 H 
ATOM     30  H   LIG d   1       3.105  -2.289  -4.420  0.00  0.00     0.155 HD
ATOM     31  H   LIG d   1       8.440   1.854  -8.364  0.00  0.00     0.064 H 
ATOM     32  H   LIG d   1      10.451   3.143  -7.780  0.00  0.00     0.066 H 
ATOM     33  H   LIG d   1       9.691   2.517  -3.622  0.00  0.00     0.066 H 
ATOM     34  H   LIG d   1       7.371   1.476  -2.932  0.00  0.00     0.062 H 
ATOM     35  H   LIG d   1       6.001  -0.492  -3.556  0.00  0.00     0.059 H 
ENDROOT
BRANCH   3  36
ATOM     36  C   LIG d   1       4.141  -0.402  -7.983  0.00  0.00     0.170 C 
ATOM     37  O   LIG d   1       3.820   0.683  -7.547  0.00  0.00    -0.292 OA
BRANCH  36  38
ATOM     38  C   LIG d   1       3.195  -1.178  -8.798  0.00  0.00     0.018 A 
ATOM     39  C   LIG d   1       3.361  -2.560  -8.944  0.00  0.00    -0.049 A 
ATOM     40  C   LIG d   1       2.471  -3.281  -9.707  0.00  0.00    -0.026 A 
ATOM     41  H   LIG d   1       4.186  -3.060  -8.457  0.00  0.00     0.062 H 
ATOM     42  C   LIG d   1       1.410  -2.641 -10.332  0.00  0.00     0.123 A 
ATOM     43  H   LIG d   1       2.597  -4.348  -9.820  0.00  0.00     0.065 H 
ATOM     44  C   LIG d   1       1.240  -1.271 -10.192  0.00  0.00    -0.026 A 
ATOM     45  F   LIG d   1       0.540  -3.354 -11.080  0.00  0.00    -0.205 F 
ATOM     46  C   LIG d   1       2.120  -0.539  -9.426  0.00  0.00    -0.049 A 
ATOM     47  H   LIG d   1       0.413  -0.778 -10.681  0.00  0.00     0.065 H 
ATOM     48  H   LIG d   1       1.984   0.527  -9.315  0.00  0.00     0.062 H 
ENDBRANCH  36  38
ENDBRANCH   3  36
BRANCH   1  49
ATOM     49  C   LIG d   1       6.102   1.188  -8.867  0.00  0.00     0.151 C 
ATOM     50  O   LIG d   1       5.873   2.305  -8.469  0.00  0.00    -0.296 OA
BRANCH  49  51
ATOM     51  C   LIG d   1       5.892   0.850 -10.321  0.00  0.00    -0.004 C 
ATOM     52  H   LIG d   1       5.023   0.369 -10.429  0.00  0.00     0.031 H 
ATOM     53  H   LIG d   1       5.876   1.768 -10.910  0.00  0.00     0.031 H 
ATOM     54  H   LIG d   1       6.706   0.212 -10.667  0.00  0.00     0.031 H 
ENDBRANCH  49  51
ENDBRANCH   1  49
BRANCH  21  55
ATOM     55  O   LIG d   1      11.306   3.623  -5.358  0.00  0.00    -0.495 OA
BRANCH  55  56
ATOM     56  C   LIG d   1      11.803   3.506  -4.023  0.00  0.00     0.079 C 
ATOM     57  H   LIG d   1      11.862   4.496  -3.570  0.00  0.00     0.066 H 
ATOM     58  H   LIG d   1      11.129   2.879  -3.439  0.00  0.00     0.066 H 
ATOM     59  H   LIG d   1      12.794   3.055  -4.042  0.00  0.00     0.066 H 
ENDBRANCH  55  56
ENDBRANCH  21  55
TORSDOF 6
ENDMDL
MODEL 6
REMARK VINA RESULT:      -6.8      3.276      7.123
REMARK  6 active torsions:
REMARK  status: ('A' for Active; 'I' for Inactive)
REMARK    1  A    between atoms: C_1  and  C_2 
REMARK    2  A    between atoms: C_2  and  C_4 
REMARK    3  A    between atoms: C_6  and  C_31 
REMARK    4  A    between atoms: C_24  and  O_29 
REMARK    5  A    between atoms: O_29  and  C_30 
REMARK    6  A    between atoms: C_31  and  C_33 
ROOT
ATOM      1  C   LIG d   1       5.609  -2.570  -7.598  0.00  0.00     0.093 C 
ATOM      2  H   LIG d   1       6.088  -2.251  -8.416  0.00  0.00     0.059 H 
ATOM      3  C   LIG d   1       6.406  -2.227  -6.308  0.00  0.00     0.067 C 
ATOM      4  H   LIG d   1       7.377  -2.137  -6.529  0.00  0.00     0.042 H 
ATOM      5  C   LIG d   1       5.791  -0.902  -5.812  0.00  0.00     0.108 A 
ATOM      6  C   LIG d   1       6.829   0.155  -5.647  0.00  0.00    -0.008 A 
ATOM      7  C   LIG d   1       7.703   0.735  -6.541  0.00  0.00    -0.056 A 
ATOM      8  C   LIG d   1       8.557   1.715  -6.045  0.00  0.00    -0.061 A 
ATOM      9  C   LIG d   1       8.530   2.087  -4.717  0.00  0.00    -0.060 A 
ATOM     10  C   LIG d   1       7.654   1.509  -3.812  0.00  0.00    -0.040 A 
ATOM     11  C   LIG d   1       6.791   0.525  -4.296  0.00  0.00     0.038 A 
ATOM     12  N   LIG d   1       5.828  -0.208  -3.622  0.00  0.00    -0.284 N 
ATOM     13  C   LIG d   1       5.189  -1.075  -4.440  0.00  0.00     0.231 A 
ATOM     14  O   LIG d   1       4.304  -1.843  -4.129  0.00  0.00    -0.274 OA
ATOM     15  C   LIG d   1       4.742  -0.542  -6.851  0.00  0.00     0.062 C 
ATOM     16  H   LIG d   1       5.192   0.070  -7.633  0.00  0.00     0.056 H 
ATOM     17  N   LIG d   1       4.337  -1.861  -7.414  0.00  0.00    -0.311 NA
ATOM     18  C   LIG d   1       3.528  -1.658  -8.510  0.00  0.00     0.038 A 
ATOM     19  C   LIG d   1       3.650  -2.361  -9.691  0.00  0.00    -0.037 A 
ATOM     20  C   LIG d   1       2.808  -2.083 -10.752  0.00  0.00    -0.018 A 
ATOM     21  C   LIG d   1       1.835  -1.099 -10.638  0.00  0.00     0.121 A 
ATOM     22  C   LIG d   1       1.696  -0.386  -9.458  0.00  0.00    -0.011 A 
ATOM     23  C   LIG d   1       2.537  -0.660  -8.386  0.00  0.00    -0.001 A 
ATOM     24  C   LIG d   1       2.418   0.067  -7.100  0.00  0.00    -0.055 C 
ATOM     25  C   LIG d   1       3.515   0.136  -6.323  0.00  0.00    -0.062 C 
ATOM     26  H   LIG d   1       7.723   0.443  -7.580  0.00  0.00     0.062 H 
ATOM     27  H   LIG d   1       9.258   2.192  -6.714  0.00  0.00     0.062 H 
ATOM     28  H   LIG d   1       9.211   2.851  -4.372  0.00  0.00     0.062 H 
ATOM     29  H   LIG d   1       7.639   1.809  -2.773  0.00  0.00     0.064 H 
ATOM     30  H   LIG d   1       5.634  -0.111  -2.676  0.00  0.00     0.155 HD
ATOM     31  H   LIG d   1       4.404  -3.129  -9.787  0.00  0.00     0.064 H 
ATOM     32  H   LIG d   1       2.906  -2.635 -11.675  0.00  0.00     0.066 H 
ATOM     33  H   LIG d   1       0.938   0.378  -9.371  0.00  0.00     0.066 H 
ATOM     34  H   LIG d   1       1.488   0.526  -6.799  0.00  0.00     0.062 H 
ATOM     35  H   LIG d   1       3.511   0.651  -5.374  0.00  0.00     0.059 H 
ENDROOT
BRANCH   3  36
ATOM     36  C   LIG d   1       6.225  -3.310  -5.275  0.00  0.00     0.170 C 
ATOM     37  O   LIG d   1       5.115  -3.727  -5.022  0.00  0.00    -0.292 OA
BRANCH  36  38
ATOM     38  C   LIG d   1       7.395  -3.860  -4.574  0.00  0.00     0.018 A 
ATOM     39  C   LIG d   1       7.834  -5.159  -4.852  0.00  0.00    -0.049 A 
ATOM     40  C   LIG d   1       8.931  -5.668  -4.193  0.00  0.00    -0.026 A 
ATOM     41  H   LIG d   1       7.315  -5.761  -5.584  0.00  0.00     0.062 H 
ATOM     42  C   LIG d   1       9.599  -4.897  -3.253  0.00  0.00     0.123 A 
ATOM     43  H   LIG d   1       9.272  -6.670  -4.407  0.00  0.00     0.065 H 
ATOM     44  C   LIG d   1       9.168  -3.608  -2.973  0.00  0.00    -0.026 A 
ATOM     45  F   LIG d   1      10.675  -5.401  -2.610  0.00  0.00    -0.205 F 
ATOM     46  C   LIG d   1       8.076  -3.085  -3.629  0.00  0.00    -0.049 A 
ATOM     47  H   LIG d   1       9.693  -3.012  -2.240  0.00  0.00     0.065 H 
ATOM     48  H   LIG d   1       7.744  -2.080  -3.412  0.00  0.00     0.062 H 
ENDBRANCH  36  38
ENDBRANCH   3  36
BRANCH   1  49
ATOM     49  C   LIG d   1       5.377  -4.055  -7.700  0.00  0.00     0.151 C 
ATOM     50  O   LIG d   1       4.319  -4.527  -7.358  0.00  0.00    -0.296 OA
BRANCH  49  51
ATOM     51  C   LIG d   1       6.467  -4.954  -8.228  0.00  0.00    -0.004 C 
ATOM     52  H   LIG d   1       7.253  -4.400  -8.501  0.00  0.00     0.031 H 
ATOM     53  H   LIG d   1       6.768  -5.655  -7.451  0.00  0.00     0.031 H 
ATOM     54  H   LIG d   1       6.095  -5.506  -9.092  0.00  0.00     0.031 H 
ENDBRANCH  49  51
ENDBRANCH   1  49
BRANCH  21  55
ATOM     55  O   LIG d   1       1.011  -0.836 -11.688  0.00  0.00    -0.495 OA
BRANCH  55  56
ATOM     56  C   LIG d   1       0.542  -1.956 -12.440  0.00  0.00     0.079 C 
ATOM     57  H   LIG d   1      -0.492  -1.786 -12.739  0.00  0.00     0.066 H 
ATOM     58  H   LIG d   1       1.161  -2.081 -13.330  0.00  0.00     0.066 H 
ATOM     59  H   LIG d   1       0.601  -2.856 -11.829  0.00  0.00     0.066 H 
ENDBRANCH  55  56
ENDBRANCH  21  55
TORSDOF 6
ENDMDL
MODEL 7
REMARK VINA RESULT:      -6.4      3.311      5.375
REMARK  6 active torsions:
REMARK  status: ('A' for Active; 'I' for Inactive)
REMARK    1  A    between atoms: C_1  and  C_2 
REMARK    2  A    between atoms: C_2  and  C_4 
REMARK    3  A    between atoms: C_6  and  C_31 
REMARK    4  A    between atoms: C_24  and  O_29 
REMARK    5  A    between atoms: O_29  and  C_30 
REMARK    6  A    between atoms: C_31  and  C_33 
ROOT
ATOM      1  C   LIG d   1       8.481  -2.037  -5.729  0.00  0.00     0.093 C 
ATOM      2  H   LIG d   1       8.783  -2.520  -4.907  0.00  0.00     0.059 H 
ATOM      3  C   LIG d   1       6.937  -2.122  -5.898  0.00  0.00     0.067 C 
ATOM      4  H   LIG d   1       6.595  -2.937  -5.431  0.00  0.00     0.042 H 
ATOM      5  C   LIG d   1       6.404  -0.817  -5.270  0.00  0.00     0.108 A 
ATOM      6  C   LIG d   1       5.394  -1.093  -4.210  0.00  0.00    -0.008 A 
ATOM      7  C   LIG d   1       5.470  -1.794  -3.026  0.00  0.00    -0.056 A 
ATOM      8  C   LIG d   1       4.314  -1.857  -2.253  0.00  0.00    -0.061 A 
ATOM      9  C   LIG d   1       3.146  -1.245  -2.656  0.00  0.00    -0.060 A 
ATOM     10  C   LIG d   1       3.062  -0.537  -3.845  0.00  0.00    -0.040 A 
ATOM     11  C   LIG d   1       4.213  -0.466  -4.630  0.00  0.00     0.038 A 
ATOM     12  N   LIG d   1       4.409   0.165  -5.847  0.00  0.00    -0.284 N 
ATOM     13  C   LIG d   1       5.674   0.009  -6.299  0.00  0.00     0.231 A 
ATOM     14  O   LIG d   1       6.132   0.448  -7.333  0.00  0.00    -0.274 OA
ATOM     15  C   LIG d   1       7.637  -0.104  -4.741  0.00  0.00     0.062 C 
ATOM     16  H   LIG d   1       7.826  -0.410  -3.711  0.00  0.00     0.056 H 
ATOM     17  N   LIG d   1       8.734  -0.594  -5.621  0.00  0.00    -0.311 NA
ATOM     18  C   LIG d   1       9.944  -0.171  -5.118  0.00  0.00     0.038 A 
ATOM     19  C   LIG d   1      11.060  -0.979  -5.030  0.00  0.00    -0.037 A 
ATOM     20  C   LIG d   1      12.234  -0.480  -4.495  0.00  0.00    -0.018 A 
ATOM     21  C   LIG d   1      12.300   0.831  -4.044  0.00  0.00     0.121 A 
ATOM     22  C   LIG d   1      11.190   1.657  -4.129  0.00  0.00    -0.011 A 
ATOM     23  C   LIG d   1      10.007   1.165  -4.667  0.00  0.00    -0.001 A 
ATOM     24  C   LIG d   1       8.798   2.013  -4.789  0.00  0.00    -0.055 C 
ATOM     25  C   LIG d   1       7.605   1.391  -4.825  0.00  0.00    -0.062 C 
ATOM     26  H   LIG d   1       6.385  -2.273  -2.711  0.00  0.00     0.062 H 
ATOM     27  H   LIG d   1       4.333  -2.398  -1.319  0.00  0.00     0.062 H 
ATOM     28  H   LIG d   1       2.271  -1.319  -2.027  0.00  0.00     0.062 H 
ATOM     29  H   LIG d   1       2.142  -0.060  -4.151  0.00  0.00     0.064 H 
ATOM     30  H   LIG d   1       3.721   0.660  -6.319  0.00  0.00     0.155 HD
ATOM     31  H   LIG d   1      11.017  -2.000  -5.380  0.00  0.00     0.064 H 
ATOM     32  H   LIG d   1      13.105  -1.115  -4.427  0.00  0.00     0.066 H 
ATOM     33  H   LIG d   1      11.244   2.676  -3.778  0.00  0.00     0.066 H 
ATOM     34  H   LIG d   1       8.871   3.089  -4.846  0.00  0.00     0.062 H 
ATOM     35  H   LIG d   1       6.678   1.939  -4.909  0.00  0.00     0.059 H 
ENDROOT
BRANCH   3  36
ATOM     36  C   LIG d   1       6.572  -2.190  -7.359  0.00  0.00     0.170 C 
ATOM     37  O   LIG d   1       7.162  -1.501  -8.164  0.00  0.00    -0.292 OA
BRANCH  36  38
ATOM     38  C   LIG d   1       5.501  -3.092  -7.808  0.00  0.00     0.018 A 
ATOM     39  C   LIG d   1       4.813  -3.882  -6.879  0.00  0.00    -0.049 A 
ATOM     40  C   LIG d   1       3.810  -4.724  -7.305  0.00  0.00    -0.026 A 
ATOM     41  H   LIG d   1       5.069  -3.830  -5.831  0.00  0.00     0.062 H 
ATOM     42  C   LIG d   1       3.481  -4.791  -8.651  0.00  0.00     0.123 A 
ATOM     43  H   LIG d   1       3.278  -5.334  -6.589  0.00  0.00     0.065 H 
ATOM     44  C   LIG d   1       4.159  -4.010  -9.576  0.00  0.00    -0.026 A 
ATOM     45  F   LIG d   1       2.495  -5.619  -9.062  0.00  0.00    -0.205 F 
ATOM     46  C   LIG d   1       5.160  -3.160  -9.162  0.00  0.00    -0.049 A 
ATOM     47  H   LIG d   1       3.898  -4.067 -10.623  0.00  0.00     0.065 H 
ATOM     48  H   LIG d   1       5.684  -2.550  -9.884  0.00  0.00     0.062 H 
ENDBRANCH  36  38
ENDBRANCH   3  36
BRANCH   1  49
ATOM     49  C   LIG d   1       9.180  -2.609  -6.934  0.00  0.00     0.151 C 
ATOM     50  O   LIG d   1       9.678  -1.872  -7.751  0.00  0.00    -0.296 OA
BRANCH  49  51
ATOM     51  C   LIG d   1       9.258  -4.103  -7.121  0.00  0.00    -0.004 C 
ATOM     52  H   LIG d   1       8.645  -4.378  -7.861  0.00  0.00     0.031 H 
ATOM     53  H   LIG d   1      10.281  -4.385  -7.372  0.00  0.00     0.031 H 
ATOM     54  H   LIG d   1       8.960  -4.601  -6.198  0.00  0.00     0.031 H 
ENDBRANCH  49  51
ENDBRANCH   1  49
BRANCH  21  55
ATOM     55  O   LIG d   1      13.461   1.310  -3.522  0.00  0.00    -0.495 OA
BRANCH  55  56
ATOM     56  C   LIG d   1      13.857   2.624  -3.917  0.00  0.00     0.079 C 
ATOM     57  H   LIG d   1      13.001   3.296  -3.856  0.00  0.00     0.066 H 
ATOM     58  H   LIG d   1      14.646   2.981  -3.254  0.00  0.00     0.066 H 
ATOM     59  H   LIG d   1      14.228   2.600  -4.941  0.00  0.00     0.066 H 
ENDBRANCH  55  56
ENDBRANCH  21  55
TORSDOF 6
ENDMDL
MODEL 8
REMARK VINA RESULT:      -6.2      3.227      7.226
REMARK  6 active torsions:
REMARK  status: ('A' for Active; 'I' for Inactive)
REMARK    1  A    between atoms: C_1  and  C_2 
REMARK    2  A    between atoms: C_2  and  C_4 
REMARK    3  A    between atoms: C_6  and  C_31 
REMARK    4  A    between atoms: C_24  and  O_29 
REMARK    5  A    between atoms: O_29  and  C_30 
REMARK    6  A    between atoms: C_31  and  C_33 
ROOT
ATOM      1  C   LIG d   1       4.350  -0.697  -8.836  0.00  0.00     0.093 C 
ATOM      2  H   LIG d   1       3.499  -1.095  -9.182  0.00  0.00     0.059 H 
ATOM      3  C   LIG d   1       4.725  -1.289  -7.448  0.00  0.00     0.067 C 
ATOM      4  H   LIG d   1       3.899  -1.617  -6.990  0.00  0.00     0.042 H 
ATOM      5  C   LIG d   1       5.713  -2.431  -7.765  0.00  0.00     0.108 A 
ATOM      6  C   LIG d   1       5.259  -3.725  -7.183  0.00  0.00    -0.008 A 
ATOM      7  C   LIG d   1       4.118  -4.473  -7.379  0.00  0.00    -0.056 A 
ATOM      8  C   LIG d   1       4.009  -5.660  -6.661  0.00  0.00    -0.061 A 
ATOM      9  C   LIG d   1       4.999  -6.068  -5.793  0.00  0.00    -0.060 A 
ATOM     10  C   LIG d   1       6.150  -5.322  -5.591  0.00  0.00    -0.040 A 
ATOM     11  C   LIG d   1       6.272  -4.129  -6.304  0.00  0.00     0.038 A 
ATOM     12  N   LIG d   1       7.301  -3.202  -6.296  0.00  0.00    -0.284 N 
ATOM     13  C   LIG d   1       7.055  -2.166  -7.129  0.00  0.00     0.231 A 
ATOM     14  O   LIG d   1       7.773  -1.209  -7.325  0.00  0.00    -0.274 OA
ATOM     15  C   LIG d   1       5.801  -2.463  -9.283  0.00  0.00     0.062 C 
ATOM     16  H   LIG d   1       5.042  -3.137  -9.681  0.00  0.00     0.056 H 
ATOM     17  N   LIG d   1       5.491  -1.062  -9.684  0.00  0.00    -0.311 NA
ATOM     18  C   LIG d   1       5.345  -1.003 -11.052  0.00  0.00     0.038 A 
ATOM     19  C   LIG d   1       4.335  -0.306 -11.683  0.00  0.00    -0.037 A 
ATOM     20  C   LIG d   1       4.248  -0.312 -13.064  0.00  0.00    -0.018 A 
ATOM     21  C   LIG d   1       5.174  -1.016 -13.823  0.00  0.00     0.121 A 
ATOM     22  C   LIG d   1       6.196  -1.717 -13.205  0.00  0.00    -0.011 A 
ATOM     23  C   LIG d   1       6.292  -1.716 -11.819  0.00  0.00    -0.001 A 
ATOM     24  C   LIG d   1       7.375  -2.441 -11.114  0.00  0.00    -0.055 C 
ATOM     25  C   LIG d   1       7.142  -2.824  -9.845  0.00  0.00    -0.062 C 
ATOM     26  H   LIG d   1       3.343  -4.152  -8.059  0.00  0.00     0.062 H 
ATOM     27  H   LIG d   1       3.129  -6.273  -6.786  0.00  0.00     0.062 H 
ATOM     28  H   LIG d   1       4.874  -6.995  -5.254  0.00  0.00     0.062 H 
ATOM     29  H   LIG d   1       6.921  -5.651  -4.909  0.00  0.00     0.064 H 
ATOM     30  H   LIG d   1       8.103  -3.285  -5.757  0.00  0.00     0.155 HD
ATOM     31  H   LIG d   1       3.612   0.245 -11.099  0.00  0.00     0.064 H 
ATOM     32  H   LIG d   1       3.457   0.234 -13.554  0.00  0.00     0.066 H 
ATOM     33  H   LIG d   1       6.915  -2.264 -13.797  0.00  0.00     0.066 H 
ATOM     34  H   LIG d   1       8.315  -2.656 -11.600  0.00  0.00     0.062 H 
ATOM     35  H   LIG d   1       7.879  -3.360  -9.265  0.00  0.00     0.059 H 
ENDROOT
BRANCH   3  36
ATOM     36  C   LIG d   1       5.390  -0.240  -6.592  0.00  0.00     0.170 C 
ATOM     37  O   LIG d   1       6.130   0.576  -7.099  0.00  0.00    -0.292 OA
BRANCH  36  38
ATOM     38  C   LIG d   1       5.142  -0.209  -5.143  0.00  0.00     0.018 A 
ATOM     39  C   LIG d   1       6.193   0.056  -4.257  0.00  0.00    -0.049 A 
ATOM     40  C   LIG d   1       5.954   0.085  -2.901  0.00  0.00    -0.026 A 
ATOM     41  H   LIG d   1       7.188   0.239  -4.636  0.00  0.00     0.062 H 
ATOM     42  C   LIG d   1       4.678  -0.149  -2.412  0.00  0.00     0.123 A 
ATOM     43  H   LIG d   1       6.764   0.291  -2.216  0.00  0.00     0.065 H 
ATOM     44  C   LIG d   1       3.633  -0.413  -3.286  0.00  0.00    -0.026 A 
ATOM     45  F   LIG d   1       4.450  -0.119  -1.081  0.00  0.00    -0.205 F 
ATOM     46  C   LIG d   1       3.856  -0.438  -4.645  0.00  0.00    -0.049 A 
ATOM     47  H   LIG d   1       2.640  -0.594  -2.900  0.00  0.00     0.065 H 
ATOM     48  H   LIG d   1       3.040  -0.640  -5.324  0.00  0.00     0.062 H 
ENDBRANCH  36  38
ENDBRANCH   3  36
BRANCH   1  49
ATOM     49  C   LIG d   1       4.207   0.800  -8.754  0.00  0.00     0.151 C 
ATOM     50  O   LIG d   1       5.096   1.514  -9.151  0.00  0.00    -0.296 OA
BRANCH  49  51
ATOM     51  C   LIG d   1       2.954   1.408  -8.176  0.00  0.00    -0.004 C 
ATOM     52  H   LIG d   1       2.908   1.209  -7.198  0.00  0.00     0.031 H 
ATOM     53  H   LIG d   1       2.970   2.487  -8.328  0.00  0.00     0.031 H 
ATOM     54  H   LIG d   1       2.082   0.984  -8.675  0.00  0.00     0.031 H 
ENDBRANCH  49  51
ENDBRANCH   1  49
BRANCH  21  55
ATOM     55  O   LIG d   1       5.079  -1.012 -15.179  0.00  0.00    -0.495 OA
BRANCH  55  56
ATOM     56  C   LIG d   1       4.290   0.021 -15.772  0.00  0.00     0.079 C 
ATOM     57  H   LIG d   1       3.986  -0.283 -16.773  0.00  0.00     0.066 H 
ATOM     58  H   LIG d   1       3.404   0.197 -15.161  0.00  0.00     0.066 H 
ATOM     59  H   LIG d   1       4.877   0.937 -15.833  0.00  0.00     0.066 H 
ENDBRANCH  55  56
ENDBRANCH  21  55
TORSDOF 6
ENDMDL
MODEL 9
REMARK VINA RESULT:      -6.2      3.002      5.306
REMARK  6 active torsions:
REMARK  status: ('A' for Active; 'I' for Inactive)
REMARK    1  A    between atoms: C_1  and  C_2 
REMARK    2  A    between atoms: C_2  and  C_4 
REMARK    3  A    between atoms: C_6  and  C_31 
REMARK    4  A    between atoms: C_24  and  O_29 
REMARK    5  A    between atoms: O_29  and  C_30 
REMARK    6  A    between atoms: C_31  and  C_33 
ROOT
ATOM      1  C   LIG d   1       7.807  -3.092  -6.450  0.00  0.00     0.093 C 
ATOM      2  H   LIG d   1       8.642  -2.652  -6.780  0.00  0.00     0.059 H 
ATOM      3  C   LIG d   1       6.691  -2.045  -6.170  0.00  0.00     0.067 C 
ATOM      4  H   LIG d   1       7.108  -1.157  -5.976  0.00  0.00     0.042 H 
ATOM      5  C   LIG d   1       5.842  -2.027  -7.458  0.00  0.00     0.108 A 
ATOM      6  C   LIG d   1       5.733  -0.651  -8.021  0.00  0.00    -0.008 A 
ATOM      7  C   LIG d   1       6.685   0.237  -8.472  0.00  0.00    -0.056 A 
ATOM      8  C   LIG d   1       6.231   1.464  -8.947  0.00  0.00    -0.061 A 
ATOM      9  C   LIG d   1       4.888   1.775  -8.964  0.00  0.00    -0.060 A 
ATOM     10  C   LIG d   1       3.924   0.887  -8.513  0.00  0.00    -0.040 A 
ATOM     11  C   LIG d   1       4.366  -0.348  -8.034  0.00  0.00     0.038 A 
ATOM     12  N   LIG d   1       3.631  -1.408  -7.530  0.00  0.00    -0.284 N 
ATOM     13  C   LIG d   1       4.422  -2.442  -7.165  0.00  0.00     0.231 A 
ATOM     14  O   LIG d   1       4.060  -3.498  -6.692  0.00  0.00    -0.274 OA
ATOM     15  C   LIG d   1       6.535  -2.998  -8.399  0.00  0.00     0.062 C 
ATOM     16  H   LIG d   1       7.279  -2.467  -8.995  0.00  0.00     0.056 H 
ATOM     17  N   LIG d   1       7.216  -3.954  -7.481  0.00  0.00    -0.311 NA
ATOM     18  C   LIG d   1       8.046  -4.774  -8.212  0.00  0.00     0.038 A 
ATOM     19  C   LIG d   1       9.329  -5.104  -7.826  0.00  0.00    -0.037 A 
ATOM     20  C   LIG d   1      10.104  -5.922  -8.628  0.00  0.00    -0.018 A 
ATOM     21  C   LIG d   1       9.600  -6.416  -9.823  0.00  0.00     0.121 A 
ATOM     22  C   LIG d   1       8.312  -6.098 -10.224  0.00  0.00    -0.011 A 
ATOM     23  C   LIG d   1       7.526  -5.279  -9.424  0.00  0.00    -0.001 A 
ATOM     24  C   LIG d   1       6.139  -4.922  -9.804  0.00  0.00    -0.055 C 
ATOM     25  C   LIG d   1       5.631  -3.781  -9.300  0.00  0.00    -0.062 C 
ATOM     26  H   LIG d   1       7.737  -0.007  -8.459  0.00  0.00     0.062 H 
ATOM     27  H   LIG d   1       6.947   2.188  -9.307  0.00  0.00     0.062 H 
ATOM     28  H   LIG d   1       4.578   2.739  -9.339  0.00  0.00     0.062 H 
ATOM     29  H   LIG d   1       2.873   1.139  -8.532  0.00  0.00     0.064 H 
ATOM     30  H   LIG d   1       2.664  -1.410  -7.450  0.00  0.00     0.155 HD
ATOM     31  H   LIG d   1       9.728  -4.724  -6.896  0.00  0.00     0.064 H 
ATOM     32  H   LIG d   1      11.108  -6.177  -8.323  0.00  0.00     0.066 H 
ATOM     33  H   LIG d   1       7.922  -6.484 -11.154  0.00  0.00     0.066 H 
ATOM     34  H   LIG d   1       5.558  -5.551 -10.462  0.00  0.00     0.062 H 
ATOM     35  H   LIG d   1       4.630  -3.450  -9.533  0.00  0.00     0.059 H 
ENDROOT
BRANCH   3  36
ATOM     36  C   LIG d   1       5.853  -2.473  -4.992  0.00  0.00     0.170 C 
ATOM     37  O   LIG d   1       5.476  -3.623  -4.902  0.00  0.00    -0.292 OA
BRANCH  36  38
ATOM     38  C   LIG d   1       5.490  -1.497  -3.954  0.00  0.00     0.018 A 
ATOM     39  C   LIG d   1       5.944  -0.176  -4.043  0.00  0.00    -0.049 A 
ATOM     40  C   LIG d   1       5.600   0.734  -3.068  0.00  0.00    -0.026 A 
ATOM     41  H   LIG d   1       6.561   0.129  -4.876  0.00  0.00     0.062 H 
ATOM     42  C   LIG d   1       4.807   0.344  -1.999  0.00  0.00     0.123 A 
ATOM     43  H   LIG d   1       5.949   1.754  -3.136  0.00  0.00     0.065 H 
ATOM     44  C   LIG d   1       4.355  -0.964  -1.906  0.00  0.00    -0.026 A 
ATOM     45  F   LIG d   1       4.473   1.242  -1.046  0.00  0.00    -0.205 F 
ATOM     46  C   LIG d   1       4.686  -1.882  -2.877  0.00  0.00    -0.049 A 
ATOM     47  H   LIG d   1       3.737  -1.262  -1.071  0.00  0.00     0.065 H 
ATOM     48  H   LIG d   1       4.330  -2.900  -2.804  0.00  0.00     0.062 H 
ENDBRANCH  36  38
ENDBRANCH   3  36
BRANCH   1  49
ATOM     49  C   LIG d   1       8.114  -3.886  -5.207  0.00  0.00     0.151 C 
ATOM     50  O   LIG d   1       7.712  -5.019  -5.099  0.00  0.00    -0.296 OA
BRANCH  49  51
ATOM     51  C   LIG d   1       8.925  -3.265  -4.097  0.00  0.00    -0.004 C 
ATOM     52  H   LIG d   1       9.892  -3.483  -4.230  0.00  0.00     0.031 H 
ATOM     53  H   LIG d   1       8.790  -2.184  -4.109  0.00  0.00     0.031 H 
ATOM     54  H   LIG d   1       8.591  -3.662  -3.138  0.00  0.00     0.031 H 
ENDBRANCH  49  51
ENDBRANCH   1  49
BRANCH  21  55
ATOM     55  O   LIG d   1      10.372  -7.220 -10.602  0.00  0.00    -0.495 OA
BRANCH  55  56
ATOM     56  C   LIG d   1      11.557  -7.754 -10.010  0.00  0.00     0.079 C 
ATOM     57  H   LIG d   1      12.381  -7.056 -10.153  0.00  0.00     0.066 H 
ATOM     58  H   LIG d   1      11.392  -7.908  -8.943  0.00  0.00     0.066 H 
ATOM     59  H   LIG d   1      11.802  -8.706 -10.480  0.00  0.00     0.066 H 
ENDBRANCH  55  56
ENDBRANCH  21  55
TORSDOF 6
ENDMDL
