MODEL 1
REMARK VINA RESULT:      -7.7      0.000      0.000
REMARK  11 active torsions:
REMARK  status: ('A' for Active; 'I' for Inactive)
REMARK    1  A    between atoms: C_1  and  C_2 
REMARK    2  A    between atoms: C_5  and  O_39 
REMARK    3  A    between atoms: C_7  and  C_36 
REMARK    4  A    between atoms: C_7  and  C_37 
REMARK    5  A    between atoms: C_14  and  N_16 
REMARK    6  A    between atoms: N_16  and  C_17 
REMARK    7  A    between atoms: C_23  and  C_25 
REMARK    8  A    between atoms: C_25  and  C_26 
REMARK       I    between atoms: C_26  and  N_28 
REMARK    9  A    between atoms: N_28  and  C_29 
REMARK   10  A    between atoms: C_33  and  O_35 
REMARK   11  A    between atoms: C_37  and  O_38 
ROOT
ATOM      1  C   LIG d   1       9.981   3.395  -4.412  0.00  0.00    -0.019 C 
ATOM      2  C   LIG d   1       9.999   3.710  -2.911  0.00  0.00    -0.044 C 
ATOM      3  C   LIG d   1      11.292   4.424  -2.521  0.00  0.00    -0.026 C 
ATOM      4  C   LIG d   1      11.381   5.740  -3.300  0.00  0.00     0.063 C 
ATOM      5  H   LIG d   1      10.509   6.356  -3.083  0.00  0.00     0.060 H 
ATOM      6  C   LIG d   1      11.425   5.424  -4.794  0.00  0.00     0.021 C 
ATOM      7  C   LIG d   1      10.153   4.683  -5.220  0.00  0.00    -0.021 C 
ATOM      8  H   LIG d   1       9.285   5.327  -5.084  0.00  0.00     0.032 H 
ATOM      9  C   LIG d   1      10.314   4.322  -6.709  0.00  0.00    -0.016 C 
ATOM     10  C   LIG d   1       9.285   3.313  -7.078  0.00  0.00     0.015 A 
ATOM     11  C   LIG d   1       8.517   2.568  -6.244  0.00  0.00     0.058 A 
ATOM     12  N   LIG d   1       7.665   1.727  -6.828  0.00  0.00    -0.229 NA
ATOM     13  C   LIG d   1       7.569   1.624  -8.138  0.00  0.00     0.163 A 
ATOM     14  S   LIG d   1       8.750   2.779  -8.682  0.00  0.00    -0.057 SA
ATOM     15  C   LIG d   1       8.654   2.724  -4.737  0.00  0.00     0.016 C 
ATOM     16  H   LIG d   1       7.840   3.341  -4.359  0.00  0.00     0.037 H 
ATOM     17  H   LIG d   1       9.917   2.780  -2.347  0.00  0.00     0.027 H 
ATOM     18  H   LIG d   1       9.149   4.349  -2.677  0.00  0.00     0.027 H 
ATOM     19  H   LIG d   1      12.147   3.794  -2.768  0.00  0.00     0.029 H 
ATOM     20  H   LIG d   1      11.285   4.633  -1.451  0.00  0.00     0.029 H 
ATOM     21  H   LIG d   1      11.308   3.908  -6.879  0.00  0.00     0.032 H 
ATOM     22  H   LIG d   1      10.182   5.217  -7.317  0.00  0.00     0.032 H 
ENDROOT
BRANCH  15  23
ATOM     23  C   LIG d   1       8.598   1.346  -4.075  0.00  0.00     0.033 C 
ATOM     24  H   LIG d   1       9.009   0.599  -4.754  0.00  0.00     0.036 H 
ATOM     25  H   LIG d   1       9.182   1.360  -3.155  0.00  0.00     0.036 H 
BRANCH  23  26
ATOM     26  C   LIG d   1       7.166   1.000  -3.755  0.00  0.00     0.218 C 
ATOM     27  O   LIG d   1       6.477   1.785  -3.139  0.00  0.00    -0.276 OA
ATOM     28  N   LIG d   1       6.652  -0.179  -4.155  0.00  0.00    -0.285 N 
ATOM     29  H   LIG d   1       7.179  -0.775  -4.710  0.00  0.00     0.155 HD
BRANCH  28  30
ATOM     30  C   LIG d   1       5.358  -0.546  -3.767  0.00  0.00     0.037 A 
ATOM     31  C   LIG d   1       4.263  -0.090  -4.486  0.00  0.00     0.001 A 
ATOM     32  C   LIG d   1       2.983  -0.459  -4.101  0.00  0.00     0.119 A 
ATOM     33  H   LIG d   1       4.407   0.547  -5.345  0.00  0.00     0.067 H 
ATOM     34  C   LIG d   1       2.800  -1.274  -2.994  0.00  0.00    -0.020 A 
ATOM     35  C   LIG d   1       3.892  -1.722  -2.275  0.00  0.00    -0.057 A 
ATOM     36  H   LIG d   1       1.803  -1.559  -2.692  0.00  0.00     0.065 H 
ATOM     37  C   LIG d   1       5.169  -1.361  -2.659  0.00  0.00    -0.040 A 
ATOM     38  H   LIG d   1       3.747  -2.356  -1.414  0.00  0.00     0.062 H 
ATOM     39  H   LIG d   1       6.022  -1.712  -2.096  0.00  0.00     0.064 H 
BRANCH  32  40
ATOM     40  O   LIG d   1       1.908  -0.019  -4.807  0.00  0.00    -0.507 OA
ATOM     41  H   LIG d   1       1.072  -0.068  -4.322  0.00  0.00     0.292 HD
ENDBRANCH  32  40
ENDBRANCH  28  30
ENDBRANCH  23  26
ENDBRANCH  15  23
BRANCH   1  42
ATOM     42  C   LIG d   1      11.123   2.428  -4.737  0.00  0.00    -0.059 C 
ATOM     43  H   LIG d   1      12.056   2.821  -4.332  0.00  0.00     0.024 H 
ATOM     44  H   LIG d   1      10.914   1.456  -4.291  0.00  0.00     0.024 H 
ATOM     45  H   LIG d   1      11.211   2.321  -5.818  0.00  0.00     0.024 H 
ENDBRANCH   1  42
BRANCH   6  46
ATOM     46  C   LIG d   1      11.541   6.728  -5.585  0.00  0.00    -0.055 C 
ATOM     47  H   LIG d   1      12.593   6.969  -5.736  0.00  0.00     0.024 H 
ATOM     48  H   LIG d   1      11.052   6.611  -6.553  0.00  0.00     0.024 H 
ATOM     49  H   LIG d   1      11.060   7.533  -5.030  0.00  0.00     0.024 H 
ENDBRANCH   6  46
BRANCH   6  50
ATOM     50  C   LIG d   1      12.644   4.547  -5.090  0.00  0.00     0.052 C 
ATOM     51  H   LIG d   1      12.856   3.916  -4.227  0.00  0.00     0.056 H 
ATOM     52  H   LIG d   1      12.438   3.919  -5.958  0.00  0.00     0.056 H 
BRANCH  50  53
ATOM     53  O   LIG d   1      13.774   5.379  -5.361  0.00  0.00    -0.394 OA
ATOM     54  H   LIG d   1      14.321   5.564  -4.586  0.00  0.00     0.209 HD
ENDBRANCH  50  53
ENDBRANCH   6  50
BRANCH  13  55
ATOM     55  N   LIG d   1       6.740   0.806  -8.890  0.00  0.00    -0.294 N 
ATOM     56  H   LIG d   1       7.121   0.103  -9.441  0.00  0.00     0.154 HD
BRANCH  55  57
ATOM     57  C   LIG d   1       5.356   0.992  -8.856  0.00  0.00     0.033 A 
ATOM     58  C   LIG d   1       4.532   0.001  -8.337  0.00  0.00    -0.041 A 
ATOM     59  C   LIG d   1       3.164   0.189  -8.304  0.00  0.00    -0.060 A 
ATOM     60  H   LIG d   1       4.961  -0.916  -7.960  0.00  0.00     0.064 H 
ATOM     61  C   LIG d   1       2.614   1.362  -8.787  0.00  0.00    -0.062 A 
ATOM     62  H   LIG d   1       2.524  -0.581  -7.900  0.00  0.00     0.062 H 
ATOM     63  C   LIG d   1       3.431   2.350  -9.304  0.00  0.00    -0.060 A 
ATOM     64  H   LIG d   1       1.544   1.506  -8.760  0.00  0.00     0.062 H 
ATOM     65  C   LIG d   1       4.800   2.172  -9.335  0.00  0.00    -0.041 A 
ATOM     66  H   LIG d   1       2.998   3.265  -9.681  0.00  0.00     0.062 H 
ATOM     67  H   LIG d   1       5.437   2.947  -9.736  0.00  0.00     0.064 H 
ENDBRANCH  55  57
ENDBRANCH  13  55
BRANCH   4  68
ATOM     68  O   LIG d   1      12.568   6.440  -2.924  0.00  0.00    -0.391 OA
ATOM     69  H   LIG d   1      12.606   6.674  -1.986  0.00  0.00     0.210 HD
ENDBRANCH   4  68
TORSDOF 11
ENDMDL
MODEL 2
REMARK VINA RESULT:      -7.2      5.862      8.688
REMARK  11 active torsions:
REMARK  status: ('A' for Active; 'I' for Inactive)
REMARK    1  A    between atoms: C_1  and  C_2 
REMARK    2  A    between atoms: C_5  and  O_39 
REMARK    3  A    between atoms: C_7  and  C_36 
REMARK    4  A    between atoms: C_7  and  C_37 
REMARK    5  A    between atoms: C_14  and  N_16 
REMARK    6  A    between atoms: N_16  and  C_17 
REMARK    7  A    between atoms: C_23  and  C_25 
REMARK    8  A    between atoms: C_25  and  C_26 
REMARK       I    between atoms: C_26  and  N_28 
REMARK    9  A    between atoms: N_28  and  C_29 
REMARK   10  A    between atoms: C_33  and  O_35 
REMARK   11  A    between atoms: C_37  and  O_38 
ROOT
ATOM      1  C   LIG d   1       5.975  -5.814  -6.767  0.00  0.00    -0.019 C 
ATOM      2  C   LIG d   1       6.850  -6.083  -5.536  0.00  0.00    -0.044 C 
ATOM      3  C   LIG d   1       7.454  -7.484  -5.592  0.00  0.00    -0.026 C 
ATOM      4  C   LIG d   1       8.326  -7.594  -6.847  0.00  0.00     0.063 C 
ATOM      5  H   LIG d   1       9.103  -6.830  -6.824  0.00  0.00     0.060 H 
ATOM      6  C   LIG d   1       7.443  -7.388  -8.078  0.00  0.00     0.021 C 
ATOM      7  C   LIG d   1       6.798  -5.999  -8.044  0.00  0.00    -0.021 C 
ATOM      8  H   LIG d   1       7.567  -5.230  -8.106  0.00  0.00     0.032 H 
ATOM      9  C   LIG d   1       5.859  -5.904  -9.262  0.00  0.00    -0.016 C 
ATOM     10  C   LIG d   1       4.955  -4.735  -9.090  0.00  0.00     0.015 A 
ATOM     11  C   LIG d   1       4.727  -4.024  -7.957  0.00  0.00     0.058 A 
ATOM     12  N   LIG d   1       3.864  -3.014  -8.064  0.00  0.00    -0.229 NA
ATOM     13  C   LIG d   1       3.268  -2.720  -9.202  0.00  0.00     0.163 A 
ATOM     14  S   LIG d   1       3.921  -3.921 -10.276  0.00  0.00    -0.057 SA
ATOM     15  C   LIG d   1       5.441  -4.393  -6.665  0.00  0.00     0.016 C 
ATOM     16  H   LIG d   1       6.273  -3.710  -6.502  0.00  0.00     0.037 H 
ATOM     17  H   LIG d   1       6.242  -5.989  -4.635  0.00  0.00     0.027 H 
ATOM     18  H   LIG d   1       7.651  -5.345  -5.509  0.00  0.00     0.027 H 
ATOM     19  H   LIG d   1       6.655  -8.225  -5.636  0.00  0.00     0.029 H 
ATOM     20  H   LIG d   1       8.066  -7.654  -4.707  0.00  0.00     0.029 H 
ATOM     21  H   LIG d   1       5.265  -6.815  -9.337  0.00  0.00     0.032 H 
ATOM     22  H   LIG d   1       6.450  -5.777 -10.169  0.00  0.00     0.032 H 
ENDROOT
BRANCH  15  23
ATOM     23  C   LIG d   1       4.462  -4.293  -5.495  0.00  0.00     0.033 C 
ATOM     24  H   LIG d   1       3.440  -4.365  -5.867  0.00  0.00     0.036 H 
ATOM     25  H   LIG d   1       4.650  -5.105  -4.792  0.00  0.00     0.036 H 
BRANCH  23  26
ATOM     26  C   LIG d   1       4.649  -2.971  -4.796  0.00  0.00     0.218 C 
ATOM     27  O   LIG d   1       5.740  -2.442  -4.781  0.00  0.00    -0.276 OA
ATOM     28  N   LIG d   1       3.603  -2.375  -4.189  0.00  0.00    -0.285 N 
ATOM     29  H   LIG d   1       2.716  -2.760  -4.263  0.00  0.00     0.155 HD
BRANCH  28  30
ATOM     30  C   LIG d   1       3.798  -1.203  -3.450  0.00  0.00     0.037 A 
ATOM     31  C   LIG d   1       3.421   0.023  -3.981  0.00  0.00     0.001 A 
ATOM     32  C   LIG d   1       3.612   1.181  -3.244  0.00  0.00     0.119 A 
ATOM     33  H   LIG d   1       2.977   0.073  -4.963  0.00  0.00     0.067 H 
ATOM     34  C   LIG d   1       4.187   1.114  -1.983  0.00  0.00    -0.020 A 
ATOM     35  C   LIG d   1       4.567  -0.107  -1.459  0.00  0.00    -0.057 A 
ATOM     36  H   LIG d   1       4.339   2.017  -1.410  0.00  0.00     0.065 H 
ATOM     37  C   LIG d   1       4.374  -1.264  -2.188  0.00  0.00    -0.040 A 
ATOM     38  H   LIG d   1       5.015  -0.156  -0.478  0.00  0.00     0.062 H 
ATOM     39  H   LIG d   1       4.672  -2.218  -1.777  0.00  0.00     0.064 H 
BRANCH  32  40
ATOM     40  O   LIG d   1       3.238   2.383  -3.757  0.00  0.00    -0.507 OA
ATOM     41  H   LIG d   1       3.638   3.143  -3.312  0.00  0.00     0.292 HD
ENDBRANCH  32  40
ENDBRANCH  28  30
ENDBRANCH  23  26
ENDBRANCH  15  23
BRANCH   1  42
ATOM     42  C   LIG d   1       4.797  -6.792  -6.769  0.00  0.00    -0.059 C 
ATOM     43  H   LIG d   1       4.574  -7.089  -7.794  0.00  0.00     0.024 H 
ATOM     44  H   LIG d   1       5.056  -7.674  -6.184  0.00  0.00     0.024 H 
ATOM     45  H   LIG d   1       3.923  -6.309  -6.332  0.00  0.00     0.024 H 
ENDBRANCH   1  42
BRANCH   6  46
ATOM     46  C   LIG d   1       8.295  -7.520  -9.341  0.00  0.00    -0.055 C 
ATOM     47  H   LIG d   1       7.722  -8.033 -10.114  0.00  0.00     0.024 H 
ATOM     48  H   LIG d   1       8.576  -6.528  -9.695  0.00  0.00     0.024 H 
ATOM     49  H   LIG d   1       9.193  -8.094  -9.115  0.00  0.00     0.024 H 
ENDBRANCH   6  46
BRANCH   6  50
ATOM     50  C   LIG d   1       6.346  -8.455  -8.097  0.00  0.00     0.052 C 
ATOM     51  H   LIG d   1       6.114  -8.757  -7.076  0.00  0.00     0.056 H 
ATOM     52  H   LIG d   1       5.451  -8.048  -8.568  0.00  0.00     0.056 H 
BRANCH  50  53
ATOM     53  O   LIG d   1       6.800  -9.590  -8.839  0.00  0.00    -0.394 OA
ATOM     54  H   LIG d   1       6.706  -9.497  -9.796  0.00  0.00     0.209 HD
ENDBRANCH  50  53
ENDBRANCH   6  50
BRANCH  13  55
ATOM     55  N   LIG d   1       2.356  -1.711  -9.473  0.00  0.00    -0.294 N 
ATOM     56  H   LIG d   1       1.425  -1.930  -9.638  0.00  0.00     0.154 HD
BRANCH  55  57
ATOM     57  C   LIG d   1       2.777  -0.379  -9.510  0.00  0.00     0.033 A 
ATOM     58  C   LIG d   1       2.599   0.438  -8.401  0.00  0.00    -0.041 A 
ATOM     59  C   LIG d   1       3.017   1.754  -8.441  0.00  0.00    -0.060 A 
ATOM     60  H   LIG d   1       2.135   0.045  -7.508  0.00  0.00     0.064 H 
ATOM     61  C   LIG d   1       3.612   2.259  -9.582  0.00  0.00    -0.062 A 
ATOM     62  H   LIG d   1       2.879   2.389  -7.578  0.00  0.00     0.062 H 
ATOM     63  C   LIG d   1       3.790   1.448 -10.688  0.00  0.00    -0.060 A 
ATOM     64  H   LIG d   1       3.938   3.288  -9.611  0.00  0.00     0.062 H 
ATOM     65  C   LIG d   1       3.380   0.129 -10.654  0.00  0.00    -0.041 A 
ATOM     66  H   LIG d   1       4.255   1.845 -11.579  0.00  0.00     0.062 H 
ATOM     67  H   LIG d   1       3.523  -0.504 -11.517  0.00  0.00     0.064 H 
ENDBRANCH  55  57
ENDBRANCH  13  55
BRANCH   4  68
ATOM     68  O   LIG d   1       8.928  -8.888  -6.901  0.00  0.00    -0.391 OA
ATOM     69  H   LIG d   1       8.416  -9.579  -6.459  0.00  0.00     0.210 HD
ENDBRANCH   4  68
TORSDOF 11
ENDMDL
MODEL 3
REMARK VINA RESULT:      -7.0      3.397      6.710
REMARK  11 active torsions:
REMARK  status: ('A' for Active; 'I' for Inactive)
REMARK    1  A    between atoms: C_1  and  C_2 
REMARK    2  A    between atoms: C_5  and  O_39 
REMARK    3  A    between atoms: C_7  and  C_36 
REMARK    4  A    between atoms: C_7  and  C_37 
REMARK    5  A    between atoms: C_14  and  N_16 
REMARK    6  A    between atoms: N_16  and  C_17 
REMARK    7  A    between atoms: C_23  and  C_25 
REMARK    8  A    between atoms: C_25  and  C_26 
REMARK       I    between atoms: C_26  and  N_28 
REMARK    9  A    between atoms: N_28  and  C_29 
REMARK   10  A    between atoms: C_33  and  O_35 
REMARK   11  A    between atoms: C_37  and  O_38 
ROOT
ATOM      1  C   LIG d   1      10.561   4.172  -5.869  0.00  0.00    -0.019 C 
ATOM      2  C   LIG d   1      11.226   5.534  -5.633  0.00  0.00    -0.044 C 
ATOM      3  C   LIG d   1      11.940   6.017  -6.894  0.00  0.00    -0.026 C 
ATOM      4  C   LIG d   1      10.910   6.162  -8.018  0.00  0.00     0.063 C 
ATOM      5  H   LIG d   1      10.129   6.860  -7.715  0.00  0.00     0.060 H 
ATOM      6  C   LIG d   1      10.291   4.793  -8.296  0.00  0.00     0.021 C 
ATOM      7  C   LIG d   1       9.585   4.263  -7.045  0.00  0.00    -0.021 C 
ATOM      8  H   LIG d   1       8.750   4.912  -6.785  0.00  0.00     0.032 H 
ATOM      9  C   LIG d   1       9.070   2.849  -7.378  0.00  0.00    -0.016 C 
ATOM     10  C   LIG d   1       8.693   2.159  -6.114  0.00  0.00     0.015 A 
ATOM     11  C   LIG d   1       9.009   2.522  -4.845  0.00  0.00     0.058 A 
ATOM     12  N   LIG d   1       8.549   1.728  -3.879  0.00  0.00    -0.229 NA
ATOM     13  C   LIG d   1       7.829   0.656  -4.136  0.00  0.00     0.163 A 
ATOM     14  S   LIG d   1       7.738   0.686  -5.872  0.00  0.00    -0.057 SA
ATOM     15  C   LIG d   1       9.838   3.772  -4.592  0.00  0.00     0.016 C 
ATOM     16  H   LIG d   1       9.183   4.586  -4.283  0.00  0.00     0.037 H 
ATOM     17  H   LIG d   1      11.949   5.446  -4.821  0.00  0.00     0.027 H 
ATOM     18  H   LIG d   1      10.457   6.254  -5.355  0.00  0.00     0.027 H 
ATOM     19  H   LIG d   1      12.699   5.291  -7.185  0.00  0.00     0.029 H 
ATOM     20  H   LIG d   1      12.408   6.982  -6.702  0.00  0.00     0.029 H 
ATOM     21  H   LIG d   1       9.853   2.284  -7.882  0.00  0.00     0.032 H 
ATOM     22  H   LIG d   1       8.197   2.923  -8.027  0.00  0.00     0.032 H 
ENDROOT
BRANCH  15  23
ATOM     23  C   LIG d   1      10.858   3.492  -3.488  0.00  0.00     0.033 C 
ATOM     24  H   LIG d   1      10.681   2.500  -3.072  0.00  0.00     0.036 H 
ATOM     25  H   LIG d   1      11.865   3.537  -3.903  0.00  0.00     0.036 H 
BRANCH  23  26
ATOM     26  C   LIG d   1      10.717   4.525  -2.400  0.00  0.00     0.218 C 
ATOM     27  O   LIG d   1       9.686   5.154  -2.292  0.00  0.00    -0.276 OA
ATOM     28  N   LIG d   1      11.736   4.749  -1.546  0.00  0.00    -0.285 N 
ATOM     29  H   LIG d   1      12.532   4.196  -1.585  0.00  0.00     0.155 HD
BRANCH  28  30
ATOM     30  C   LIG d   1      11.646   5.780  -0.604  0.00  0.00     0.037 A 
ATOM     31  C   LIG d   1      11.337   5.489   0.716  0.00  0.00     0.001 A 
ATOM     32  C   LIG d   1      11.252   6.513   1.647  0.00  0.00     0.119 A 
ATOM     33  H   LIG d   1      11.165   4.467   1.019  0.00  0.00     0.067 H 
ATOM     34  C   LIG d   1      11.468   7.826   1.255  0.00  0.00    -0.020 A 
ATOM     35  C   LIG d   1      11.771   8.115  -0.063  0.00  0.00    -0.057 A 
ATOM     36  H   LIG d   1      11.399   8.624   1.979  0.00  0.00     0.065 H 
ATOM     37  C   LIG d   1      11.860   7.096  -0.992  0.00  0.00    -0.040 A 
ATOM     38  H   LIG d   1      11.938   9.137  -0.366  0.00  0.00     0.062 H 
ATOM     39  H   LIG d   1      12.096   7.324  -2.022  0.00  0.00     0.064 H 
BRANCH  32  40
ATOM     40  O   LIG d   1      10.956   6.231   2.943  0.00  0.00    -0.507 OA
ATOM     41  H   LIG d   1      11.405   5.448   3.289  0.00  0.00     0.292 HD
ENDBRANCH  32  40
ENDBRANCH  28  30
ENDBRANCH  23  26
ENDBRANCH  15  23
BRANCH   1  42
ATOM     42  C   LIG d   1      11.641   3.133  -6.179  0.00  0.00    -0.059 C 
ATOM     43  H   LIG d   1      11.301   2.149  -5.855  0.00  0.00     0.024 H 
ATOM     44  H   LIG d   1      11.833   3.117  -7.251  0.00  0.00     0.024 H 
ATOM     45  H   LIG d   1      12.558   3.392  -5.649  0.00  0.00     0.024 H 
ENDBRANCH   1  42
BRANCH   6  46
ATOM     46  C   LIG d   1       9.277   4.917  -9.436  0.00  0.00    -0.055 C 
ATOM     47  H   LIG d   1       8.824   5.909  -9.412  0.00  0.00     0.024 H 
ATOM     48  H   LIG d   1       9.784   4.772 -10.390  0.00  0.00     0.024 H 
ATOM     49  H   LIG d   1       8.502   4.161  -9.316  0.00  0.00     0.024 H 
ENDBRANCH   6  46
BRANCH   6  50
ATOM     50  C   LIG d   1      11.393   3.814  -8.709  0.00  0.00     0.052 C 
ATOM     51  H   LIG d   1      12.327   4.093  -8.222  0.00  0.00     0.056 H 
ATOM     52  H   LIG d   1      11.113   2.804  -8.408  0.00  0.00     0.056 H 
BRANCH  50  53
ATOM     53  O   LIG d   1      11.562   3.859 -10.127  0.00  0.00    -0.394 OA
ATOM     54  H   LIG d   1      11.914   3.042 -10.507  0.00  0.00     0.209 HD
ENDBRANCH  50  53
ENDBRANCH   6  50
BRANCH  13  55
ATOM     55  N   LIG d   1       7.282  -0.261  -3.250  0.00  0.00    -0.294 N 
ATOM     56  H   LIG d   1       7.846  -0.936  -2.841  0.00  0.00     0.154 HD
BRANCH  55  57
ATOM     57  C   LIG d   1       5.919  -0.212  -2.947  0.00  0.00     0.033 A 
ATOM     58  C   LIG d   1       5.183  -1.387  -2.857  0.00  0.00    -0.041 A 
ATOM     59  C   LIG d   1       3.836  -1.335  -2.557  0.00  0.00    -0.060 A 
ATOM     60  H   LIG d   1       5.664  -2.340  -3.022  0.00  0.00     0.064 H 
ATOM     61  C   LIG d   1       3.219  -0.115  -2.347  0.00  0.00    -0.062 A 
ATOM     62  H   LIG d   1       3.264  -2.248  -2.486  0.00  0.00     0.062 H 
ATOM     63  C   LIG d   1       3.949   1.056  -2.436  0.00  0.00    -0.060 A 
ATOM     64  H   LIG d   1       2.165  -0.077  -2.112  0.00  0.00     0.062 H 
ATOM     65  C   LIG d   1       5.297   1.012  -2.730  0.00  0.00    -0.041 A 
ATOM     66  H   LIG d   1       3.464   2.007  -2.272  0.00  0.00     0.062 H 
ATOM     67  H   LIG d   1       5.867   1.927  -2.795  0.00  0.00     0.064 H 
ENDBRANCH  55  57
ENDBRANCH  13  55
BRANCH   4  68
ATOM     68  O   LIG d   1      11.552   6.646  -9.198  0.00  0.00    -0.391 OA
ATOM     69  H   LIG d   1      10.988   6.646  -9.983  0.00  0.00     0.210 HD
ENDBRANCH   4  68
TORSDOF 11
ENDMDL
MODEL 4
REMARK VINA RESULT:      -6.8      3.656      8.171
REMARK  11 active torsions:
REMARK  status: ('A' for Active; 'I' for Inactive)
REMARK    1  A    between atoms: C_1  and  C_2 
REMARK    2  A    between atoms: C_5  and  O_39 
REMARK    3  A    between atoms: C_7  and  C_36 
REMARK    4  A    between atoms: C_7  and  C_37 
REMARK    5  A    between atoms: C_14  and  N_16 
REMARK    6  A    between atoms: N_16  and  C_17 
REMARK    7  A    between atoms: C_23  and  C_25 
REMARK    8  A    between atoms: C_25  and  C_26 
REMARK       I    between atoms: C_26  and  N_28 
REMARK    9  A    between atoms: N_28  and  C_29 
REMARK   10  A    between atoms: C_33  and  O_35 
REMARK   11  A    between atoms: C_37  and  O_38 
ROOT
ATOM      1  C   LIG d   1       6.560  -0.870  -9.575  0.00  0.00    -0.019 C 
ATOM      2  C   LIG d   1       7.999  -0.736 -10.091  0.00  0.00    -0.044 C 
ATOM      3  C   LIG d   1       8.187  -1.519 -11.388  0.00  0.00    -0.026 C 
ATOM      4  C   LIG d   1       7.232  -0.957 -12.446  0.00  0.00     0.063 C 
ATOM      5  H   LIG d   1       7.430   0.104 -12.594  0.00  0.00     0.060 H 
ATOM      6  C   LIG d   1       5.796  -1.146 -11.960  0.00  0.00     0.021 C 
ATOM      7  C   LIG d   1       5.574  -0.394 -10.645  0.00  0.00    -0.021 C 
ATOM      8  H   LIG d   1       5.688   0.677 -10.805  0.00  0.00     0.032 H 
ATOM      9  C   LIG d   1       4.139  -0.707 -10.178  0.00  0.00    -0.016 C 
ATOM     10  C   LIG d   1       3.991  -0.297  -8.755  0.00  0.00     0.015 A 
ATOM     11  C   LIG d   1       4.976   0.011  -7.874  0.00  0.00     0.058 A 
ATOM     12  N   LIG d   1       4.579   0.349  -6.648  0.00  0.00    -0.229 NA
ATOM     13  C   LIG d   1       3.306   0.384  -6.308  0.00  0.00     0.163 A 
ATOM     14  S   LIG d   1       2.522  -0.086  -7.787  0.00  0.00    -0.057 SA
ATOM     15  C   LIG d   1       6.433  -0.036  -8.309  0.00  0.00     0.016 C 
ATOM     16  H   LIG d   1       6.785   0.975  -8.511  0.00  0.00     0.037 H 
ATOM     17  H   LIG d   1       8.688  -1.116  -9.337  0.00  0.00     0.027 H 
ATOM     18  H   LIG d   1       8.208   0.318 -10.271  0.00  0.00     0.027 H 
ATOM     19  H   LIG d   1       7.963  -2.572 -11.215  0.00  0.00     0.029 H 
ATOM     20  H   LIG d   1       9.216  -1.414 -11.732  0.00  0.00     0.029 H 
ATOM     21  H   LIG d   1       3.951  -1.777 -10.270  0.00  0.00     0.032 H 
ATOM     22  H   LIG d   1       3.427  -0.156 -10.792  0.00  0.00     0.032 H 
ENDROOT
BRANCH  15  23
ATOM     23  C   LIG d   1       7.278  -0.656  -7.196  0.00  0.00     0.033 C 
ATOM     24  H   LIG d   1       6.623  -1.033  -6.409  0.00  0.00     0.036 H 
ATOM     25  H   LIG d   1       7.868  -1.479  -7.602  0.00  0.00     0.036 H 
BRANCH  23  26
ATOM     26  C   LIG d   1       8.200   0.388  -6.623  0.00  0.00     0.218 C 
ATOM     27  O   LIG d   1       9.373   0.396  -6.933  0.00  0.00    -0.276 OA
ATOM     28  N   LIG d   1       7.723   1.314  -5.768  0.00  0.00    -0.285 N 
ATOM     29  H   LIG d   1       6.773   1.354  -5.577  0.00  0.00     0.155 HD
BRANCH  28  30
ATOM     30  C   LIG d   1       8.598   2.217  -5.154  0.00  0.00     0.037 A 
ATOM     31  C   LIG d   1       9.209   1.885  -3.954  0.00  0.00     0.001 A 
ATOM     32  C   LIG d   1      10.078   2.781  -3.351  0.00  0.00     0.119 A 
ATOM     33  H   LIG d   1       9.010   0.930  -3.491  0.00  0.00     0.067 H 
ATOM     34  C   LIG d   1      10.329   4.010  -3.944  0.00  0.00    -0.020 A 
ATOM     35  C   LIG d   1       9.715   4.341  -5.138  0.00  0.00    -0.057 A 
ATOM     36  H   LIG d   1      11.004   4.709  -3.473  0.00  0.00     0.065 H 
ATOM     37  C   LIG d   1       8.852   3.449  -5.743  0.00  0.00    -0.040 A 
ATOM     38  H   LIG d   1       9.911   5.298  -5.597  0.00  0.00     0.062 H 
ATOM     39  H   LIG d   1       8.373   3.710  -6.676  0.00  0.00     0.064 H 
BRANCH  32  40
ATOM     40  O   LIG d   1      10.683   2.457  -2.178  0.00  0.00    -0.507 OA
ATOM     41  H   LIG d   1      10.147   2.643  -1.394  0.00  0.00     0.292 HD
ENDBRANCH  32  40
ENDBRANCH  28  30
ENDBRANCH  23  26
ENDBRANCH  15  23
BRANCH   1  42
ATOM     42  C   LIG d   1       6.282  -2.337  -9.238  0.00  0.00    -0.059 C 
ATOM     43  H   LIG d   1       7.227  -2.876  -9.161  0.00  0.00     0.024 H 
ATOM     44  H   LIG d   1       5.751  -2.397  -8.288  0.00  0.00     0.024 H 
ATOM     45  H   LIG d   1       5.673  -2.781 -10.024  0.00  0.00     0.024 H 
ENDBRANCH   1  42
BRANCH   6  46
ATOM     46  C   LIG d   1       4.829  -0.613 -13.019  0.00  0.00    -0.055 C 
ATOM     47  H   LIG d   1       3.972  -1.283 -13.098  0.00  0.00     0.024 H 
ATOM     48  H   LIG d   1       4.487   0.382 -12.730  0.00  0.00     0.024 H 
ATOM     49  H   LIG d   1       5.337  -0.558 -13.980  0.00  0.00     0.024 H 
ENDBRANCH   6  46
BRANCH   6  50
ATOM     50  C   LIG d   1       5.528  -2.638 -11.742  0.00  0.00     0.052 C 
ATOM     51  H   LIG d   1       6.457  -3.136 -11.462  0.00  0.00     0.056 H 
ATOM     52  H   LIG d   1       4.795  -2.762 -10.945  0.00  0.00     0.056 H 
BRANCH  50  53
ATOM     53  O   LIG d   1       5.023  -3.212 -12.949  0.00  0.00    -0.394 OA
ATOM     54  H   LIG d   1       5.611  -3.109 -13.709  0.00  0.00     0.209 HD
ENDBRANCH  50  53
ENDBRANCH   6  50
BRANCH  13  55
ATOM     55  N   LIG d   1       2.738   0.713  -5.086  0.00  0.00    -0.294 N 
ATOM     56  H   LIG d   1       1.943   1.268  -5.055  0.00  0.00     0.154 HD
BRANCH  55  57
ATOM     57  C   LIG d   1       3.311   0.246  -3.901  0.00  0.00     0.033 A 
ATOM     58  C   LIG d   1       3.872   1.140  -2.999  0.00  0.00    -0.041 A 
ATOM     59  C   LIG d   1       4.437   0.675  -1.828  0.00  0.00    -0.060 A 
ATOM     60  H   LIG d   1       3.866   2.199  -3.213  0.00  0.00     0.064 H 
ATOM     61  C   LIG d   1       4.446  -0.680  -1.552  0.00  0.00    -0.062 A 
ATOM     62  H   LIG d   1       4.873   1.371  -1.126  0.00  0.00     0.062 H 
ATOM     63  C   LIG d   1       3.889  -1.574  -2.449  0.00  0.00    -0.060 A 
ATOM     64  H   LIG d   1       4.889  -1.042  -0.636  0.00  0.00     0.062 H 
ATOM     65  C   LIG d   1       3.317  -1.115  -3.619  0.00  0.00    -0.041 A 
ATOM     66  H   LIG d   1       3.897  -2.632  -2.232  0.00  0.00     0.062 H 
ATOM     67  H   LIG d   1       2.878  -1.814  -4.317  0.00  0.00     0.064 H 
ENDBRANCH  55  57
ENDBRANCH  13  55
BRANCH   4  68
ATOM     68  O   LIG d   1       7.417  -1.655 -13.678  0.00  0.00    -0.391 OA
ATOM     69  H   LIG d   1       6.606  -1.773 -14.190  0.00  0.00     0.210 HD
ENDBRANCH   4  68
TORSDOF 11
ENDMDL
MODEL 5
REMARK VINA RESULT:      -6.8      2.267      2.943
REMARK  11 active torsions:
REMARK  status: ('A' for Active; 'I' for Inactive)
REMARK    1  A    between atoms: C_1  and  C_2 
REMARK    2  A    between atoms: C_5  and  O_39 
REMARK    3  A    between atoms: C_7  and  C_36 
REMARK    4  A    between atoms: C_7  and  C_37 
REMARK    5  A    between atoms: C_14  and  N_16 
REMARK    6  A    between atoms: N_16  and  C_17 
REMARK    7  A    between atoms: C_23  and  C_25 
REMARK    8  A    between atoms: C_25  and  C_26 
REMARK       I    between atoms: C_26  and  N_28 
REMARK    9  A    between atoms: N_28  and  C_29 
REMARK   10  A    between atoms: C_33  and  O_35 
REMARK   11  A    between atoms: C_37  and  O_38 
ROOT
ATOM      1  C   LIG d   1       9.545   3.247  -5.644  0.00  0.00    -0.019 C 
ATOM      2  C   LIG d   1       9.149   4.331  -4.634  0.00  0.00    -0.044 C 
ATOM      3  C   LIG d   1      10.154   5.481  -4.648  0.00  0.00    -0.026 C 
ATOM      4  C   LIG d   1      10.176   6.100  -6.049  0.00  0.00     0.063 C 
ATOM      5  H   LIG d   1       9.177   6.446  -6.315  0.00  0.00     0.060 H 
ATOM      6  C   LIG d   1      10.630   5.036  -7.048  0.00  0.00     0.021 C 
ATOM      7  C   LIG d   1       9.658   3.852  -7.046  0.00  0.00    -0.021 C 
ATOM      8  H   LIG d   1       8.677   4.176  -7.391  0.00  0.00     0.032 H 
ATOM      9  C   LIG d   1      10.232   2.791  -8.005  0.00  0.00    -0.016 C 
ATOM     10  C   LIG d   1       9.528   1.500  -7.777  0.00  0.00     0.015 A 
ATOM     11  C   LIG d   1       8.739   1.160  -6.727  0.00  0.00     0.058 A 
ATOM     12  N   LIG d   1       8.223  -0.068  -6.758  0.00  0.00    -0.229 NA
ATOM     13  C   LIG d   1       8.461  -0.904  -7.748  0.00  0.00     0.163 A 
ATOM     14  S   LIG d   1       9.497   0.038  -8.778  0.00  0.00    -0.057 SA
ATOM     15  C   LIG d   1       8.484   2.157  -5.607  0.00  0.00     0.016 C 
ATOM     16  H   LIG d   1       7.503   2.610  -5.741  0.00  0.00     0.037 H 
ATOM     17  H   LIG d   1       9.113   3.897  -3.635  0.00  0.00     0.027 H 
ATOM     18  H   LIG d   1       8.162   4.711  -4.899  0.00  0.00     0.027 H 
ATOM     19  H   LIG d   1      11.146   5.102  -4.400  0.00  0.00     0.029 H 
ATOM     20  H   LIG d   1       9.856   6.236  -3.921  0.00  0.00     0.029 H 
ATOM     21  H   LIG d   1      11.297   2.664  -7.814  0.00  0.00     0.032 H 
ATOM     22  H   LIG d   1      10.081   3.112  -9.035  0.00  0.00     0.032 H 
ENDROOT
BRANCH  15  23
ATOM     23  C   LIG d   1       8.533   1.435  -4.260  0.00  0.00     0.033 C 
ATOM     24  H   LIG d   1       9.142   0.536  -4.351  0.00  0.00     0.036 H 
ATOM     25  H   LIG d   1       8.970   2.094  -3.509  0.00  0.00     0.036 H 
BRANCH  23  26
ATOM     26  C   LIG d   1       7.136   1.056  -3.842  0.00  0.00     0.218 C 
ATOM     27  O   LIG d   1       6.486   1.808  -3.149  0.00  0.00    -0.276 OA
ATOM     28  N   LIG d   1       6.609  -0.119  -4.240  0.00  0.00    -0.285 N 
ATOM     29  H   LIG d   1       7.099  -0.688  -4.854  0.00  0.00     0.155 HD
BRANCH  28  30
ATOM     30  C   LIG d   1       5.355  -0.520  -3.766  0.00  0.00     0.037 A 
ATOM     31  C   LIG d   1       4.205  -0.163  -4.456  0.00  0.00     0.001 A 
ATOM     32  C   LIG d   1       2.965  -0.566  -3.985  0.00  0.00     0.119 A 
ATOM     33  H   LIG d   1       4.277   0.423  -5.360  0.00  0.00     0.067 H 
ATOM     34  C   LIG d   1       2.875  -1.314  -2.821  0.00  0.00    -0.020 A 
ATOM     35  C   LIG d   1       4.021  -1.664  -2.131  0.00  0.00    -0.057 A 
ATOM     36  H   LIG d   1       1.909  -1.625  -2.452  0.00  0.00     0.065 H 
ATOM     37  C   LIG d   1       5.259  -1.269  -2.600  0.00  0.00    -0.040 A 
ATOM     38  H   LIG d   1       3.948  -2.246  -1.225  0.00  0.00     0.062 H 
ATOM     39  H   LIG d   1       6.153  -1.542  -2.059  0.00  0.00     0.064 H 
BRANCH  32  40
ATOM     40  O   LIG d   1       1.837  -0.224  -4.662  0.00  0.00    -0.507 OA
ATOM     41  H   LIG d   1       1.338   0.499  -4.256  0.00  0.00     0.292 HD
ENDBRANCH  32  40
ENDBRANCH  28  30
ENDBRANCH  23  26
ENDBRANCH  15  23
BRANCH   1  42
ATOM     42  C   LIG d   1      10.893   2.647  -5.234  0.00  0.00    -0.059 C 
ATOM     43  H   LIG d   1      11.700   3.250  -5.650  0.00  0.00     0.024 H 
ATOM     44  H   LIG d   1      10.970   2.636  -4.148  0.00  0.00     0.024 H 
ATOM     45  H   LIG d   1      10.967   1.628  -5.614  0.00  0.00     0.024 H 
ENDBRANCH   1  42
BRANCH   6  46
ATOM     46  C   LIG d   1      10.682   5.647  -8.450  0.00  0.00    -0.055 C 
ATOM     47  H   LIG d   1       9.867   5.242  -9.052  0.00  0.00     0.024 H 
ATOM     48  H   LIG d   1      10.578   6.730  -8.378  0.00  0.00     0.024 H 
ATOM     49  H   LIG d   1      11.635   5.402  -8.917  0.00  0.00     0.024 H 
ENDBRANCH   6  46
BRANCH   6  50
ATOM     50  C   LIG d   1      12.028   4.545  -6.662  0.00  0.00     0.052 C 
ATOM     51  H   LIG d   1      12.145   4.595  -5.580  0.00  0.00     0.056 H 
ATOM     52  H   LIG d   1      12.154   3.513  -6.994  0.00  0.00     0.056 H 
BRANCH  50  53
ATOM     53  O   LIG d   1      13.012   5.371  -7.288  0.00  0.00    -0.394 OA
ATOM     54  H   LIG d   1      12.849   5.535  -8.226  0.00  0.00     0.209 HD
ENDBRANCH  50  53
ENDBRANCH   6  50
BRANCH  13  55
ATOM     55  N   LIG d   1       8.002  -2.201  -7.924  0.00  0.00    -0.294 N 
ATOM     56  H   LIG d   1       8.300  -2.721  -8.687  0.00  0.00     0.154 HD
BRANCH  55  57
ATOM     57  C   LIG d   1       7.111  -2.759  -7.004  0.00  0.00     0.033 A 
ATOM     58  C   LIG d   1       7.590  -3.349  -5.841  0.00  0.00    -0.041 A 
ATOM     59  C   LIG d   1       6.706  -3.898  -4.933  0.00  0.00    -0.060 A 
ATOM     60  H   LIG d   1       8.652  -3.378  -5.647  0.00  0.00     0.064 H 
ATOM     61  C   LIG d   1       5.346  -3.863  -5.180  0.00  0.00    -0.062 A 
ATOM     62  H   LIG d   1       7.078  -4.357  -4.029  0.00  0.00     0.062 H 
ATOM     63  C   LIG d   1       4.866  -3.276  -6.337  0.00  0.00    -0.060 A 
ATOM     64  H   LIG d   1       4.657  -4.294  -4.469  0.00  0.00     0.062 H 
ATOM     65  C   LIG d   1       5.744  -2.719  -7.247  0.00  0.00    -0.041 A 
ATOM     66  H   LIG d   1       3.804  -3.250  -6.527  0.00  0.00     0.062 H 
ATOM     67  H   LIG d   1       5.367  -2.258  -8.148  0.00  0.00     0.064 H 
ENDBRANCH  55  57
ENDBRANCH  13  55
BRANCH   4  68
ATOM     68  O   LIG d   1      11.086   7.200  -6.073  0.00  0.00    -0.391 OA
ATOM     69  H   LIG d   1      11.646   7.231  -6.861  0.00  0.00     0.210 HD
ENDBRANCH   4  68
TORSDOF 11
ENDMDL
MODEL 6
REMARK VINA RESULT:      -6.7      5.904      9.029
REMARK  11 active torsions:
REMARK  status: ('A' for Active; 'I' for Inactive)
REMARK    1  A    between atoms: C_1  and  C_2 
REMARK    2  A    between atoms: C_5  and  O_39 
REMARK    3  A    between atoms: C_7  and  C_36 
REMARK    4  A    between atoms: C_7  and  C_37 
REMARK    5  A    between atoms: C_14  and  N_16 
REMARK    6  A    between atoms: N_16  and  C_17 
REMARK    7  A    between atoms: C_23  and  C_25 
REMARK    8  A    between atoms: C_25  and  C_26 
REMARK       I    between atoms: C_26  and  N_28 
REMARK    9  A    between atoms: N_28  and  C_29 
REMARK   10  A    between atoms: C_33  and  O_35 
REMARK   11  A    between atoms: C_37  and  O_38 
ROOT
ATOM      1  C   LIG d   1       3.985  -2.606  -9.939  0.00  0.00    -0.019 C 
ATOM      2  C   LIG d   1       4.771  -3.827 -10.435  0.00  0.00    -0.044 C 
ATOM      3  C   LIG d   1       4.460  -4.115 -11.902  0.00  0.00    -0.026 C 
ATOM      4  C   LIG d   1       4.865  -2.898 -12.739  0.00  0.00     0.063 C 
ATOM      5  H   LIG d   1       5.925  -2.687 -12.594  0.00  0.00     0.060 H 
ATOM      6  C   LIG d   1       4.039  -1.694 -12.288  0.00  0.00     0.021 C 
ATOM      7  C   LIG d   1       4.305  -1.389 -10.810  0.00  0.00    -0.021 C 
ATOM      8  H   LIG d   1       5.345  -1.096 -10.673  0.00  0.00     0.032 H 
ATOM      9  C   LIG d   1       3.373  -0.229 -10.411  0.00  0.00    -0.016 C 
ATOM     10  C   LIG d   1       3.333  -0.126  -8.927  0.00  0.00     0.015 A 
ATOM     11  C   LIG d   1       3.761  -1.041  -8.021  0.00  0.00     0.058 A 
ATOM     12  N   LIG d   1       3.612  -0.709  -6.739  0.00  0.00    -0.229 NA
ATOM     13  C   LIG d   1       3.084   0.441  -6.370  0.00  0.00     0.163 A 
ATOM     14  S   LIG d   1       2.734   1.189  -7.900  0.00  0.00    -0.057 SA
ATOM     15  C   LIG d   1       4.372  -2.353  -8.490  0.00  0.00     0.016 C 
ATOM     16  H   LIG d   1       5.457  -2.297  -8.414  0.00  0.00     0.037 H 
ATOM     17  H   LIG d   1       4.503  -4.696  -9.833  0.00  0.00     0.027 H 
ATOM     18  H   LIG d   1       5.836  -3.626 -10.324  0.00  0.00     0.027 H 
ATOM     19  H   LIG d   1       3.393  -4.301 -12.020  0.00  0.00     0.029 H 
ATOM     20  H   LIG d   1       5.024  -4.988 -12.231  0.00  0.00     0.029 H 
ATOM     21  H   LIG d   1       2.369  -0.420 -10.789  0.00  0.00     0.032 H 
ATOM     22  H   LIG d   1       3.750   0.704 -10.831  0.00  0.00     0.032 H 
ENDROOT
BRANCH  15  23
ATOM     23  C   LIG d   1       3.859  -3.496  -7.612  0.00  0.00     0.033 C 
ATOM     24  H   LIG d   1       2.860  -3.257  -7.249  0.00  0.00     0.036 H 
ATOM     25  H   LIG d   1       3.822  -4.416  -8.198  0.00  0.00     0.036 H 
BRANCH  23  26
ATOM     26  C   LIG d   1       4.787  -3.685  -6.440  0.00  0.00     0.218 C 
ATOM     27  O   LIG d   1       4.394  -4.250  -5.442  0.00  0.00    -0.276 OA
ATOM     28  N   LIG d   1       6.053  -3.228  -6.502  0.00  0.00    -0.285 N 
ATOM     29  H   LIG d   1       6.390  -2.842  -7.325  0.00  0.00     0.155 HD
BRANCH  28  30
ATOM     30  C   LIG d   1       6.882  -3.308  -5.377  0.00  0.00     0.037 A 
ATOM     31  C   LIG d   1       7.747  -4.382  -5.227  0.00  0.00     0.001 A 
ATOM     32  C   LIG d   1       8.569  -4.455  -4.113  0.00  0.00     0.119 A 
ATOM     33  H   LIG d   1       7.783  -5.157  -5.978  0.00  0.00     0.067 H 
ATOM     34  C   LIG d   1       8.518  -3.461  -3.147  0.00  0.00    -0.020 A 
ATOM     35  C   LIG d   1       7.651  -2.394  -3.295  0.00  0.00    -0.057 A 
ATOM     36  H   LIG d   1       9.156  -3.519  -2.277  0.00  0.00     0.065 H 
ATOM     37  C   LIG d   1       6.834  -2.316  -4.406  0.00  0.00    -0.040 A 
ATOM     38  H   LIG d   1       7.612  -1.622  -2.542  0.00  0.00     0.062 H 
ATOM     39  H   LIG d   1       6.156  -1.482  -4.520  0.00  0.00     0.064 H 
BRANCH  32  40
ATOM     40  O   LIG d   1       9.423  -5.502  -3.966  0.00  0.00    -0.507 OA
ATOM     41  H   LIG d   1       9.337  -5.964  -3.120  0.00  0.00     0.292 HD
ENDBRANCH  32  40
ENDBRANCH  28  30
ENDBRANCH  23  26
ENDBRANCH  15  23
BRANCH   1  42
ATOM     42  C   LIG d   1       2.487  -2.910 -10.012  0.00  0.00    -0.059 C 
ATOM     43  H   LIG d   1       2.129  -3.208  -9.026  0.00  0.00     0.024 H 
ATOM     44  H   LIG d   1       1.951  -2.019 -10.339  0.00  0.00     0.024 H 
ATOM     45  H   LIG d   1       2.314  -3.719 -10.721  0.00  0.00     0.024 H 
ENDBRANCH   1  42
BRANCH   6  46
ATOM     46  C   LIG d   1       4.414  -0.476 -13.133  0.00  0.00    -0.055 C 
ATOM     47  H   LIG d   1       4.161   0.435 -12.589  0.00  0.00     0.024 H 
ATOM     48  H   LIG d   1       5.485  -0.491 -13.337  0.00  0.00     0.024 H 
ATOM     49  H   LIG d   1       3.865  -0.502 -14.072  0.00  0.00     0.024 H 
ENDBRANCH   6  46
BRANCH   6  50
ATOM     50  C   LIG d   1       2.552  -2.001 -12.481  0.00  0.00     0.052 C 
ATOM     51  H   LIG d   1       2.345  -3.019 -12.151  0.00  0.00     0.056 H 
ATOM     52  H   LIG d   1       1.957  -1.301 -11.894  0.00  0.00     0.056 H 
BRANCH  50  53
ATOM     53  O   LIG d   1       2.215  -1.870 -13.864  0.00  0.00    -0.394 OA
ATOM     54  H   LIG d   1       1.797  -1.028 -14.089  0.00  0.00     0.209 HD
ENDBRANCH  50  53
ENDBRANCH   6  50
BRANCH  13  55
ATOM     55  N   LIG d   1       2.864   0.929  -5.091  0.00  0.00    -0.294 N 
ATOM     56  H   LIG d   1       2.356   1.746  -4.964  0.00  0.00     0.154 HD
BRANCH  55  57
ATOM     57  C   LIG d   1       3.375   0.245  -3.985  0.00  0.00     0.033 A 
ATOM     58  C   LIG d   1       3.092  -1.103  -3.808  0.00  0.00    -0.041 A 
ATOM     59  C   LIG d   1       3.599  -1.776  -2.713  0.00  0.00    -0.060 A 
ATOM     60  H   LIG d   1       2.476  -1.625  -4.526  0.00  0.00     0.064 H 
ATOM     61  C   LIG d   1       4.387  -1.109  -1.793  0.00  0.00    -0.062 A 
ATOM     62  H   LIG d   1       3.379  -2.824  -2.576  0.00  0.00     0.062 H 
ATOM     63  C   LIG d   1       4.671   0.233  -1.966  0.00  0.00    -0.060 A 
ATOM     64  H   LIG d   1       4.782  -1.637  -0.938  0.00  0.00     0.062 H 
ATOM     65  C   LIG d   1       4.172   0.911  -3.061  0.00  0.00    -0.041 A 
ATOM     66  H   LIG d   1       5.286   0.752  -1.246  0.00  0.00     0.062 H 
ATOM     67  H   LIG d   1       4.397   1.959  -3.197  0.00  0.00     0.064 H 
ENDBRANCH  55  57
ENDBRANCH  13  55
BRANCH   4  68
ATOM     68  O   LIG d   1       4.614  -3.160 -14.120  0.00  0.00    -0.391 OA
ATOM     69  H   LIG d   1       4.854  -2.432 -14.709  0.00  0.00     0.210 HD
ENDBRANCH   4  68
TORSDOF 11
ENDMDL
MODEL 7
REMARK VINA RESULT:      -6.6      3.358      6.772
REMARK  11 active torsions:
REMARK  status: ('A' for Active; 'I' for Inactive)
REMARK    1  A    between atoms: C_1  and  C_2 
REMARK    2  A    between atoms: C_5  and  O_39 
REMARK    3  A    between atoms: C_7  and  C_36 
REMARK    4  A    between atoms: C_7  and  C_37 
REMARK    5  A    between atoms: C_14  and  N_16 
REMARK    6  A    between atoms: N_16  and  C_17 
REMARK    7  A    between atoms: C_23  and  C_25 
REMARK    8  A    between atoms: C_25  and  C_26 
REMARK       I    between atoms: C_26  and  N_28 
REMARK    9  A    between atoms: N_28  and  C_29 
REMARK   10  A    between atoms: C_33  and  O_35 
REMARK   11  A    between atoms: C_37  and  O_38 
ROOT
ATOM      1  C   LIG d   1      10.556   0.792  -4.925  0.00  0.00    -0.019 C 
ATOM      2  C   LIG d   1       9.928  -0.564  -5.268  0.00  0.00    -0.044 C 
ATOM      3  C   LIG d   1      10.884  -1.409  -6.108  0.00  0.00    -0.026 C 
ATOM      4  C   LIG d   1      12.165  -1.650  -5.303  0.00  0.00     0.063 C 
ATOM      5  H   LIG d   1      11.922  -2.146  -4.364  0.00  0.00     0.060 H 
ATOM      6  C   LIG d   1      12.824  -0.302  -5.014  0.00  0.00     0.021 C 
ATOM      7  C   LIG d   1      11.884   0.585  -4.192  0.00  0.00    -0.021 C 
ATOM      8  H   LIG d   1      11.704   0.134  -3.217  0.00  0.00     0.032 H 
ATOM      9  C   LIG d   1      12.580   1.949  -4.021  0.00  0.00    -0.016 C 
ATOM     10  C   LIG d   1      11.584   2.946  -3.544  0.00  0.00     0.015 A 
ATOM     11  C   LIG d   1      10.232   2.831  -3.539  0.00  0.00     0.058 A 
ATOM     12  N   LIG d   1       9.558   3.874  -3.057  0.00  0.00    -0.229 NA
ATOM     13  C   LIG d   1      10.165   4.955  -2.611  0.00  0.00     0.163 A 
ATOM     14  S   LIG d   1      11.840   4.557  -2.851  0.00  0.00    -0.057 SA
ATOM     15  C   LIG d   1       9.571   1.562  -4.057  0.00  0.00     0.016 C 
ATOM     16  H   LIG d   1       9.273   0.938  -3.216  0.00  0.00     0.037 H 
ATOM     17  H   LIG d   1       9.005  -0.403  -5.826  0.00  0.00     0.027 H 
ATOM     18  H   LIG d   1       9.702  -1.089  -4.340  0.00  0.00     0.027 H 
ATOM     19  H   LIG d   1      11.126  -0.880  -7.030  0.00  0.00     0.029 H 
ATOM     20  H   LIG d   1      10.416  -2.365  -6.344  0.00  0.00     0.029 H 
ATOM     21  H   LIG d   1      12.989   2.272  -4.978  0.00  0.00     0.032 H 
ATOM     22  H   LIG d   1      13.384   1.859  -3.291  0.00  0.00     0.032 H 
ENDROOT
BRANCH  15  23
ATOM     23  C   LIG d   1       8.337   1.930  -4.881  0.00  0.00     0.033 C 
ATOM     24  H   LIG d   1       8.250   3.015  -4.941  0.00  0.00     0.036 H 
ATOM     25  H   LIG d   1       8.433   1.518  -5.885  0.00  0.00     0.036 H 
BRANCH  23  26
ATOM     26  C   LIG d   1       7.105   1.364  -4.222  0.00  0.00     0.218 C 
ATOM     27  O   LIG d   1       6.656   1.889  -3.225  0.00  0.00    -0.276 OA
ATOM     28  N   LIG d   1       6.503   0.276  -4.740  0.00  0.00    -0.285 N 
ATOM     29  H   LIG d   1       6.818  -0.100  -5.577  0.00  0.00     0.155 HD
BRANCH  28  30
ATOM     30  C   LIG d   1       5.425  -0.313  -4.070  0.00  0.00     0.037 A 
ATOM     31  C   LIG d   1       4.130  -0.104  -4.521  0.00  0.00     0.001 A 
ATOM     32  C   LIG d   1       3.064  -0.692  -3.857  0.00  0.00     0.119 A 
ATOM     33  H   LIG d   1       3.952   0.513  -5.389  0.00  0.00     0.067 H 
ATOM     34  C   LIG d   1       3.295  -1.481  -2.739  0.00  0.00    -0.020 A 
ATOM     35  C   LIG d   1       4.586  -1.684  -2.288  0.00  0.00    -0.057 A 
ATOM     36  H   LIG d   1       2.465  -1.937  -2.219  0.00  0.00     0.065 H 
ATOM     37  C   LIG d   1       5.650  -1.103  -2.950  0.00  0.00    -0.040 A 
ATOM     38  H   LIG d   1       4.763  -2.297  -1.418  0.00  0.00     0.062 H 
ATOM     39  H   LIG d   1       6.658  -1.262  -2.596  0.00  0.00     0.064 H 
BRANCH  32  40
ATOM     40  O   LIG d   1       1.794  -0.495  -4.298  0.00  0.00    -0.507 OA
ATOM     41  H   LIG d   1       1.117  -0.912  -3.748  0.00  0.00     0.292 HD
ENDBRANCH  32  40
ENDBRANCH  28  30
ENDBRANCH  23  26
ENDBRANCH  15  23
BRANCH   1  42
ATOM     42  C   LIG d   1      10.800   1.574  -6.218  0.00  0.00    -0.059 C 
ATOM     43  H   LIG d   1       9.900   1.550  -6.832  0.00  0.00     0.024 H 
ATOM     44  H   LIG d   1      11.048   2.607  -5.976  0.00  0.00     0.024 H 
ATOM     45  H   LIG d   1      11.626   1.121  -6.766  0.00  0.00     0.024 H 
ENDBRANCH   1  42
BRANCH   6  46
ATOM     46  C   LIG d   1      14.119  -0.529  -4.232  0.00  0.00    -0.055 C 
ATOM     47  H   LIG d   1      14.908   0.101  -4.646  0.00  0.00     0.024 H 
ATOM     48  H   LIG d   1      13.961  -0.271  -3.184  0.00  0.00     0.024 H 
ATOM     49  H   LIG d   1      14.412  -1.575  -4.309  0.00  0.00     0.024 H 
ENDBRANCH   6  46
BRANCH   6  50
ATOM     50  C   LIG d   1      13.151   0.395  -6.336  0.00  0.00     0.052 C 
ATOM     51  H   LIG d   1      12.421   0.101  -7.092  0.00  0.00     0.056 H 
ATOM     52  H   LIG d   1      13.114   1.476  -6.196  0.00  0.00     0.056 H 
BRANCH  50  53
ATOM     53  O   LIG d   1      14.460   0.015  -6.764  0.00  0.00    -0.394 OA
ATOM     54  H   LIG d   1      15.039  -0.278  -6.047  0.00  0.00     0.209 HD
ENDBRANCH  50  53
ENDBRANCH   6  50
BRANCH  13  55
ATOM     55  N   LIG d   1       9.610   6.112  -2.084  0.00  0.00    -0.294 N 
ATOM     56  H   LIG d   1       8.812   6.493  -2.484  0.00  0.00     0.154 HD
BRANCH  55  57
ATOM     57  C   LIG d   1      10.199   6.729  -0.977  0.00  0.00     0.033 A 
ATOM     58  C   LIG d   1      10.624   5.964   0.102  0.00  0.00    -0.041 A 
ATOM     59  C   LIG d   1      11.207   6.576   1.193  0.00  0.00    -0.060 A 
ATOM     60  H   LIG d   1      10.500   4.891   0.086  0.00  0.00     0.064 H 
ATOM     61  C   LIG d   1      11.367   7.949   1.215  0.00  0.00    -0.062 A 
ATOM     62  H   LIG d   1      11.538   5.982   2.032  0.00  0.00     0.062 H 
ATOM     63  C   LIG d   1      10.945   8.714   0.142  0.00  0.00    -0.060 A 
ATOM     64  H   LIG d   1      11.823   8.426   2.070  0.00  0.00     0.062 H 
ATOM     65  C   LIG d   1      10.366   8.108  -0.956  0.00  0.00    -0.041 A 
ATOM     66  H   LIG d   1      11.071   9.786   0.162  0.00  0.00     0.062 H 
ATOM     67  H   LIG d   1      10.041   8.705  -1.794  0.00  0.00     0.064 H 
ENDBRANCH  55  57
ENDBRANCH  13  55
BRANCH   4  68
ATOM     68  O   LIG d   1      13.059  -2.468  -6.059  0.00  0.00    -0.391 OA
ATOM     69  H   LIG d   1      12.944  -2.397  -7.016  0.00  0.00     0.210 HD
ENDBRANCH   4  68
TORSDOF 11
ENDMDL
MODEL 8
REMARK VINA RESULT:      -6.6      3.433      8.556
REMARK  11 active torsions:
REMARK  status: ('A' for Active; 'I' for Inactive)
REMARK    1  A    between atoms: C_1  and  C_2 
REMARK    2  A    between atoms: C_5  and  O_39 
REMARK    3  A    between atoms: C_7  and  C_36 
REMARK    4  A    between atoms: C_7  and  C_37 
REMARK    5  A    between atoms: C_14  and  N_16 
REMARK    6  A    between atoms: N_16  and  C_17 
REMARK    7  A    between atoms: C_23  and  C_25 
REMARK    8  A    between atoms: C_25  and  C_26 
REMARK       I    between atoms: C_26  and  N_28 
REMARK    9  A    between atoms: N_28  and  C_29 
REMARK   10  A    between atoms: C_33  and  O_35 
REMARK   11  A    between atoms: C_37  and  O_38 
ROOT
ATOM      1  C   LIG d   1       3.394  -0.951 -10.073  0.00  0.00    -0.019 C 
ATOM      2  C   LIG d   1       1.895  -1.134  -9.805  0.00  0.00    -0.044 C 
ATOM      3  C   LIG d   1       1.116  -1.228 -11.115  0.00  0.00    -0.026 C 
ATOM      4  C   LIG d   1       1.624  -2.438 -11.905  0.00  0.00     0.063 C 
ATOM      5  H   LIG d   1       1.505  -3.343 -11.309  0.00  0.00     0.060 H 
ATOM      6  C   LIG d   1       3.103  -2.229 -12.226  0.00  0.00     0.021 C 
ATOM      7  C   LIG d   1       3.917  -2.105 -10.933  0.00  0.00    -0.021 C 
ATOM      8  H   LIG d   1       3.870  -3.038 -10.373  0.00  0.00     0.032 H 
ATOM      9  C   LIG d   1       5.373  -1.806 -11.340  0.00  0.00    -0.016 C 
ATOM     10  C   LIG d   1       6.124  -1.334 -10.145  0.00  0.00     0.015 A 
ATOM     11  C   LIG d   1       5.616  -0.918  -8.957  0.00  0.00     0.058 A 
ATOM     12  N   LIG d   1       6.506  -0.541  -8.041  0.00  0.00    -0.229 NA
ATOM     13  C   LIG d   1       7.803  -0.570  -8.270  0.00  0.00     0.163 A 
ATOM     14  S   LIG d   1       7.872  -1.172  -9.900  0.00  0.00    -0.057 SA
ATOM     15  C   LIG d   1       4.111  -0.906  -8.732  0.00  0.00     0.016 C 
ATOM     16  H   LIG d   1       3.825  -1.778  -8.145  0.00  0.00     0.037 H 
ATOM     17  H   LIG d   1       1.527  -0.285  -9.227  0.00  0.00     0.027 H 
ATOM     18  H   LIG d   1       1.752  -2.050  -9.233  0.00  0.00     0.027 H 
ATOM     19  H   LIG d   1       1.270  -0.320 -11.699  0.00  0.00     0.029 H 
ATOM     20  H   LIG d   1       0.054  -1.352 -10.901  0.00  0.00     0.029 H 
ATOM     21  H   LIG d   1       5.387  -1.033 -12.107  0.00  0.00     0.032 H 
ATOM     22  H   LIG d   1       5.837  -2.714 -11.726  0.00  0.00     0.032 H 
ENDROOT
BRANCH  15  23
ATOM     23  C   LIG d   1       3.719   0.366  -7.980  0.00  0.00     0.033 C 
ATOM     24  H   LIG d   1       4.498   1.119  -8.106  0.00  0.00     0.036 H 
ATOM     25  H   LIG d   1       2.778   0.748  -8.377  0.00  0.00     0.036 H 
BRANCH  23  26
ATOM     26  C   LIG d   1       3.555   0.054  -6.515  0.00  0.00     0.218 C 
ATOM     27  O   LIG d   1       2.490   0.251  -5.969  0.00  0.00    -0.276 OA
ATOM     28  N   LIG d   1       4.591  -0.445  -5.812  0.00  0.00    -0.285 N 
ATOM     29  H   LIG d   1       5.419  -0.671  -6.263  0.00  0.00     0.155 HD
BRANCH  28  30
ATOM     30  C   LIG d   1       4.473  -0.635  -4.431  0.00  0.00     0.037 A 
ATOM     31  C   LIG d   1       4.691   0.426  -3.563  0.00  0.00     0.001 A 
ATOM     32  C   LIG d   1       4.569   0.234  -2.195  0.00  0.00     0.119 A 
ATOM     33  H   LIG d   1       4.953   1.398  -3.952  0.00  0.00     0.067 H 
ATOM     34  C   LIG d   1       4.238  -1.017  -1.697  0.00  0.00    -0.020 A 
ATOM     35  C   LIG d   1       4.026  -2.074  -2.563  0.00  0.00    -0.057 A 
ATOM     36  H   LIG d   1       4.145  -1.167  -0.632  0.00  0.00     0.065 H 
ATOM     37  C   LIG d   1       4.142  -1.886  -3.926  0.00  0.00    -0.040 A 
ATOM     38  H   LIG d   1       3.769  -3.047  -2.173  0.00  0.00     0.062 H 
ATOM     39  H   LIG d   1       3.977  -2.713  -4.602  0.00  0.00     0.064 H 
BRANCH  32  40
ATOM     40  O   LIG d   1       4.776   1.272  -1.342  0.00  0.00    -0.507 OA
ATOM     41  H   LIG d   1       5.705   1.526  -1.249  0.00  0.00     0.292 HD
ENDBRANCH  32  40
ENDBRANCH  28  30
ENDBRANCH  23  26
ENDBRANCH  15  23
BRANCH   1  42
ATOM     42  C   LIG d   1       3.617   0.375 -10.804  0.00  0.00    -0.059 C 
ATOM     43  H   LIG d   1       4.438   0.265 -11.513  0.00  0.00     0.024 H 
ATOM     44  H   LIG d   1       2.709   0.652 -11.339  0.00  0.00     0.024 H 
ATOM     45  H   LIG d   1       3.863   1.152 -10.080  0.00  0.00     0.024 H 
ENDBRANCH   1  42
BRANCH   6  46
ATOM     46  C   LIG d   1       3.620  -3.419 -13.037  0.00  0.00    -0.055 C 
ATOM     47  H   LIG d   1       2.863  -4.205 -13.050  0.00  0.00     0.024 H 
ATOM     48  H   LIG d   1       3.829  -3.099 -14.058  0.00  0.00     0.024 H 
ATOM     49  H   LIG d   1       4.532  -3.801 -12.581  0.00  0.00     0.024 H 
ENDBRANCH   6  46
BRANCH   6  50
ATOM     50  C   LIG d   1       3.266  -0.950 -13.051  0.00  0.00     0.052 C 
ATOM     51  H   LIG d   1       2.420  -0.288 -12.865  0.00  0.00     0.056 H 
ATOM     52  H   LIG d   1       4.191  -0.448 -12.765  0.00  0.00     0.056 H 
BRANCH  50  53
ATOM     53  O   LIG d   1       3.314  -1.283 -14.440  0.00  0.00    -0.394 OA
ATOM     54  H   LIG d   1       4.210  -1.360 -14.795  0.00  0.00     0.209 HD
ENDBRANCH  50  53
ENDBRANCH   6  50
BRANCH  13  55
ATOM     55  N   LIG d   1       8.846  -0.215  -7.427  0.00  0.00    -0.294 N 
ATOM     56  H   LIG d   1       9.754  -0.480  -7.642  0.00  0.00     0.154 HD
BRANCH  55  57
ATOM     57  C   LIG d   1       8.589   0.525  -6.271  0.00  0.00     0.033 A 
ATOM     58  C   LIG d   1       8.652   1.913  -6.303  0.00  0.00    -0.041 A 
ATOM     59  C   LIG d   1       8.397   2.641  -5.158  0.00  0.00    -0.060 A 
ATOM     60  H   LIG d   1       8.900   2.421  -7.224  0.00  0.00     0.064 H 
ATOM     61  C   LIG d   1       8.079   1.992  -3.979  0.00  0.00    -0.062 A 
ATOM     62  H   LIG d   1       8.446   3.720  -5.183  0.00  0.00     0.062 H 
ATOM     63  C   LIG d   1       8.016   0.611  -3.943  0.00  0.00    -0.060 A 
ATOM     64  H   LIG d   1       7.881   2.564  -3.085  0.00  0.00     0.062 H 
ATOM     65  C   LIG d   1       8.264  -0.124  -5.086  0.00  0.00    -0.041 A 
ATOM     66  H   LIG d   1       7.768   0.106  -3.021  0.00  0.00     0.062 H 
ATOM     67  H   LIG d   1       8.210  -1.203  -5.058  0.00  0.00     0.064 H 
ENDBRANCH  55  57
ENDBRANCH  13  55
BRANCH   4  68
ATOM     68  O   LIG d   1       0.884  -2.564 -13.119  0.00  0.00    -0.391 OA
ATOM     69  H   LIG d   1       0.952  -1.796 -13.703  0.00  0.00     0.210 HD
ENDBRANCH   4  68
TORSDOF 11
ENDMDL
MODEL 9
REMARK VINA RESULT:      -6.5      6.195     10.635
REMARK  11 active torsions:
REMARK  status: ('A' for Active; 'I' for Inactive)
REMARK    1  A    between atoms: C_1  and  C_2 
REMARK    2  A    between atoms: C_5  and  O_39 
REMARK    3  A    between atoms: C_7  and  C_36 
REMARK    4  A    between atoms: C_7  and  C_37 
REMARK    5  A    between atoms: C_14  and  N_16 
REMARK    6  A    between atoms: N_16  and  C_17 
REMARK    7  A    between atoms: C_23  and  C_25 
REMARK    8  A    between atoms: C_25  and  C_26 
REMARK       I    between atoms: C_26  and  N_28 
REMARK    9  A    between atoms: N_28  and  C_29 
REMARK   10  A    between atoms: C_33  and  O_35 
REMARK   11  A    between atoms: C_37  and  O_38 
ROOT
ATOM      1  C   LIG d   1       3.621  -3.739  -8.965  0.00  0.00    -0.019 C 
ATOM      2  C   LIG d   1       3.156  -2.279  -8.919  0.00  0.00    -0.044 C 
ATOM      3  C   LIG d   1       2.466  -1.886 -10.223  0.00  0.00    -0.026 C 
ATOM      4  C   LIG d   1       1.242  -2.785 -10.423  0.00  0.00     0.063 C 
ATOM      5  H   LIG d   1       0.567  -2.683  -9.574  0.00  0.00     0.060 H 
ATOM      6  C   LIG d   1       1.711  -4.235 -10.531  0.00  0.00     0.021 C 
ATOM      7  C   LIG d   1       2.431  -4.660  -9.247  0.00  0.00    -0.021 C 
ATOM      8  H   LIG d   1       1.738  -4.640  -8.408  0.00  0.00     0.032 H 
ATOM      9  C   LIG d   1       2.949  -6.094  -9.470  0.00  0.00    -0.016 C 
ATOM     10  C   LIG d   1       3.942  -6.421  -8.411  0.00  0.00     0.015 A 
ATOM     11  C   LIG d   1       4.562  -5.563  -7.561  0.00  0.00     0.058 A 
ATOM     12  N   LIG d   1       5.418  -6.110  -6.699  0.00  0.00    -0.229 NA
ATOM     13  C   LIG d   1       5.650  -7.407  -6.670  0.00  0.00     0.163 A 
ATOM     14  S   LIG d   1       4.612  -7.992  -7.936  0.00  0.00    -0.057 SA
ATOM     15  C   LIG d   1       4.260  -4.074  -7.625  0.00  0.00     0.016 C 
ATOM     16  H   LIG d   1       3.570  -3.808  -6.825  0.00  0.00     0.037 H 
ATOM     17  H   LIG d   1       4.018  -1.631  -8.758  0.00  0.00     0.027 H 
ATOM     18  H   LIG d   1       2.457  -2.161  -8.091  0.00  0.00     0.027 H 
ATOM     19  H   LIG d   1       3.157  -2.018 -11.056  0.00  0.00     0.029 H 
ATOM     20  H   LIG d   1       2.148  -0.845 -10.170  0.00  0.00     0.029 H 
ATOM     21  H   LIG d   1       3.424  -6.163 -10.448  0.00  0.00     0.032 H 
ATOM     22  H   LIG d   1       2.116  -6.795  -9.417  0.00  0.00     0.032 H 
ENDROOT
BRANCH  15  23
ATOM     23  C   LIG d   1       5.558  -3.283  -7.461  0.00  0.00     0.033 C 
ATOM     24  H   LIG d   1       6.396  -3.974  -7.369  0.00  0.00     0.036 H 
ATOM     25  H   LIG d   1       5.709  -2.645  -8.332  0.00  0.00     0.036 H 
BRANCH  23  26
ATOM     26  C   LIG d   1       5.474  -2.428  -6.223  0.00  0.00     0.218 C 
ATOM     27  O   LIG d   1       6.469  -1.886  -5.792  0.00  0.00    -0.276 OA
ATOM     28  N   LIG d   1       4.292  -2.266  -5.595  0.00  0.00    -0.285 N 
ATOM     29  H   LIG d   1       3.484  -2.638  -5.979  0.00  0.00     0.155 HD
BRANCH  28  30
ATOM     30  C   LIG d   1       4.233  -1.561  -4.387  0.00  0.00     0.037 A 
ATOM     31  C   LIG d   1       4.054  -0.185  -4.395  0.00  0.00     0.001 A 
ATOM     32  C   LIG d   1       3.991   0.509  -3.196  0.00  0.00     0.119 A 
ATOM     33  H   LIG d   1       3.960   0.343  -5.331  0.00  0.00     0.067 H 
ATOM     34  C   LIG d   1       4.117  -0.172  -1.994  0.00  0.00    -0.020 A 
ATOM     35  C   LIG d   1       4.302  -1.542  -1.989  0.00  0.00    -0.057 A 
ATOM     36  H   LIG d   1       4.072   0.369  -1.060  0.00  0.00     0.065 H 
ATOM     37  C   LIG d   1       4.359  -2.237  -3.181  0.00  0.00    -0.040 A 
ATOM     38  H   LIG d   1       4.400  -2.069  -1.052  0.00  0.00     0.062 H 
ATOM     39  H   LIG d   1       4.504  -3.308  -3.175  0.00  0.00     0.064 H 
BRANCH  32  40
ATOM     40  O   LIG d   1       3.810   1.856  -3.199  0.00  0.00    -0.507 OA
ATOM     41  H   LIG d   1       4.541   2.351  -3.593  0.00  0.00     0.292 HD
ENDBRANCH  32  40
ENDBRANCH  28  30
ENDBRANCH  23  26
ENDBRANCH  15  23
BRANCH   1  42
ATOM     42  C   LIG d   1       4.667  -3.898 -10.071  0.00  0.00    -0.059 C 
ATOM     43  H   LIG d   1       5.343  -4.716  -9.816  0.00  0.00     0.024 H 
ATOM     44  H   LIG d   1       4.168  -4.120 -11.013  0.00  0.00     0.024 H 
ATOM     45  H   LIG d   1       5.236  -2.974 -10.169  0.00  0.00     0.024 H 
ENDBRANCH   1  42
BRANCH   6  46
ATOM     46  C   LIG d   1       0.501  -5.144 -10.757  0.00  0.00    -0.055 C 
ATOM     47  H   LIG d   1       0.809  -6.025 -11.321  0.00  0.00     0.024 H 
ATOM     48  H   LIG d   1       0.094  -5.454  -9.794  0.00  0.00     0.024 H 
ATOM     49  H   LIG d   1      -0.261  -4.602 -11.316  0.00  0.00     0.024 H 
ENDBRANCH   6  46
BRANCH   6  50
ATOM     50  C   LIG d   1       2.668  -4.370 -11.717  0.00  0.00     0.052 C 
ATOM     51  H   LIG d   1       3.210  -3.434 -11.855  0.00  0.00     0.056 H 
ATOM     52  H   LIG d   1       3.377  -5.176 -11.522  0.00  0.00     0.056 H 
BRANCH  50  53
ATOM     53  O   LIG d   1       1.923  -4.668 -12.900  0.00  0.00    -0.394 OA
ATOM     54  H   LIG d   1       1.600  -3.886 -13.368  0.00  0.00     0.209 HD
ENDBRANCH  50  53
ENDBRANCH   6  50
BRANCH  13  55
ATOM     55  N   LIG d   1       6.502  -8.122  -5.840  0.00  0.00    -0.294 N 
ATOM     56  H   LIG d   1       7.460  -8.099  -5.994  0.00  0.00     0.154 HD
BRANCH  55  57
ATOM     57  C   LIG d   1       5.981  -8.874  -4.785  0.00  0.00     0.033 A 
ATOM     58  C   LIG d   1       4.616  -9.128  -4.718  0.00  0.00    -0.041 A 
ATOM     59  C   LIG d   1       4.105  -9.873  -3.673  0.00  0.00    -0.060 A 
ATOM     60  H   LIG d   1       3.957  -8.744  -5.482  0.00  0.00     0.064 H 
ATOM     61  C   LIG d   1       4.948 -10.365  -2.694  0.00  0.00    -0.062 A 
ATOM     62  H   LIG d   1       3.044 -10.071  -3.621  0.00  0.00     0.062 H 
ATOM     63  C   LIG d   1       6.307 -10.114  -2.758  0.00  0.00    -0.060 A 
ATOM     64  H   LIG d   1       4.546 -10.947  -1.879  0.00  0.00     0.062 H 
ATOM     65  C   LIG d   1       6.826  -9.375  -3.803  0.00  0.00    -0.041 A 
ATOM     66  H   LIG d   1       6.963 -10.500  -1.992  0.00  0.00     0.062 H 
ATOM     67  H   LIG d   1       7.888  -9.183  -3.854  0.00  0.00     0.064 H 
ENDBRANCH  55  57
ENDBRANCH  13  55
BRANCH   4  68
ATOM     68  O   LIG d   1       0.563  -2.411 -11.622  0.00  0.00    -0.391 OA
ATOM     69  H   LIG d   1      -0.263  -1.930 -11.474  0.00  0.00     0.210 HD
ENDBRANCH   4  68
TORSDOF 11
ENDMDL
