MODEL 1
REMARK VINA RESULT:      -5.5      0.000      0.000
REMARK  4 active torsions:
REMARK  status: ('A' for Active; 'I' for Inactive)
REMARK    1  A    between atoms: C_1  and  C_2 
REMARK    2  A    between atoms: C_5  and  C_15 
REMARK    3  A    between atoms: C_5  and  C_16 
REMARK    4  A    between atoms: C_9  and  C_13 
ROOT
ATOM      1  C   LIG d   1       6.431  -1.195  -5.731  0.00  0.00    -0.076 C 
ATOM      2  C   LIG d   1       6.076  -0.261  -4.883  0.00  0.00    -0.084 C 
ATOM      3  C   LIG d   1       6.074  -0.538  -3.401  0.00  0.00    -0.026 C 
ATOM      4  C   LIG d   1       4.678  -0.258  -2.832  0.00  0.00    -0.013 C 
ATOM      5  C   LIG d   1       3.656  -0.512  -3.910  0.00  0.00    -0.082 C 
ATOM      6  C   LIG d   1       3.067   0.490  -4.513  0.00  0.00    -0.083 C 
ATOM      7  C   LIG d   1       2.241   0.218  -5.752  0.00  0.00    -0.008 C 
ATOM      8  C   LIG d   1       3.205  -0.059  -6.883  0.00  0.00    -0.025 C 
ATOM      9  C   LIG d   1       3.991  -1.130  -6.818  0.00  0.00    -0.079 C 
ATOM     10  C   LIG d   1       5.091  -1.336  -7.827  0.00  0.00    -0.030 C 
ATOM     11  C   LIG d   1       6.427  -0.915  -7.211  0.00  0.00    -0.029 C 
ATOM     12  H   LIG d   1       5.788   0.713  -5.248  0.00  0.00     0.057 H 
ATOM     13  H   LIG d   1       6.336  -1.582  -3.225  0.00  0.00     0.032 H 
ATOM     14  H   LIG d   1       6.802   0.107  -2.910  0.00  0.00     0.032 H 
ATOM     15  H   LIG d   1       3.404  -1.528  -4.180  0.00  0.00     0.058 H 
ATOM     16  H   LIG d   1       3.228   1.503  -4.189  0.00  0.00     0.057 H 
ATOM     17  H   LIG d   1       1.601  -0.648  -5.588  0.00  0.00     0.036 H 
ATOM     18  H   LIG d   1       1.630   1.091  -5.988  0.00  0.00     0.036 H 
ATOM     19  H   LIG d   1       3.881  -1.829  -6.002  0.00  0.00     0.058 H 
ATOM     20  H   LIG d   1       5.135  -2.388  -8.106  0.00  0.00     0.031 H 
ATOM     21  H   LIG d   1       4.892  -0.733  -8.712  0.00  0.00     0.031 H 
ATOM     22  H   LIG d   1       7.236  -1.472  -7.685  0.00  0.00     0.031 H 
ATOM     23  H   LIG d   1       6.581   0.152  -7.375  0.00  0.00     0.031 H 
ENDROOT
BRANCH   4  24
ATOM     24  C   LIG d   1       4.413  -1.187  -1.645  0.00  0.00    -0.056 C 
ATOM     25  H   LIG d   1       3.567  -0.810  -1.071  0.00  0.00     0.024 H 
ATOM     26  H   LIG d   1       4.187  -2.189  -2.011  0.00  0.00     0.024 H 
ATOM     27  H   LIG d   1       5.297  -1.224  -1.008  0.00  0.00     0.024 H 
ENDBRANCH   4  24
BRANCH   4  28
ATOM     28  C   LIG d   1       4.594   1.198  -2.373  0.00  0.00    -0.056 C 
ATOM     29  H   LIG d   1       4.112   1.245  -1.397  0.00  0.00     0.024 H 
ATOM     30  H   LIG d   1       5.599   1.615  -2.302  0.00  0.00     0.024 H 
ATOM     31  H   LIG d   1       4.014   1.773  -3.093  0.00  0.00     0.024 H 
ENDBRANCH   4  28
BRANCH   1  32
ATOM     32  C   LIG d   1       6.845  -2.554  -5.224  0.00  0.00    -0.044 C 
ATOM     33  H   LIG d   1       7.662  -2.442  -4.510  0.00  0.00     0.027 H 
ATOM     34  H   LIG d   1       5.997  -3.032  -4.732  0.00  0.00     0.027 H 
ATOM     35  H   LIG d   1       7.174  -3.170  -6.060  0.00  0.00     0.027 H 
ENDBRANCH   1  32
BRANCH   8  36
ATOM     36  C   LIG d   1       3.265   0.846  -8.037  0.00  0.00     0.068 C 
ATOM     37  O   LIG d   1       4.002   1.812  -8.014  0.00  0.00    -0.545 OA
ATOM     38  O   LIG d   1       2.502   0.606  -9.122  0.00  0.00    -0.545 OA
ENDBRANCH   8  36
TORSDOF 4
ENDMDL
MODEL 2
REMARK VINA RESULT:      -5.4      2.309      4.314
REMARK  4 active torsions:
REMARK  status: ('A' for Active; 'I' for Inactive)
REMARK    1  A    between atoms: C_1  and  C_2 
REMARK    2  A    between atoms: C_5  and  C_15 
REMARK    3  A    between atoms: C_5  and  C_16 
REMARK    4  A    between atoms: C_9  and  C_13 
ROOT
ATOM      1  C   LIG d   1       4.297  -0.896  -6.736  0.00  0.00    -0.076 C 
ATOM      2  C   LIG d   1       5.364  -1.368  -6.140  0.00  0.00    -0.084 C 
ATOM      3  C   LIG d   1       5.846  -2.766  -6.433  0.00  0.00    -0.026 C 
ATOM      4  C   LIG d   1       5.924  -3.563  -5.125  0.00  0.00    -0.013 C 
ATOM      5  C   LIG d   1       4.888  -3.029  -4.170  0.00  0.00    -0.082 C 
ATOM      6  C   LIG d   1       5.245  -2.283  -3.155  0.00  0.00    -0.083 C 
ATOM      7  C   LIG d   1       4.177  -1.559  -2.365  0.00  0.00    -0.008 C 
ATOM      8  C   LIG d   1       3.699  -0.400  -3.211  0.00  0.00    -0.025 C 
ATOM      9  C   LIG d   1       3.088  -0.648  -4.365  0.00  0.00    -0.079 C 
ATOM     10  C   LIG d   1       2.769   0.472  -5.321  0.00  0.00    -0.030 C 
ATOM     11  C   LIG d   1       3.817   0.500  -6.436  0.00  0.00    -0.029 C 
ATOM     12  H   LIG d   1       5.904  -0.749  -5.438  0.00  0.00     0.057 H 
ATOM     13  H   LIG d   1       5.151  -3.256  -7.115  0.00  0.00     0.032 H 
ATOM     14  H   LIG d   1       6.834  -2.721  -6.890  0.00  0.00     0.032 H 
ATOM     15  H   LIG d   1       3.846  -3.272  -4.321  0.00  0.00     0.058 H 
ATOM     16  H   LIG d   1       6.284  -2.115  -2.930  0.00  0.00     0.057 H 
ATOM     17  H   LIG d   1       3.347  -2.234  -2.158  0.00  0.00     0.036 H 
ATOM     18  H   LIG d   1       4.596  -1.188  -1.429  0.00  0.00     0.036 H 
ATOM     19  H   LIG d   1       2.870  -1.667  -4.651  0.00  0.00     0.058 H 
ATOM     20  H   LIG d   1       1.782   0.311  -5.754  0.00  0.00     0.031 H 
ATOM     21  H   LIG d   1       2.781   1.422  -4.786  0.00  0.00     0.031 H 
ATOM     22  H   LIG d   1       3.377   0.931  -7.336  0.00  0.00     0.031 H 
ATOM     23  H   LIG d   1       4.664   1.111  -6.121  0.00  0.00     0.031 H 
ENDROOT
BRANCH   4  24
ATOM     24  C   LIG d   1       5.648  -5.041  -5.409  0.00  0.00    -0.056 C 
ATOM     25  H   LIG d   1       5.572  -5.197  -6.484  0.00  0.00     0.024 H 
ATOM     26  H   LIG d   1       6.462  -5.646  -5.009  0.00  0.00     0.024 H 
ATOM     27  H   LIG d   1       4.712  -5.333  -4.933  0.00  0.00     0.024 H 
ENDBRANCH   4  24
BRANCH   4  28
ATOM     28  C   LIG d   1       7.318  -3.409  -4.515  0.00  0.00    -0.056 C 
ATOM     29  H   LIG d   1       7.961  -2.865  -5.206  0.00  0.00     0.024 H 
ATOM     30  H   LIG d   1       7.245  -2.859  -3.576  0.00  0.00     0.024 H 
ATOM     31  H   LIG d   1       7.742  -4.395  -4.324  0.00  0.00     0.024 H 
ENDBRANCH   4  28
BRANCH   1  32
ATOM     32  C   LIG d   1       3.547  -1.753  -7.724  0.00  0.00    -0.044 C 
ATOM     33  H   LIG d   1       4.016  -2.736  -7.781  0.00  0.00     0.027 H 
ATOM     34  H   LIG d   1       2.512  -1.863  -7.399  0.00  0.00     0.027 H 
ATOM     35  H   LIG d   1       3.571  -1.282  -8.707  0.00  0.00     0.027 H 
ENDBRANCH   1  32
BRANCH   8  36
ATOM     36  C   LIG d   1       3.910   0.979  -2.755  0.00  0.00     0.068 C 
ATOM     37  O   LIG d   1       3.104   1.503  -2.012  0.00  0.00    -0.545 OA
ATOM     38  O   LIG d   1       4.998   1.664  -3.161  0.00  0.00    -0.545 OA
ENDBRANCH   8  36
TORSDOF 4
ENDMDL
MODEL 3
REMARK VINA RESULT:      -5.3      2.575      4.675
REMARK  4 active torsions:
REMARK  status: ('A' for Active; 'I' for Inactive)
REMARK    1  A    between atoms: C_1  and  C_2 
REMARK    2  A    between atoms: C_5  and  C_15 
REMARK    3  A    between atoms: C_5  and  C_16 
REMARK    4  A    between atoms: C_9  and  C_13 
ROOT
ATOM      1  C   LIG d   1       6.378  -0.314  -6.526  0.00  0.00    -0.076 C 
ATOM      2  C   LIG d   1       5.244  -0.641  -7.094  0.00  0.00    -0.084 C 
ATOM      3  C   LIG d   1       4.706   0.169  -8.246  0.00  0.00    -0.026 C 
ATOM      4  C   LIG d   1       3.298   0.671  -7.904  0.00  0.00    -0.013 C 
ATOM      5  C   LIG d   1       3.195   0.843  -6.410  0.00  0.00    -0.082 C 
ATOM      6  C   LIG d   1       2.525  -0.018  -5.689  0.00  0.00    -0.083 C 
ATOM      7  C   LIG d   1       2.645   0.035  -4.181  0.00  0.00    -0.008 C 
ATOM      8  C   LIG d   1       4.002  -0.527  -3.819  0.00  0.00    -0.025 C 
ATOM      9  C   LIG d   1       5.097   0.111  -4.220  0.00  0.00    -0.079 C 
ATOM     10  C   LIG d   1       6.457  -0.513  -4.044  0.00  0.00    -0.030 C 
ATOM     11  C   LIG d   1       6.909  -1.124  -5.373  0.00  0.00    -0.029 C 
ATOM     12  H   LIG d   1       4.693  -1.499  -6.737  0.00  0.00     0.057 H 
ATOM     13  H   LIG d   1       5.361   1.022  -8.429  0.00  0.00     0.032 H 
ATOM     14  H   LIG d   1       4.662  -0.454  -9.139  0.00  0.00     0.032 H 
ATOM     15  H   LIG d   1       3.673   1.689  -5.936  0.00  0.00     0.058 H 
ATOM     16  H   LIG d   1       1.958  -0.807  -6.152  0.00  0.00     0.057 H 
ATOM     17  H   LIG d   1       2.568   1.067  -3.839  0.00  0.00     0.036 H 
ATOM     18  H   LIG d   1       1.859  -0.567  -3.725  0.00  0.00     0.036 H 
ATOM     19  H   LIG d   1       5.011   1.059  -4.731  0.00  0.00     0.058 H 
ATOM     20  H   LIG d   1       7.170   0.250  -3.734  0.00  0.00     0.031 H 
ATOM     21  H   LIG d   1       6.404  -1.293  -3.284  0.00  0.00     0.031 H 
ATOM     22  H   LIG d   1       7.999  -1.137  -5.413  0.00  0.00     0.031 H 
ATOM     23  H   LIG d   1       6.533  -2.145  -5.448  0.00  0.00     0.031 H 
ENDROOT
BRANCH   4  24
ATOM     24  C   LIG d   1       3.051   2.014  -8.594  0.00  0.00    -0.056 C 
ATOM     25  H   LIG d   1       3.997   2.419  -8.950  0.00  0.00     0.024 H 
ATOM     26  H   LIG d   1       2.376   1.869  -9.438  0.00  0.00     0.024 H 
ATOM     27  H   LIG d   1       2.601   2.709  -7.885  0.00  0.00     0.024 H 
ENDBRANCH   4  24
BRANCH   4  28
ATOM     28  C   LIG d   1       2.262  -0.349  -8.379  0.00  0.00    -0.056 C 
ATOM     29  H   LIG d   1       2.091  -0.224  -9.447  0.00  0.00     0.024 H 
ATOM     30  H   LIG d   1       2.629  -1.357  -8.185  0.00  0.00     0.024 H 
ATOM     31  H   LIG d   1       1.327  -0.194  -7.840  0.00  0.00     0.024 H 
ENDBRANCH   4  28
BRANCH   1  32
ATOM     32  C   LIG d   1       7.155   0.877  -7.029  0.00  0.00    -0.044 C 
ATOM     33  H   LIG d   1       7.485   0.690  -8.052  0.00  0.00     0.027 H 
ATOM     34  H   LIG d   1       6.517   1.761  -7.010  0.00  0.00     0.027 H 
ATOM     35  H   LIG d   1       8.023   1.042  -6.391  0.00  0.00     0.027 H 
ENDBRANCH   1  32
BRANCH   8  36
ATOM     36  C   LIG d   1       4.099  -1.761  -3.031  0.00  0.00     0.068 C 
ATOM     37  O   LIG d   1       4.001  -2.842  -3.579  0.00  0.00    -0.545 OA
ATOM     38  O   LIG d   1       4.298  -1.697  -1.699  0.00  0.00    -0.545 OA
ENDBRANCH   8  36
TORSDOF 4
ENDMDL
MODEL 4
REMARK VINA RESULT:      -5.1      2.514      3.986
REMARK  4 active torsions:
REMARK  status: ('A' for Active; 'I' for Inactive)
REMARK    1  A    between atoms: C_1  and  C_2 
REMARK    2  A    between atoms: C_5  and  C_15 
REMARK    3  A    between atoms: C_5  and  C_16 
REMARK    4  A    between atoms: C_9  and  C_13 
ROOT
ATOM      1  C   LIG d   1       3.941  -0.744  -6.256  0.00  0.00    -0.076 C 
ATOM      2  C   LIG d   1       4.066  -1.129  -5.010  0.00  0.00    -0.084 C 
ATOM      3  C   LIG d   1       3.268  -0.458  -3.921  0.00  0.00    -0.026 C 
ATOM      4  C   LIG d   1       4.222   0.090  -2.853  0.00  0.00    -0.013 C 
ATOM      5  C   LIG d   1       5.534   0.439  -3.509  0.00  0.00    -0.082 C 
ATOM      6  C   LIG d   1       6.582  -0.326  -3.342  0.00  0.00    -0.083 C 
ATOM      7  C   LIG d   1       7.805  -0.095  -4.204  0.00  0.00    -0.008 C 
ATOM      8  C   LIG d   1       7.485  -0.619  -5.587  0.00  0.00    -0.025 C 
ATOM      9  C   LIG d   1       6.519  -0.039  -6.292  0.00  0.00    -0.079 C 
ATOM     10  C   LIG d   1       6.045  -0.647  -7.587  0.00  0.00    -0.030 C 
ATOM     11  C   LIG d   1       4.744  -1.414  -7.340  0.00  0.00    -0.029 C 
ATOM     12  H   LIG d   1       4.741  -1.935  -4.763  0.00  0.00     0.057 H 
ATOM     13  H   LIG d   1       2.689   0.363  -4.346  0.00  0.00     0.032 H 
ATOM     14  H   LIG d   1       2.592  -1.182  -3.467  0.00  0.00     0.032 H 
ATOM     15  H   LIG d   1       5.608   1.333  -4.113  0.00  0.00     0.058 H 
ATOM     16  H   LIG d   1       6.556  -1.161  -2.664  0.00  0.00     0.057 H 
ATOM     17  H   LIG d   1       8.028   0.971  -4.253  0.00  0.00     0.036 H 
ATOM     18  H   LIG d   1       8.658  -0.634  -3.790  0.00  0.00     0.036 H 
ATOM     19  H   LIG d   1       6.025   0.842  -5.908  0.00  0.00     0.058 H 
ATOM     20  H   LIG d   1       5.868   0.143  -8.316  0.00  0.00     0.031 H 
ATOM     21  H   LIG d   1       6.804  -1.331  -7.968  0.00  0.00     0.031 H 
ATOM     22  H   LIG d   1       4.158  -1.439  -8.259  0.00  0.00     0.031 H 
ATOM     23  H   LIG d   1       4.978  -2.434  -7.034  0.00  0.00     0.031 H 
ENDROOT
BRANCH   4  24
ATOM     24  C   LIG d   1       3.616   1.343  -2.218  0.00  0.00    -0.056 C 
ATOM     25  H   LIG d   1       4.281   2.191  -2.381  0.00  0.00     0.024 H 
ATOM     26  H   LIG d   1       2.646   1.547  -2.671  0.00  0.00     0.024 H 
ATOM     27  H   LIG d   1       3.489   1.182  -1.147  0.00  0.00     0.024 H 
ENDBRANCH   4  24
BRANCH   4  28
ATOM     28  C   LIG d   1       4.451  -0.973  -1.776  0.00  0.00    -0.056 C 
ATOM     29  H   LIG d   1       3.824  -0.755  -0.912  0.00  0.00     0.024 H 
ATOM     30  H   LIG d   1       4.193  -1.955  -2.175  0.00  0.00     0.024 H 
ATOM     31  H   LIG d   1       5.498  -0.967  -1.477  0.00  0.00     0.024 H 
ENDBRANCH   4  28
BRANCH   1  32
ATOM     32  C   LIG d   1       2.991   0.374  -6.606  0.00  0.00    -0.044 C 
ATOM     33  H   LIG d   1       3.553   1.299  -6.743  0.00  0.00     0.027 H 
ATOM     34  H   LIG d   1       2.465   0.129  -7.529  0.00  0.00     0.027 H 
ATOM     35  H   LIG d   1       2.269   0.504  -5.800  0.00  0.00     0.027 H 
ENDBRANCH   1  32
BRANCH   8  36
ATOM     36  C   LIG d   1       8.240  -1.751  -6.136  0.00  0.00     0.068 C 
ATOM     37  O   LIG d   1       9.235  -1.551  -6.804  0.00  0.00    -0.545 OA
ATOM     38  O   LIG d   1       7.829  -3.013  -5.899  0.00  0.00    -0.545 OA
ENDBRANCH   8  36
TORSDOF 4
ENDMDL
MODEL 5
REMARK VINA RESULT:      -4.7      2.880      4.675
REMARK  4 active torsions:
REMARK  status: ('A' for Active; 'I' for Inactive)
REMARK    1  A    between atoms: C_1  and  C_2 
REMARK    2  A    between atoms: C_5  and  C_15 
REMARK    3  A    between atoms: C_5  and  C_16 
REMARK    4  A    between atoms: C_9  and  C_13 
ROOT
ATOM      1  C   LIG d   1       5.639  -0.319  -2.868  0.00  0.00    -0.076 C 
ATOM      2  C   LIG d   1       6.834  -0.460  -3.387  0.00  0.00    -0.084 C 
ATOM      3  C   LIG d   1       7.678   0.749  -3.700  0.00  0.00    -0.026 C 
ATOM      4  C   LIG d   1       8.068   0.730  -5.183  0.00  0.00    -0.013 C 
ATOM      5  C   LIG d   1       6.986   0.023  -5.959  0.00  0.00    -0.082 C 
ATOM      6  C   LIG d   1       7.178  -1.192  -6.405  0.00  0.00    -0.083 C 
ATOM      7  C   LIG d   1       6.001  -1.967  -6.956  0.00  0.00    -0.008 C 
ATOM      8  C   LIG d   1       5.155  -2.398  -5.778  0.00  0.00    -0.025 C 
ATOM      9  C   LIG d   1       4.568  -1.471  -5.028  0.00  0.00    -0.079 C 
ATOM     10  C   LIG d   1       3.878  -1.848  -3.742  0.00  0.00    -0.030 C 
ATOM     11  C   LIG d   1       4.799  -1.531  -2.562  0.00  0.00    -0.029 C 
ATOM     12  H   LIG d   1       7.217  -1.450  -3.589  0.00  0.00     0.057 H 
ATOM     13  H   LIG d   1       7.110   1.655  -3.485  0.00  0.00     0.032 H 
ATOM     14  H   LIG d   1       8.579   0.731  -3.087  0.00  0.00     0.032 H 
ATOM     15  H   LIG d   1       6.051   0.528  -6.154  0.00  0.00     0.058 H 
ATOM     16  H   LIG d   1       8.137  -1.672  -6.310  0.00  0.00     0.057 H 
ATOM     17  H   LIG d   1       5.416  -1.331  -7.619  0.00  0.00     0.036 H 
ATOM     18  H   LIG d   1       6.355  -2.843  -7.500  0.00  0.00     0.036 H 
ATOM     19  H   LIG d   1       4.634  -0.429  -5.308  0.00  0.00     0.058 H 
ATOM     20  H   LIG d   1       2.954  -1.280  -3.645  0.00  0.00     0.031 H 
ATOM     21  H   LIG d   1       3.651  -2.914  -3.750  0.00  0.00     0.031 H 
ATOM     22  H   LIG d   1       4.195  -1.335  -1.675  0.00  0.00     0.031 H 
ATOM     23  H   LIG d   1       5.452  -2.383  -2.373  0.00  0.00     0.031 H 
ENDROOT
BRANCH   4  24
ATOM     24  C   LIG d   1       8.211   2.165  -5.693  0.00  0.00    -0.056 C 
ATOM     25  H   LIG d   1       7.646   2.838  -5.049  0.00  0.00     0.024 H 
ATOM     26  H   LIG d   1       9.263   2.450  -5.685  0.00  0.00     0.024 H 
ATOM     27  H   LIG d   1       7.827   2.229  -6.711  0.00  0.00     0.024 H 
ENDBRANCH   4  24
BRANCH   4  28
ATOM     28  C   LIG d   1       9.395  -0.011  -5.354  0.00  0.00    -0.056 C 
ATOM     29  H   LIG d   1      10.220   0.662  -5.121  0.00  0.00     0.024 H 
ATOM     30  H   LIG d   1       9.422  -0.868  -4.680  0.00  0.00     0.024 H 
ATOM     31  H   LIG d   1       9.488  -0.357  -6.383  0.00  0.00     0.024 H 
ENDBRANCH   4  28
BRANCH   1  32
ATOM     32  C   LIG d   1       5.106   1.061  -2.575  0.00  0.00    -0.044 C 
ATOM     33  H   LIG d   1       5.937   1.736  -2.371  0.00  0.00     0.027 H 
ATOM     34  H   LIG d   1       4.547   1.425  -3.438  0.00  0.00     0.027 H 
ATOM     35  H   LIG d   1       4.448   1.020  -1.707  0.00  0.00     0.027 H 
ENDBRANCH   1  32
BRANCH   8  36
ATOM     36  C   LIG d   1       4.989  -3.824  -5.475  0.00  0.00     0.068 C 
ATOM     37  O   LIG d   1       5.853  -4.420  -4.862  0.00  0.00    -0.545 OA
ATOM     38  O   LIG d   1       3.878  -4.474  -5.877  0.00  0.00    -0.545 OA
ENDBRANCH   8  36
TORSDOF 4
ENDMDL
MODEL 6
REMARK VINA RESULT:      -4.6      1.288      3.505
REMARK  4 active torsions:
REMARK  status: ('A' for Active; 'I' for Inactive)
REMARK    1  A    between atoms: C_1  and  C_2 
REMARK    2  A    between atoms: C_5  and  C_15 
REMARK    3  A    between atoms: C_5  and  C_16 
REMARK    4  A    between atoms: C_9  and  C_13 
ROOT
ATOM      1  C   LIG d   1       3.117  -0.692  -3.742  0.00  0.00    -0.076 C 
ATOM      2  C   LIG d   1       3.755  -1.773  -4.118  0.00  0.00    -0.084 C 
ATOM      3  C   LIG d   1       4.908  -2.301  -3.303  0.00  0.00    -0.026 C 
ATOM      4  C   LIG d   1       6.155  -2.403  -4.189  0.00  0.00    -0.013 C 
ATOM      5  C   LIG d   1       6.074  -1.348  -5.262  0.00  0.00    -0.082 C 
ATOM      6  C   LIG d   1       5.781  -1.677  -6.494  0.00  0.00    -0.083 C 
ATOM      7  C   LIG d   1       5.461  -0.584  -7.491  0.00  0.00    -0.008 C 
ATOM      8  C   LIG d   1       4.076  -0.070  -7.165  0.00  0.00    -0.025 C 
ATOM      9  C   LIG d   1       3.865   0.530  -5.998  0.00  0.00    -0.079 C 
ATOM     10  C   LIG d   1       2.467   0.884  -5.559  0.00  0.00    -0.030 C 
ATOM     11  C   LIG d   1       1.969  -0.166  -4.562  0.00  0.00    -0.029 C 
ATOM     12  H   LIG d   1       3.450  -2.291  -5.015  0.00  0.00     0.057 H 
ATOM     13  H   LIG d   1       5.107  -1.624  -2.472  0.00  0.00     0.032 H 
ATOM     14  H   LIG d   1       4.656  -3.288  -2.915  0.00  0.00     0.032 H 
ATOM     15  H   LIG d   1       6.268  -0.314  -5.011  0.00  0.00     0.058 H 
ATOM     16  H   LIG d   1       5.685  -2.709  -6.784  0.00  0.00     0.057 H 
ATOM     17  H   LIG d   1       6.187   0.224  -7.401  0.00  0.00     0.036 H 
ATOM     18  H   LIG d   1       5.479  -0.988  -8.503  0.00  0.00     0.036 H 
ATOM     19  H   LIG d   1       4.693   0.714  -5.329  0.00  0.00     0.058 H 
ATOM     20  H   LIG d   1       2.473   1.863  -5.082  0.00  0.00     0.031 H 
ATOM     21  H   LIG d   1       1.808   0.904  -6.426  0.00  0.00     0.031 H 
ATOM     22  H   LIG d   1       1.231   0.286  -3.899  0.00  0.00     0.031 H 
ATOM     23  H   LIG d   1       1.509  -0.991  -5.106  0.00  0.00     0.031 H 
ENDROOT
BRANCH   4  24
ATOM     24  C   LIG d   1       7.407  -2.176  -3.340  0.00  0.00    -0.056 C 
ATOM     25  H   LIG d   1       7.817  -3.138  -3.033  0.00  0.00     0.024 H 
ATOM     26  H   LIG d   1       8.150  -1.634  -3.925  0.00  0.00     0.024 H 
ATOM     27  H   LIG d   1       7.147  -1.594  -2.456  0.00  0.00     0.024 H 
ENDBRANCH   4  24
BRANCH   4  28
ATOM     28  C   LIG d   1       6.215  -3.790  -4.832  0.00  0.00    -0.056 C 
ATOM     29  H   LIG d   1       6.306  -4.548  -4.054  0.00  0.00     0.024 H 
ATOM     30  H   LIG d   1       5.304  -3.964  -5.405  0.00  0.00     0.024 H 
ATOM     31  H   LIG d   1       7.077  -3.845  -5.496  0.00  0.00     0.024 H 
ENDBRANCH   4  28
BRANCH   1  32
ATOM     32  C   LIG d   1       3.535   0.027  -2.483  0.00  0.00    -0.044 C 
ATOM     33  H   LIG d   1       3.251   1.078  -2.554  0.00  0.00     0.027 H 
ATOM     34  H   LIG d   1       3.038  -0.426  -1.624  0.00  0.00     0.027 H 
ATOM     35  H   LIG d   1       4.615  -0.051  -2.361  0.00  0.00     0.027 H 
ENDBRANCH   1  32
BRANCH   8  36
ATOM     36  C   LIG d   1       2.985  -0.234  -8.133  0.00  0.00     0.068 C 
ATOM     37  O   LIG d   1       2.552  -1.343  -8.379  0.00  0.00    -0.545 OA
ATOM     38  O   LIG d   1       2.462   0.845  -8.748  0.00  0.00    -0.545 OA
ENDBRANCH   8  36
TORSDOF 4
ENDMDL
MODEL 7
REMARK VINA RESULT:      -4.6      2.704      5.145
REMARK  4 active torsions:
REMARK  status: ('A' for Active; 'I' for Inactive)
REMARK    1  A    between atoms: C_1  and  C_2 
REMARK    2  A    between atoms: C_5  and  C_15 
REMARK    3  A    between atoms: C_5  and  C_16 
REMARK    4  A    between atoms: C_9  and  C_13 
ROOT
ATOM      1  C   LIG d   1       4.347  -1.336  -3.728  0.00  0.00    -0.076 C 
ATOM      2  C   LIG d   1       4.706  -1.724  -4.927  0.00  0.00    -0.084 C 
ATOM      3  C   LIG d   1       4.608  -3.176  -5.320  0.00  0.00    -0.026 C 
ATOM      4  C   LIG d   1       5.983  -3.674  -5.781  0.00  0.00    -0.013 C 
ATOM      5  C   LIG d   1       7.049  -2.890  -5.058  0.00  0.00    -0.082 C 
ATOM      6  C   LIG d   1       7.728  -1.963  -5.684  0.00  0.00    -0.083 C 
ATOM      7  C   LIG d   1       8.606  -1.028  -4.881  0.00  0.00    -0.008 C 
ATOM      8  C   LIG d   1       7.693  -0.056  -4.166  0.00  0.00    -0.025 C 
ATOM      9  C   LIG d   1       6.845  -0.516  -3.251  0.00  0.00    -0.079 C 
ATOM     10  C   LIG d   1       5.794   0.387  -2.658  0.00  0.00    -0.030 C 
ATOM     11  C   LIG d   1       4.451   0.116  -3.340  0.00  0.00    -0.029 C 
ATOM     12  H   LIG d   1       5.070  -0.998  -5.640  0.00  0.00     0.057 H 
ATOM     13  H   LIG d   1       4.278  -3.764  -4.463  0.00  0.00     0.032 H 
ATOM     14  H   LIG d   1       3.891  -3.285  -6.134  0.00  0.00     0.032 H 
ATOM     15  H   LIG d   1       7.258  -3.104  -4.019  0.00  0.00     0.058 H 
ATOM     16  H   LIG d   1       7.606  -1.806  -6.741  0.00  0.00     0.057 H 
ATOM     17  H   LIG d   1       9.185  -1.596  -4.153  0.00  0.00     0.036 H 
ATOM     18  H   LIG d   1       9.278  -0.486  -5.547  0.00  0.00     0.036 H 
ATOM     19  H   LIG d   1       6.868  -1.559  -2.971  0.00  0.00     0.058 H 
ATOM     20  H   LIG d   1       5.706   0.189  -1.590  0.00  0.00     0.031 H 
ATOM     21  H   LIG d   1       6.078   1.427  -2.813  0.00  0.00     0.031 H 
ATOM     22  H   LIG d   1       3.641   0.364  -2.654  0.00  0.00     0.031 H 
ATOM     23  H   LIG d   1       4.369   0.734  -4.235  0.00  0.00     0.031 H 
ENDROOT
BRANCH   4  24
ATOM     24  C   LIG d   1       6.127  -5.161  -5.451  0.00  0.00    -0.056 C 
ATOM     25  H   LIG d   1       6.477  -5.697  -6.333  0.00  0.00     0.024 H 
ATOM     26  H   LIG d   1       6.845  -5.286  -4.640  0.00  0.00     0.024 H 
ATOM     27  H   LIG d   1       5.161  -5.560  -5.143  0.00  0.00     0.024 H 
ENDBRANCH   4  24
BRANCH   4  28
ATOM     28  C   LIG d   1       6.124  -3.467  -7.290  0.00  0.00    -0.056 C 
ATOM     29  H   LIG d   1       6.418  -4.405  -7.760  0.00  0.00     0.024 H 
ATOM     30  H   LIG d   1       5.169  -3.137  -7.702  0.00  0.00     0.024 H 
ATOM     31  H   LIG d   1       6.883  -2.709  -7.483  0.00  0.00     0.024 H 
ENDBRANCH   4  28
BRANCH   1  32
ATOM     32  C   LIG d   1       3.829  -2.345  -2.735  0.00  0.00    -0.044 C 
ATOM     33  H   LIG d   1       3.486  -3.234  -3.266  0.00  0.00     0.027 H 
ATOM     34  H   LIG d   1       4.627  -2.620  -2.046  0.00  0.00     0.027 H 
ATOM     35  H   LIG d   1       2.999  -1.913  -2.177  0.00  0.00     0.027 H 
ENDBRANCH   1  32
BRANCH   8  36
ATOM     36  C   LIG d   1       7.751   1.376  -4.484  0.00  0.00     0.068 C 
ATOM     37  O   LIG d   1       7.355   1.776  -5.561  0.00  0.00    -0.545 OA
ATOM     38  O   LIG d   1       8.244   2.247  -3.581  0.00  0.00    -0.545 OA
ENDBRANCH   8  36
TORSDOF 4
ENDMDL
MODEL 8
REMARK VINA RESULT:      -4.5      2.540      4.178
REMARK  4 active torsions:
REMARK  status: ('A' for Active; 'I' for Inactive)
REMARK    1  A    between atoms: C_1  and  C_2 
REMARK    2  A    between atoms: C_5  and  C_15 
REMARK    3  A    between atoms: C_5  and  C_16 
REMARK    4  A    between atoms: C_9  and  C_13 
ROOT
ATOM      1  C   LIG d   1       6.602  -2.472  -5.429  0.00  0.00    -0.076 C 
ATOM      2  C   LIG d   1       6.836  -1.244  -5.822  0.00  0.00    -0.084 C 
ATOM      3  C   LIG d   1       8.252  -0.758  -6.003  0.00  0.00    -0.026 C 
ATOM      4  C   LIG d   1       8.479   0.486  -5.135  0.00  0.00    -0.013 C 
ATOM      5  C   LIG d   1       7.584   0.402  -3.925  0.00  0.00    -0.082 C 
ATOM      6  C   LIG d   1       6.513   1.149  -3.840  0.00  0.00    -0.083 C 
ATOM      7  C   LIG d   1       5.507   0.868  -2.745  0.00  0.00    -0.008 C 
ATOM      8  C   LIG d   1       4.755  -0.385  -3.136  0.00  0.00    -0.025 C 
ATOM      9  C   LIG d   1       5.415  -1.536  -3.226  0.00  0.00    -0.079 C 
ATOM     10  C   LIG d   1       4.746  -2.761  -3.793  0.00  0.00    -0.030 C 
ATOM     11  C   LIG d   1       5.186  -2.951  -5.246  0.00  0.00    -0.029 C 
ATOM     12  H   LIG d   1       6.010  -0.578  -6.022  0.00  0.00     0.057 H 
ATOM     13  H   LIG d   1       8.947  -1.542  -5.703  0.00  0.00     0.032 H 
ATOM     14  H   LIG d   1       8.418  -0.505  -7.050  0.00  0.00     0.032 H 
ATOM     15  H   LIG d   1       7.836  -0.275  -3.120  0.00  0.00     0.058 H 
ATOM     16  H   LIG d   1       6.302   1.900  -4.581  0.00  0.00     0.057 H 
ATOM     17  H   LIG d   1       6.023   0.711  -1.798  0.00  0.00     0.036 H 
ATOM     18  H   LIG d   1       4.814   1.705  -2.655  0.00  0.00     0.036 H 
ATOM     19  H   LIG d   1       6.458  -1.582  -2.946  0.00  0.00     0.058 H 
ATOM     20  H   LIG d   1       5.034  -3.635  -3.209  0.00  0.00     0.031 H 
ATOM     21  H   LIG d   1       3.664  -2.637  -3.753  0.00  0.00     0.031 H 
ATOM     22  H   LIG d   1       5.127  -4.008  -5.507  0.00  0.00     0.031 H 
ATOM     23  H   LIG d   1       4.526  -2.380  -5.901  0.00  0.00     0.031 H 
ENDROOT
BRANCH   4  24
ATOM     24  C   LIG d   1       9.942   0.540  -4.689  0.00  0.00    -0.056 C 
ATOM     25  H   LIG d   1      10.111  -0.203  -3.910  0.00  0.00     0.024 H 
ATOM     26  H   LIG d   1      10.589   0.329  -5.541  0.00  0.00     0.024 H 
ATOM     27  H   LIG d   1      10.167   1.533  -4.300  0.00  0.00     0.024 H 
ENDBRANCH   4  24
BRANCH   4  28
ATOM     28  C   LIG d   1       8.141   1.742  -5.941  0.00  0.00    -0.056 C 
ATOM     29  H   LIG d   1       8.436   2.626  -5.377  0.00  0.00     0.024 H 
ATOM     30  H   LIG d   1       8.678   1.719  -6.890  0.00  0.00     0.024 H 
ATOM     31  H   LIG d   1       7.069   1.773  -6.132  0.00  0.00     0.024 H 
ENDBRANCH   4  28
BRANCH   1  32
ATOM     32  C   LIG d   1       7.754  -3.407  -5.160  0.00  0.00    -0.044 C 
ATOM     33  H   LIG d   1       8.523  -3.264  -5.919  0.00  0.00     0.027 H 
ATOM     34  H   LIG d   1       8.171  -3.196  -4.175  0.00  0.00     0.027 H 
ATOM     35  H   LIG d   1       7.400  -4.438  -5.191  0.00  0.00     0.027 H 
ENDBRANCH   1  32
BRANCH   8  36
ATOM     36  C   LIG d   1       3.314  -0.323  -3.408  0.00  0.00     0.068 C 
ATOM     37  O   LIG d   1       2.522  -0.751  -2.592  0.00  0.00    -0.545 OA
ATOM     38  O   LIG d   1       2.870   0.209  -4.564  0.00  0.00    -0.545 OA
ENDBRANCH   8  36
TORSDOF 4
ENDMDL
MODEL 9
REMARK VINA RESULT:      -4.5      9.668     11.256
REMARK  4 active torsions:
REMARK  status: ('A' for Active; 'I' for Inactive)
REMARK    1  A    between atoms: C_1  and  C_2 
REMARK    2  A    between atoms: C_5  and  C_15 
REMARK    3  A    between atoms: C_5  and  C_16 
REMARK    4  A    between atoms: C_9  and  C_13 
ROOT
ATOM      1  C   LIG d   1       9.546   6.745  -5.537  0.00  0.00    -0.076 C 
ATOM      2  C   LIG d   1       9.210   8.006  -5.420  0.00  0.00    -0.084 C 
ATOM      3  C   LIG d   1       9.644   9.011  -6.458  0.00  0.00    -0.026 C 
ATOM      4  C   LIG d   1      10.429  10.139  -5.780  0.00  0.00    -0.013 C 
ATOM      5  C   LIG d   1      11.117   9.584  -4.559  0.00  0.00    -0.082 C 
ATOM      6  C   LIG d   1      10.662   9.854  -3.362  0.00  0.00    -0.083 C 
ATOM      7  C   LIG d   1      11.213   9.089  -2.177  0.00  0.00    -0.008 C 
ATOM      8  C   LIG d   1      10.621   7.698  -2.226  0.00  0.00    -0.025 C 
ATOM      9  C   LIG d   1      10.918   6.903  -3.249  0.00  0.00    -0.079 C 
ATOM     10  C   LIG d   1      10.203   5.588  -3.431  0.00  0.00    -0.030 C 
ATOM     11  C   LIG d   1       9.115   5.747  -4.495  0.00  0.00    -0.029 C 
ATOM     12  H   LIG d   1       8.616   8.327  -4.577  0.00  0.00     0.057 H 
ATOM     13  H   LIG d   1      10.278   8.520  -7.197  0.00  0.00     0.032 H 
ATOM     14  H   LIG d   1       8.765   9.425  -6.951  0.00  0.00     0.032 H 
ATOM     15  H   LIG d   1      11.997   8.967  -4.676  0.00  0.00     0.058 H 
ATOM     16  H   LIG d   1       9.852  10.548  -3.221  0.00  0.00     0.057 H 
ATOM     17  H   LIG d   1      12.299   9.033  -2.245  0.00  0.00     0.036 H 
ATOM     18  H   LIG d   1      10.923   9.584  -1.250  0.00  0.00     0.036 H 
ATOM     19  H   LIG d   1      11.634   7.224  -3.991  0.00  0.00     0.058 H 
ATOM     20  H   LIG d   1      10.916   4.828  -3.750  0.00  0.00     0.031 H 
ATOM     21  H   LIG d   1       9.749   5.287  -2.488  0.00  0.00     0.031 H 
ATOM     22  H   LIG d   1       8.932   4.784  -4.973  0.00  0.00     0.031 H 
ATOM     23  H   LIG d   1       8.195   6.095  -4.024  0.00  0.00     0.031 H 
ENDROOT
BRANCH   4  24
ATOM     24  C   LIG d   1      11.473  10.693  -6.751  0.00  0.00    -0.056 C 
ATOM     25  H   LIG d   1      11.386  10.180  -7.709  0.00  0.00     0.024 H 
ATOM     26  H   LIG d   1      11.308  11.761  -6.892  0.00  0.00     0.024 H 
ATOM     27  H   LIG d   1      12.471  10.532  -6.342  0.00  0.00     0.024 H 
ENDBRANCH   4  24
BRANCH   4  28
ATOM     28  C   LIG d   1       9.468  11.256  -5.368  0.00  0.00    -0.056 C 
ATOM     29  H   LIG d   1       9.792  11.683  -4.419  0.00  0.00     0.024 H 
ATOM     30  H   LIG d   1       9.464  12.032  -6.134  0.00  0.00     0.024 H 
ATOM     31  H   LIG d   1       8.463  10.849  -5.258  0.00  0.00     0.024 H 
ENDBRANCH   4  28
BRANCH   1  32
ATOM     32  C   LIG d   1      10.367   6.293  -6.719  0.00  0.00    -0.044 C 
ATOM     33  H   LIG d   1       9.730   5.745  -7.415  0.00  0.00     0.027 H 
ATOM     34  H   LIG d   1      10.791   7.162  -7.222  0.00  0.00     0.027 H 
ATOM     35  H   LIG d   1      11.172   5.643  -6.375  0.00  0.00     0.027 H 
ENDBRANCH   1  32
BRANCH   8  36
ATOM     36  C   LIG d   1       9.732   7.240  -1.152  0.00  0.00     0.068 C 
ATOM     37  O   LIG d   1       8.572   7.602  -1.127  0.00  0.00    -0.545 OA
ATOM     38  O   LIG d   1      10.202   6.417  -0.194  0.00  0.00    -0.545 OA
ENDBRANCH   8  36
TORSDOF 4
ENDMDL
