MODEL 1
REMARK VINA RESULT:      -6.4      0.000      0.000
REMARK  3 active torsions:
REMARK  status: ('A' for Active; 'I' for Inactive)
REMARK    1  A    between atoms: C_1  and  C_2 
REMARK    2  A    between atoms: C_2  and  O_23 
REMARK    3  A    between atoms: C_7  and  C_22 
ROOT
ATOM      1  C   LIG d   1       4.168  -1.811  -3.531  0.00  0.00     0.072 C 
ATOM      2  C   LIG d   1       4.661  -3.181  -4.033  0.00  0.00    -0.023 C 
ATOM      3  C   LIG d   1       6.022  -2.924  -4.735  0.00  0.00    -0.046 C 
ATOM      4  C   LIG d   1       6.500  -1.619  -4.088  0.00  0.00    -0.023 C 
ATOM      5  H   LIG d   1       6.880  -1.794  -3.082  0.00  0.00     0.032 H 
ATOM      6  C   LIG d   1       5.180  -0.796  -4.047  0.00  0.00     0.018 C 
ATOM      7  C   LIG d   1       5.431   0.412  -3.210  0.00  0.00    -0.075 C 
ATOM      8  C   LIG d   1       6.628   1.013  -3.318  0.00  0.00    -0.061 C 
ATOM      9  C   LIG d   1       7.650   0.523  -4.172  0.00  0.00    -0.041 C 
ATOM     10  C   LIG d   1       8.800   1.241  -4.304  0.00  0.00    -0.040 C 
ATOM     11  C   LIG d   1       8.855   2.614  -3.680  0.00  0.00    -0.020 C 
ATOM     12  C   LIG d   1      10.274   2.935  -3.217  0.00  0.00     0.014 C 
ATOM     13  C   LIG d   1      11.255   2.589  -4.306  0.00  0.00     0.157 C 
ATOM     14  O   LIG d   1      12.211   3.310  -4.514  0.00  0.00    -0.293 OA
ATOM     15  C   LIG d   1      11.067   1.437  -5.076  0.00  0.00    -0.016 C 
ATOM     16  C   LIG d   1       9.895   0.741  -5.024  0.00  0.00    -0.041 C 
ATOM     17  C   LIG d   1       9.794  -0.570  -5.765  0.00  0.00    -0.027 C 
ATOM     18  C   LIG d   1       8.835  -1.495  -5.007  0.00  0.00    -0.042 C 
ATOM     19  C   LIG d   1       7.482  -0.795  -4.897  0.00  0.00    -0.012 C 
ATOM     20  H   LIG d   1       7.079  -0.622  -5.895  0.00  0.00     0.035 H 
ATOM     21  H   LIG d   1       3.949  -3.609  -4.739  0.00  0.00     0.029 H 
ATOM     22  H   LIG d   1       4.798  -3.856  -3.186  0.00  0.00     0.029 H 
ATOM     23  H   LIG d   1       5.883  -2.794  -5.809  0.00  0.00     0.027 H 
ATOM     24  H   LIG d   1       6.723  -3.734  -4.532  0.00  0.00     0.027 H 
ATOM     25  H   LIG d   1       4.673   0.793  -2.541  0.00  0.00     0.058 H 
ATOM     26  H   LIG d   1       6.819   1.902  -2.733  0.00  0.00     0.062 H 
ATOM     27  H   LIG d   1       8.182   2.647  -2.823  0.00  0.00     0.032 H 
ATOM     28  H   LIG d   1       8.541   3.356  -4.414  0.00  0.00     0.032 H 
ATOM     29  H   LIG d   1      10.486   2.402  -2.398  0.00  0.00     0.035 H 
ATOM     30  H   LIG d   1      10.347   3.998  -2.988  0.00  0.00     0.035 H 
ATOM     31  H   LIG d   1      11.860   1.095  -5.725  0.00  0.00     0.066 H 
ATOM     32  H   LIG d   1      10.778  -1.033  -5.824  0.00  0.00     0.031 H 
ATOM     33  H   LIG d   1       9.411  -0.392  -6.770  0.00  0.00     0.031 H 
ATOM     34  H   LIG d   1       9.228  -1.694  -4.010  0.00  0.00     0.027 H 
ATOM     35  H   LIG d   1       8.720  -2.433  -5.551  0.00  0.00     0.027 H 
ENDROOT
BRANCH   1  36
ATOM     36  C   LIG d   1       4.125  -1.787  -2.002  0.00  0.00    -0.035 C 
ATOM     37  H   LIG d   1       3.185  -2.218  -1.658  0.00  0.00     0.026 H 
ATOM     38  H   LIG d   1       4.958  -2.368  -1.605  0.00  0.00     0.026 H 
ATOM     39  H   LIG d   1       4.202  -0.757  -1.652  0.00  0.00     0.026 H 
ENDBRANCH   1  36
BRANCH   1  40
ATOM     40  O   LIG d   1       2.873  -1.536  -4.068  0.00  0.00    -0.388 OA
ATOM     41  H   LIG d   1       2.796  -0.667  -4.484  0.00  0.00     0.210 HD
ENDBRANCH   1  40
BRANCH   6  42
ATOM     42  C   LIG d   1       4.799  -0.367  -5.464  0.00  0.00    -0.053 C 
ATOM     43  H   LIG d   1       4.195   0.539  -5.421  0.00  0.00     0.024 H 
ATOM     44  H   LIG d   1       5.703  -0.174  -6.042  0.00  0.00     0.024 H 
ATOM     45  H   LIG d   1       4.226  -1.161  -5.943  0.00  0.00     0.024 H 
ENDBRANCH   6  42
TORSDOF 3
ENDMDL
MODEL 2
REMARK VINA RESULT:      -6.3      3.328      5.251
REMARK  3 active torsions:
REMARK  status: ('A' for Active; 'I' for Inactive)
REMARK    1  A    between atoms: C_1  and  C_2 
REMARK    2  A    between atoms: C_2  and  O_23 
REMARK    3  A    between atoms: C_7  and  C_22 
ROOT
ATOM      1  C   LIG d   1       4.264   0.601  -2.852  0.00  0.00     0.072 C 
ATOM      2  C   LIG d   1       2.861  -0.026  -2.960  0.00  0.00    -0.023 C 
ATOM      3  C   LIG d   1       3.038  -1.353  -3.748  0.00  0.00    -0.046 C 
ATOM      4  C   LIG d   1       4.512  -1.698  -3.512  0.00  0.00    -0.023 C 
ATOM      5  H   LIG d   1       4.668  -2.096  -2.510  0.00  0.00     0.032 H 
ATOM      6  C   LIG d   1       5.183  -0.302  -3.664  0.00  0.00     0.018 C 
ATOM      7  C   LIG d   1       6.596  -0.432  -3.211  0.00  0.00    -0.075 C 
ATOM      8  C   LIG d   1       7.255  -1.561  -3.522  0.00  0.00    -0.061 C 
ATOM      9  C   LIG d   1       6.642  -2.626  -4.234  0.00  0.00    -0.041 C 
ATOM     10  C   LIG d   1       7.400  -3.697  -4.599  0.00  0.00    -0.040 C 
ATOM     11  C   LIG d   1       8.893  -3.616  -4.390  0.00  0.00    -0.020 C 
ATOM     12  C   LIG d   1       9.467  -4.995  -4.081  0.00  0.00     0.014 C 
ATOM     13  C   LIG d   1       8.921  -6.004  -5.058  0.00  0.00     0.157 C 
ATOM     14  O   LIG d   1       9.641  -6.882  -5.491  0.00  0.00    -0.293 OA
ATOM     15  C   LIG d   1       7.586  -5.931  -5.465  0.00  0.00    -0.016 C 
ATOM     16  C   LIG d   1       6.824  -4.836  -5.181  0.00  0.00    -0.041 C 
ATOM     17  C   LIG d   1       5.353  -4.866  -5.518  0.00  0.00    -0.027 C 
ATOM     18  C   LIG d   1       4.594  -4.006  -4.500  0.00  0.00    -0.042 C 
ATOM     19  C   LIG d   1       5.163  -2.591  -4.551  0.00  0.00    -0.012 C 
ATOM     20  H   LIG d   1       5.005  -2.170  -5.544  0.00  0.00     0.035 H 
ATOM     21  H   LIG d   1       2.184   0.640  -3.495  0.00  0.00     0.029 H 
ATOM     22  H   LIG d   1       2.472  -0.233  -1.962  0.00  0.00     0.029 H 
ATOM     23  H   LIG d   1       2.843  -1.199  -4.810  0.00  0.00     0.027 H 
ATOM     24  H   LIG d   1       2.390  -2.133  -3.347  0.00  0.00     0.027 H 
ATOM     25  H   LIG d   1       7.078   0.359  -2.655  0.00  0.00     0.058 H 
ATOM     26  H   LIG d   1       8.287  -1.663  -3.218  0.00  0.00     0.062 H 
ATOM     27  H   LIG d   1       9.104  -2.944  -3.557  0.00  0.00     0.032 H 
ATOM     28  H   LIG d   1       9.361  -3.226  -5.294  0.00  0.00     0.032 H 
ATOM     29  H   LIG d   1       9.212  -5.262  -3.152  0.00  0.00     0.035 H 
ATOM     30  H   LIG d   1      10.553  -4.961  -4.164  0.00  0.00     0.035 H 
ATOM     31  H   LIG d   1       7.151  -6.754  -6.014  0.00  0.00     0.066 H 
ATOM     32  H   LIG d   1       4.989  -5.892  -5.474  0.00  0.00     0.031 H 
ATOM     33  H   LIG d   1       5.200  -4.465  -6.521  0.00  0.00     0.031 H 
ATOM     34  H   LIG d   1       4.725  -4.420  -3.500  0.00  0.00     0.027 H 
ATOM     35  H   LIG d   1       3.534  -3.986  -4.753  0.00  0.00     0.027 H 
ENDROOT
BRANCH   1  36
ATOM     36  C   LIG d   1       4.718   0.642  -1.391  0.00  0.00    -0.035 C 
ATOM     37  H   LIG d   1       5.644   1.212  -1.314  0.00  0.00     0.026 H 
ATOM     38  H   LIG d   1       3.946   1.117  -0.784  0.00  0.00     0.026 H 
ATOM     39  H   LIG d   1       4.887  -0.374  -1.033  0.00  0.00     0.026 H 
ENDBRANCH   1  36
BRANCH   1  40
ATOM     40  O   LIG d   1       4.249   1.918  -3.404  0.00  0.00    -0.388 OA
ATOM     41  H   LIG d   1       3.960   2.602  -2.784  0.00  0.00     0.210 HD
ENDBRANCH   1  40
BRANCH   6  42
ATOM     42  C   LIG d   1       5.152   0.124  -5.133  0.00  0.00    -0.053 C 
ATOM     43  H   LIG d   1       4.262  -0.285  -5.612  0.00  0.00     0.024 H 
ATOM     44  H   LIG d   1       5.131   1.212  -5.196  0.00  0.00     0.024 H 
ATOM     45  H   LIG d   1       6.041  -0.252  -5.640  0.00  0.00     0.024 H 
ENDBRANCH   6  42
TORSDOF 3
ENDMDL
MODEL 3
REMARK VINA RESULT:      -6.3      3.924      6.356
REMARK  3 active torsions:
REMARK  status: ('A' for Active; 'I' for Inactive)
REMARK    1  A    between atoms: C_1  and  C_2 
REMARK    2  A    between atoms: C_2  and  O_23 
REMARK    3  A    between atoms: C_7  and  C_22 
ROOT
ATOM      1  C   LIG d   1       3.775   0.171 -10.777  0.00  0.00     0.072 C 
ATOM      2  C   LIG d   1       4.912  -0.741 -11.275  0.00  0.00    -0.023 C 
ATOM      3  C   LIG d   1       5.743  -1.125 -10.020  0.00  0.00    -0.046 C 
ATOM      4  C   LIG d   1       4.739  -0.943  -8.876  0.00  0.00    -0.023 C 
ATOM      5  H   LIG d   1       4.026  -1.766  -8.843  0.00  0.00     0.032 H 
ATOM      6  C   LIG d   1       4.038   0.382  -9.292  0.00  0.00     0.018 C 
ATOM      7  C   LIG d   1       2.855   0.562  -8.403  0.00  0.00    -0.075 C 
ATOM      8  C   LIG d   1       2.981   0.211  -7.112  0.00  0.00    -0.061 C 
ATOM      9  C   LIG d   1       4.180  -0.339  -6.587  0.00  0.00    -0.041 C 
ATOM     10  C   LIG d   1       4.266  -0.577  -5.249  0.00  0.00    -0.040 C 
ATOM     11  C   LIG d   1       3.151  -0.073  -4.364  0.00  0.00    -0.020 C 
ATOM     12  C   LIG d   1       2.951  -1.003  -3.172  0.00  0.00     0.014 C 
ATOM     13  C   LIG d   1       4.284  -1.330  -2.551  0.00  0.00     0.157 C 
ATOM     14  O   LIG d   1       4.389  -1.406  -1.343  0.00  0.00    -0.293 OA
ATOM     15  C   LIG d   1       5.400  -1.546  -3.365  0.00  0.00    -0.016 C 
ATOM     16  C   LIG d   1       5.369  -1.243  -4.694  0.00  0.00    -0.041 C 
ATOM     17  C   LIG d   1       6.548  -1.626  -5.556  0.00  0.00    -0.027 C 
ATOM     18  C   LIG d   1       6.048  -1.930  -6.973  0.00  0.00    -0.042 C 
ATOM     19  C   LIG d   1       5.332  -0.691  -7.504  0.00  0.00    -0.012 C 
ATOM     20  H   LIG d   1       6.034   0.141  -7.556  0.00  0.00     0.035 H 
ATOM     21  H   LIG d   1       5.541  -0.212 -11.993  0.00  0.00     0.029 H 
ATOM     22  H   LIG d   1       4.492  -1.636 -11.735  0.00  0.00     0.029 H 
ATOM     23  H   LIG d   1       6.592  -0.452  -9.899  0.00  0.00     0.027 H 
ATOM     24  H   LIG d   1       6.077  -2.161 -10.078  0.00  0.00     0.027 H 
ATOM     25  H   LIG d   1       1.928   0.963  -8.784  0.00  0.00     0.058 H 
ATOM     26  H   LIG d   1       2.139   0.353  -6.449  0.00  0.00     0.062 H 
ATOM     27  H   LIG d   1       2.228  -0.024  -4.941  0.00  0.00     0.032 H 
ATOM     28  H   LIG d   1       3.403   0.925  -4.003  0.00  0.00     0.032 H 
ATOM     29  H   LIG d   1       2.513  -1.848  -3.478  0.00  0.00     0.035 H 
ATOM     30  H   LIG d   1       2.318  -0.513  -2.433  0.00  0.00     0.035 H 
ATOM     31  H   LIG d   1       6.301  -1.957  -2.934  0.00  0.00     0.066 H 
ATOM     32  H   LIG d   1       7.032  -2.510  -5.141  0.00  0.00     0.031 H 
ATOM     33  H   LIG d   1       7.259  -0.800  -5.589  0.00  0.00     0.031 H 
ATOM     34  H   LIG d   1       5.356  -2.772  -6.946  0.00  0.00     0.027 H 
ATOM     35  H   LIG d   1       6.893  -2.171  -7.618  0.00  0.00     0.027 H 
ENDROOT
BRANCH   1  36
ATOM     36  C   LIG d   1       2.419  -0.506 -10.985  0.00  0.00    -0.035 C 
ATOM     37  H   LIG d   1       2.483  -1.550 -10.675  0.00  0.00     0.026 H 
ATOM     38  H   LIG d   1       1.662   0.005 -10.390  0.00  0.00     0.026 H 
ATOM     39  H   LIG d   1       2.146  -0.458 -12.039  0.00  0.00     0.026 H 
ENDBRANCH   1  36
BRANCH   1  40
ATOM     40  O   LIG d   1       3.818   1.419 -11.470  0.00  0.00    -0.388 OA
ATOM     41  H   LIG d   1       2.947   1.790 -11.667  0.00  0.00     0.210 HD
ENDBRANCH   1  40
BRANCH   6  42
ATOM     42  C   LIG d   1       5.003   1.554  -9.103  0.00  0.00    -0.053 C 
ATOM     43  H   LIG d   1       5.704   1.586  -9.937  0.00  0.00     0.024 H 
ATOM     44  H   LIG d   1       4.440   2.486  -9.066  0.00  0.00     0.024 H 
ATOM     45  H   LIG d   1       5.554   1.425  -8.171  0.00  0.00     0.024 H 
ENDBRANCH   6  42
TORSDOF 3
ENDMDL
MODEL 4
REMARK VINA RESULT:      -6.2      3.639      6.226
REMARK  3 active torsions:
REMARK  status: ('A' for Active; 'I' for Inactive)
REMARK    1  A    between atoms: C_1  and  C_2 
REMARK    2  A    between atoms: C_2  and  O_23 
REMARK    3  A    between atoms: C_7  and  C_22 
ROOT
ATOM      1  C   LIG d   1       4.467  -1.271 -10.376  0.00  0.00     0.072 C 
ATOM      2  C   LIG d   1       3.096  -0.667 -10.735  0.00  0.00    -0.023 C 
ATOM      3  C   LIG d   1       2.394  -0.348  -9.387  0.00  0.00    -0.046 C 
ATOM      4  C   LIG d   1       3.570  -0.210  -8.413  0.00  0.00    -0.023 C 
ATOM      5  H   LIG d   1       4.081   0.743  -8.546  0.00  0.00     0.032 H 
ATOM      6  C   LIG d   1       4.478  -1.393  -8.858  0.00  0.00     0.018 C 
ATOM      7  C   LIG d   1       5.788  -1.238  -8.165  0.00  0.00    -0.075 C 
ATOM      8  C   LIG d   1       5.779  -0.803  -6.894  0.00  0.00    -0.061 C 
ATOM      9  C   LIG d   1       4.578  -0.468  -6.214  0.00  0.00    -0.041 C 
ATOM     10  C   LIG d   1       4.638  -0.130  -4.896  0.00  0.00    -0.040 C 
ATOM     11  C   LIG d   1       5.954  -0.306  -4.177  0.00  0.00    -0.020 C 
ATOM     12  C   LIG d   1       6.117   0.753  -3.091  0.00  0.00     0.014 C 
ATOM     13  C   LIG d   1       4.850   0.850  -2.281  0.00  0.00     0.157 C 
ATOM     14  O   LIG d   1       4.909   1.016  -1.078  0.00  0.00    -0.293 OA
ATOM     15  C   LIG d   1       3.607   0.753  -2.914  0.00  0.00    -0.016 C 
ATOM     16  C   LIG d   1       3.509   0.341  -4.210  0.00  0.00    -0.041 C 
ATOM     17  C   LIG d   1       2.162   0.387  -4.888  0.00  0.00    -0.027 C 
ATOM     18  C   LIG d   1       2.369   0.656  -6.383  0.00  0.00    -0.042 C 
ATOM     19  C   LIG d   1       3.255  -0.451  -6.950  0.00  0.00    -0.012 C 
ATOM     20  H   LIG d   1       2.754  -1.413  -6.837  0.00  0.00     0.035 H 
ATOM     21  H   LIG d   1       2.501  -1.379 -11.308  0.00  0.00     0.029 H 
ATOM     22  H   LIG d   1       3.237   0.250 -11.310  0.00  0.00     0.029 H 
ATOM     23  H   LIG d   1       1.741  -1.169  -9.089  0.00  0.00     0.027 H 
ATOM     24  H   LIG d   1       1.835   0.585  -9.451  0.00  0.00     0.027 H 
ATOM     25  H   LIG d   1       6.715  -1.471  -8.668  0.00  0.00     0.058 H 
ATOM     26  H   LIG d   1       6.719  -0.704  -6.370  0.00  0.00     0.062 H 
ATOM     27  H   LIG d   1       6.771  -0.214  -4.893  0.00  0.00     0.032 H 
ATOM     28  H   LIG d   1       5.984  -1.296  -3.721  0.00  0.00     0.032 H 
ATOM     29  H   LIG d   1       6.308   1.638  -3.514  0.00  0.00     0.035 H 
ATOM     30  H   LIG d   1       6.944   0.476  -2.438  0.00  0.00     0.035 H 
ATOM     31  H   LIG d   1       2.710   1.005  -2.366  0.00  0.00     0.066 H 
ATOM     32  H   LIG d   1       1.561   1.186  -4.454  0.00  0.00     0.031 H 
ATOM     33  H   LIG d   1       1.653  -0.568  -4.756  0.00  0.00     0.031 H 
ATOM     34  H   LIG d   1       2.855   1.622  -6.520  0.00  0.00     0.027 H 
ATOM     35  H   LIG d   1       1.406   0.654  -6.895  0.00  0.00     0.027 H 
ENDROOT
BRANCH   1  36
ATOM     36  C   LIG d   1       5.594  -0.348 -10.842  0.00  0.00    -0.035 C 
ATOM     37  H   LIG d   1       6.285  -0.908 -11.474  0.00  0.00     0.026 H 
ATOM     38  H   LIG d   1       5.174   0.482 -11.410  0.00  0.00     0.026 H 
ATOM     39  H   LIG d   1       6.130   0.039  -9.975  0.00  0.00     0.026 H 
ENDBRANCH   1  36
BRANCH   1  40
ATOM     40  O   LIG d   1       4.600  -2.560 -10.978  0.00  0.00    -0.388 OA
ATOM     41  H   LIG d   1       4.373  -2.581 -11.918  0.00  0.00     0.210 HD
ENDBRANCH   1  40
BRANCH   6  42
ATOM     42  C   LIG d   1       3.833  -2.717  -8.446  0.00  0.00    -0.053 C 
ATOM     43  H   LIG d   1       3.336  -2.595  -7.483  0.00  0.00     0.024 H 
ATOM     44  H   LIG d   1       3.102  -3.015  -9.197  0.00  0.00     0.024 H 
ATOM     45  H   LIG d   1       4.602  -3.486  -8.362  0.00  0.00     0.024 H 
ENDBRANCH   6  42
TORSDOF 3
ENDMDL
MODEL 5
REMARK VINA RESULT:      -6.2      3.477      6.210
REMARK  3 active torsions:
REMARK  status: ('A' for Active; 'I' for Inactive)
REMARK    1  A    between atoms: C_1  and  C_2 
REMARK    2  A    between atoms: C_2  and  O_23 
REMARK    3  A    between atoms: C_7  and  C_22 
ROOT
ATOM      1  C   LIG d   1       4.722   0.019  -2.765  0.00  0.00     0.072 C 
ATOM      2  C   LIG d   1       6.257  -0.106  -2.795  0.00  0.00    -0.023 C 
ATOM      3  C   LIG d   1       6.623  -0.639  -4.207  0.00  0.00    -0.046 C 
ATOM      4  C   LIG d   1       5.417  -0.217  -5.055  0.00  0.00    -0.023 C 
ATOM      5  H   LIG d   1       5.449   0.848  -5.283  0.00  0.00     0.032 H 
ATOM      6  C   LIG d   1       4.238  -0.544  -4.095  0.00  0.00     0.018 C 
ATOM      7  C   LIG d   1       3.003   0.048  -4.683  0.00  0.00    -0.075 C 
ATOM      8  C   LIG d   1       2.855  -0.006  -6.018  0.00  0.00    -0.061 C 
ATOM      9  C   LIG d   1       3.837  -0.579  -6.868  0.00  0.00    -0.041 C 
ATOM     10  C   LIG d   1       3.573  -0.688  -8.200  0.00  0.00    -0.040 C 
ATOM     11  C   LIG d   1       2.177  -0.365  -8.677  0.00  0.00    -0.020 C 
ATOM     12  C   LIG d   1       2.215   0.223 -10.084  0.00  0.00     0.014 C 
ATOM     13  C   LIG d   1       3.110  -0.612 -10.961  0.00  0.00     0.157 C 
ATOM     14  O   LIG d   1       2.801  -0.824 -12.118  0.00  0.00    -0.293 OA
ATOM     15  C   LIG d   1       4.296  -1.143 -10.446  0.00  0.00    -0.016 C 
ATOM     16  C   LIG d   1       4.553  -1.118  -9.107  0.00  0.00    -0.041 C 
ATOM     17  C   LIG d   1       5.906  -1.574  -8.616  0.00  0.00    -0.027 C 
ATOM     18  C   LIG d   1       6.265  -0.788  -7.350  0.00  0.00    -0.042 C 
ATOM     19  C   LIG d   1       5.171  -1.028  -6.312  0.00  0.00    -0.012 C 
ATOM     20  H   LIG d   1       5.133  -2.088  -6.062  0.00  0.00     0.035 H 
ATOM     21  H   LIG d   1       6.601  -0.804  -2.030  0.00  0.00     0.029 H 
ATOM     22  H   LIG d   1       6.710   0.874  -2.636  0.00  0.00     0.029 H 
ATOM     23  H   LIG d   1       6.726  -1.724  -4.195  0.00  0.00     0.027 H 
ATOM     24  H   LIG d   1       7.536  -0.170  -4.575  0.00  0.00     0.027 H 
ATOM     25  H   LIG d   1       2.250   0.503  -4.056  0.00  0.00     0.058 H 
ATOM     26  H   LIG d   1       1.956   0.400  -6.459  0.00  0.00     0.062 H 
ATOM     27  H   LIG d   1       1.724   0.357  -7.997  0.00  0.00     0.032 H 
ATOM     28  H   LIG d   1       1.580  -1.277  -8.684  0.00  0.00     0.032 H 
ATOM     29  H   LIG d   1       2.568   1.158 -10.045  0.00  0.00     0.035 H 
ATOM     30  H   LIG d   1       1.207   0.232 -10.498  0.00  0.00     0.035 H 
ATOM     31  H   LIG d   1       5.020  -1.580 -11.118  0.00  0.00     0.066 H 
ATOM     32  H   LIG d   1       6.655  -1.389  -9.386  0.00  0.00     0.031 H 
ATOM     33  H   LIG d   1       5.871  -2.639  -8.388  0.00  0.00     0.031 H 
ATOM     34  H   LIG d   1       6.325   0.276  -7.582  0.00  0.00     0.027 H 
ATOM     35  H   LIG d   1       7.223  -1.133  -6.961  0.00  0.00     0.027 H 
ENDROOT
BRANCH   1  36
ATOM     36  C   LIG d   1       4.309   1.485  -2.628  0.00  0.00    -0.035 C 
ATOM     37  H   LIG d   1       5.201   2.112  -2.591  0.00  0.00     0.026 H 
ATOM     38  H   LIG d   1       3.697   1.773  -3.483  0.00  0.00     0.026 H 
ATOM     39  H   LIG d   1       3.736   1.617  -1.710  0.00  0.00     0.026 H 
ENDBRANCH   1  36
BRANCH   1  40
ATOM     40  O   LIG d   1       4.196  -0.748  -1.681  0.00  0.00    -0.388 OA
ATOM     41  H   LIG d   1       4.249  -0.306  -0.823  0.00  0.00     0.210 HD
ENDBRANCH   1  40
BRANCH   6  42
ATOM     42  C   LIG d   1       4.075  -2.061  -3.980  0.00  0.00    -0.053 C 
ATOM     43  H   LIG d   1       3.113  -2.356  -4.399  0.00  0.00     0.024 H 
ATOM     44  H   LIG d   1       4.877  -2.555  -4.529  0.00  0.00     0.024 H 
ATOM     45  H   LIG d   1       4.119  -2.354  -2.931  0.00  0.00     0.024 H 
ENDBRANCH   6  42
TORSDOF 3
ENDMDL
MODEL 6
REMARK VINA RESULT:      -6.1      3.356      5.714
REMARK  3 active torsions:
REMARK  status: ('A' for Active; 'I' for Inactive)
REMARK    1  A    between atoms: C_1  and  C_2 
REMARK    2  A    between atoms: C_2  and  O_23 
REMARK    3  A    between atoms: C_7  and  C_22 
ROOT
ATOM      1  C   LIG d   1       7.119  -6.455  -6.196  0.00  0.00     0.072 C 
ATOM      2  C   LIG d   1       8.597  -6.329  -5.782  0.00  0.00    -0.023 C 
ATOM      3  C   LIG d   1       8.772  -4.889  -5.228  0.00  0.00    -0.046 C 
ATOM      4  C   LIG d   1       7.349  -4.511  -4.801  0.00  0.00    -0.023 C 
ATOM      5  H   LIG d   1       7.077  -5.000  -3.866  0.00  0.00     0.032 H 
ATOM      6  C   LIG d   1       6.513  -5.075  -5.985  0.00  0.00     0.018 C 
ATOM      7  C   LIG d   1       5.077  -5.006  -5.593  0.00  0.00    -0.075 C 
ATOM      8  C   LIG d   1       4.667  -3.934  -4.894  0.00  0.00    -0.061 C 
ATOM      9  C   LIG d   1       5.554  -2.897  -4.504  0.00  0.00    -0.041 C 
ATOM     10  C   LIG d   1       5.048  -1.794  -3.885  0.00  0.00    -0.040 C 
ATOM     11  C   LIG d   1       3.547  -1.648  -3.808  0.00  0.00    -0.020 C 
ATOM     12  C   LIG d   1       3.145  -0.918  -2.530  0.00  0.00     0.014 C 
ATOM     13  C   LIG d   1       4.007   0.303  -2.348  0.00  0.00     0.157 C 
ATOM     14  O   LIG d   1       3.520   1.333  -1.922  0.00  0.00    -0.293 OA
ATOM     15  C   LIG d   1       5.367   0.253  -2.667  0.00  0.00    -0.016 C 
ATOM     16  C   LIG d   1       5.888  -0.803  -3.356  0.00  0.00    -0.041 C 
ATOM     17  C   LIG d   1       7.383  -0.877  -3.553  0.00  0.00    -0.027 C 
ATOM     18  C   LIG d   1       7.803  -2.351  -3.601  0.00  0.00    -0.042 C 
ATOM     19  C   LIG d   1       7.044  -3.028  -4.739  0.00  0.00    -0.012 C 
ATOM     20  H   LIG d   1       7.313  -2.560  -5.686  0.00  0.00     0.035 H 
ATOM     21  H   LIG d   1       9.251  -6.483  -6.641  0.00  0.00     0.029 H 
ATOM     22  H   LIG d   1       8.825  -7.059  -5.004  0.00  0.00     0.029 H 
ATOM     23  H   LIG d   1       9.131  -4.217  -6.009  0.00  0.00     0.027 H 
ATOM     24  H   LIG d   1       9.447  -4.881  -4.373  0.00  0.00     0.027 H 
ATOM     25  H   LIG d   1       4.387  -5.792  -5.864  0.00  0.00     0.058 H 
ATOM     26  H   LIG d   1       3.625  -3.859  -4.618  0.00  0.00     0.062 H 
ATOM     27  H   LIG d   1       3.089  -2.637  -3.818  0.00  0.00     0.032 H 
ATOM     28  H   LIG d   1       3.198  -1.080  -4.671  0.00  0.00     0.032 H 
ATOM     29  H   LIG d   1       3.264  -1.528  -1.747  0.00  0.00     0.035 H 
ATOM     30  H   LIG d   1       2.100  -0.617  -2.601  0.00  0.00     0.035 H 
ATOM     31  H   LIG d   1       6.015   1.063  -2.365  0.00  0.00     0.066 H 
ATOM     32  H   LIG d   1       7.885  -0.381  -2.723  0.00  0.00     0.031 H 
ATOM     33  H   LIG d   1       7.653  -0.389  -4.490  0.00  0.00     0.031 H 
ATOM     34  H   LIG d   1       7.557  -2.835  -2.656  0.00  0.00     0.027 H 
ATOM     35  H   LIG d   1       8.876  -2.422  -3.781  0.00  0.00     0.027 H 
ENDROOT
BRANCH   1  36
ATOM     36  C   LIG d   1       6.406  -7.487  -5.321  0.00  0.00    -0.035 C 
ATOM     37  H   LIG d   1       6.550  -8.483  -5.741  0.00  0.00     0.026 H 
ATOM     38  H   LIG d   1       6.818  -7.455  -4.312  0.00  0.00     0.026 H 
ATOM     39  H   LIG d   1       5.340  -7.260  -5.285  0.00  0.00     0.026 H 
ENDBRANCH   1  36
BRANCH   1  40
ATOM     40  O   LIG d   1       7.033  -6.829  -7.573  0.00  0.00    -0.388 OA
ATOM     41  H   LIG d   1       6.149  -6.734  -7.952  0.00  0.00     0.210 HD
ENDBRANCH   1  40
BRANCH   6  42
ATOM     42  C   LIG d   1       6.745  -4.217  -7.230  0.00  0.00    -0.053 C 
ATOM     43  H   LIG d   1       7.739  -3.771  -7.185  0.00  0.00     0.024 H 
ATOM     44  H   LIG d   1       6.667  -4.840  -8.121  0.00  0.00     0.024 H 
ATOM     45  H   LIG d   1       5.995  -3.427  -7.273  0.00  0.00     0.024 H 
ENDBRANCH   6  42
TORSDOF 3
ENDMDL
MODEL 7
REMARK VINA RESULT:      -6.0      3.654      6.902
REMARK  3 active torsions:
REMARK  status: ('A' for Active; 'I' for Inactive)
REMARK    1  A    between atoms: C_1  and  C_2 
REMARK    2  A    between atoms: C_2  and  O_23 
REMARK    3  A    between atoms: C_7  and  C_22 
ROOT
ATOM      1  C   LIG d   1       4.619  -1.107  -2.975  0.00  0.00     0.072 C 
ATOM      2  C   LIG d   1       3.807   0.149  -2.610  0.00  0.00    -0.023 C 
ATOM      3  C   LIG d   1       3.424   0.825  -3.956  0.00  0.00    -0.046 C 
ATOM      4  C   LIG d   1       3.491  -0.336  -4.954  0.00  0.00    -0.023 C 
ATOM      5  H   LIG d   1       2.622  -0.987  -4.859  0.00  0.00     0.032 H 
ATOM      6  C   LIG d   1       4.784  -1.066  -4.489  0.00  0.00     0.018 C 
ATOM      7  C   LIG d   1       4.847  -2.369  -5.209  0.00  0.00    -0.075 C 
ATOM      8  C   LIG d   1       4.451  -2.397  -6.493  0.00  0.00    -0.061 C 
ATOM      9  C   LIG d   1       3.959  -1.245  -7.161  0.00  0.00    -0.041 C 
ATOM     10  C   LIG d   1       3.670  -1.326  -8.490  0.00  0.00    -0.040 C 
ATOM     11  C   LIG d   1       4.062  -2.584  -9.227  0.00  0.00    -0.020 C 
ATOM     12  C   LIG d   1       3.070  -2.879 -10.348  0.00  0.00     0.014 C 
ATOM     13  C   LIG d   1       2.806  -1.624 -11.137  0.00  0.00     0.157 C 
ATOM     14  O   LIG d   1       2.685  -1.680 -12.345  0.00  0.00    -0.293 OA
ATOM     15  C   LIG d   1       2.698  -0.395 -10.480  0.00  0.00    -0.016 C 
ATOM     16  C   LIG d   1       3.055  -0.265  -9.170  0.00  0.00    -0.041 C 
ATOM     17  C   LIG d   1       2.787   1.045  -8.470  0.00  0.00    -0.027 C 
ATOM     18  C   LIG d   1       2.512   0.766  -6.988  0.00  0.00    -0.042 C 
ATOM     19  C   LIG d   1       3.722   0.044  -6.403  0.00  0.00    -0.012 C 
ATOM     20  H   LIG d   1       4.601   0.685  -6.477  0.00  0.00     0.035 H 
ATOM     21  H   LIG d   1       4.405   0.831  -2.005  0.00  0.00     0.029 H 
ATOM     22  H   LIG d   1       2.906  -0.140  -2.067  0.00  0.00     0.029 H 
ATOM     23  H   LIG d   1       4.145   1.600  -4.216  0.00  0.00     0.027 H 
ATOM     24  H   LIG d   1       2.416   1.237  -3.911  0.00  0.00     0.027 H 
ATOM     25  H   LIG d   1       5.203  -3.262  -4.716  0.00  0.00     0.058 H 
ATOM     26  H   LIG d   1       4.509  -3.329  -7.036  0.00  0.00     0.062 H 
ATOM     27  H   LIG d   1       4.074  -3.421  -8.528  0.00  0.00     0.032 H 
ATOM     28  H   LIG d   1       5.058  -2.456  -9.652  0.00  0.00     0.032 H 
ATOM     29  H   LIG d   1       2.212  -3.211  -9.955  0.00  0.00     0.035 H 
ATOM     30  H   LIG d   1       3.487  -3.641 -11.007  0.00  0.00     0.035 H 
ATOM     31  H   LIG d   1       2.329   0.466 -11.019  0.00  0.00     0.066 H 
ATOM     32  H   LIG d   1       1.920   1.529  -8.918  0.00  0.00     0.031 H 
ATOM     33  H   LIG d   1       3.659   1.693  -8.564  0.00  0.00     0.031 H 
ATOM     34  H   LIG d   1       1.626   0.139  -6.890  0.00  0.00     0.027 H 
ATOM     35  H   LIG d   1       2.355   1.707  -6.459  0.00  0.00     0.027 H 
ENDROOT
BRANCH   1  36
ATOM     36  C   LIG d   1       3.864  -2.370  -2.558  0.00  0.00    -0.035 C 
ATOM     37  H   LIG d   1       4.573  -3.186  -2.410  0.00  0.00     0.026 H 
ATOM     38  H   LIG d   1       3.327  -2.182  -1.628  0.00  0.00     0.026 H 
ATOM     39  H   LIG d   1       3.154  -2.645  -3.338  0.00  0.00     0.026 H 
ENDBRANCH   1  36
BRANCH   1  40
ATOM     40  O   LIG d   1       5.896  -1.059  -2.336  0.00  0.00    -0.388 OA
ATOM     41  H   LIG d   1       5.918  -0.510  -1.541  0.00  0.00     0.210 HD
ENDBRANCH   1  40
BRANCH   6  42
ATOM     42  C   LIG d   1       6.007  -0.222  -4.849  0.00  0.00    -0.053 C 
ATOM     43  H   LIG d   1       5.865   0.797  -4.488  0.00  0.00     0.024 H 
ATOM     44  H   LIG d   1       6.895  -0.651  -4.385  0.00  0.00     0.024 H 
ATOM     45  H   LIG d   1       6.134  -0.208  -5.931  0.00  0.00     0.024 H 
ENDBRANCH   6  42
TORSDOF 3
ENDMDL
MODEL 8
REMARK VINA RESULT:      -6.0      1.832      3.156
REMARK  3 active torsions:
REMARK  status: ('A' for Active; 'I' for Inactive)
REMARK    1  A    between atoms: C_1  and  C_2 
REMARK    2  A    between atoms: C_2  and  O_23 
REMARK    3  A    between atoms: C_7  and  C_22 
ROOT
ATOM      1  C   LIG d   1       3.518  -0.496  -3.326  0.00  0.00     0.072 C 
ATOM      2  C   LIG d   1       3.684   0.504  -2.167  0.00  0.00    -0.023 C 
ATOM      3  C   LIG d   1       5.156   0.997  -2.225  0.00  0.00    -0.046 C 
ATOM      4  C   LIG d   1       5.541   0.752  -3.689  0.00  0.00    -0.023 C 
ATOM      5  H   LIG d   1       5.103   1.505  -4.342  0.00  0.00     0.032 H 
ATOM      6  C   LIG d   1       4.902  -0.643  -3.945  0.00  0.00     0.018 C 
ATOM      7  C   LIG d   1       4.976  -0.909  -5.409  0.00  0.00    -0.075 C 
ATOM      8  C   LIG d   1       6.081  -0.515  -6.064  0.00  0.00    -0.061 C 
ATOM      9  C   LIG d   1       7.149   0.158  -5.414  0.00  0.00    -0.041 C 
ATOM     10  C   LIG d   1       8.280   0.438  -6.121  0.00  0.00    -0.040 C 
ATOM     11  C   LIG d   1       8.413  -0.145  -7.508  0.00  0.00    -0.020 C 
ATOM     12  C   LIG d   1       9.210   0.793  -8.409  0.00  0.00     0.014 C 
ATOM     13  C   LIG d   1      10.449   1.259  -7.691  0.00  0.00     0.157 C 
ATOM     14  O   LIG d   1      11.496   1.376  -8.298  0.00  0.00    -0.293 OA
ATOM     15  C   LIG d   1      10.396   1.557  -6.326  0.00  0.00    -0.016 C 
ATOM     16  C   LIG d   1       9.309   1.218  -5.575  0.00  0.00    -0.041 C 
ATOM     17  C   LIG d   1       9.240   1.686  -4.142  0.00  0.00    -0.027 C 
ATOM     18  C   LIG d   1       7.771   1.906  -3.763  0.00  0.00    -0.042 C 
ATOM     19  C   LIG d   1       7.022   0.592  -3.970  0.00  0.00    -0.012 C 
ATOM     20  H   LIG d   1       7.439  -0.172  -3.314  0.00  0.00     0.035 H 
ATOM     21  H   LIG d   1       3.490   0.018  -1.210  0.00  0.00     0.029 H 
ATOM     22  H   LIG d   1       3.002   1.344  -2.304  0.00  0.00     0.029 H 
ATOM     23  H   LIG d   1       5.786   0.410  -1.557  0.00  0.00     0.027 H 
ATOM     24  H   LIG d   1       5.221   2.058  -1.983  0.00  0.00     0.027 H 
ATOM     25  H   LIG d   1       4.168  -1.405  -5.927  0.00  0.00     0.058 H 
ATOM     26  H   LIG d   1       6.160  -0.718  -7.122  0.00  0.00     0.062 H 
ATOM     27  H   LIG d   1       7.420  -0.294  -7.932  0.00  0.00     0.032 H 
ATOM     28  H   LIG d   1       8.926  -1.105  -7.446  0.00  0.00     0.032 H 
ATOM     29  H   LIG d   1       8.647   1.586  -8.645  0.00  0.00     0.035 H 
ATOM     30  H   LIG d   1       9.495   0.265  -9.318  0.00  0.00     0.035 H 
ATOM     31  H   LIG d   1      11.229   2.061  -5.858  0.00  0.00     0.066 H 
ATOM     32  H   LIG d   1       9.789   2.622  -4.036  0.00  0.00     0.031 H 
ATOM     33  H   LIG d   1       9.677   0.930  -3.489  0.00  0.00     0.031 H 
ATOM     34  H   LIG d   1       7.339   2.680  -4.397  0.00  0.00     0.027 H 
ATOM     35  H   LIG d   1       7.702   2.207  -2.717  0.00  0.00     0.027 H 
ENDROOT
BRANCH   1  36
ATOM     36  C   LIG d   1       2.530   0.046  -4.360  0.00  0.00    -0.035 C 
ATOM     37  H   LIG d   1       1.637   0.414  -3.853  0.00  0.00     0.026 H 
ATOM     38  H   LIG d   1       2.995   0.862  -4.915  0.00  0.00     0.026 H 
ATOM     39  H   LIG d   1       2.252  -0.751  -5.051  0.00  0.00     0.026 H 
ENDBRANCH   1  36
BRANCH   1  40
ATOM     40  O   LIG d   1       3.066  -1.753  -2.819  0.00  0.00    -0.388 OA
ATOM     41  H   LIG d   1       3.771  -2.399  -2.680  0.00  0.00     0.210 HD
ENDBRANCH   1  40
BRANCH   6  42
ATOM     42  C   LIG d   1       5.690  -1.714  -3.189  0.00  0.00    -0.053 C 
ATOM     43  H   LIG d   1       5.152  -1.989  -2.281  0.00  0.00     0.024 H 
ATOM     44  H   LIG d   1       5.807  -2.594  -3.822  0.00  0.00     0.024 H 
ATOM     45  H   LIG d   1       6.673  -1.325  -2.924  0.00  0.00     0.024 H 
ENDBRANCH   6  42
TORSDOF 3
ENDMDL
MODEL 9
REMARK VINA RESULT:      -5.9      3.015      5.694
REMARK  3 active torsions:
REMARK  status: ('A' for Active; 'I' for Inactive)
REMARK    1  A    between atoms: C_1  and  C_2 
REMARK    2  A    between atoms: C_2  and  O_23 
REMARK    3  A    between atoms: C_7  and  C_22 
ROOT
ATOM      1  C   LIG d   1       9.446  -4.258  -6.194  0.00  0.00     0.072 C 
ATOM      2  C   LIG d   1       8.495  -5.412  -6.564  0.00  0.00    -0.023 C 
ATOM      3  C   LIG d   1       7.197  -5.186  -5.742  0.00  0.00    -0.046 C 
ATOM      4  C   LIG d   1       7.233  -3.681  -5.451  0.00  0.00    -0.023 C 
ATOM      5  H   LIG d   1       6.956  -3.103  -6.333  0.00  0.00     0.032 H 
ATOM      6  C   LIG d   1       8.734  -3.472  -5.101  0.00  0.00     0.018 C 
ATOM      7  C   LIG d   1       8.980  -2.004  -5.038  0.00  0.00    -0.075 C 
ATOM      8  C   LIG d   1       8.022  -1.228  -4.503  0.00  0.00    -0.061 C 
ATOM      9  C   LIG d   1       6.794  -1.758  -4.027  0.00  0.00    -0.041 C 
ATOM     10  C   LIG d   1       5.913  -0.926  -3.406  0.00  0.00    -0.040 C 
ATOM     11  C   LIG d   1       6.365   0.480  -3.091  0.00  0.00    -0.020 C 
ATOM     12  C   LIG d   1       5.189   1.449  -3.161  0.00  0.00     0.014 C 
ATOM     13  C   LIG d   1       4.012   0.877  -2.416  0.00  0.00     0.157 C 
ATOM     14  O   LIG d   1       3.304   1.604  -1.747  0.00  0.00    -0.293 OA
ATOM     15  C   LIG d   1       3.733  -0.491  -2.493  0.00  0.00    -0.016 C 
ATOM     16  C   LIG d   1       4.631  -1.361  -3.039  0.00  0.00    -0.041 C 
ATOM     17  C   LIG d   1       4.225  -2.802  -3.228  0.00  0.00    -0.027 C 
ATOM     18  C   LIG d   1       4.947  -3.363  -4.458  0.00  0.00    -0.042 C 
ATOM     19  C   LIG d   1       6.451  -3.217  -4.238  0.00  0.00    -0.012 C 
ATOM     20  H   LIG d   1       6.750  -3.800  -3.366  0.00  0.00     0.035 H 
ATOM     21  H   LIG d   1       8.939  -6.373  -6.306  0.00  0.00     0.029 H 
ATOM     22  H   LIG d   1       8.272  -5.378  -7.631  0.00  0.00     0.029 H 
ATOM     23  H   LIG d   1       7.223  -5.758  -4.814  0.00  0.00     0.027 H 
ATOM     24  H   LIG d   1       6.315  -5.443  -6.329  0.00  0.00     0.027 H 
ATOM     25  H   LIG d   1       9.901  -1.577  -5.409  0.00  0.00     0.058 H 
ATOM     26  H   LIG d   1       8.193  -0.164  -4.431  0.00  0.00     0.062 H 
ATOM     27  H   LIG d   1       7.125   0.784  -3.811  0.00  0.00     0.032 H 
ATOM     28  H   LIG d   1       6.790   0.503  -2.087  0.00  0.00     0.032 H 
ATOM     29  H   LIG d   1       4.935   1.597  -4.117  0.00  0.00     0.035 H 
ATOM     30  H   LIG d   1       5.476   2.399  -2.711  0.00  0.00     0.035 H 
ATOM     31  H   LIG d   1       2.793  -0.865  -2.114  0.00  0.00     0.066 H 
ATOM     32  H   LIG d   1       3.147  -2.862  -3.378  0.00  0.00     0.031 H 
ATOM     33  H   LIG d   1       4.505  -3.378  -2.345  0.00  0.00     0.031 H 
ATOM     34  H   LIG d   1       4.650  -2.804  -5.346  0.00  0.00     0.027 H 
ATOM     35  H   LIG d   1       4.695  -4.416  -4.586  0.00  0.00     0.027 H 
ENDROOT
BRANCH   1  36
ATOM     36  C   LIG d   1       9.699  -3.365  -7.410  0.00  0.00    -0.035 C 
ATOM     37  H   LIG d   1       8.789  -2.816  -7.654  0.00  0.00     0.026 H 
ATOM     38  H   LIG d   1      10.499  -2.660  -7.184  0.00  0.00     0.026 H 
ATOM     39  H   LIG d   1       9.988  -3.982  -8.261  0.00  0.00     0.026 H 
ENDBRANCH   1  36
BRANCH   1  40
ATOM     40  O   LIG d   1      10.679  -4.787  -5.702  0.00  0.00    -0.388 OA
ATOM     41  H   LIG d   1      11.464  -4.406  -6.118  0.00  0.00     0.210 HD
ENDBRANCH   1  40
BRANCH   6  42
ATOM     42  C   LIG d   1       9.035  -4.101  -3.740  0.00  0.00    -0.053 C 
ATOM     43  H   LIG d   1       8.330  -4.910  -3.548  0.00  0.00     0.024 H 
ATOM     44  H   LIG d   1      10.051  -4.496  -3.738  0.00  0.00     0.024 H 
ATOM     45  H   LIG d   1       8.939  -3.344  -2.960  0.00  0.00     0.024 H 
ENDBRANCH   6  42
TORSDOF 3
ENDMDL
MODEL 10
REMARK VINA RESULT:      -5.7      5.972      9.637
REMARK  3 active torsions:
REMARK  status: ('A' for Active; 'I' for Inactive)
REMARK    1  A    between atoms: C_1  and  C_2 
REMARK    2  A    between atoms: C_2  and  O_23 
REMARK    3  A    between atoms: C_7  and  C_22 
ROOT
ATOM      1  C   LIG d   1      10.696  10.151  -0.119  0.00  0.00     0.072 C 
ATOM      2  C   LIG d   1      11.201   9.192   0.976  0.00  0.00    -0.023 C 
ATOM      3  C   LIG d   1      10.915   7.755   0.461  0.00  0.00    -0.046 C 
ATOM      4  C   LIG d   1      10.848   7.943  -1.059  0.00  0.00    -0.023 C 
ATOM      5  H   LIG d   1      11.844   8.060  -1.485  0.00  0.00     0.032 H 
ATOM      6  C   LIG d   1      10.038   9.266  -1.169  0.00  0.00     0.018 C 
ATOM      7  C   LIG d   1      10.105   9.717  -2.588  0.00  0.00    -0.075 C 
ATOM      8  C   LIG d   1      10.047   8.778  -3.548  0.00  0.00    -0.061 C 
ATOM      9  C   LIG d   1       9.951   7.393  -3.252  0.00  0.00    -0.041 C 
ATOM     10  C   LIG d   1       9.796   6.509  -4.277  0.00  0.00    -0.040 C 
ATOM     11  C   LIG d   1       9.549   7.061  -5.660  0.00  0.00    -0.020 C 
ATOM     12  C   LIG d   1      10.156   6.145  -6.718  0.00  0.00     0.014 C 
ATOM     13  C   LIG d   1       9.786   4.714  -6.427  0.00  0.00     0.157 C 
ATOM     14  O   LIG d   1       9.512   3.959  -7.339  0.00  0.00    -0.293 OA
ATOM     15  C   LIG d   1       9.758   4.254  -5.107  0.00  0.00    -0.016 C 
ATOM     16  C   LIG d   1       9.833   5.124  -4.059  0.00  0.00    -0.041 C 
ATOM     17  C   LIG d   1       9.941   4.569  -2.659  0.00  0.00    -0.027 C 
ATOM     18  C   LIG d   1      10.756   5.544  -1.802  0.00  0.00    -0.042 C 
ATOM     19  C   LIG d   1      10.056   6.901  -1.825  0.00  0.00    -0.012 C 
ATOM     20  H   LIG d   1       9.061   6.806  -1.390  0.00  0.00     0.035 H 
ATOM     21  H   LIG d   1      10.671   9.366   1.913  0.00  0.00     0.029 H 
ATOM     22  H   LIG d   1      12.273   9.331   1.122  0.00  0.00     0.029 H 
ATOM     23  H   LIG d   1       9.963   7.389   0.847  0.00  0.00     0.027 H 
ATOM     24  H   LIG d   1      11.726   7.077   0.730  0.00  0.00     0.027 H 
ATOM     25  H   LIG d   1      10.194  10.764  -2.836  0.00  0.00     0.058 H 
ATOM     26  H   LIG d   1      10.074   9.089  -4.583  0.00  0.00     0.062 H 
ATOM     27  H   LIG d   1      10.000   8.050  -5.739  0.00  0.00     0.032 H 
ATOM     28  H   LIG d   1       8.475   7.141  -5.828  0.00  0.00     0.032 H 
ATOM     29  H   LIG d   1      11.152   6.238  -6.708  0.00  0.00     0.035 H 
ATOM     30  H   LIG d   1       9.775   6.425  -7.700  0.00  0.00     0.035 H 
ATOM     31  H   LIG d   1       9.675   3.195  -4.914  0.00  0.00     0.066 H 
ATOM     32  H   LIG d   1      10.442   3.601  -2.687  0.00  0.00     0.031 H 
ATOM     33  H   LIG d   1       8.944   4.454  -2.234  0.00  0.00     0.031 H 
ATOM     34  H   LIG d   1      11.762   5.642  -2.210  0.00  0.00     0.027 H 
ATOM     35  H   LIG d   1      10.810   5.177  -0.777  0.00  0.00     0.027 H 
ENDROOT
BRANCH   1  36
ATOM     36  C   LIG d   1      11.866  10.922  -0.733  0.00  0.00    -0.035 C 
ATOM     37  H   LIG d   1      12.044  10.566  -1.748  0.00  0.00     0.026 H 
ATOM     38  H   LIG d   1      11.628  11.986  -0.757  0.00  0.00     0.026 H 
ATOM     39  H   LIG d   1      12.762  10.763  -0.132  0.00  0.00     0.026 H 
ENDBRANCH   1  36
BRANCH   1  40
ATOM     40  O   LIG d   1       9.741  11.057   0.436  0.00  0.00    -0.388 OA
ATOM     41  H   LIG d   1       9.653  11.885  -0.055  0.00  0.00     0.210 HD
ENDBRANCH   1  40
BRANCH   6  42
ATOM     42  C   LIG d   1       8.581   9.008  -0.782  0.00  0.00    -0.053 C 
ATOM     43  H   LIG d   1       8.491   8.986   0.305  0.00  0.00     0.024 H 
ATOM     44  H   LIG d   1       7.952   9.803  -1.181  0.00  0.00     0.024 H 
ATOM     45  H   LIG d   1       8.259   8.051  -1.191  0.00  0.00     0.024 H 
ENDBRANCH   6  42
TORSDOF 3
ENDMDL
