MODEL 1
REMARK VINA RESULT:      -6.4      0.000      0.000
REMARK  8 active torsions:
REMARK  status: ('A' for Active; 'I' for Inactive)
REMARK    1  A    between atoms: C_1  and  C_2 
REMARK    2  A    between atoms: C_5  and  C_32 
REMARK    3  A    between atoms: C_7  and  N_8 
REMARK       I    between atoms: N_8  and  C_9 
REMARK    4  A    between atoms: C_9  and  C_11 
REMARK    5  A    between atoms: C_23  and  C_25 
REMARK    6  A    between atoms: C_23  and  C_26 
REMARK    7  A    between atoms: C_28  and  C_30 
REMARK    8  A    between atoms: C_28  and  C_31 
ROOT
ATOM      1  C   LIG d   1       7.454  -1.687  -7.826  0.00  0.00     0.166 C 
ATOM      2  H   LIG d   1       8.152  -2.514  -7.951  0.00  0.00     0.072 H 
ATOM      3  C   LIG d   1       8.195  -0.383  -8.021  0.00  0.00     0.125 C 
ATOM      4  H   LIG d   1       8.848  -0.472  -8.890  0.00  0.00     0.066 H 
ATOM      5  C   LIG d   1       7.289   0.823  -8.187  0.00  0.00     0.122 C 
ATOM      6  H   LIG d   1       7.810   1.550  -8.811  0.00  0.00     0.065 H 
ATOM      7  C   LIG d   1       5.944   0.568  -8.792  0.00  0.00     0.141 C 
ATOM      8  H   LIG d   1       5.217   1.205  -8.291  0.00  0.00     0.068 H 
ATOM      9  C   LIG d   1       5.410  -0.832  -8.774  0.00  0.00     0.192 C 
ATOM     10  H   LIG d   1       4.762  -0.951  -7.906  0.00  0.00     0.094 H 
ATOM     11  O   LIG d   1       6.396  -1.834  -8.750  0.00  0.00    -0.333 OA
ATOM     12  O   LIG d   1       4.599  -0.951  -9.957  0.00  0.00    -0.318 OA
ATOM     13  C   LIG d   1       4.922   0.110 -10.802  0.00  0.00     0.168 C 
ATOM     14  O   LIG d   1       5.933   0.921 -10.190  0.00  0.00    -0.338 OA
ATOM     15  O   LIG d   1       7.165   1.384  -6.868  0.00  0.00    -0.341 OA
ATOM     16  C   LIG d   1       8.198   0.814  -6.057  0.00  0.00     0.166 C 
ATOM     17  O   LIG d   1       8.984  -0.082  -6.853  0.00  0.00    -0.340 OA
ENDROOT
BRANCH   1  18
ATOM     18  C   LIG d   1       6.892  -1.727  -6.428  0.00  0.00     0.249 C 
ATOM     19  N   LIG d   1       5.566  -1.588  -6.231  0.00  0.00    -0.283 N 
ATOM     20  H   LIG d   1       4.963  -1.557  -6.991  0.00  0.00     0.155 HD
ATOM     21  O   LIG d   1       7.633  -1.884  -5.481  0.00  0.00    -0.273 OA
BRANCH  19  22
ATOM     22  C   LIG d   1       5.059  -1.488  -4.932  0.00  0.00     0.037 A 
ATOM     23  C   LIG d   1       4.705  -2.636  -4.232  0.00  0.00    -0.029 A 
ATOM     24  C   LIG d   1       4.209  -2.543  -2.945  0.00  0.00    -0.057 A 
ATOM     25  C   LIG d   1       4.052  -1.309  -2.349  0.00  0.00    -0.052 A 
ATOM     26  H   LIG d   1       3.940  -3.440  -2.406  0.00  0.00     0.062 H 
ATOM     27  C   LIG d   1       4.399  -0.148  -3.045  0.00  0.00    -0.001 A 
ATOM     28  H   LIG d   1       3.660  -1.240  -1.345  0.00  0.00     0.062 H 
ATOM     29  C   LIG d   1       4.904  -0.242  -4.342  0.00  0.00    -0.031 A 
ATOM     30  H   LIG d   1       5.175   0.651  -4.885  0.00  0.00     0.064 H 
BRANCH  23  31
ATOM     31  C   LIG d   1       4.869  -3.988  -4.878  0.00  0.00    -0.038 C 
ATOM     32  H   LIG d   1       5.496  -4.619  -4.248  0.00  0.00     0.028 H 
ATOM     33  H   LIG d   1       3.890  -4.453  -4.998  0.00  0.00     0.028 H 
ATOM     34  H   LIG d   1       5.338  -3.870  -5.855  0.00  0.00     0.028 H 
ENDBRANCH  23  31
BRANCH  27  35
ATOM     35  C   LIG d   1       4.230   1.175  -2.409  0.00  0.00     0.072 C 
ATOM     36  O   LIG d   1       4.649   1.366  -1.284  0.00  0.00    -0.545 OA
ATOM     37  O   LIG d   1       3.614   2.169  -3.075  0.00  0.00    -0.545 OA
ENDBRANCH  27  35
ENDBRANCH  19  22
ENDBRANCH   1  18
BRANCH  16  38
ATOM     38  C   LIG d   1       9.091   1.929  -5.510  0.00  0.00    -0.011 C 
ATOM     39  H   LIG d   1       8.842   2.114  -4.465  0.00  0.00     0.028 H 
ATOM     40  H   LIG d   1      10.136   1.628  -5.587  0.00  0.00     0.028 H 
ATOM     41  H   LIG d   1       8.931   2.839  -6.088  0.00  0.00     0.028 H 
ENDBRANCH  16  38
BRANCH  16  42
ATOM     42  C   LIG d   1       7.570   0.045  -4.893  0.00  0.00    -0.011 C 
ATOM     43  H   LIG d   1       8.037  -0.937  -4.812  0.00  0.00     0.028 H 
ATOM     44  H   LIG d   1       7.724   0.598  -3.967  0.00  0.00     0.028 H 
ATOM     45  H   LIG d   1       6.502  -0.075  -5.072  0.00  0.00     0.028 H 
ENDBRANCH  16  42
BRANCH  13  46
ATOM     46  C   LIG d   1       3.664   0.950 -11.031  0.00  0.00    -0.011 C 
ATOM     47  H   LIG d   1       3.084   0.993 -10.108  0.00  0.00     0.028 H 
ATOM     48  H   LIG d   1       3.950   1.959 -11.327  0.00  0.00     0.028 H 
ATOM     49  H   LIG d   1       3.062   0.496 -11.818  0.00  0.00     0.028 H 
ENDBRANCH  13  46
BRANCH  13  50
ATOM     50  C   LIG d   1       5.433  -0.420 -12.142  0.00  0.00    -0.011 C 
ATOM     51  H   LIG d   1       4.759  -1.194 -12.508  0.00  0.00     0.028 H 
ATOM     52  H   LIG d   1       5.476   0.395 -12.864  0.00  0.00     0.028 H 
ATOM     53  H   LIG d   1       6.431  -0.840 -12.010  0.00  0.00     0.028 H 
ENDBRANCH  13  50
TORSDOF 8
ENDMDL
MODEL 2
REMARK VINA RESULT:      -6.3      1.975      6.024
REMARK  8 active torsions:
REMARK  status: ('A' for Active; 'I' for Inactive)
REMARK    1  A    between atoms: C_1  and  C_2 
REMARK    2  A    between atoms: C_5  and  C_32 
REMARK    3  A    between atoms: C_7  and  N_8 
REMARK       I    between atoms: N_8  and  C_9 
REMARK    4  A    between atoms: C_9  and  C_11 
REMARK    5  A    between atoms: C_23  and  C_25 
REMARK    6  A    between atoms: C_23  and  C_26 
REMARK    7  A    between atoms: C_28  and  C_30 
REMARK    8  A    between atoms: C_28  and  C_31 
ROOT
ATOM      1  C   LIG d   1       7.551  -0.920  -5.076  0.00  0.00     0.166 C 
ATOM      2  H   LIG d   1       7.950  -1.932  -5.119  0.00  0.00     0.072 H 
ATOM      3  C   LIG d   1       6.964  -0.679  -3.703  0.00  0.00     0.125 C 
ATOM      4  H   LIG d   1       7.650  -1.070  -2.950  0.00  0.00     0.066 H 
ATOM      5  C   LIG d   1       6.663   0.779  -3.408  0.00  0.00     0.122 C 
ATOM      6  H   LIG d   1       6.761   0.931  -2.332  0.00  0.00     0.065 H 
ATOM      7  C   LIG d   1       7.522   1.791  -4.101  0.00  0.00     0.141 C 
ATOM      8  H   LIG d   1       6.896   2.639  -4.376  0.00  0.00     0.068 H 
ATOM      9  C   LIG d   1       8.274   1.366  -5.326  0.00  0.00     0.192 C 
ATOM     10  H   LIG d   1       7.689   1.629  -6.208  0.00  0.00     0.094 H 
ATOM     11  O   LIG d   1       8.584  -0.005  -5.375  0.00  0.00    -0.333 OA
ATOM     12  O   LIG d   1       9.477   2.156  -5.335  0.00  0.00    -0.318 OA
ATOM     13  C   LIG d   1       9.633   2.704  -4.062  0.00  0.00     0.168 C 
ATOM     14  O   LIG d   1       8.552   2.283  -3.221  0.00  0.00    -0.338 OA
ATOM     15  O   LIG d   1       5.278   0.954  -3.752  0.00  0.00    -0.341 OA
ATOM     16  C   LIG d   1       4.695  -0.349  -3.871  0.00  0.00     0.166 C 
ATOM     17  O   LIG d   1       5.689  -1.340  -3.585  0.00  0.00    -0.340 OA
ENDROOT
BRANCH   1  18
ATOM     18  C   LIG d   1       6.460  -0.780  -6.106  0.00  0.00     0.249 C 
ATOM     19  N   LIG d   1       6.020  -1.866  -6.773  0.00  0.00    -0.283 N 
ATOM     20  H   LIG d   1       6.337  -2.749  -6.525  0.00  0.00     0.155 HD
ATOM     21  O   LIG d   1       5.977   0.308  -6.335  0.00  0.00    -0.273 OA
BRANCH  19  22
ATOM     22  C   LIG d   1       5.107  -1.720  -7.823  0.00  0.00     0.037 A 
ATOM     23  C   LIG d   1       4.134  -2.689  -8.039  0.00  0.00    -0.029 A 
ATOM     24  C   LIG d   1       3.226  -2.546  -9.071  0.00  0.00    -0.057 A 
ATOM     25  C   LIG d   1       3.286  -1.446  -9.902  0.00  0.00    -0.052 A 
ATOM     26  H   LIG d   1       2.470  -3.301  -9.231  0.00  0.00     0.062 H 
ATOM     27  C   LIG d   1       4.263  -0.469  -9.697  0.00  0.00    -0.001 A 
ATOM     28  H   LIG d   1       2.577  -1.341 -10.710  0.00  0.00     0.062 H 
ATOM     29  C   LIG d   1       5.176  -0.611  -8.652  0.00  0.00    -0.031 A 
ATOM     30  H   LIG d   1       5.933   0.141  -8.489  0.00  0.00     0.064 H 
BRANCH  23  31
ATOM     31  C   LIG d   1       4.066  -3.897  -7.140  0.00  0.00    -0.038 C 
ATOM     32  H   LIG d   1       5.020  -4.423  -7.164  0.00  0.00     0.028 H 
ATOM     33  H   LIG d   1       3.852  -3.578  -6.119  0.00  0.00     0.028 H 
ATOM     34  H   LIG d   1       3.275  -4.562  -7.485  0.00  0.00     0.028 H 
ENDBRANCH  23  31
BRANCH  27  35
ATOM     35  C   LIG d   1       4.329   0.710 -10.586  0.00  0.00     0.072 C 
ATOM     36  O   LIG d   1       3.964   0.620 -11.742  0.00  0.00    -0.545 OA
ATOM     37  O   LIG d   1       4.793   1.882 -10.115  0.00  0.00    -0.545 OA
ENDBRANCH  27  35
ENDBRANCH  19  22
ENDBRANCH   1  18
BRANCH  16  38
ATOM     38  C   LIG d   1       3.539  -0.483  -2.878  0.00  0.00    -0.011 C 
ATOM     39  H   LIG d   1       2.600  -0.254  -3.380  0.00  0.00     0.028 H 
ATOM     40  H   LIG d   1       3.506  -1.503  -2.494  0.00  0.00     0.028 H 
ATOM     41  H   LIG d   1       3.687   0.212  -2.051  0.00  0.00     0.028 H 
ENDBRANCH  16  38
BRANCH  16  42
ATOM     42  C   LIG d   1       4.170  -0.547  -5.294  0.00  0.00    -0.011 C 
ATOM     43  H   LIG d   1       3.183  -1.010  -5.256  0.00  0.00     0.028 H 
ATOM     44  H   LIG d   1       4.099   0.419  -5.793  0.00  0.00     0.028 H 
ATOM     45  H   LIG d   1       4.852  -1.192  -5.846  0.00  0.00     0.028 H 
ENDBRANCH  16  42
BRANCH  13  46
ATOM     46  C   LIG d   1       9.620   4.229  -4.185  0.00  0.00    -0.011 C 
ATOM     47  H   LIG d   1      10.016   4.670  -3.269  0.00  0.00     0.028 H 
ATOM     48  H   LIG d   1      10.240   4.529  -5.029  0.00  0.00     0.028 H 
ATOM     49  H   LIG d   1       8.599   4.572  -4.343  0.00  0.00     0.028 H 
ENDBRANCH  13  46
BRANCH  13  50
ATOM     50  C   LIG d   1      10.961   2.251  -3.453  0.00  0.00    -0.011 C 
ATOM     51  H   LIG d   1      11.499   3.117  -3.068  0.00  0.00     0.028 H 
ATOM     52  H   LIG d   1      10.769   1.552  -2.639  0.00  0.00     0.028 H 
ATOM     53  H   LIG d   1      11.562   1.759  -4.219  0.00  0.00     0.028 H 
ENDBRANCH  13  50
TORSDOF 8
ENDMDL
MODEL 3
REMARK VINA RESULT:      -6.3      2.628      3.733
REMARK  8 active torsions:
REMARK  status: ('A' for Active; 'I' for Inactive)
REMARK    1  A    between atoms: C_1  and  C_2 
REMARK    2  A    between atoms: C_5  and  C_32 
REMARK    3  A    between atoms: C_7  and  N_8 
REMARK       I    between atoms: N_8  and  C_9 
REMARK    4  A    between atoms: C_9  and  C_11 
REMARK    5  A    between atoms: C_23  and  C_25 
REMARK    6  A    between atoms: C_23  and  C_26 
REMARK    7  A    between atoms: C_28  and  C_30 
REMARK    8  A    between atoms: C_28  and  C_31 
ROOT
ATOM      1  C   LIG d   1       5.004  -1.937  -8.837  0.00  0.00     0.166 C 
ATOM      2  H   LIG d   1       6.092  -1.912  -8.859  0.00  0.00     0.072 H 
ATOM      3  C   LIG d   1       4.467  -0.820  -9.706  0.00  0.00     0.125 C 
ATOM      4  H   LIG d   1       5.034  -0.791 -10.637  0.00  0.00     0.066 H 
ATOM      5  C   LIG d   1       2.986  -0.935 -10.014  0.00  0.00     0.122 C 
ATOM      6  H   LIG d   1       2.809  -0.471 -10.985  0.00  0.00     0.065 H 
ATOM      7  C   LIG d   1       2.418  -2.320 -10.049  0.00  0.00     0.141 C 
ATOM      8  H   LIG d   1       1.419  -2.290  -9.617  0.00  0.00     0.068 H 
ATOM      9  C   LIG d   1       3.176  -3.417  -9.364  0.00  0.00     0.192 C 
ATOM     10  H   LIG d   1       2.774  -3.549  -8.359  0.00  0.00     0.094 H 
ATOM     11  O   LIG d   1       4.564  -3.204  -9.279  0.00  0.00    -0.333 OA
ATOM     12  O   LIG d   1       2.895  -4.610 -10.118  0.00  0.00    -0.318 OA
ATOM     13  C   LIG d   1       2.359  -4.219 -11.345  0.00  0.00     0.168 C 
ATOM     14  O   LIG d   1       2.286  -2.789 -11.406  0.00  0.00    -0.338 OA
ATOM     15  O   LIG d   1       2.331  -0.132  -9.017  0.00  0.00    -0.341 OA
ATOM     16  C   LIG d   1       3.327   0.698  -8.408  0.00  0.00     0.166 C 
ATOM     17  O   LIG d   1       4.595   0.443  -9.023  0.00  0.00    -0.340 OA
ENDROOT
BRANCH   1  18
ATOM     18  C   LIG d   1       4.538  -1.722  -7.420  0.00  0.00     0.249 C 
ATOM     19  N   LIG d   1       5.439  -1.531  -6.437  0.00  0.00    -0.283 N 
ATOM     20  H   LIG d   1       6.381  -1.438  -6.652  0.00  0.00     0.155 HD
ATOM     21  O   LIG d   1       3.353  -1.721  -7.165  0.00  0.00    -0.273 OA
BRANCH  19  22
ATOM     22  C   LIG d   1       5.018  -1.469  -5.104  0.00  0.00     0.037 A 
ATOM     23  C   LIG d   1       4.750  -2.641  -4.404  0.00  0.00    -0.029 A 
ATOM     24  C   LIG d   1       4.339  -2.585  -3.085  0.00  0.00    -0.057 A 
ATOM     25  C   LIG d   1       4.182  -1.367  -2.458  0.00  0.00    -0.052 A 
ATOM     26  H   LIG d   1       4.136  -3.499  -2.546  0.00  0.00     0.062 H 
ATOM     27  C   LIG d   1       4.443  -0.184  -3.153  0.00  0.00    -0.001 A 
ATOM     28  H   LIG d   1       3.856  -1.328  -1.428  0.00  0.00     0.062 H 
ATOM     29  C   LIG d   1       4.862  -0.240  -4.482  0.00  0.00    -0.031 A 
ATOM     30  H   LIG d   1       5.067   0.671  -5.025  0.00  0.00     0.064 H 
BRANCH  23  31
ATOM     31  C   LIG d   1       4.914  -3.976  -5.085  0.00  0.00    -0.038 C 
ATOM     32  H   LIG d   1       4.891  -4.769  -4.339  0.00  0.00     0.028 H 
ATOM     33  H   LIG d   1       4.101  -4.122  -5.796  0.00  0.00     0.028 H 
ATOM     34  H   LIG d   1       5.867  -3.999  -5.612  0.00  0.00     0.028 H 
ENDBRANCH  23  31
BRANCH  27  35
ATOM     35  C   LIG d   1       4.275   1.122  -2.483  0.00  0.00     0.072 C 
ATOM     36  O   LIG d   1       4.688   1.281  -1.351  0.00  0.00    -0.545 OA
ATOM     37  O   LIG d   1       3.665   2.135  -3.125  0.00  0.00    -0.545 OA
ENDBRANCH  27  35
ENDBRANCH  19  22
ENDBRANCH   1  18
BRANCH  16  38
ATOM     38  C   LIG d   1       2.952   2.169  -8.599  0.00  0.00    -0.011 C 
ATOM     39  H   LIG d   1       3.750   2.801  -8.213  0.00  0.00     0.028 H 
ATOM     40  H   LIG d   1       2.808   2.372  -9.661  0.00  0.00     0.028 H 
ATOM     41  H   LIG d   1       2.028   2.381  -8.060  0.00  0.00     0.028 H 
ENDBRANCH  16  38
BRANCH  16  42
ATOM     42  C   LIG d   1       3.412   0.383  -6.914  0.00  0.00    -0.011 C 
ATOM     43  H   LIG d   1       2.873  -0.542  -6.706  0.00  0.00     0.028 H 
ATOM     44  H   LIG d   1       4.456   0.267  -6.625  0.00  0.00     0.028 H 
ATOM     45  H   LIG d   1       2.966   1.198  -6.345  0.00  0.00     0.028 H 
ENDBRANCH  16  42
BRANCH  13  46
ATOM     46  C   LIG d   1       0.951  -4.807 -11.470  0.00  0.00    -0.011 C 
ATOM     47  H   LIG d   1       0.563  -5.031 -10.476  0.00  0.00     0.028 H 
ATOM     48  H   LIG d   1       0.299  -4.084 -11.960  0.00  0.00     0.028 H 
ATOM     49  H   LIG d   1       0.990  -5.721 -12.061  0.00  0.00     0.028 H 
ENDBRANCH  13  46
BRANCH  13  50
ATOM     50  C   LIG d   1       3.232  -4.736 -12.490  0.00  0.00    -0.011 C 
ATOM     51  H   LIG d   1       2.723  -4.569 -13.439  0.00  0.00     0.028 H 
ATOM     52  H   LIG d   1       4.184  -4.207 -12.489  0.00  0.00     0.028 H 
ATOM     53  H   LIG d   1       3.410  -5.804 -12.356  0.00  0.00     0.028 H 
ENDBRANCH  13  50
TORSDOF 8
ENDMDL
MODEL 4
REMARK VINA RESULT:      -6.1      2.632      5.632
REMARK  8 active torsions:
REMARK  status: ('A' for Active; 'I' for Inactive)
REMARK    1  A    between atoms: C_1  and  C_2 
REMARK    2  A    between atoms: C_5  and  C_32 
REMARK    3  A    between atoms: C_7  and  N_8 
REMARK       I    between atoms: N_8  and  C_9 
REMARK    4  A    between atoms: C_9  and  C_11 
REMARK    5  A    between atoms: C_23  and  C_25 
REMARK    6  A    between atoms: C_23  and  C_26 
REMARK    7  A    between atoms: C_28  and  C_30 
REMARK    8  A    between atoms: C_28  and  C_31 
ROOT
ATOM      1  C   LIG d   1       5.306  -0.539  -6.276  0.00  0.00     0.166 C 
ATOM      2  H   LIG d   1       4.903   0.145  -7.021  0.00  0.00     0.072 H 
ATOM      3  C   LIG d   1       4.348  -0.618  -5.109  0.00  0.00     0.125 C 
ATOM      4  H   LIG d   1       3.330  -0.701  -5.490  0.00  0.00     0.066 H 
ATOM      5  C   LIG d   1       4.630  -1.764  -4.155  0.00  0.00     0.122 C 
ATOM      6  H   LIG d   1       3.684  -2.067  -3.705  0.00  0.00     0.065 H 
ATOM      7  C   LIG d   1       5.274  -2.980  -4.746  0.00  0.00     0.141 C 
ATOM      8  H   LIG d   1       5.985  -3.376  -4.023  0.00  0.00     0.068 H 
ATOM      9  C   LIG d   1       5.988  -2.841  -6.056  0.00  0.00     0.192 C 
ATOM     10  H   LIG d   1       7.050  -2.681  -5.863  0.00  0.00     0.094 H 
ATOM     11  O   LIG d   1       5.510  -1.802  -6.875  0.00  0.00    -0.333 OA
ATOM     12  O   LIG d   1       5.839  -4.112  -6.715  0.00  0.00    -0.318 OA
ATOM     13  C   LIG d   1       4.818  -4.807  -6.067  0.00  0.00     0.168 C 
ATOM     14  O   LIG d   1       4.297  -4.011  -4.996  0.00  0.00    -0.338 OA
ATOM     15  O   LIG d   1       5.449  -1.198  -3.118  0.00  0.00    -0.341 OA
ATOM     16  C   LIG d   1       5.350   0.227  -3.219  0.00  0.00     0.166 C 
ATOM     17  O   LIG d   1       4.463   0.565  -4.292  0.00  0.00    -0.340 OA
ENDROOT
BRANCH   1  18
ATOM     18  C   LIG d   1       6.630  -0.008  -5.789  0.00  0.00     0.249 C 
ATOM     19  N   LIG d   1       7.048   1.214  -6.175  0.00  0.00    -0.283 N 
ATOM     20  H   LIG d   1       6.459   1.789  -6.688  0.00  0.00     0.155 HD
ATOM     21  O   LIG d   1       7.318  -0.680  -5.050  0.00  0.00    -0.273 OA
BRANCH  19  22
ATOM     22  C   LIG d   1       8.333   1.652  -5.837  0.00  0.00     0.037 A 
ATOM     23  C   LIG d   1       9.431   1.223  -6.575  0.00  0.00    -0.029 A 
ATOM     24  C   LIG d   1      10.702   1.658  -6.248  0.00  0.00    -0.057 A 
ATOM     25  C   LIG d   1      10.891   2.512  -5.182  0.00  0.00    -0.052 A 
ATOM     26  H   LIG d   1      11.550   1.324  -6.828  0.00  0.00     0.062 H 
ATOM     27  C   LIG d   1       9.796   2.945  -4.430  0.00  0.00    -0.001 A 
ATOM     28  H   LIG d   1      11.887   2.846  -4.928  0.00  0.00     0.062 H 
ATOM     29  C   LIG d   1       8.513   2.510  -4.762  0.00  0.00    -0.031 A 
ATOM     30  H   LIG d   1       7.662   2.841  -4.186  0.00  0.00     0.064 H 
BRANCH  23  31
ATOM     31  C   LIG d   1       9.233   0.285  -7.738  0.00  0.00    -0.038 C 
ATOM     32  H   LIG d   1       8.167   0.174  -7.938  0.00  0.00     0.028 H 
ATOM     33  H   LIG d   1       9.728   0.692  -8.620  0.00  0.00     0.028 H 
ATOM     34  H   LIG d   1       9.661  -0.688  -7.496  0.00  0.00     0.028 H 
ENDBRANCH  23  31
BRANCH  27  35
ATOM     35  C   LIG d   1       9.997   3.859  -3.287  0.00  0.00     0.072 C 
ATOM     36  O   LIG d   1      10.581   3.471  -2.294  0.00  0.00    -0.545 OA
ATOM     37  O   LIG d   1       9.534   5.122  -3.345  0.00  0.00    -0.545 OA
ENDBRANCH  27  35
ENDBRANCH  19  22
ENDBRANCH   1  18
BRANCH  16  38
ATOM     38  C   LIG d   1       4.805   0.795  -1.907  0.00  0.00    -0.011 C 
ATOM     39  H   LIG d   1       3.718   0.840  -1.955  0.00  0.00     0.028 H 
ATOM     40  H   LIG d   1       5.107   0.153  -1.080  0.00  0.00     0.028 H 
ATOM     41  H   LIG d   1       5.203   1.798  -1.753  0.00  0.00     0.028 H 
ENDBRANCH  16  38
BRANCH  16  42
ATOM     42  C   LIG d   1       6.734   0.818  -3.495  0.00  0.00    -0.011 C 
ATOM     43  H   LIG d   1       6.909   0.845  -4.571  0.00  0.00     0.028 H 
ATOM     44  H   LIG d   1       6.784   1.829  -3.093  0.00  0.00     0.028 H 
ATOM     45  H   LIG d   1       7.495   0.199  -3.020  0.00  0.00     0.028 H 
ENDBRANCH  16  42
BRANCH  13  46
ATOM     46  C   LIG d   1       5.398  -6.105  -5.502  0.00  0.00    -0.011 C 
ATOM     47  H   LIG d   1       6.375  -5.905  -5.062  0.00  0.00     0.028 H 
ATOM     48  H   LIG d   1       4.729  -6.498  -4.736  0.00  0.00     0.028 H 
ATOM     49  H   LIG d   1       5.502  -6.836  -6.303  0.00  0.00     0.028 H 
ENDBRANCH  13  46
BRANCH  13  50
ATOM     50  C   LIG d   1       3.697  -5.135  -7.054  0.00  0.00    -0.011 C 
ATOM     51  H   LIG d   1       3.908  -6.087  -7.541  0.00  0.00     0.028 H 
ATOM     52  H   LIG d   1       2.749  -5.203  -6.519  0.00  0.00     0.028 H 
ATOM     53  H   LIG d   1       3.633  -4.348  -7.806  0.00  0.00     0.028 H 
ENDBRANCH  13  50
TORSDOF 8
ENDMDL
MODEL 5
REMARK VINA RESULT:      -6.1      2.603      5.642
REMARK  8 active torsions:
REMARK  status: ('A' for Active; 'I' for Inactive)
REMARK    1  A    between atoms: C_1  and  C_2 
REMARK    2  A    between atoms: C_5  and  C_32 
REMARK    3  A    between atoms: C_7  and  N_8 
REMARK       I    between atoms: N_8  and  C_9 
REMARK    4  A    between atoms: C_9  and  C_11 
REMARK    5  A    between atoms: C_23  and  C_25 
REMARK    6  A    between atoms: C_23  and  C_26 
REMARK    7  A    between atoms: C_28  and  C_30 
REMARK    8  A    between atoms: C_28  and  C_31 
ROOT
ATOM      1  C   LIG d   1       5.243  -2.765  -4.258  0.00  0.00     0.166 C 
ATOM      2  H   LIG d   1       5.157  -2.590  -3.186  0.00  0.00     0.072 H 
ATOM      3  C   LIG d   1       6.685  -3.073  -4.593  0.00  0.00     0.125 C 
ATOM      4  H   LIG d   1       7.082  -3.768  -3.852  0.00  0.00     0.066 H 
ATOM      5  C   LIG d   1       6.888  -3.642  -5.985  0.00  0.00     0.122 C 
ATOM      6  H   LIG d   1       7.765  -4.289  -5.959  0.00  0.00     0.065 H 
ATOM      7  C   LIG d   1       5.748  -4.426  -6.556  0.00  0.00     0.141 C 
ATOM      8  H   LIG d   1       5.681  -4.207  -7.621  0.00  0.00     0.068 H 
ATOM      9  C   LIG d   1       4.384  -4.231  -5.967  0.00  0.00     0.192 C 
ATOM     10  H   LIG d   1       3.845  -3.493  -6.563  0.00  0.00     0.094 H 
ATOM     11  O   LIG d   1       4.381  -3.823  -4.621  0.00  0.00    -0.333 OA
ATOM     12  O   LIG d   1       3.715  -5.497  -6.112  0.00  0.00    -0.318 OA
ATOM     13  C   LIG d   1       4.686  -6.460  -6.387  0.00  0.00     0.168 C 
ATOM     14  O   LIG d   1       5.979  -5.843  -6.423  0.00  0.00    -0.338 OA
ATOM     15  O   LIG d   1       7.202  -2.508  -6.813  0.00  0.00    -0.341 OA
ATOM     16  C   LIG d   1       7.541  -1.421  -5.945  0.00  0.00     0.166 C 
ATOM     17  O   LIG d   1       7.466  -1.861  -4.584  0.00  0.00    -0.340 OA
ENDROOT
BRANCH   1  18
ATOM     18  C   LIG d   1       4.824  -1.518  -4.993  0.00  0.00     0.249 C 
ATOM     19  N   LIG d   1       3.972  -1.604  -6.034  0.00  0.00    -0.283 N 
ATOM     20  H   LIG d   1       3.556  -2.453  -6.252  0.00  0.00     0.155 HD
ATOM     21  O   LIG d   1       5.253  -0.438  -4.648  0.00  0.00    -0.273 OA
BRANCH  19  22
ATOM     22  C   LIG d   1       3.690  -0.470  -6.802  0.00  0.00     0.037 A 
ATOM     23  C   LIG d   1       2.793   0.483  -6.332  0.00  0.00    -0.029 A 
ATOM     24  C   LIG d   1       2.515   1.609  -7.085  0.00  0.00    -0.057 A 
ATOM     25  C   LIG d   1       3.118   1.790  -8.312  0.00  0.00    -0.052 A 
ATOM     26  H   LIG d   1       1.820   2.348  -6.711  0.00  0.00     0.062 H 
ATOM     27  C   LIG d   1       4.016   0.836  -8.797  0.00  0.00    -0.001 A 
ATOM     28  H   LIG d   1       2.894   2.669  -8.899  0.00  0.00     0.062 H 
ATOM     29  C   LIG d   1       4.300  -0.297  -8.035  0.00  0.00    -0.031 A 
ATOM     30  H   LIG d   1       4.994  -1.038  -8.404  0.00  0.00     0.064 H 
BRANCH  23  31
ATOM     31  C   LIG d   1       2.126   0.290  -4.994  0.00  0.00    -0.038 C 
ATOM     32  H   LIG d   1       2.514  -0.612  -4.521  0.00  0.00     0.028 H 
ATOM     33  H   LIG d   1       2.333   1.151  -4.358  0.00  0.00     0.028 H 
ATOM     34  H   LIG d   1       1.050   0.192  -5.136  0.00  0.00     0.028 H 
ENDBRANCH  23  31
BRANCH  27  35
ATOM     35  C   LIG d   1       4.662   1.028 -10.111  0.00  0.00     0.072 C 
ATOM     36  O   LIG d   1       5.867   1.175 -10.180  0.00  0.00    -0.545 OA
ATOM     37  O   LIG d   1       3.918   1.041 -11.232  0.00  0.00    -0.545 OA
ENDBRANCH  27  35
ENDBRANCH  19  22
ENDBRANCH   1  18
BRANCH  16  38
ATOM     38  C   LIG d   1       8.964  -0.948  -6.252  0.00  0.00    -0.011 C 
ATOM     39  H   LIG d   1       9.171  -0.035  -5.697  0.00  0.00     0.028 H 
ATOM     40  H   LIG d   1       9.674  -1.722  -5.959  0.00  0.00     0.028 H 
ATOM     41  H   LIG d   1       9.059  -0.753  -7.320  0.00  0.00     0.028 H 
ENDBRANCH  16  38
BRANCH  16  42
ATOM     42  C   LIG d   1       6.562  -0.267  -6.164  0.00  0.00    -0.011 C 
ATOM     43  H   LIG d   1       7.088   0.575  -6.615  0.00  0.00     0.028 H 
ATOM     44  H   LIG d   1       5.760  -0.591  -6.826  0.00  0.00     0.028 H 
ATOM     45  H   LIG d   1       6.141   0.040  -5.207  0.00  0.00     0.028 H 
ENDBRANCH  16  42
BRANCH  13  46
ATOM     46  C   LIG d   1       4.379  -7.083  -7.750  0.00  0.00    -0.011 C 
ATOM     47  H   LIG d   1       4.608  -8.148  -7.722  0.00  0.00     0.028 H 
ATOM     48  H   LIG d   1       3.323  -6.945  -7.983  0.00  0.00     0.028 H 
ATOM     49  H   LIG d   1       4.986  -6.600  -8.515  0.00  0.00     0.028 H 
ENDBRANCH  13  46
BRANCH  13  50
ATOM     50  C   LIG d   1       4.668  -7.548  -5.312  0.00  0.00    -0.011 C 
ATOM     51  H   LIG d   1       3.934  -8.309  -5.577  0.00  0.00     0.028 H 
ATOM     52  H   LIG d   1       5.655  -8.005  -5.239  0.00  0.00     0.028 H 
ATOM     53  H   LIG d   1       4.402  -7.105  -4.351  0.00  0.00     0.028 H 
ENDBRANCH  13  50
TORSDOF 8
ENDMDL
MODEL 6
REMARK VINA RESULT:      -6.0      3.038      5.201
REMARK  8 active torsions:
REMARK  status: ('A' for Active; 'I' for Inactive)
REMARK    1  A    between atoms: C_1  and  C_2 
REMARK    2  A    between atoms: C_5  and  C_32 
REMARK    3  A    between atoms: C_7  and  N_8 
REMARK       I    between atoms: N_8  and  C_9 
REMARK    4  A    between atoms: C_9  and  C_11 
REMARK    5  A    between atoms: C_23  and  C_25 
REMARK    6  A    between atoms: C_23  and  C_26 
REMARK    7  A    between atoms: C_28  and  C_30 
REMARK    8  A    between atoms: C_28  and  C_31 
ROOT
ATOM      1  C   LIG d   1       6.499  -1.064  -6.122  0.00  0.00     0.166 C 
ATOM      2  H   LIG d   1       7.558  -0.848  -5.987  0.00  0.00     0.072 H 
ATOM      3  C   LIG d   1       5.707  -0.324  -5.067  0.00  0.00     0.125 C 
ATOM      4  H   LIG d   1       6.091   0.693  -4.983  0.00  0.00     0.066 H 
ATOM      5  C   LIG d   1       4.213  -0.284  -5.332  0.00  0.00     0.122 C 
ATOM      6  H   LIG d   1       3.818   0.632  -4.890  0.00  0.00     0.065 H 
ATOM      7  C   LIG d   1       3.789  -0.329  -6.767  0.00  0.00     0.141 C 
ATOM      8  H   LIG d   1       2.886  -0.933  -6.838  0.00  0.00     0.068 H 
ATOM      9  C   LIG d   1       4.763  -0.849  -7.781  0.00  0.00     0.192 C 
ATOM     10  H   LIG d   1       4.564  -1.907  -7.950  0.00  0.00     0.094 H 
ATOM     11  O   LIG d   1       6.116  -0.688  -7.428  0.00  0.00    -0.333 OA
ATOM     12  O   LIG d   1       4.472  -0.138  -8.997  0.00  0.00    -0.318 OA
ATOM     13  C   LIG d   1       3.688   0.967  -8.665  0.00  0.00     0.168 C 
ATOM     14  O   LIG d   1       3.463   0.990  -7.250  0.00  0.00    -0.338 OA
ATOM     15  O   LIG d   1       3.671  -1.396  -4.598  0.00  0.00    -0.341 OA
ATOM     16  C   LIG d   1       4.672  -1.830  -3.670  0.00  0.00     0.166 C 
ATOM     17  O   LIG d   1       5.828  -0.993  -3.796  0.00  0.00    -0.340 OA
ENDROOT
BRANCH   1  18
ATOM     18  C   LIG d   1       6.276  -2.545  -5.953  0.00  0.00     0.249 C 
ATOM     19  N   LIG d   1       7.246  -3.315  -5.420  0.00  0.00    -0.283 N 
ATOM     20  H   LIG d   1       8.048  -2.905  -5.059  0.00  0.00     0.155 HD
ATOM     21  O   LIG d   1       5.226  -3.043  -6.297  0.00  0.00    -0.273 OA
BRANCH  19  22
ATOM     22  C   LIG d   1       7.096  -4.705  -5.388  0.00  0.00     0.037 A 
ATOM     23  C   LIG d   1       8.073  -5.497  -4.795  0.00  0.00    -0.029 A 
ATOM     24  C   LIG d   1       7.927  -6.871  -4.756  0.00  0.00    -0.057 A 
ATOM     25  C   LIG d   1       6.816  -7.468  -5.315  0.00  0.00    -0.052 A 
ATOM     26  H   LIG d   1       8.688  -7.480  -4.289  0.00  0.00     0.062 H 
ATOM     27  C   LIG d   1       5.830  -6.682  -5.918  0.00  0.00    -0.001 A 
ATOM     28  H   LIG d   1       6.708  -8.542  -5.285  0.00  0.00     0.062 H 
ATOM     29  C   LIG d   1       5.975  -5.296  -5.953  0.00  0.00    -0.031 A 
ATOM     30  H   LIG d   1       5.217  -4.683  -6.418  0.00  0.00     0.064 H 
BRANCH  23  31
ATOM     31  C   LIG d   1       9.293  -4.853  -4.187  0.00  0.00    -0.038 C 
ATOM     32  H   LIG d   1      10.112  -5.571  -4.170  0.00  0.00     0.028 H 
ATOM     33  H   LIG d   1       9.581  -3.987  -4.783  0.00  0.00     0.028 H 
ATOM     34  H   LIG d   1       9.067  -4.536  -3.169  0.00  0.00     0.028 H 
ENDBRANCH  23  31
BRANCH  27  35
ATOM     35  C   LIG d   1       4.640  -7.319  -6.518  0.00  0.00     0.072 C 
ATOM     36  O   LIG d   1       4.278  -8.413  -6.132  0.00  0.00    -0.545 OA
ATOM     37  O   LIG d   1       3.956  -6.688  -7.491  0.00  0.00    -0.545 OA
ENDBRANCH  27  35
ENDBRANCH  19  22
ENDBRANCH   1  18
BRANCH  16  38
ATOM     38  C   LIG d   1       4.123  -1.733  -2.245  0.00  0.00    -0.011 C 
ATOM     39  H   LIG d   1       4.650  -2.439  -1.604  0.00  0.00     0.028 H 
ATOM     40  H   LIG d   1       4.269  -0.720  -1.868  0.00  0.00     0.028 H 
ATOM     41  H   LIG d   1       3.059  -1.970  -2.248  0.00  0.00     0.028 H 
ENDBRANCH  16  38
BRANCH  16  42
ATOM     42  C   LIG d   1       5.055  -3.279  -3.972  0.00  0.00    -0.011 C 
ATOM     43  H   LIG d   1       4.372  -3.952  -3.452  0.00  0.00     0.028 H 
ATOM     44  H   LIG d   1       4.992  -3.456  -5.045  0.00  0.00     0.028 H 
ATOM     45  H   LIG d   1       6.074  -3.464  -3.633  0.00  0.00     0.028 H 
ENDBRANCH  16  42
BRANCH  13  46
ATOM     46  C   LIG d   1       2.347   0.847  -9.392  0.00  0.00    -0.011 C 
ATOM     47  H   LIG d   1       1.545   1.182  -8.734  0.00  0.00     0.028 H 
ATOM     48  H   LIG d   1       2.363   1.467 -10.288  0.00  0.00     0.028 H 
ATOM     49  H   LIG d   1       2.177  -0.192  -9.673  0.00  0.00     0.028 H 
ENDBRANCH  13  46
BRANCH  13  50
ATOM     50  C   LIG d   1       4.388   2.257  -9.093  0.00  0.00    -0.011 C 
ATOM     51  H   LIG d   1       4.002   3.092  -8.508  0.00  0.00     0.028 H 
ATOM     52  H   LIG d   1       5.461   2.162  -8.928  0.00  0.00     0.028 H 
ATOM     53  H   LIG d   1       4.198   2.439 -10.152  0.00  0.00     0.028 H 
ENDBRANCH  13  50
TORSDOF 8
ENDMDL
MODEL 7
REMARK VINA RESULT:      -6.0      2.085      3.909
REMARK  8 active torsions:
REMARK  status: ('A' for Active; 'I' for Inactive)
REMARK    1  A    between atoms: C_1  and  C_2 
REMARK    2  A    between atoms: C_5  and  C_32 
REMARK    3  A    between atoms: C_7  and  N_8 
REMARK       I    between atoms: N_8  and  C_9 
REMARK    4  A    between atoms: C_9  and  C_11 
REMARK    5  A    between atoms: C_23  and  C_25 
REMARK    6  A    between atoms: C_23  and  C_26 
REMARK    7  A    between atoms: C_28  and  C_30 
REMARK    8  A    between atoms: C_28  and  C_31 
ROOT
ATOM      1  C   LIG d   1       6.624  -0.968  -8.336  0.00  0.00     0.166 C 
ATOM      2  H   LIG d   1       7.186  -0.076  -8.610  0.00  0.00     0.072 H 
ATOM      3  C   LIG d   1       5.537  -1.201  -9.361  0.00  0.00     0.125 C 
ATOM      4  H   LIG d   1       5.953  -1.055 -10.359  0.00  0.00     0.066 H 
ATOM      5  C   LIG d   1       4.890  -2.571  -9.275  0.00  0.00     0.122 C 
ATOM      6  H   LIG d   1       4.553  -2.847 -10.275  0.00  0.00     0.065 H 
ATOM      7  C   LIG d   1       5.747  -3.680  -8.749  0.00  0.00     0.141 C 
ATOM      8  H   LIG d   1       5.126  -4.329  -8.133  0.00  0.00     0.068 H 
ATOM      9  C   LIG d   1       6.962  -3.323  -7.949  0.00  0.00     0.192 C 
ATOM     10  H   LIG d   1       6.709  -3.355  -6.889  0.00  0.00     0.094 H 
ATOM     11  O   LIG d   1       7.511  -2.063  -8.251  0.00  0.00    -0.333 OA
ATOM     12  O   LIG d   1       7.919  -4.365  -8.212  0.00  0.00    -0.318 OA
ATOM     13  C   LIG d   1       7.490  -5.057  -9.345  0.00  0.00     0.168 C 
ATOM     14  O   LIG d   1       6.270  -4.483  -9.827  0.00  0.00    -0.338 OA
ATOM     15  O   LIG d   1       3.724  -2.385  -8.454  0.00  0.00    -0.341 OA
ATOM     16  C   LIG d   1       3.472  -0.977  -8.375  0.00  0.00     0.166 C 
ATOM     17  O   LIG d   1       4.451  -0.277  -9.152  0.00  0.00    -0.340 OA
ENDROOT
BRANCH   1  18
ATOM     18  C   LIG d   1       5.986  -0.748  -6.988  0.00  0.00     0.249 C 
ATOM     19  N   LIG d   1       6.061  -1.708  -6.044  0.00  0.00    -0.283 N 
ATOM     20  H   LIG d   1       6.603  -2.498  -6.196  0.00  0.00     0.155 HD
ATOM     21  O   LIG d   1       5.406   0.290  -6.753  0.00  0.00    -0.273 OA
BRANCH  19  22
ATOM     22  C   LIG d   1       5.355  -1.565  -4.844  0.00  0.00     0.037 A 
ATOM     23  C   LIG d   1       4.756  -2.672  -4.253  0.00  0.00    -0.029 A 
ATOM     24  C   LIG d   1       4.063  -2.536  -3.064  0.00  0.00    -0.057 A 
ATOM     25  C   LIG d   1       3.952  -1.301  -2.462  0.00  0.00    -0.052 A 
ATOM     26  H   LIG d   1       3.603  -3.401  -2.609  0.00  0.00     0.062 H 
ATOM     27  C   LIG d   1       4.545  -0.181  -3.050  0.00  0.00    -0.001 A 
ATOM     28  H   LIG d   1       3.406  -1.199  -1.535  0.00  0.00     0.062 H 
ATOM     29  C   LIG d   1       5.249  -0.318  -4.246  0.00  0.00    -0.031 A 
ATOM     30  H   LIG d   1       5.711   0.543  -4.706  0.00  0.00     0.064 H 
BRANCH  23  31
ATOM     31  C   LIG d   1       4.868  -4.024  -4.908  0.00  0.00    -0.038 C 
ATOM     32  H   LIG d   1       5.155  -4.766  -4.164  0.00  0.00     0.028 H 
ATOM     33  H   LIG d   1       3.906  -4.298  -5.342  0.00  0.00     0.028 H 
ATOM     34  H   LIG d   1       5.623  -3.986  -5.693  0.00  0.00     0.028 H 
ENDBRANCH  23  31
BRANCH  27  35
ATOM     35  C   LIG d   1       4.427   1.144  -2.406  0.00  0.00     0.072 C 
ATOM     36  O   LIG d   1       4.760   1.287  -1.246  0.00  0.00    -0.545 OA
ATOM     37  O   LIG d   1       3.952   2.192  -3.104  0.00  0.00    -0.545 OA
ENDBRANCH  27  35
ENDBRANCH  19  22
ENDBRANCH   1  18
BRANCH  16  38
ATOM     38  C   LIG d   1       2.075  -0.677  -8.922  0.00  0.00    -0.011 C 
ATOM     39  H   LIG d   1       1.507  -0.115  -8.181  0.00  0.00     0.028 H 
ATOM     40  H   LIG d   1       2.161  -0.090  -9.836  0.00  0.00     0.028 H 
ATOM     41  H   LIG d   1       1.561  -1.614  -9.139  0.00  0.00     0.028 H 
ENDBRANCH  16  38
BRANCH  16  42
ATOM     42  C   LIG d   1       3.557  -0.523  -6.917  0.00  0.00    -0.011 C 
ATOM     43  H   LIG d   1       3.034   0.426  -6.801  0.00  0.00     0.028 H 
ATOM     44  H   LIG d   1       3.095  -1.273  -6.275  0.00  0.00     0.028 H 
ATOM     45  H   LIG d   1       4.602  -0.398  -6.636  0.00  0.00     0.028 H 
ENDBRANCH  16  42
BRANCH  13  46
ATOM     46  C   LIG d   1       7.249  -6.518  -8.959  0.00  0.00    -0.011 C 
ATOM     47  H   LIG d   1       8.129  -6.908  -8.447  0.00  0.00     0.028 H 
ATOM     48  H   LIG d   1       6.387  -6.581  -8.296  0.00  0.00     0.028 H 
ATOM     49  H   LIG d   1       7.060  -7.105  -9.857  0.00  0.00     0.028 H 
ENDBRANCH  13  46
BRANCH  13  50
ATOM     50  C   LIG d   1       8.556  -4.987 -10.439  0.00  0.00    -0.011 C 
ATOM     51  H   LIG d   1       9.263  -5.807 -10.312  0.00  0.00     0.028 H 
ATOM     52  H   LIG d   1       8.080  -5.067 -11.417  0.00  0.00     0.028 H 
ATOM     53  H   LIG d   1       9.086  -4.036 -10.370  0.00  0.00     0.028 H 
ENDBRANCH  13  50
TORSDOF 8
ENDMDL
MODEL 8
REMARK VINA RESULT:      -6.0      2.679      5.046
REMARK  8 active torsions:
REMARK  status: ('A' for Active; 'I' for Inactive)
REMARK    1  A    between atoms: C_1  and  C_2 
REMARK    2  A    between atoms: C_5  and  C_32 
REMARK    3  A    between atoms: C_7  and  N_8 
REMARK       I    between atoms: N_8  and  C_9 
REMARK    4  A    between atoms: C_9  and  C_11 
REMARK    5  A    between atoms: C_23  and  C_25 
REMARK    6  A    between atoms: C_23  and  C_26 
REMARK    7  A    between atoms: C_28  and  C_30 
REMARK    8  A    between atoms: C_28  and  C_31 
ROOT
ATOM      1  C   LIG d   1       6.554   0.071  -5.526  0.00  0.00     0.166 C 
ATOM      2  H   LIG d   1       7.407   0.713  -5.311  0.00  0.00     0.072 H 
ATOM      3  C   LIG d   1       5.431   0.409  -4.570  0.00  0.00     0.125 C 
ATOM      4  H   LIG d   1       5.343   1.493  -4.494  0.00  0.00     0.066 H 
ATOM      5  C   LIG d   1       4.090  -0.184  -4.960  0.00  0.00     0.122 C 
ATOM      6  H   LIG d   1       3.308   0.480  -4.589  0.00  0.00     0.065 H 
ATOM      7  C   LIG d   1       3.858  -0.404  -6.423  0.00  0.00     0.141 C 
ATOM      8  H   LIG d   1       3.302  -1.332  -6.546  0.00  0.00     0.068 H 
ATOM      9  C   LIG d   1       5.049  -0.465  -7.331  0.00  0.00     0.192 C 
ATOM     10  H   LIG d   1       5.329  -1.509  -7.475  0.00  0.00     0.094 H 
ATOM     11  O   LIG d   1       6.170   0.251  -6.873  0.00  0.00    -0.333 OA
ATOM     12  O   LIG d   1       4.599   0.057  -8.594  0.00  0.00    -0.318 OA
ATOM     13  C   LIG d   1       3.397   0.729  -8.371  0.00  0.00     0.168 C 
ATOM     14  O   LIG d   1       3.055   0.655  -6.982  0.00  0.00    -0.338 OA
ATOM     15  O   LIG d   1       3.999  -1.421  -4.231  0.00  0.00    -0.341 OA
ATOM     16  C   LIG d   1       4.999  -1.392  -3.207  0.00  0.00     0.166 C 
ATOM     17  O   LIG d   1       5.704  -0.147  -3.268  0.00  0.00    -0.340 OA
ENDROOT
BRANCH   1  18
ATOM     18  C   LIG d   1       6.958  -1.366  -5.319  0.00  0.00     0.249 C 
ATOM     19  N   LIG d   1       6.589  -2.304  -6.213  0.00  0.00    -0.283 N 
ATOM     20  H   LIG d   1       6.145  -2.043  -7.036  0.00  0.00     0.155 HD
ATOM     21  O   LIG d   1       7.615  -1.677  -4.349  0.00  0.00    -0.273 OA
BRANCH  19  22
ATOM     22  C   LIG d   1       6.844  -3.655  -5.954  0.00  0.00     0.037 A 
ATOM     23  C   LIG d   1       5.810  -4.582  -6.017  0.00  0.00    -0.029 A 
ATOM     24  C   LIG d   1       6.058  -5.920  -5.768  0.00  0.00    -0.057 A 
ATOM     25  C   LIG d   1       7.331  -6.342  -5.446  0.00  0.00    -0.052 A 
ATOM     26  H   LIG d   1       5.250  -6.636  -5.822  0.00  0.00     0.062 H 
ATOM     27  C   LIG d   1       8.377  -5.418  -5.375  0.00  0.00    -0.001 A 
ATOM     28  H   LIG d   1       7.519  -7.387  -5.248  0.00  0.00     0.062 H 
ATOM     29  C   LIG d   1       8.127  -4.069  -5.631  0.00  0.00    -0.031 A 
ATOM     30  H   LIG d   1       8.931  -3.350  -5.579  0.00  0.00     0.064 H 
BRANCH  23  31
ATOM     31  C   LIG d   1       4.415  -4.128  -6.362  0.00  0.00    -0.038 C 
ATOM     32  H   LIG d   1       4.449  -3.111  -6.751  0.00  0.00     0.028 H 
ATOM     33  H   LIG d   1       3.994  -4.792  -7.118  0.00  0.00     0.028 H 
ATOM     34  H   LIG d   1       3.793  -4.155  -5.468  0.00  0.00     0.028 H 
ENDBRANCH  23  31
BRANCH  27  35
ATOM     35  C   LIG d   1       9.741  -5.868  -5.030  0.00  0.00     0.072 C 
ATOM     36  O   LIG d   1      10.686  -5.517  -5.709  0.00  0.00    -0.545 OA
ATOM     37  O   LIG d   1       9.937  -6.665  -3.964  0.00  0.00    -0.545 OA
ENDBRANCH  27  35
ENDBRANCH  19  22
ENDBRANCH   1  18
BRANCH  16  38
ATOM     38  C   LIG d   1       4.332  -1.536  -1.838  0.00  0.00    -0.011 C 
ATOM     39  H   LIG d   1       5.074  -1.844  -1.102  0.00  0.00     0.028 H 
ATOM     40  H   LIG d   1       3.902  -0.579  -1.542  0.00  0.00     0.028 H 
ATOM     41  H   LIG d   1       3.544  -2.287  -1.894  0.00  0.00     0.028 H 
ENDBRANCH  16  38
BRANCH  16  42
ATOM     42  C   LIG d   1       5.981  -2.546  -3.419  0.00  0.00    -0.011 C 
ATOM     43  H   LIG d   1       5.449  -3.406  -3.827  0.00  0.00     0.028 H 
ATOM     44  H   LIG d   1       6.759  -2.237  -4.116  0.00  0.00     0.028 H 
ATOM     45  H   LIG d   1       6.434  -2.818  -2.466  0.00  0.00     0.028 H 
ENDBRANCH  16  42
BRANCH  13  46
ATOM     46  C   LIG d   1       2.304   0.055  -9.203  0.00  0.00    -0.011 C 
ATOM     47  H   LIG d   1       1.636   0.816  -9.608  0.00  0.00     0.028 H 
ATOM     48  H   LIG d   1       2.761  -0.500 -10.022  0.00  0.00     0.028 H 
ATOM     49  H   LIG d   1       1.737  -0.629  -8.572  0.00  0.00     0.028 H 
ENDBRANCH  13  46
BRANCH  13  50
ATOM     50  C   LIG d   1       3.528   2.194  -8.790  0.00  0.00    -0.011 C 
ATOM     51  H   LIG d   1       3.825   2.793  -7.929  0.00  0.00     0.028 H 
ATOM     52  H   LIG d   1       4.281   2.284  -9.572  0.00  0.00     0.028 H 
ATOM     53  H   LIG d   1       2.568   2.551  -9.167  0.00  0.00     0.028 H 
ENDBRANCH  13  50
TORSDOF 8
ENDMDL
MODEL 9
REMARK VINA RESULT:      -6.0      5.418      8.941
REMARK  8 active torsions:
REMARK  status: ('A' for Active; 'I' for Inactive)
REMARK    1  A    between atoms: C_1  and  C_2 
REMARK    2  A    between atoms: C_5  and  C_32 
REMARK    3  A    between atoms: C_7  and  N_8 
REMARK       I    between atoms: N_8  and  C_9 
REMARK    4  A    between atoms: C_9  and  C_11 
REMARK    5  A    between atoms: C_23  and  C_25 
REMARK    6  A    between atoms: C_23  and  C_26 
REMARK    7  A    between atoms: C_28  and  C_30 
REMARK    8  A    between atoms: C_28  and  C_31 
ROOT
ATOM      1  C   LIG d   1      10.433   6.023  -3.687  0.00  0.00     0.166 C 
ATOM      2  H   LIG d   1      10.094   6.652  -4.509  0.00  0.00     0.072 H 
ATOM      3  C   LIG d   1      11.945   6.003  -3.673  0.00  0.00     0.125 C 
ATOM      4  H   LIG d   1      12.315   7.019  -3.825  0.00  0.00     0.066 H 
ATOM      5  C   LIG d   1      12.544   5.428  -2.403  0.00  0.00     0.122 C 
ATOM      6  H   LIG d   1      13.511   5.906  -2.242  0.00  0.00     0.065 H 
ATOM      7  C   LIG d   1      11.733   5.585  -1.154  0.00  0.00     0.141 C 
ATOM      8  H   LIG d   1      11.845   4.680  -0.558  0.00  0.00     0.068 H 
ATOM      9  C   LIG d   1      10.266   5.863  -1.288  0.00  0.00     0.192 C 
ATOM     10  H   LIG d   1       9.722   4.920  -1.222  0.00  0.00     0.094 H 
ATOM     11  O   LIG d   1       9.902   6.520  -2.477  0.00  0.00    -0.333 OA
ATOM     12  O   LIG d   1       9.918   6.662  -0.143  0.00  0.00    -0.318 OA
ATOM     13  C   LIG d   1      11.102   7.151   0.408  0.00  0.00     0.168 C 
ATOM     14  O   LIG d   1      12.219   6.686  -0.359  0.00  0.00    -0.338 OA
ATOM     15  O   LIG d   1      12.781   4.040  -2.694  0.00  0.00    -0.341 OA
ATOM     16  C   LIG d   1      12.703   3.877  -4.115  0.00  0.00     0.166 C 
ATOM     17  O   LIG d   1      12.440   5.148  -4.723  0.00  0.00    -0.340 OA
ENDROOT
BRANCH   1  18
ATOM     18  C   LIG d   1       9.927   4.620  -3.904  0.00  0.00     0.249 C 
ATOM     19  N   LIG d   1       9.404   4.269  -5.096  0.00  0.00    -0.283 N 
ATOM     20  H   LIG d   1       9.437   4.889  -5.842  0.00  0.00     0.155 HD
ATOM     21  O   LIG d   1       9.992   3.806  -3.008  0.00  0.00    -0.273 OA
BRANCH  19  22
ATOM     22  C   LIG d   1       8.810   3.013  -5.257  0.00  0.00     0.037 A 
ATOM     23  C   LIG d   1       8.985   2.308  -6.442  0.00  0.00    -0.029 A 
ATOM     24  C   LIG d   1       8.405   1.063  -6.604  0.00  0.00    -0.057 A 
ATOM     25  C   LIG d   1       7.641   0.516  -5.594  0.00  0.00    -0.052 A 
ATOM     26  H   LIG d   1       8.548   0.519  -7.526  0.00  0.00     0.062 H 
ATOM     27  C   LIG d   1       7.454   1.219  -4.401  0.00  0.00    -0.001 A 
ATOM     28  H   LIG d   1       7.186  -0.455  -5.726  0.00  0.00     0.062 H 
ATOM     29  C   LIG d   1       8.043   2.472  -4.236  0.00  0.00    -0.031 A 
ATOM     30  H   LIG d   1       7.903   3.020  -3.316  0.00  0.00     0.064 H 
BRANCH  23  31
ATOM     31  C   LIG d   1       9.814   2.901  -7.553  0.00  0.00    -0.038 C 
ATOM     32  H   LIG d   1       9.197   3.574  -8.147  0.00  0.00     0.028 H 
ATOM     33  H   LIG d   1      10.649   3.455  -7.125  0.00  0.00     0.028 H 
ATOM     34  H   LIG d   1      10.195   2.101  -8.188  0.00  0.00     0.028 H 
ENDBRANCH  23  31
BRANCH  27  35
ATOM     35  C   LIG d   1       6.636   0.635  -3.318  0.00  0.00     0.072 C 
ATOM     36  O   LIG d   1       6.724  -0.550  -3.062  0.00  0.00    -0.545 OA
ATOM     37  O   LIG d   1       5.793   1.415  -2.616  0.00  0.00    -0.545 OA
ENDBRANCH  27  35
ENDBRANCH  19  22
ENDBRANCH   1  18
BRANCH  16  38
ATOM     38  C   LIG d   1      14.029   3.324  -4.639  0.00  0.00    -0.011 C 
ATOM     39  H   LIG d   1      14.796   3.430  -3.872  0.00  0.00     0.028 H 
ATOM     40  H   LIG d   1      13.909   2.270  -4.890  0.00  0.00     0.028 H 
ATOM     41  H   LIG d   1      14.327   3.878  -5.530  0.00  0.00     0.028 H 
ENDBRANCH  16  38
BRANCH  16  42
ATOM     42  C   LIG d   1      11.573   2.904  -4.457  0.00  0.00    -0.011 C 
ATOM     43  H   LIG d   1      10.761   3.447  -4.942  0.00  0.00     0.028 H 
ATOM     44  H   LIG d   1      11.948   2.134  -5.130  0.00  0.00     0.028 H 
ATOM     45  H   LIG d   1      11.204   2.440  -3.543  0.00  0.00     0.028 H 
ENDBRANCH  16  42
BRANCH  13  46
ATOM     46  C   LIG d   1      11.219   6.635   1.844  0.00  0.00    -0.011 C 
ATOM     47  H   LIG d   1      10.225   6.568   2.287  0.00  0.00     0.028 H 
ATOM     48  H   LIG d   1      11.681   5.648   1.838  0.00  0.00     0.028 H 
ATOM     49  H   LIG d   1      11.833   7.320   2.428  0.00  0.00     0.028 H 
ENDBRANCH  13  46
BRANCH  13  50
ATOM     50  C   LIG d   1      11.087   8.681   0.415  0.00  0.00    -0.011 C 
ATOM     51  H   LIG d   1      10.160   9.033   0.866  0.00  0.00     0.028 H 
ATOM     52  H   LIG d   1      11.935   9.051   0.990  0.00  0.00     0.028 H 
ATOM     53  H   LIG d   1      11.156   9.048  -0.610  0.00  0.00     0.028 H 
ENDBRANCH  13  50
TORSDOF 8
ENDMDL
