MODEL 1
REMARK VINA RESULT:      -5.2      0.000      0.000
REMARK  14 active torsions:
REMARK  status: ('A' for Active; 'I' for Inactive)
REMARK    1  A    between atoms: C_1  and  C_2 
REMARK    2  A    between atoms: C_2  and  C_3 
REMARK    3  A    between atoms: C_2  and  C_4 
REMARK    4  A    between atoms: C_4  and  C_5 
REMARK    5  A    between atoms: C_5  and  C_6 
REMARK    6  A    between atoms: C_6  and  C_8 
REMARK    7  A    between atoms: C_6  and  C_20 
REMARK    8  A    between atoms: C_8  and  C_9 
REMARK    9  A    between atoms: C_9  and  N_55 
REMARK   10  A    between atoms: C_10  and  C_11 
REMARK   11  A    between atoms: C_10  and  N_55 
REMARK   12  A    between atoms: C_14  and  N_17 
REMARK   13  A    between atoms: N_17  and  C_18 
REMARK   14  A    between atoms: N_17  and  C_19 
ROOT
ATOM      1  C   LIG d   1       2.686   1.046  -6.227  0.00  0.00    -0.003 C 
ATOM      2  H   LIG d   1       3.553   1.701  -6.138  0.00  0.00     0.032 H 
ATOM      3  H   LIG d   1       1.833   1.617  -6.591  0.00  0.00     0.032 H 
ENDROOT
BRANCH   1   4
ATOM      4  C   LIG d   1       3.001  -0.084  -7.210  0.00  0.00     0.022 C 
ATOM      5  H   LIG d   1       2.449  -0.979  -6.924  0.00  0.00     0.038 H 
BRANCH   4   6
ATOM      6  C   LIG d   1       2.585   0.339  -8.622  0.00  0.00    -0.043 C 
ATOM      7  H   LIG d   1       3.241  -0.136  -9.351  0.00  0.00     0.027 H 
ATOM      8  H   LIG d   1       1.555   0.032  -8.804  0.00  0.00     0.027 H 
BRANCH   6   9
ATOM      9  C   LIG d   1       2.695   1.860  -8.752  0.00  0.00    -0.050 C 
ATOM     10  H   LIG d   1       1.719   2.275  -9.005  0.00  0.00     0.027 H 
ATOM     11  H   LIG d   1       3.034   2.282  -7.806  0.00  0.00     0.027 H 
BRANCH   9  12
ATOM     12  C   LIG d   1       3.697   2.206  -9.854  0.00  0.00    -0.047 C 
ATOM     13  H   LIG d   1       3.360   3.094 -10.387  0.00  0.00     0.029 H 
BRANCH  12  14
ATOM     14  C   LIG d   1       5.069   2.475  -9.231  0.00  0.00    -0.063 C 
ATOM     15  H   LIG d   1       4.972   2.523  -8.147  0.00  0.00     0.023 H 
ATOM     16  H   LIG d   1       5.753   1.670  -9.499  0.00  0.00     0.023 H 
ATOM     17  H   LIG d   1       5.457   3.422  -9.604  0.00  0.00     0.023 H 
ENDBRANCH  12  14
BRANCH  12  18
ATOM     18  C   LIG d   1       3.802   1.034 -10.833  0.00  0.00    -0.063 C 
ATOM     19  H   LIG d   1       4.096   1.405 -11.814  0.00  0.00     0.023 H 
ATOM     20  H   LIG d   1       4.550   0.326 -10.474  0.00  0.00     0.023 H 
ATOM     21  H   LIG d   1       2.837   0.535 -10.907  0.00  0.00     0.023 H 
ENDBRANCH  12  18
ENDBRANCH   9  12
ENDBRANCH   6   9
ENDBRANCH   4   6
BRANCH   4  22
ATOM     22  C   LIG d   1       4.479  -0.374  -7.187  0.00  0.00     0.108 A 
ATOM     23  O   LIG d   1       5.401   0.299  -6.479  0.00  0.00    -0.468 OA
ATOM     24  C   LIG d   1       6.614  -0.232  -6.705  0.00  0.00     0.092 A 
ATOM     25  C   LIG d   1       6.475  -1.259  -7.561  0.00  0.00    -0.024 A 
ATOM     26  H   LIG d   1       7.542   0.109  -6.271  0.00  0.00     0.103 H 
ATOM     27  C   LIG d   1       5.099  -1.353  -7.870  0.00  0.00    -0.020 A 
ATOM     28  H   LIG d   1       7.265  -1.891  -7.941  0.00  0.00     0.065 H 
ATOM     29  H   LIG d   1       4.635  -2.070  -8.531  0.00  0.00     0.065 H 
ENDBRANCH   4  22
ENDBRANCH   1   4
BRANCH   1  30
ATOM     30  C   LIG d   1       2.356   0.450  -4.856  0.00  0.00    -0.033 C 
ATOM     31  H   LIG d   1       1.456   0.923  -4.463  0.00  0.00     0.081 H 
ATOM     32  H   LIG d   1       2.190  -0.621  -4.956  0.00  0.00     0.081 H 
BRANCH  30  33
ATOM     33  N   LIG d   1       3.485   0.695  -3.939  0.00  0.00     0.230 N 
ATOM     34  H   LIG d   1       3.324   1.571  -3.429  0.00  0.00     0.202 HD
ATOM     35  H   LIG d   1       4.353   0.770  -4.483  0.00  0.00     0.202 HD
BRANCH  33  36
ATOM     36  C   LIG d   1       3.610  -0.414  -2.974  0.00  0.00    -0.008 C 
ATOM     37  H   LIG d   1       3.844  -0.017  -1.987  0.00  0.00     0.087 H 
ATOM     38  H   LIG d   1       2.673  -0.969  -2.931  0.00  0.00     0.087 H 
BRANCH  36  39
ATOM     39  C   LIG d   1       4.718  -1.334  -3.421  0.00  0.00    -0.003 A 
ATOM     40  C   LIG d   1       4.420  -2.460  -4.165  0.00  0.00    -0.052 A 
ATOM     41  C   LIG d   1       5.432  -3.306  -4.577  0.00  0.00    -0.040 A 
ATOM     42  H   LIG d   1       3.395  -2.680  -4.426  0.00  0.00     0.062 H 
ATOM     43  C   LIG d   1       6.749  -3.024  -4.240  0.00  0.00     0.029 A 
ATOM     44  H   LIG d   1       5.199  -4.185  -5.159  0.00  0.00     0.064 H 
ATOM     45  C   LIG d   1       7.045  -1.892  -3.491  0.00  0.00    -0.040 A 
ATOM     46  C   LIG d   1       6.029  -1.047  -3.088  0.00  0.00    -0.052 A 
ATOM     47  H   LIG d   1       8.068  -1.669  -3.228  0.00  0.00     0.064 H 
ATOM     48  H   LIG d   1       6.258  -0.165  -2.511  0.00  0.00     0.062 H 
BRANCH  43  49
ATOM     49  N   LIG d   1       7.775  -3.877  -4.653  0.00  0.00    -0.336 N 
BRANCH  49  50
ATOM     50  C   LIG d   1       9.150  -3.640  -4.204  0.00  0.00     0.000 C 
ATOM     51  H   LIG d   1       9.444  -4.425  -3.507  0.00  0.00     0.043 H 
ATOM     52  H   LIG d   1       9.820  -3.649  -5.064  0.00  0.00     0.043 H 
ATOM     53  H   LIG d   1       9.208  -2.671  -3.708  0.00  0.00     0.043 H 
ENDBRANCH  49  50
BRANCH  49  54
ATOM     54  C   LIG d   1       7.478  -5.008  -5.536  0.00  0.00     0.000 C 
ATOM     55  H   LIG d   1       6.602  -4.775  -6.142  0.00  0.00     0.043 H 
ATOM     56  H   LIG d   1       8.330  -5.194  -6.188  0.00  0.00     0.043 H 
ATOM     57  H   LIG d   1       7.279  -5.895  -4.935  0.00  0.00     0.043 H 
ENDBRANCH  49  54
ENDBRANCH  43  49
ENDBRANCH  36  39
ENDBRANCH  33  36
ENDBRANCH  30  33
ENDBRANCH   1  30
TORSDOF 14
ENDMDL
MODEL 2
REMARK VINA RESULT:      -5.0      6.359      8.594
REMARK  14 active torsions:
REMARK  status: ('A' for Active; 'I' for Inactive)
REMARK    1  A    between atoms: C_1  and  C_2 
REMARK    2  A    between atoms: C_2  and  C_3 
REMARK    3  A    between atoms: C_2  and  C_4 
REMARK    4  A    between atoms: C_4  and  C_5 
REMARK    5  A    between atoms: C_5  and  C_6 
REMARK    6  A    between atoms: C_6  and  C_8 
REMARK    7  A    between atoms: C_6  and  C_20 
REMARK    8  A    between atoms: C_8  and  C_9 
REMARK    9  A    between atoms: C_9  and  N_55 
REMARK   10  A    between atoms: C_10  and  C_11 
REMARK   11  A    between atoms: C_10  and  N_55 
REMARK   12  A    between atoms: C_14  and  N_17 
REMARK   13  A    between atoms: N_17  and  C_18 
REMARK   14  A    between atoms: N_17  and  C_19 
ROOT
ATOM      1  C   LIG d   1       7.625   1.589  -4.228  0.00  0.00    -0.003 C 
ATOM      2  H   LIG d   1       7.732   1.091  -5.191  0.00  0.00     0.032 H 
ATOM      3  H   LIG d   1       7.092   2.530  -4.361  0.00  0.00     0.032 H 
ENDROOT
BRANCH   1   4
ATOM      4  C   LIG d   1       6.839   0.688  -3.273  0.00  0.00     0.022 C 
ATOM      5  H   LIG d   1       7.378   0.600  -2.330  0.00  0.00     0.038 H 
BRANCH   4   6
ATOM      6  C   LIG d   1       5.460   1.300  -3.014  0.00  0.00    -0.043 C 
ATOM      7  H   LIG d   1       5.576   2.336  -2.694  0.00  0.00     0.027 H 
ATOM      8  H   LIG d   1       4.870   1.267  -3.931  0.00  0.00     0.027 H 
BRANCH   6   9
ATOM      9  C   LIG d   1       4.746   0.505  -1.919  0.00  0.00    -0.050 C 
ATOM     10  H   LIG d   1       5.364  -0.345  -1.626  0.00  0.00     0.027 H 
ATOM     11  H   LIG d   1       4.578   1.147  -1.054  0.00  0.00     0.027 H 
BRANCH   9  12
ATOM     12  C   LIG d   1       3.403  -0.000  -2.450  0.00  0.00    -0.047 C 
ATOM     13  H   LIG d   1       2.611   0.273  -1.753  0.00  0.00     0.029 H 
BRANCH  12  14
ATOM     14  C   LIG d   1       3.123   0.633  -3.814  0.00  0.00    -0.063 C 
ATOM     15  H   LIG d   1       2.283   1.323  -3.729  0.00  0.00     0.023 H 
ATOM     16  H   LIG d   1       4.006   1.175  -4.151  0.00  0.00     0.023 H 
ATOM     17  H   LIG d   1       2.879  -0.148  -4.533  0.00  0.00     0.023 H 
ENDBRANCH  12  14
BRANCH  12  18
ATOM     18  C   LIG d   1       3.453  -1.523  -2.594  0.00  0.00    -0.063 C 
ATOM     19  H   LIG d   1       2.476  -1.943  -2.355  0.00  0.00     0.023 H 
ATOM     20  H   LIG d   1       3.719  -1.782  -3.620  0.00  0.00     0.023 H 
ATOM     21  H   LIG d   1       4.200  -1.928  -1.912  0.00  0.00     0.023 H 
ENDBRANCH  12  18
ENDBRANCH   9  12
ENDBRANCH   6   9
ENDBRANCH   4   6
BRANCH   4  22
ATOM     22  C   LIG d   1       6.675  -0.677  -3.890  0.00  0.00     0.108 A 
ATOM     23  O   LIG d   1       6.039  -0.948  -5.041  0.00  0.00    -0.468 OA
ATOM     24  C   LIG d   1       6.086  -2.269  -5.278  0.00  0.00     0.092 A 
ATOM     25  C   LIG d   1       6.761  -2.857  -4.275  0.00  0.00    -0.024 A 
ATOM     26  H   LIG d   1       5.654  -2.773  -6.130  0.00  0.00     0.103 H 
ATOM     27  C   LIG d   1       7.144  -1.830  -3.381  0.00  0.00    -0.020 A 
ATOM     28  H   LIG d   1       6.971  -3.912  -4.172  0.00  0.00     0.065 H 
ATOM     29  H   LIG d   1       7.701  -1.951  -2.464  0.00  0.00     0.065 H 
ENDBRANCH   4  22
ENDBRANCH   1   4
BRANCH   1  30
ATOM     30  C   LIG d   1       9.011   1.866  -3.641  0.00  0.00    -0.033 C 
ATOM     31  H   LIG d   1       9.084   1.413  -2.652  0.00  0.00     0.081 H 
ATOM     32  H   LIG d   1       9.773   1.440  -4.292  0.00  0.00     0.081 H 
BRANCH  30  33
ATOM     33  N   LIG d   1       9.208   3.324  -3.533  0.00  0.00     0.230 N 
ATOM     34  H   LIG d   1       8.402   3.740  -3.051  0.00  0.00     0.202 HD
ATOM     35  H   LIG d   1       9.288   3.725  -4.475  0.00  0.00     0.202 HD
BRANCH  33  36
ATOM     36  C   LIG d   1      10.436   3.620  -2.772  0.00  0.00    -0.008 C 
ATOM     37  H   LIG d   1      10.572   2.872  -1.991  0.00  0.00     0.087 H 
ATOM     38  H   LIG d   1      11.295   3.605  -3.442  0.00  0.00     0.087 H 
BRANCH  36  39
ATOM     39  C   LIG d   1      10.312   4.985  -2.145  0.00  0.00    -0.003 A 
ATOM     40  C   LIG d   1      10.881   5.229  -0.909  0.00  0.00    -0.052 A 
ATOM     41  C   LIG d   1      10.770   6.479  -0.330  0.00  0.00    -0.040 A 
ATOM     42  H   LIG d   1      11.414   4.443  -0.394  0.00  0.00     0.062 H 
ATOM     43  C   LIG d   1      10.084   7.489  -0.992  0.00  0.00     0.029 A 
ATOM     44  H   LIG d   1      11.215   6.670   0.634  0.00  0.00     0.064 H 
ATOM     45  C   LIG d   1       9.513   7.240  -2.233  0.00  0.00    -0.040 A 
ATOM     46  C   LIG d   1       9.633   5.989  -2.809  0.00  0.00    -0.052 A 
ATOM     47  H   LIG d   1       8.979   8.024  -2.751  0.00  0.00     0.064 H 
ATOM     48  H   LIG d   1       9.194   5.796  -3.775  0.00  0.00     0.062 H 
BRANCH  43  49
ATOM     49  N   LIG d   1       9.969   8.754  -0.410  0.00  0.00    -0.336 N 
BRANCH  49  50
ATOM     50  C   LIG d   1       8.812   9.598  -0.718  0.00  0.00     0.000 C 
ATOM     51  H   LIG d   1       9.091  10.648  -0.617  0.00  0.00     0.043 H 
ATOM     52  H   LIG d   1       8.484   9.407  -1.741  0.00  0.00     0.043 H 
ATOM     53  H   LIG d   1       8.000   9.369  -0.028  0.00  0.00     0.043 H 
ENDBRANCH  49  50
BRANCH  49  54
ATOM     54  C   LIG d   1      11.004   9.236   0.508  0.00  0.00     0.000 C 
ATOM     55  H   LIG d   1      10.683   9.071   1.536  0.00  0.00     0.043 H 
ATOM     56  H   LIG d   1      11.932   8.694   0.326  0.00  0.00     0.043 H 
ATOM     57  H   LIG d   1      11.167  10.301   0.344  0.00  0.00     0.043 H 
ENDBRANCH  49  54
ENDBRANCH  43  49
ENDBRANCH  36  39
ENDBRANCH  33  36
ENDBRANCH  30  33
ENDBRANCH   1  30
TORSDOF 14
ENDMDL
MODEL 3
REMARK VINA RESULT:      -4.9      2.774      6.213
REMARK  14 active torsions:
REMARK  status: ('A' for Active; 'I' for Inactive)
REMARK    1  A    between atoms: C_1  and  C_2 
REMARK    2  A    between atoms: C_2  and  C_3 
REMARK    3  A    between atoms: C_2  and  C_4 
REMARK    4  A    between atoms: C_4  and  C_5 
REMARK    5  A    between atoms: C_5  and  C_6 
REMARK    6  A    between atoms: C_6  and  C_8 
REMARK    7  A    between atoms: C_6  and  C_20 
REMARK    8  A    between atoms: C_8  and  C_9 
REMARK    9  A    between atoms: C_9  and  N_55 
REMARK   10  A    between atoms: C_10  and  C_11 
REMARK   11  A    between atoms: C_10  and  N_55 
REMARK   12  A    between atoms: C_14  and  N_17 
REMARK   13  A    between atoms: N_17  and  C_18 
REMARK   14  A    between atoms: N_17  and  C_19 
ROOT
ATOM      1  C   LIG d   1       4.980  -0.616  -5.747  0.00  0.00    -0.003 C 
ATOM      2  H   LIG d   1       5.528  -0.316  -6.640  0.00  0.00     0.032 H 
ATOM      3  H   LIG d   1       5.306  -0.013  -4.900  0.00  0.00     0.032 H 
ENDROOT
BRANCH   1   4
ATOM      4  C   LIG d   1       3.481  -0.407  -5.975  0.00  0.00     0.022 C 
ATOM      5  H   LIG d   1       2.978  -1.374  -5.993  0.00  0.00     0.038 H 
BRANCH   4   6
ATOM      6  C   LIG d   1       2.907   0.444  -4.840  0.00  0.00    -0.043 C 
ATOM      7  H   LIG d   1       3.649   1.175  -4.522  0.00  0.00     0.027 H 
ATOM      8  H   LIG d   1       2.014   0.962  -5.191  0.00  0.00     0.027 H 
BRANCH   6   9
ATOM      9  C   LIG d   1       2.541  -0.459  -3.660  0.00  0.00    -0.050 C 
ATOM     10  H   LIG d   1       1.463  -0.428  -3.499  0.00  0.00     0.027 H 
ATOM     11  H   LIG d   1       2.846  -1.483  -3.877  0.00  0.00     0.027 H 
BRANCH   9  12
ATOM     12  C   LIG d   1       3.260   0.031  -2.402  0.00  0.00    -0.047 C 
ATOM     13  H   LIG d   1       2.539   0.144  -1.593  0.00  0.00     0.029 H 
BRANCH  12  14
ATOM     14  C   LIG d   1       4.329  -0.985  -1.995  0.00  0.00    -0.063 C 
ATOM     15  H   LIG d   1       4.961  -0.556  -1.218  0.00  0.00     0.023 H 
ATOM     16  H   LIG d   1       3.847  -1.886  -1.616  0.00  0.00     0.023 H 
ATOM     17  H   LIG d   1       4.939  -1.236  -2.862  0.00  0.00     0.023 H 
ENDBRANCH  12  14
BRANCH  12  18
ATOM     18  C   LIG d   1       3.921   1.382  -2.687  0.00  0.00    -0.063 C 
ATOM     19  H   LIG d   1       3.152   2.137  -2.845  0.00  0.00     0.023 H 
ATOM     20  H   LIG d   1       4.543   1.668  -1.838  0.00  0.00     0.023 H 
ATOM     21  H   LIG d   1       4.541   1.301  -3.579  0.00  0.00     0.023 H 
ENDBRANCH  12  18
ENDBRANCH   9  12
ENDBRANCH   6   9
ENDBRANCH   4   6
BRANCH   4  22
ATOM     22  C   LIG d   1       3.266   0.296  -7.290  0.00  0.00     0.108 A 
ATOM     23  O   LIG d   1       3.960   1.355  -7.737  0.00  0.00    -0.468 OA
ATOM     24  C   LIG d   1       3.493   1.720  -8.942  0.00  0.00     0.092 A 
ATOM     25  C   LIG d   1       2.492   0.889  -9.280  0.00  0.00    -0.024 A 
ATOM     26  H   LIG d   1       3.859   2.543  -9.538  0.00  0.00     0.103 H 
ATOM     27  C   LIG d   1       2.348  -0.032  -8.216  0.00  0.00    -0.020 A 
ATOM     28  H   LIG d   1       1.910   0.918 -10.189  0.00  0.00     0.065 H 
ATOM     29  H   LIG d   1       1.634  -0.840  -8.157  0.00  0.00     0.065 H 
ENDBRANCH   4  22
ENDBRANCH   1   4
BRANCH   1  30
ATOM     30  C   LIG d   1       5.250  -2.094  -5.456  0.00  0.00    -0.033 C 
ATOM     31  H   LIG d   1       6.236  -2.364  -5.835  0.00  0.00     0.081 H 
ATOM     32  H   LIG d   1       5.214  -2.266  -4.381  0.00  0.00     0.081 H 
BRANCH  30  33
ATOM     33  N   LIG d   1       4.221  -2.913  -6.125  0.00  0.00     0.230 N 
ATOM     34  H   LIG d   1       3.505  -2.296  -6.527  0.00  0.00     0.202 HD
ATOM     35  H   LIG d   1       3.787  -3.540  -5.437  0.00  0.00     0.202 HD
BRANCH  33  36
ATOM     36  C   LIG d   1       4.829  -3.719  -7.201  0.00  0.00    -0.008 C 
ATOM     37  H   LIG d   1       5.914  -3.706  -7.100  0.00  0.00     0.087 H 
ATOM     38  H   LIG d   1       4.470  -4.746  -7.137  0.00  0.00     0.087 H 
BRANCH  36  39
ATOM     39  C   LIG d   1       4.441  -3.134  -8.535  0.00  0.00    -0.003 A 
ATOM     40  C   LIG d   1       5.286  -2.240  -9.167  0.00  0.00    -0.052 A 
ATOM     41  C   LIG d   1       4.935  -1.701 -10.390  0.00  0.00    -0.040 A 
ATOM     42  H   LIG d   1       6.222  -1.962  -8.704  0.00  0.00     0.062 H 
ATOM     43  C   LIG d   1       3.731  -2.058 -10.983  0.00  0.00     0.029 A 
ATOM     44  H   LIG d   1       5.595  -1.004 -10.883  0.00  0.00     0.064 H 
ATOM     45  C   LIG d   1       2.884  -2.956 -10.345  0.00  0.00    -0.040 A 
ATOM     46  C   LIG d   1       3.245  -3.495  -9.125  0.00  0.00    -0.052 A 
ATOM     47  H   LIG d   1       1.948  -3.236 -10.804  0.00  0.00     0.064 H 
ATOM     48  H   LIG d   1       2.590  -4.197  -8.631  0.00  0.00     0.062 H 
BRANCH  43  49
ATOM     49  N   LIG d   1       3.372  -1.515 -12.219  0.00  0.00    -0.336 N 
BRANCH  49  50
ATOM     50  C   LIG d   1       2.117  -1.918 -12.858  0.00  0.00     0.000 C 
ATOM     51  H   LIG d   1       1.808  -2.889 -12.472  0.00  0.00     0.043 H 
ATOM     52  H   LIG d   1       1.345  -1.178 -12.641  0.00  0.00     0.043 H 
ATOM     53  H   LIG d   1       2.262  -1.983 -13.936  0.00  0.00     0.043 H 
ENDBRANCH  49  50
BRANCH  49  54
ATOM     54  C   LIG d   1       4.250  -0.543 -12.876  0.00  0.00     0.000 C 
ATOM     55  H   LIG d   1       4.702   0.104 -12.124  0.00  0.00     0.043 H 
ATOM     56  H   LIG d   1       5.034  -1.071 -13.419  0.00  0.00     0.043 H 
ATOM     57  H   LIG d   1       3.668   0.059 -13.572  0.00  0.00     0.043 H 
ENDBRANCH  49  54
ENDBRANCH  43  49
ENDBRANCH  36  39
ENDBRANCH  33  36
ENDBRANCH  30  33
ENDBRANCH   1  30
TORSDOF 14
ENDMDL
MODEL 4
REMARK VINA RESULT:      -4.8      2.826      5.374
REMARK  14 active torsions:
REMARK  status: ('A' for Active; 'I' for Inactive)
REMARK    1  A    between atoms: C_1  and  C_2 
REMARK    2  A    between atoms: C_2  and  C_3 
REMARK    3  A    between atoms: C_2  and  C_4 
REMARK    4  A    between atoms: C_4  and  C_5 
REMARK    5  A    between atoms: C_5  and  C_6 
REMARK    6  A    between atoms: C_6  and  C_8 
REMARK    7  A    between atoms: C_6  and  C_20 
REMARK    8  A    between atoms: C_8  and  C_9 
REMARK    9  A    between atoms: C_9  and  N_55 
REMARK   10  A    between atoms: C_10  and  C_11 
REMARK   11  A    between atoms: C_10  and  N_55 
REMARK   12  A    between atoms: C_14  and  N_17 
REMARK   13  A    between atoms: N_17  and  C_18 
REMARK   14  A    between atoms: N_17  and  C_19 
ROOT
ATOM      1  C   LIG d   1       4.801  -0.523  -5.858  0.00  0.00    -0.003 C 
ATOM      2  H   LIG d   1       5.286  -0.250  -6.795  0.00  0.00     0.032 H 
ATOM      3  H   LIG d   1       5.162   0.124  -5.059  0.00  0.00     0.032 H 
ENDROOT
BRANCH   1   4
ATOM      4  C   LIG d   1       3.286  -0.360  -6.001  0.00  0.00     0.022 C 
ATOM      5  H   LIG d   1       2.812  -1.341  -5.985  0.00  0.00     0.038 H 
BRANCH   4   6
ATOM      6  C   LIG d   1       2.752   0.481  -4.839  0.00  0.00    -0.043 C 
ATOM      7  H   LIG d   1       3.478   1.254  -4.585  0.00  0.00     0.027 H 
ATOM      8  H   LIG d   1       1.812   0.949  -5.132  0.00  0.00     0.027 H 
BRANCH   6   9
ATOM      9  C   LIG d   1       2.518  -0.418  -3.623  0.00  0.00    -0.050 C 
ATOM     10  H   LIG d   1       1.449  -0.475  -3.413  0.00  0.00     0.027 H 
ATOM     11  H   LIG d   1       2.900  -1.417  -3.831  0.00  0.00     0.027 H 
BRANCH   9  12
ATOM     12  C   LIG d   1       3.246   0.165  -2.411  0.00  0.00    -0.047 C 
ATOM     13  H   LIG d   1       2.540   0.295  -1.591  0.00  0.00     0.029 H 
BRANCH  12  14
ATOM     14  C   LIG d   1       4.361  -0.789  -1.977  0.00  0.00    -0.063 C 
ATOM     15  H   LIG d   1       4.137  -1.795  -2.333  0.00  0.00     0.023 H 
ATOM     16  H   LIG d   1       5.308  -0.456  -2.400  0.00  0.00     0.023 H 
ATOM     17  H   LIG d   1       4.430  -0.796  -0.890  0.00  0.00     0.023 H 
ENDBRANCH  12  14
BRANCH  12  18
ATOM     18  C   LIG d   1       3.850   1.521  -2.783  0.00  0.00    -0.063 C 
ATOM     19  H   LIG d   1       3.199   2.319  -2.427  0.00  0.00     0.023 H 
ATOM     20  H   LIG d   1       4.833   1.620  -2.320  0.00  0.00     0.023 H 
ATOM     21  H   LIG d   1       3.950   1.589  -3.866  0.00  0.00     0.023 H 
ENDBRANCH  12  18
ENDBRANCH   9  12
ENDBRANCH   6   9
ENDBRANCH   4   6
BRANCH   4  22
ATOM     22  C   LIG d   1       2.976   0.329  -7.305  0.00  0.00     0.108 A 
ATOM     23  O   LIG d   1       3.081   1.646  -7.542  0.00  0.00    -0.468 OA
ATOM     24  C   LIG d   1       2.718   1.904  -8.809  0.00  0.00     0.092 A 
ATOM     25  C   LIG d   1       2.379   0.744  -9.398  0.00  0.00    -0.024 A 
ATOM     26  H   LIG d   1       2.701   2.878  -9.275  0.00  0.00     0.103 H 
ATOM     27  C   LIG d   1       2.548  -0.272  -8.429  0.00  0.00    -0.020 A 
ATOM     28  H   LIG d   1       2.042   0.613 -10.416  0.00  0.00     0.065 H 
ATOM     29  H   LIG d   1       2.364  -1.328  -8.565  0.00  0.00     0.065 H 
ENDBRANCH   4  22
ENDBRANCH   1   4
BRANCH   1  30
ATOM     30  C   LIG d   1       5.126  -1.980  -5.522  0.00  0.00    -0.033 C 
ATOM     31  H   LIG d   1       4.730  -2.223  -4.536  0.00  0.00     0.081 H 
ATOM     32  H   LIG d   1       4.674  -2.635  -6.266  0.00  0.00     0.081 H 
BRANCH  30  33
ATOM     33  N   LIG d   1       6.591  -2.161  -5.525  0.00  0.00     0.230 N 
ATOM     34  H   LIG d   1       6.996  -1.632  -6.306  0.00  0.00     0.202 HD
ATOM     35  H   LIG d   1       6.808  -3.158  -5.637  0.00  0.00     0.202 HD
BRANCH  33  36
ATOM     36  C   LIG d   1       7.168  -1.677  -4.257  0.00  0.00    -0.008 C 
ATOM     37  H   LIG d   1       6.387  -1.614  -3.499  0.00  0.00     0.087 H 
ATOM     38  H   LIG d   1       7.945  -2.364  -3.922  0.00  0.00     0.087 H 
BRANCH  36  39
ATOM     39  C   LIG d   1       7.767  -0.311  -4.477  0.00  0.00    -0.003 A 
ATOM     40  C   LIG d   1       8.696  -0.121  -5.483  0.00  0.00    -0.052 A 
ATOM     41  C   LIG d   1       9.247   1.129  -5.689  0.00  0.00    -0.040 A 
ATOM     42  H   LIG d   1       8.991  -0.949  -6.110  0.00  0.00     0.062 H 
ATOM     43  C   LIG d   1       8.868   2.194  -4.882  0.00  0.00     0.029 A 
ATOM     44  H   LIG d   1       9.972   1.278  -6.475  0.00  0.00     0.064 H 
ATOM     45  C   LIG d   1       7.935   1.999  -3.871  0.00  0.00    -0.040 A 
ATOM     46  C   LIG d   1       7.383   0.747  -3.675  0.00  0.00    -0.052 A 
ATOM     47  H   LIG d   1       7.638   2.825  -3.243  0.00  0.00     0.064 H 
ATOM     48  H   LIG d   1       6.655   0.596  -2.894  0.00  0.00     0.062 H 
BRANCH  43  49
ATOM     49  N   LIG d   1       9.424   3.459  -5.086  0.00  0.00    -0.336 N 
BRANCH  49  50
ATOM     50  C   LIG d   1       9.664   4.346  -3.944  0.00  0.00     0.000 C 
ATOM     51  H   LIG d   1      10.040   5.305  -4.302  0.00  0.00     0.043 H 
ATOM     52  H   LIG d   1       8.730   4.502  -3.403  0.00  0.00     0.043 H 
ATOM     53  H   LIG d   1      10.398   3.892  -3.279  0.00  0.00     0.043 H 
ENDBRANCH  49  50
BRANCH  49  54
ATOM     54  C   LIG d   1       9.766   3.900  -6.441  0.00  0.00     0.000 C 
ATOM     55  H   LIG d   1       9.102   4.712  -6.737  0.00  0.00     0.043 H 
ATOM     56  H   LIG d   1      10.798   4.251  -6.459  0.00  0.00     0.043 H 
ATOM     57  H   LIG d   1       9.652   3.067  -7.133  0.00  0.00     0.043 H 
ENDBRANCH  49  54
ENDBRANCH  43  49
ENDBRANCH  36  39
ENDBRANCH  33  36
ENDBRANCH  30  33
ENDBRANCH   1  30
TORSDOF 14
ENDMDL
MODEL 5
REMARK VINA RESULT:      -4.8      2.147      4.868
REMARK  14 active torsions:
REMARK  status: ('A' for Active; 'I' for Inactive)
REMARK    1  A    between atoms: C_1  and  C_2 
REMARK    2  A    between atoms: C_2  and  C_3 
REMARK    3  A    between atoms: C_2  and  C_4 
REMARK    4  A    between atoms: C_4  and  C_5 
REMARK    5  A    between atoms: C_5  and  C_6 
REMARK    6  A    between atoms: C_6  and  C_8 
REMARK    7  A    between atoms: C_6  and  C_20 
REMARK    8  A    between atoms: C_8  and  C_9 
REMARK    9  A    between atoms: C_9  and  N_55 
REMARK   10  A    between atoms: C_10  and  C_11 
REMARK   11  A    between atoms: C_10  and  N_55 
REMARK   12  A    between atoms: C_14  and  N_17 
REMARK   13  A    between atoms: N_17  and  C_18 
REMARK   14  A    between atoms: N_17  and  C_19 
ROOT
ATOM      1  C   LIG d   1       5.289  -0.222  -5.792  0.00  0.00    -0.003 C 
ATOM      2  H   LIG d   1       5.549   0.797  -6.076  0.00  0.00     0.032 H 
ATOM      3  H   LIG d   1       5.599  -0.404  -4.764  0.00  0.00     0.032 H 
ENDROOT
BRANCH   1   4
ATOM      4  C   LIG d   1       3.775  -0.412  -5.908  0.00  0.00     0.022 C 
ATOM      5  H   LIG d   1       3.542  -1.477  -5.919  0.00  0.00     0.038 H 
BRANCH   4   6
ATOM      6  C   LIG d   1       3.084   0.247  -4.712  0.00  0.00    -0.043 C 
ATOM      7  H   LIG d   1       3.769   0.950  -4.239  0.00  0.00     0.027 H 
ATOM      8  H   LIG d   1       2.196   0.778  -5.053  0.00  0.00     0.027 H 
BRANCH   6   9
ATOM      9  C   LIG d   1       2.679  -0.828  -3.701  0.00  0.00    -0.050 C 
ATOM     10  H   LIG d   1       1.593  -0.845  -3.603  0.00  0.00     0.027 H 
ATOM     11  H   LIG d   1       3.027  -1.802  -4.046  0.00  0.00     0.027 H 
BRANCH   9  12
ATOM     12  C   LIG d   1       3.309  -0.513  -2.343  0.00  0.00    -0.047 C 
ATOM     13  H   LIG d   1       2.551  -0.593  -1.564  0.00  0.00     0.029 H 
BRANCH  12  14
ATOM     14  C   LIG d   1       4.438  -1.507  -2.061  0.00  0.00    -0.063 C 
ATOM     15  H   LIG d   1       4.880  -1.288  -1.089  0.00  0.00     0.023 H 
ATOM     16  H   LIG d   1       4.037  -2.520  -2.058  0.00  0.00     0.023 H 
ATOM     17  H   LIG d   1       5.200  -1.419  -2.834  0.00  0.00     0.023 H 
ENDBRANCH  12  14
BRANCH  12  18
ATOM     18  C   LIG d   1       3.873   0.910  -2.361  0.00  0.00    -0.063 C 
ATOM     19  H   LIG d   1       3.056   1.626  -2.288  0.00  0.00     0.023 H 
ATOM     20  H   LIG d   1       4.549   1.042  -1.515  0.00  0.00     0.023 H 
ATOM     21  H   LIG d   1       4.418   1.072  -3.290  0.00  0.00     0.023 H 
ENDBRANCH  12  18
ENDBRANCH   9  12
ENDBRANCH   6   9
ENDBRANCH   4   6
BRANCH   4  22
ATOM     22  C   LIG d   1       3.284   0.223  -7.184  0.00  0.00     0.108 A 
ATOM     23  O   LIG d   1       3.446   1.509  -7.534  0.00  0.00    -0.468 OA
ATOM     24  C   LIG d   1       2.878   1.722  -8.732  0.00  0.00     0.092 A 
ATOM     25  C   LIG d   1       2.348   0.564  -9.163  0.00  0.00    -0.024 A 
ATOM     26  H   LIG d   1       2.851   2.664  -9.259  0.00  0.00     0.103 H 
ATOM     27  C   LIG d   1       2.613  -0.403  -8.166  0.00  0.00    -0.020 A 
ATOM     28  H   LIG d   1       1.821   0.404 -10.092  0.00  0.00     0.065 H 
ATOM     29  H   LIG d   1       2.326  -1.445  -8.188  0.00  0.00     0.065 H 
ENDBRANCH   4  22
ENDBRANCH   1   4
BRANCH   1  30
ATOM     30  C   LIG d   1       5.999  -1.207  -6.722  0.00  0.00    -0.033 C 
ATOM     31  H   LIG d   1       5.309  -2.004  -7.002  0.00  0.00     0.081 H 
ATOM     32  H   LIG d   1       6.333  -0.685  -7.618  0.00  0.00     0.081 H 
BRANCH  30  33
ATOM     33  N   LIG d   1       7.162  -1.782  -6.020  0.00  0.00     0.230 N 
ATOM     34  H   LIG d   1       7.825  -1.033  -5.791  0.00  0.00     0.202 HD
ATOM     35  H   LIG d   1       7.619  -2.471  -6.629  0.00  0.00     0.202 HD
BRANCH  33  36
ATOM     36  C   LIG d   1       6.730  -2.446  -4.775  0.00  0.00    -0.008 C 
ATOM     37  H   LIG d   1       7.568  -2.504  -4.081  0.00  0.00     0.087 H 
ATOM     38  H   LIG d   1       5.919  -1.879  -4.319  0.00  0.00     0.087 H 
BRANCH  36  39
ATOM     39  C   LIG d   1       6.249  -3.837  -5.099  0.00  0.00    -0.003 A 
ATOM     40  C   LIG d   1       7.164  -4.833  -5.386  0.00  0.00    -0.052 A 
ATOM     41  C   LIG d   1       6.728  -6.110  -5.683  0.00  0.00    -0.040 A 
ATOM     42  H   LIG d   1       8.222  -4.613  -5.379  0.00  0.00     0.062 H 
ATOM     43  C   LIG d   1       5.368  -6.391  -5.693  0.00  0.00     0.029 A 
ATOM     44  H   LIG d   1       7.443  -6.887  -5.907  0.00  0.00     0.064 H 
ATOM     45  C   LIG d   1       4.451  -5.389  -5.405  0.00  0.00    -0.040 A 
ATOM     46  C   LIG d   1       4.895  -4.115  -5.103  0.00  0.00    -0.052 A 
ATOM     47  H   LIG d   1       3.393  -5.604  -5.411  0.00  0.00     0.064 H 
ATOM     48  H   LIG d   1       4.184  -3.337  -4.873  0.00  0.00     0.062 H 
BRANCH  43  49
ATOM     49  N   LIG d   1       4.923  -7.681  -5.994  0.00  0.00    -0.336 N 
BRANCH  49  50
ATOM     50  C   LIG d   1       4.497  -8.009  -7.357  0.00  0.00     0.000 C 
ATOM     51  H   LIG d   1       5.191  -7.567  -8.071  0.00  0.00     0.043 H 
ATOM     52  H   LIG d   1       4.486  -9.093  -7.483  0.00  0.00     0.043 H 
ATOM     53  H   LIG d   1       3.496  -7.615  -7.530  0.00  0.00     0.043 H 
ENDBRANCH  49  50
BRANCH  49  54
ATOM     54  C   LIG d   1       4.881  -8.705  -4.947  0.00  0.00     0.000 C 
ATOM     55  H   LIG d   1       5.508  -9.548  -5.238  0.00  0.00     0.043 H 
ATOM     56  H   LIG d   1       5.251  -8.284  -4.012  0.00  0.00     0.043 H 
ATOM     57  H   LIG d   1       3.855  -9.045  -4.812  0.00  0.00     0.043 H 
ENDBRANCH  49  54
ENDBRANCH  43  49
ENDBRANCH  36  39
ENDBRANCH  33  36
ENDBRANCH  30  33
ENDBRANCH   1  30
TORSDOF 14
ENDMDL
MODEL 6
REMARK VINA RESULT:      -4.8      3.570      6.143
REMARK  14 active torsions:
REMARK  status: ('A' for Active; 'I' for Inactive)
REMARK    1  A    between atoms: C_1  and  C_2 
REMARK    2  A    between atoms: C_2  and  C_3 
REMARK    3  A    between atoms: C_2  and  C_4 
REMARK    4  A    between atoms: C_4  and  C_5 
REMARK    5  A    between atoms: C_5  and  C_6 
REMARK    6  A    between atoms: C_6  and  C_8 
REMARK    7  A    between atoms: C_6  and  C_20 
REMARK    8  A    between atoms: C_8  and  C_9 
REMARK    9  A    between atoms: C_9  and  N_55 
REMARK   10  A    between atoms: C_10  and  C_11 
REMARK   11  A    between atoms: C_10  and  N_55 
REMARK   12  A    between atoms: C_14  and  N_17 
REMARK   13  A    between atoms: N_17  and  C_18 
REMARK   14  A    between atoms: N_17  and  C_19 
ROOT
ATOM      1  C   LIG d   1       4.974  -0.308  -5.711  0.00  0.00    -0.003 C 
ATOM      2  H   LIG d   1       5.262   0.641  -5.259  0.00  0.00     0.032 H 
ATOM      3  H   LIG d   1       5.284  -1.129  -5.065  0.00  0.00     0.032 H 
ENDROOT
BRANCH   1   4
ATOM      4  C   LIG d   1       3.455  -0.346  -5.891  0.00  0.00     0.022 C 
ATOM      5  H   LIG d   1       3.115  -1.382  -5.896  0.00  0.00     0.038 H 
BRANCH   4   6
ATOM      6  C   LIG d   1       2.786   0.402  -4.735  0.00  0.00    -0.043 C 
ATOM      7  H   LIG d   1       3.432   1.216  -4.407  0.00  0.00     0.027 H 
ATOM      8  H   LIG d   1       1.831   0.808  -5.070  0.00  0.00     0.027 H 
BRANCH   6   9
ATOM      9  C   LIG d   1       2.550  -0.563  -3.571  0.00  0.00    -0.050 C 
ATOM     10  H   LIG d   1       1.482  -0.627  -3.363  0.00  0.00     0.027 H 
ATOM     11  H   LIG d   1       2.928  -1.551  -3.835  0.00  0.00     0.027 H 
BRANCH   9  12
ATOM     12  C   LIG d   1       3.282  -0.051  -2.329  0.00  0.00    -0.047 C 
ATOM     13  H   LIG d   1       2.600  -0.053  -1.479  0.00  0.00     0.029 H 
BRANCH  12  14
ATOM     14  C   LIG d   1       4.475  -0.961  -2.028  0.00  0.00    -0.063 C 
ATOM     15  H   LIG d   1       4.120  -1.888  -1.577  0.00  0.00     0.023 H 
ATOM     16  H   LIG d   1       5.002  -1.186  -2.955  0.00  0.00     0.023 H 
ATOM     17  H   LIG d   1       5.150  -0.457  -1.338  0.00  0.00     0.023 H 
ENDBRANCH  12  14
BRANCH  12  18
ATOM     18  C   LIG d   1       3.778   1.375  -2.582  0.00  0.00    -0.063 C 
ATOM     19  H   LIG d   1       4.867   1.392  -2.545  0.00  0.00     0.023 H 
ATOM     20  H   LIG d   1       3.442   1.707  -3.564  0.00  0.00     0.023 H 
ATOM     21  H   LIG d   1       3.378   2.039  -1.817  0.00  0.00     0.023 H 
ENDBRANCH  12  18
ENDBRANCH   9  12
ENDBRANCH   6   9
ENDBRANCH   4   6
BRANCH   4  22
ATOM     22  C   LIG d   1       3.086   0.312  -7.196  0.00  0.00     0.108 A 
ATOM     23  O   LIG d   1       3.315   1.593  -7.522  0.00  0.00    -0.468 OA
ATOM     24  C   LIG d   1       2.849   1.831  -8.758  0.00  0.00     0.092 A 
ATOM     25  C   LIG d   1       2.318   0.693  -9.238  0.00  0.00    -0.024 A 
ATOM     26  H   LIG d   1       2.893   2.777  -9.279  0.00  0.00     0.103 H 
ATOM     27  C   LIG d   1       2.473  -0.288  -8.232  0.00  0.00    -0.020 A 
ATOM     28  H   LIG d   1       1.860   0.555 -10.207  0.00  0.00     0.065 H 
ATOM     29  H   LIG d   1       2.157  -1.319  -8.285  0.00  0.00     0.065 H 
ENDBRANCH   4  22
ENDBRANCH   1   4
BRANCH   1  30
ATOM     30  C   LIG d   1       5.652  -0.448  -7.076  0.00  0.00    -0.033 C 
ATOM     31  H   LIG d   1       6.302  -1.324  -7.071  0.00  0.00     0.081 H 
ATOM     32  H   LIG d   1       4.893  -0.564  -7.849  0.00  0.00     0.081 H 
BRANCH  30  33
ATOM     33  N   LIG d   1       6.453   0.762  -7.344  0.00  0.00     0.230 N 
ATOM     34  H   LIG d   1       6.099   1.536  -6.770  0.00  0.00     0.202 HD
ATOM     35  H   LIG d   1       6.374   1.007  -8.338  0.00  0.00     0.202 HD
BRANCH  33  36
ATOM     36  C   LIG d   1       7.870   0.520  -7.014  0.00  0.00    -0.008 C 
ATOM     37  H   LIG d   1       7.969  -0.437  -6.501  0.00  0.00     0.087 H 
ATOM     38  H   LIG d   1       8.462   0.504  -7.929  0.00  0.00     0.087 H 
BRANCH  36  39
ATOM     39  C   LIG d   1       8.364   1.625  -6.116  0.00  0.00    -0.003 A 
ATOM     40  C   LIG d   1       9.096   2.670  -6.649  0.00  0.00    -0.052 A 
ATOM     41  C   LIG d   1       9.550   3.686  -5.830  0.00  0.00    -0.040 A 
ATOM     42  H   LIG d   1       9.313   2.693  -7.707  0.00  0.00     0.062 H 
ATOM     43  C   LIG d   1       9.272   3.654  -4.470  0.00  0.00     0.029 A 
ATOM     44  H   LIG d   1      10.121   4.502  -6.246  0.00  0.00     0.064 H 
ATOM     45  C   LIG d   1       8.537   2.603  -3.937  0.00  0.00    -0.040 A 
ATOM     46  C   LIG d   1       8.080   1.594  -4.764  0.00  0.00    -0.052 A 
ATOM     47  H   LIG d   1       8.318   2.576  -2.880  0.00  0.00     0.064 H 
ATOM     48  H   LIG d   1       7.505   0.779  -4.352  0.00  0.00     0.062 H 
BRANCH  43  49
ATOM     49  N   LIG d   1       9.730   4.679  -3.638  0.00  0.00    -0.336 N 
BRANCH  49  50
ATOM     50  C   LIG d   1       9.500   6.078  -4.005  0.00  0.00     0.000 C 
ATOM     51  H   LIG d   1      10.419   6.504  -4.408  0.00  0.00     0.043 H 
ATOM     52  H   LIG d   1       8.714   6.131  -4.760  0.00  0.00     0.043 H 
ATOM     53  H   LIG d   1       9.194   6.640  -3.123  0.00  0.00     0.043 H 
ENDBRANCH  49  50
BRANCH  49  54
ATOM     54  C   LIG d   1      10.441   4.354  -2.398  0.00  0.00     0.000 C 
ATOM     55  H   LIG d   1      11.513   4.313  -2.595  0.00  0.00     0.043 H 
ATOM     56  H   LIG d   1      10.238   5.121  -1.651  0.00  0.00     0.043 H 
ATOM     57  H   LIG d   1      10.102   3.387  -2.028  0.00  0.00     0.043 H 
ENDBRANCH  49  54
ENDBRANCH  43  49
ENDBRANCH  36  39
ENDBRANCH  33  36
ENDBRANCH  30  33
ENDBRANCH   1  30
TORSDOF 14
ENDMDL
MODEL 7
REMARK VINA RESULT:      -4.7      5.358      7.743
REMARK  14 active torsions:
REMARK  status: ('A' for Active; 'I' for Inactive)
REMARK    1  A    between atoms: C_1  and  C_2 
REMARK    2  A    between atoms: C_2  and  C_3 
REMARK    3  A    between atoms: C_2  and  C_4 
REMARK    4  A    between atoms: C_4  and  C_5 
REMARK    5  A    between atoms: C_5  and  C_6 
REMARK    6  A    between atoms: C_6  and  C_8 
REMARK    7  A    between atoms: C_6  and  C_20 
REMARK    8  A    between atoms: C_8  and  C_9 
REMARK    9  A    between atoms: C_9  and  N_55 
REMARK   10  A    between atoms: C_10  and  C_11 
REMARK   11  A    between atoms: C_10  and  N_55 
REMARK   12  A    between atoms: C_14  and  N_17 
REMARK   13  A    between atoms: N_17  and  C_18 
REMARK   14  A    between atoms: N_17  and  C_19 
ROOT
ATOM      1  C   LIG d   1       7.953  -0.009  -4.828  0.00  0.00    -0.003 C 
ATOM      2  H   LIG d   1       8.936  -0.452  -4.671  0.00  0.00     0.032 H 
ATOM      3  H   LIG d   1       7.838   0.260  -5.878  0.00  0.00     0.032 H 
ENDROOT
BRANCH   1   4
ATOM      4  C   LIG d   1       6.871  -1.019  -4.439  0.00  0.00     0.022 C 
ATOM      5  H   LIG d   1       7.303  -2.019  -4.406  0.00  0.00     0.038 H 
BRANCH   4   6
ATOM      6  C   LIG d   1       6.313  -0.661  -3.059  0.00  0.00    -0.043 C 
ATOM      7  H   LIG d   1       7.107  -0.730  -2.316  0.00  0.00     0.027 H 
ATOM      8  H   LIG d   1       5.922   0.357  -3.079  0.00  0.00     0.027 H 
BRANCH   6   9
ATOM      9  C   LIG d   1       5.188  -1.633  -2.696  0.00  0.00    -0.050 C 
ATOM     10  H   LIG d   1       4.838  -2.136  -3.598  0.00  0.00     0.027 H 
ATOM     11  H   LIG d   1       5.562  -2.374  -1.989  0.00  0.00     0.027 H 
BRANCH   9  12
ATOM     12  C   LIG d   1       4.031  -0.859  -2.062  0.00  0.00    -0.047 C 
ATOM     13  H   LIG d   1       3.755  -1.327  -1.118  0.00  0.00     0.029 H 
BRANCH  12  14
ATOM     14  C   LIG d   1       4.462   0.587  -1.809  0.00  0.00    -0.063 C 
ATOM     15  H   LIG d   1       3.802   1.038  -1.067  0.00  0.00     0.023 H 
ATOM     16  H   LIG d   1       5.487   0.601  -1.439  0.00  0.00     0.023 H 
ATOM     17  H   LIG d   1       4.403   1.152  -2.739  0.00  0.00     0.023 H 
ENDBRANCH  12  14
BRANCH  12  18
ATOM     18  C   LIG d   1       2.828  -0.875  -3.009  0.00  0.00    -0.063 C 
ATOM     19  H   LIG d   1       2.020  -0.283  -2.580  0.00  0.00     0.023 H 
ATOM     20  H   LIG d   1       3.118  -0.450  -3.971  0.00  0.00     0.023 H 
ATOM     21  H   LIG d   1       2.492  -1.901  -3.151  0.00  0.00     0.023 H 
ENDBRANCH  12  18
ENDBRANCH   9  12
ENDBRANCH   6   9
ENDBRANCH   4   6
BRANCH   4  22
ATOM     22  C   LIG d   1       5.760  -0.983  -5.456  0.00  0.00     0.108 A 
ATOM     23  O   LIG d   1       4.948   0.060  -5.696  0.00  0.00    -0.468 OA
ATOM     24  C   LIG d   1       4.075  -0.266  -6.662  0.00  0.00     0.092 A 
ATOM     25  C   LIG d   1       4.326  -1.527  -7.054  0.00  0.00    -0.024 A 
ATOM     26  H   LIG d   1       3.302   0.376  -7.058  0.00  0.00     0.103 H 
ATOM     27  C   LIG d   1       5.414  -1.989  -6.278  0.00  0.00    -0.020 A 
ATOM     28  H   LIG d   1       3.797  -2.082  -7.816  0.00  0.00     0.065 H 
ATOM     29  H   LIG d   1       5.876  -2.964  -6.333  0.00  0.00     0.065 H 
ENDBRANCH   4  22
ENDBRANCH   1   4
BRANCH   1  30
ATOM     30  C   LIG d   1       7.815   1.245  -3.962  0.00  0.00    -0.033 C 
ATOM     31  H   LIG d   1       6.840   1.242  -3.472  0.00  0.00     0.081 H 
ATOM     32  H   LIG d   1       8.601   1.254  -3.207  0.00  0.00     0.081 H 
BRANCH  30  33
ATOM     33  N   LIG d   1       7.935   2.440  -4.819  0.00  0.00     0.230 N 
ATOM     34  H   LIG d   1       7.382   3.205  -4.414  0.00  0.00     0.202 HD
ATOM     35  H   LIG d   1       7.580   2.220  -5.757  0.00  0.00     0.202 HD
BRANCH  33  36
ATOM     36  C   LIG d   1       9.346   2.859  -4.918  0.00  0.00    -0.008 C 
ATOM     37  H   LIG d   1       9.985   2.104  -4.460  0.00  0.00     0.087 H 
ATOM     38  H   LIG d   1       9.620   2.979  -5.966  0.00  0.00     0.087 H 
BRANCH  36  39
ATOM     39  C   LIG d   1       9.523   4.171  -4.199  0.00  0.00    -0.003 A 
ATOM     40  C   LIG d   1       9.253   5.358  -4.856  0.00  0.00    -0.052 A 
ATOM     41  C   LIG d   1       9.414   6.564  -4.201  0.00  0.00    -0.040 A 
ATOM     42  H   LIG d   1       8.915   5.343  -5.882  0.00  0.00     0.062 H 
ATOM     43  C   LIG d   1       9.848   6.582  -2.882  0.00  0.00     0.029 A 
ATOM     44  H   LIG d   1       9.202   7.490  -4.713  0.00  0.00     0.064 H 
ATOM     45  C   LIG d   1      10.120   5.388  -2.225  0.00  0.00    -0.040 A 
ATOM     46  C   LIG d   1       9.951   4.186  -2.885  0.00  0.00    -0.052 A 
ATOM     47  H   LIG d   1      10.457   5.399  -1.200  0.00  0.00     0.064 H 
ATOM     48  H   LIG d   1      10.157   3.258  -2.375  0.00  0.00     0.062 H 
BRANCH  43  49
ATOM     49  N   LIG d   1      10.013   7.799  -2.216  0.00  0.00    -0.336 N 
BRANCH  49  50
ATOM     50  C   LIG d   1       9.950   7.848  -0.753  0.00  0.00     0.000 C 
ATOM     51  H   LIG d   1       8.975   8.226  -0.444  0.00  0.00     0.043 H 
ATOM     52  H   LIG d   1      10.095   6.845  -0.350  0.00  0.00     0.043 H 
ATOM     53  H   LIG d   1      10.733   8.506  -0.377  0.00  0.00     0.043 H 
ENDBRANCH  49  50
BRANCH  49  54
ATOM     54  C   LIG d   1      10.248   9.027  -2.981  0.00  0.00     0.000 C 
ATOM     55  H   LIG d   1       9.307   9.376  -3.406  0.00  0.00     0.043 H 
ATOM     56  H   LIG d   1      10.654   9.794  -2.321  0.00  0.00     0.043 H 
ATOM     57  H   LIG d   1      10.957   8.825  -3.783  0.00  0.00     0.043 H 
ENDBRANCH  49  54
ENDBRANCH  43  49
ENDBRANCH  36  39
ENDBRANCH  33  36
ENDBRANCH  30  33
ENDBRANCH   1  30
TORSDOF 14
ENDMDL
MODEL 8
REMARK VINA RESULT:      -4.7      2.000      3.849
REMARK  14 active torsions:
REMARK  status: ('A' for Active; 'I' for Inactive)
REMARK    1  A    between atoms: C_1  and  C_2 
REMARK    2  A    between atoms: C_2  and  C_3 
REMARK    3  A    between atoms: C_2  and  C_4 
REMARK    4  A    between atoms: C_4  and  C_5 
REMARK    5  A    between atoms: C_5  and  C_6 
REMARK    6  A    between atoms: C_6  and  C_8 
REMARK    7  A    between atoms: C_6  and  C_20 
REMARK    8  A    between atoms: C_8  and  C_9 
REMARK    9  A    between atoms: C_9  and  N_55 
REMARK   10  A    between atoms: C_10  and  C_11 
REMARK   11  A    between atoms: C_10  and  N_55 
REMARK   12  A    between atoms: C_14  and  N_17 
REMARK   13  A    between atoms: N_17  and  C_18 
REMARK   14  A    between atoms: N_17  and  C_19 
ROOT
ATOM      1  C   LIG d   1       2.383   0.187  -4.930  0.00  0.00    -0.003 C 
ATOM      2  H   LIG d   1       2.201   1.213  -4.612  0.00  0.00     0.032 H 
ATOM      3  H   LIG d   1       1.498  -0.201  -5.434  0.00  0.00     0.032 H 
ENDROOT
BRANCH   1   4
ATOM      4  C   LIG d   1       3.573   0.155  -5.892  0.00  0.00     0.022 C 
ATOM      5  H   LIG d   1       4.334   0.857  -5.552  0.00  0.00     0.038 H 
BRANCH   4   6
ATOM      6  C   LIG d   1       4.163  -1.257  -5.926  0.00  0.00    -0.043 C 
ATOM      7  H   LIG d   1       4.360  -1.594  -4.909  0.00  0.00     0.027 H 
ATOM      8  H   LIG d   1       3.454  -1.935  -6.402  0.00  0.00     0.027 H 
BRANCH   6   9
ATOM      9  C   LIG d   1       5.469  -1.245  -6.723  0.00  0.00    -0.050 C 
ATOM     10  H   LIG d   1       5.429  -0.456  -7.475  0.00  0.00     0.027 H 
ATOM     11  H   LIG d   1       6.305  -1.059  -6.048  0.00  0.00     0.027 H 
BRANCH   9  12
ATOM     12  C   LIG d   1       5.659  -2.597  -7.411  0.00  0.00    -0.047 C 
ATOM     13  H   LIG d   1       5.925  -2.439  -8.456  0.00  0.00     0.029 H 
BRANCH  12  14
ATOM     14  C   LIG d   1       6.776  -3.374  -6.711  0.00  0.00    -0.063 C 
ATOM     15  H   LIG d   1       7.648  -3.424  -7.364  0.00  0.00     0.023 H 
ATOM     16  H   LIG d   1       7.044  -2.868  -5.784  0.00  0.00     0.023 H 
ATOM     17  H   LIG d   1       6.431  -4.383  -6.489  0.00  0.00     0.023 H 
ENDBRANCH  12  14
BRANCH  12  18
ATOM     18  C   LIG d   1       4.355  -3.396  -7.333  0.00  0.00    -0.063 C 
ATOM     19  H   LIG d   1       4.450  -4.305  -7.926  0.00  0.00     0.023 H 
ATOM     20  H   LIG d   1       4.152  -3.659  -6.294  0.00  0.00     0.023 H 
ATOM     21  H   LIG d   1       3.536  -2.792  -7.722  0.00  0.00     0.023 H 
ENDBRANCH  12  18
ENDBRANCH   9  12
ENDBRANCH   6   9
ENDBRANCH   4   6
BRANCH   4  22
ATOM     22  C   LIG d   1       3.113   0.542  -7.274  0.00  0.00     0.108 A 
ATOM     23  O   LIG d   1       3.304   1.734  -7.860  0.00  0.00    -0.468 OA
ATOM     24  C   LIG d   1       2.757   1.723  -9.086  0.00  0.00     0.092 A 
ATOM     25  C   LIG d   1       2.210   0.513  -9.297  0.00  0.00    -0.024 A 
ATOM     26  H   LIG d   1       2.756   2.547  -9.785  0.00  0.00     0.103 H 
ATOM     27  C   LIG d   1       2.442  -0.250  -8.129  0.00  0.00    -0.020 A 
ATOM     28  H   LIG d   1       1.693   0.186 -10.187  0.00  0.00     0.065 H 
ATOM     29  H   LIG d   1       2.136  -1.271  -7.957  0.00  0.00     0.065 H 
ENDBRANCH   4  22
ENDBRANCH   1   4
BRANCH   1  30
ATOM     30  C   LIG d   1       2.694  -0.677  -3.706  0.00  0.00    -0.033 C 
ATOM     31  H   LIG d   1       1.798  -1.224  -3.410  0.00  0.00     0.081 H 
ATOM     32  H   LIG d   1       3.486  -1.384  -3.952  0.00  0.00     0.081 H 
BRANCH  30  33
ATOM     33  N   LIG d   1       3.132   0.194  -2.599  0.00  0.00     0.230 N 
ATOM     34  H   LIG d   1       2.352   0.328  -1.944  0.00  0.00     0.202 HD
ATOM     35  H   LIG d   1       3.422   1.103  -2.978  0.00  0.00     0.202 HD
BRANCH  33  36
ATOM     36  C   LIG d   1       4.268  -0.419  -1.884  0.00  0.00    -0.008 C 
ATOM     37  H   LIG d   1       4.386   0.055  -0.910  0.00  0.00     0.087 H 
ATOM     38  H   LIG d   1       4.084  -1.485  -1.749  0.00  0.00     0.087 H 
BRANCH  36  39
ATOM     39  C   LIG d   1       5.524  -0.224  -2.694  0.00  0.00    -0.003 A 
ATOM     40  C   LIG d   1       5.913   1.050  -3.065  0.00  0.00    -0.052 A 
ATOM     41  C   LIG d   1       7.064   1.233  -3.807  0.00  0.00    -0.040 A 
ATOM     42  H   LIG d   1       5.318   1.903  -2.774  0.00  0.00     0.062 H 
ATOM     43  C   LIG d   1       7.829   0.135  -4.181  0.00  0.00     0.029 A 
ATOM     44  H   LIG d   1       7.368   2.227  -4.096  0.00  0.00     0.064 H 
ATOM     45  C   LIG d   1       7.434  -1.143  -3.807  0.00  0.00    -0.040 A 
ATOM     46  C   LIG d   1       6.285  -1.318  -3.059  0.00  0.00    -0.052 A 
ATOM     47  H   LIG d   1       8.027  -1.998  -4.095  0.00  0.00     0.064 H 
ATOM     48  H   LIG d   1       5.980  -2.310  -2.764  0.00  0.00     0.062 H 
BRANCH  43  49
ATOM     49  N   LIG d   1       8.992   0.316  -4.932  0.00  0.00    -0.336 N 
BRANCH  49  50
ATOM     50  C   LIG d   1       9.312  -0.610  -6.021  0.00  0.00     0.000 C 
ATOM     51  H   LIG d   1       9.766  -0.058  -6.845  0.00  0.00     0.043 H 
ATOM     52  H   LIG d   1      10.010  -1.366  -5.662  0.00  0.00     0.043 H 
ATOM     53  H   LIG d   1       8.399  -1.094  -6.367  0.00  0.00     0.043 H 
ENDBRANCH  49  50
BRANCH  49  54
ATOM     54  C   LIG d   1       9.894   1.432  -4.630  0.00  0.00     0.000 C 
ATOM     55  H   LIG d   1      10.889   1.208  -5.014  0.00  0.00     0.043 H 
ATOM     56  H   LIG d   1       9.519   2.340  -5.101  0.00  0.00     0.043 H 
ATOM     57  H   LIG d   1       9.944   1.576  -3.551  0.00  0.00     0.043 H 
ENDBRANCH  49  54
ENDBRANCH  43  49
ENDBRANCH  36  39
ENDBRANCH  33  36
ENDBRANCH  30  33
ENDBRANCH   1  30
TORSDOF 14
ENDMDL
MODEL 9
REMARK VINA RESULT:      -4.6      2.393      5.619
REMARK  14 active torsions:
REMARK  status: ('A' for Active; 'I' for Inactive)
REMARK    1  A    between atoms: C_1  and  C_2 
REMARK    2  A    between atoms: C_2  and  C_3 
REMARK    3  A    between atoms: C_2  and  C_4 
REMARK    4  A    between atoms: C_4  and  C_5 
REMARK    5  A    between atoms: C_5  and  C_6 
REMARK    6  A    between atoms: C_6  and  C_8 
REMARK    7  A    between atoms: C_6  and  C_20 
REMARK    8  A    between atoms: C_8  and  C_9 
REMARK    9  A    between atoms: C_9  and  N_55 
REMARK   10  A    between atoms: C_10  and  C_11 
REMARK   11  A    between atoms: C_10  and  N_55 
REMARK   12  A    between atoms: C_14  and  N_17 
REMARK   13  A    between atoms: N_17  and  C_18 
REMARK   14  A    between atoms: N_17  and  C_19 
ROOT
ATOM      1  C   LIG d   1       6.914  -1.374  -3.447  0.00  0.00    -0.003 C 
ATOM      2  H   LIG d   1       7.025  -1.001  -2.429  0.00  0.00     0.032 H 
ATOM      3  H   LIG d   1       7.804  -1.936  -3.728  0.00  0.00     0.032 H 
ENDROOT
BRANCH   1   4
ATOM      4  C   LIG d   1       5.688  -2.286  -3.524  0.00  0.00     0.022 C 
ATOM      5  H   LIG d   1       5.555  -2.797  -2.570  0.00  0.00     0.038 H 
BRANCH   4   6
ATOM      6  C   LIG d   1       4.446  -1.446  -3.828  0.00  0.00    -0.043 C 
ATOM      7  H   LIG d   1       4.748  -0.492  -4.258  0.00  0.00     0.027 H 
ATOM      8  H   LIG d   1       3.812  -1.979  -4.538  0.00  0.00     0.027 H 
BRANCH   6   9
ATOM      9  C   LIG d   1       3.667  -1.199  -2.534  0.00  0.00    -0.050 C 
ATOM     10  H   LIG d   1       2.729  -1.755  -2.563  0.00  0.00     0.027 H 
ATOM     11  H   LIG d   1       4.261  -1.533  -1.683  0.00  0.00     0.027 H 
BRANCH   9  12
ATOM     12  C   LIG d   1       3.371   0.295  -2.396  0.00  0.00    -0.047 C 
ATOM     13  H   LIG d   1       2.454   0.432  -1.824  0.00  0.00     0.029 H 
BRANCH  12  14
ATOM     14  C   LIG d   1       4.532   0.981  -1.672  0.00  0.00    -0.063 C 
ATOM     15  H   LIG d   1       5.228   1.386  -2.405  0.00  0.00     0.023 H 
ATOM     16  H   LIG d   1       4.146   1.789  -1.052  0.00  0.00     0.023 H 
ATOM     17  H   LIG d   1       5.047   0.255  -1.044  0.00  0.00     0.023 H 
ENDBRANCH  12  14
BRANCH  12  18
ATOM     18  C   LIG d   1       3.201   0.912  -3.787  0.00  0.00    -0.063 C 
ATOM     19  H   LIG d   1       3.289   0.133  -4.543  0.00  0.00     0.023 H 
ATOM     20  H   LIG d   1       2.219   1.380  -3.858  0.00  0.00     0.023 H 
ATOM     21  H   LIG d   1       3.973   1.663  -3.947  0.00  0.00     0.023 H 
ENDBRANCH  12  18
ENDBRANCH   9  12
ENDBRANCH   6   9
ENDBRANCH   4   6
BRANCH   4  22
ATOM     22  C   LIG d   1       5.887  -3.305  -4.617  0.00  0.00     0.108 A 
ATOM     23  O   LIG d   1       7.063  -3.646  -5.167  0.00  0.00    -0.468 OA
ATOM     24  C   LIG d   1       6.861  -4.579  -6.112  0.00  0.00     0.092 A 
ATOM     25  C   LIG d   1       5.545  -4.846  -6.171  0.00  0.00    -0.024 A 
ATOM     26  H   LIG d   1       7.627  -5.036  -6.722  0.00  0.00     0.103 H 
ATOM     27  C   LIG d   1       4.917  -4.026  -5.205  0.00  0.00    -0.020 A 
ATOM     28  H   LIG d   1       5.060  -5.551  -6.830  0.00  0.00     0.065 H 
ATOM     29  H   LIG d   1       3.860  -3.985  -4.985  0.00  0.00     0.065 H 
ENDBRANCH   4  22
ENDBRANCH   1   4
BRANCH   1  30
ATOM     30  C   LIG d   1       6.732  -0.194  -4.404  0.00  0.00    -0.033 C 
ATOM     31  H   LIG d   1       5.670  -0.058  -4.614  0.00  0.00     0.081 H 
ATOM     32  H   LIG d   1       7.131   0.711  -3.947  0.00  0.00     0.081 H 
BRANCH  30  33
ATOM     33  N   LIG d   1       7.452  -0.476  -5.661  0.00  0.00     0.230 N 
ATOM     34  H   LIG d   1       7.420  -1.485  -5.851  0.00  0.00     0.202 HD
ATOM     35  H   LIG d   1       8.430  -0.177  -5.565  0.00  0.00     0.202 HD
BRANCH  33  36
ATOM     36  C   LIG d   1       6.828   0.251  -6.782  0.00  0.00    -0.008 C 
ATOM     37  H   LIG d   1       6.342   1.152  -6.409  0.00  0.00     0.087 H 
ATOM     38  H   LIG d   1       7.591   0.525  -7.511  0.00  0.00     0.087 H 
BRANCH  36  39
ATOM     39  C   LIG d   1       5.804  -0.638  -7.439  0.00  0.00    -0.003 A 
ATOM     40  C   LIG d   1       6.215  -1.660  -8.275  0.00  0.00    -0.052 A 
ATOM     41  C   LIG d   1       5.279  -2.478  -8.879  0.00  0.00    -0.040 A 
ATOM     42  H   LIG d   1       7.267  -1.820  -8.457  0.00  0.00     0.062 H 
ATOM     43  C   LIG d   1       3.926  -2.272  -8.646  0.00  0.00     0.029 A 
ATOM     44  H   LIG d   1       5.600  -3.276  -9.531  0.00  0.00     0.064 H 
ATOM     45  C   LIG d   1       3.517  -1.244  -7.806  0.00  0.00    -0.040 A 
ATOM     46  C   LIG d   1       4.458  -0.433  -7.200  0.00  0.00    -0.052 A 
ATOM     47  H   LIG d   1       2.466  -1.081  -7.621  0.00  0.00     0.064 H 
ATOM     48  H   LIG d   1       4.142   0.362  -6.543  0.00  0.00     0.062 H 
BRANCH  43  49
ATOM     49  N   LIG d   1       2.977  -3.096  -9.255  0.00  0.00    -0.336 N 
BRANCH  49  50
ATOM     50  C   LIG d   1       3.077  -4.552  -9.121  0.00  0.00     0.000 C 
ATOM     51  H   LIG d   1       3.750  -4.942  -9.885  0.00  0.00     0.043 H 
ATOM     52  H   LIG d   1       3.469  -4.799  -8.133  0.00  0.00     0.043 H 
ATOM     53  H   LIG d   1       2.090  -4.997  -9.241  0.00  0.00     0.043 H 
ENDBRANCH  49  50
BRANCH  49  54
ATOM     54  C   LIG d   1       1.881  -2.506 -10.028  0.00  0.00     0.000 C 
ATOM     55  H   LIG d   1       1.841  -1.433  -9.840  0.00  0.00     0.043 H 
ATOM     56  H   LIG d   1       2.050  -2.681 -11.090  0.00  0.00     0.043 H 
ATOM     57  H   LIG d   1       0.938  -2.963  -9.730  0.00  0.00     0.043 H 
ENDBRANCH  49  54
ENDBRANCH  43  49
ENDBRANCH  36  39
ENDBRANCH  33  36
ENDBRANCH  30  33
ENDBRANCH   1  30
TORSDOF 14
ENDMDL
MODEL 10
REMARK VINA RESULT:      -4.5      1.255      2.835
REMARK  14 active torsions:
REMARK  status: ('A' for Active; 'I' for Inactive)
REMARK    1  A    between atoms: C_1  and  C_2 
REMARK    2  A    between atoms: C_2  and  C_3 
REMARK    3  A    between atoms: C_2  and  C_4 
REMARK    4  A    between atoms: C_4  and  C_5 
REMARK    5  A    between atoms: C_5  and  C_6 
REMARK    6  A    between atoms: C_6  and  C_8 
REMARK    7  A    between atoms: C_6  and  C_20 
REMARK    8  A    between atoms: C_8  and  C_9 
REMARK    9  A    between atoms: C_9  and  N_55 
REMARK   10  A    between atoms: C_10  and  C_11 
REMARK   11  A    between atoms: C_10  and  N_55 
REMARK   12  A    between atoms: C_14  and  N_17 
REMARK   13  A    between atoms: N_17  and  C_18 
REMARK   14  A    between atoms: N_17  and  C_19 
ROOT
ATOM      1  C   LIG d   1       2.548   0.290  -5.981  0.00  0.00    -0.003 C 
ATOM      2  H   LIG d   1       2.102   1.225  -6.317  0.00  0.00     0.032 H 
ATOM      3  H   LIG d   1       1.853  -0.530  -6.159  0.00  0.00     0.032 H 
ENDROOT
BRANCH   1   4
ATOM      4  C   LIG d   1       3.845   0.037  -6.754  0.00  0.00     0.022 C 
ATOM      5  H   LIG d   1       4.699   0.235  -6.106  0.00  0.00     0.038 H 
BRANCH   4   6
ATOM      6  C   LIG d   1       3.885  -1.422  -7.217  0.00  0.00    -0.043 C 
ATOM      7  H   LIG d   1       3.761  -2.080  -6.358  0.00  0.00     0.027 H 
ATOM      8  H   LIG d   1       3.080  -1.598  -7.930  0.00  0.00     0.027 H 
BRANCH   6   9
ATOM      9  C   LIG d   1       5.231  -1.706  -7.888  0.00  0.00    -0.050 C 
ATOM     10  H   LIG d   1       5.778  -0.771  -8.017  0.00  0.00     0.027 H 
ATOM     11  H   LIG d   1       5.813  -2.383  -7.262  0.00  0.00     0.027 H 
BRANCH   9  12
ATOM     12  C   LIG d   1       4.993  -2.352  -9.254  0.00  0.00    -0.047 C 
ATOM     13  H   LIG d   1       5.583  -3.264  -9.332  0.00  0.00     0.029 H 
BRANCH  12  14
ATOM     14  C   LIG d   1       3.508  -2.688  -9.408  0.00  0.00    -0.063 C 
ATOM     15  H   LIG d   1       3.277  -3.583  -8.830  0.00  0.00     0.023 H 
ATOM     16  H   LIG d   1       2.908  -1.856  -9.044  0.00  0.00     0.023 H 
ATOM     17  H   LIG d   1       3.284  -2.867 -10.459  0.00  0.00     0.023 H 
ENDBRANCH  12  14
BRANCH  12  18
ATOM     18  C   LIG d   1       5.412  -1.377 -10.358  0.00  0.00    -0.063 C 
ATOM     19  H   LIG d   1       4.576  -0.724 -10.602  0.00  0.00     0.023 H 
ATOM     20  H   LIG d   1       6.254  -0.777 -10.011  0.00  0.00     0.023 H 
ATOM     21  H   LIG d   1       5.707  -1.938 -11.244  0.00  0.00     0.023 H 
ENDBRANCH  12  18
ENDBRANCH   9  12
ENDBRANCH   6   9
ENDBRANCH   4   6
BRANCH   4  22
ATOM     22  C   LIG d   1       3.901   0.947  -7.953  0.00  0.00     0.108 A 
ATOM     23  O   LIG d   1       4.953   1.695  -8.323  0.00  0.00    -0.468 OA
ATOM     24  C   LIG d   1       4.645   2.383  -9.434  0.00  0.00     0.092 A 
ATOM     25  C   LIG d   1       3.385   2.075  -9.789  0.00  0.00    -0.024 A 
ATOM     26  H   LIG d   1       5.299   3.068  -9.954  0.00  0.00     0.103 H 
ATOM     27  C   LIG d   1       2.906   1.147  -8.836  0.00  0.00    -0.020 A 
ATOM     28  H   LIG d   1       2.843   2.462 -10.639  0.00  0.00     0.065 H 
ATOM     29  H   LIG d   1       1.928   0.690  -8.818  0.00  0.00     0.065 H 
ENDBRANCH   4  22
ENDBRANCH   1   4
BRANCH   1  30
ATOM     30  C   LIG d   1       2.857   0.382  -4.485  0.00  0.00    -0.033 C 
ATOM     31  H   LIG d   1       3.935   0.466  -4.342  0.00  0.00     0.081 H 
ATOM     32  H   LIG d   1       2.365   1.259  -4.065  0.00  0.00     0.081 H 
BRANCH  30  33
ATOM     33  N   LIG d   1       2.362  -0.835  -3.814  0.00  0.00     0.230 N 
ATOM     34  H   LIG d   1       2.336  -1.608  -4.489  0.00  0.00     0.202 HD
ATOM     35  H   LIG d   1       1.416  -0.662  -3.454  0.00  0.00     0.202 HD
BRANCH  33  36
ATOM     36  C   LIG d   1       3.250  -1.198  -2.693  0.00  0.00    -0.008 C 
ATOM     37  H   LIG d   1       3.472  -0.312  -2.099  0.00  0.00     0.087 H 
ATOM     38  H   LIG d   1       2.762  -1.944  -2.065  0.00  0.00     0.087 H 
BRANCH  36  39
ATOM     39  C   LIG d   1       4.532  -1.768  -3.244  0.00  0.00    -0.003 A 
ATOM     40  C   LIG d   1       5.740  -1.170  -2.935  0.00  0.00    -0.052 A 
ATOM     41  C   LIG d   1       6.918  -1.690  -3.437  0.00  0.00    -0.040 A 
ATOM     42  H   LIG d   1       5.764  -0.296  -2.301  0.00  0.00     0.062 H 
ATOM     43  C   LIG d   1       6.887  -2.812  -4.253  0.00  0.00     0.029 A 
ATOM     44  H   LIG d   1       7.861  -1.223  -3.195  0.00  0.00     0.064 H 
ATOM     45  C   LIG d   1       5.672  -3.411  -4.562  0.00  0.00    -0.040 A 
ATOM     46  C   LIG d   1       4.498  -2.889  -4.051  0.00  0.00    -0.052 A 
ATOM     47  H   LIG d   1       5.644  -4.284  -5.196  0.00  0.00     0.064 H 
ATOM     48  H   LIG d   1       3.554  -3.356  -4.286  0.00  0.00     0.062 H 
BRANCH  43  49
ATOM     49  N   LIG d   1       8.075  -3.340  -4.764  0.00  0.00    -0.336 N 
BRANCH  49  50
ATOM     50  C   LIG d   1       8.305  -3.361  -6.210  0.00  0.00     0.000 C 
ATOM     51  H   LIG d   1       9.377  -3.371  -6.408  0.00  0.00     0.043 H 
ATOM     52  H   LIG d   1       7.849  -4.255  -6.638  0.00  0.00     0.043 H 
ATOM     53  H   LIG d   1       7.860  -2.476  -6.663  0.00  0.00     0.043 H 
ENDBRANCH  49  50
BRANCH  49  54
ATOM     54  C   LIG d   1       9.092  -3.873  -3.852  0.00  0.00     0.000 C 
ATOM     55  H   LIG d   1       8.793  -3.679  -2.822  0.00  0.00     0.043 H 
ATOM     56  H   LIG d   1       9.190  -4.947  -4.005  0.00  0.00     0.043 H 
ATOM     57  H   LIG d   1      10.047  -3.388  -4.051  0.00  0.00     0.043 H 
ENDBRANCH  49  54
ENDBRANCH  43  49
ENDBRANCH  36  39
ENDBRANCH  33  36
ENDBRANCH  30  33
ENDBRANCH   1  30
TORSDOF 14
ENDMDL
