MODEL 1
REMARK VINA RESULT:      -5.7      0.000      0.000
REMARK  8 active torsions:
REMARK  status: ('A' for Active; 'I' for Inactive)
REMARK    1  A    between atoms: C_1  and  C_2 
REMARK    2  A    between atoms: C_10  and  C_23 
REMARK    3  A    between atoms: C_15  and  C_16 
REMARK    4  A    between atoms: C_15  and  O_19 
REMARK    5  A    between atoms: C_16  and  C_18 
REMARK    6  A    between atoms: O_19  and  C_20 
REMARK    7  A    between atoms: C_20  and  C_22 
REMARK    8  A    between atoms: C_24  and  C_31 
ROOT
ATOM      1  C   LIG d   1       5.085  -5.662  -6.000  0.00  0.00    -0.050 C 
ATOM      2  C   LIG d   1       4.845  -4.636  -5.188  0.00  0.00    -0.077 C 
ATOM      3  C   LIG d   1       4.684  -3.237  -5.717  0.00  0.00    -0.015 C 
ATOM      4  H   LIG d   1       3.635  -3.088  -5.976  0.00  0.00     0.035 H 
ATOM      5  C   LIG d   1       5.518  -3.061  -6.986  0.00  0.00    -0.025 C 
ATOM      6  H   LIG d   1       6.574  -3.195  -6.753  0.00  0.00     0.032 H 
ATOM      7  C   LIG d   1       5.281  -1.648  -7.526  0.00  0.00    -0.048 C 
ATOM      8  C   LIG d   1       5.795  -0.644  -6.496  0.00  0.00    -0.043 C 
ATOM      9  C   LIG d   1       5.021  -0.768  -5.182  0.00  0.00     0.018 C 
ATOM     10  C   LIG d   1       5.062  -2.218  -4.671  0.00  0.00    -0.025 C 
ATOM     11  H   LIG d   1       4.385  -2.307  -3.822  0.00  0.00     0.031 H 
ATOM     12  C   LIG d   1       6.506  -2.395  -4.167  0.00  0.00    -0.045 C 
ATOM     13  C   LIG d   1       6.821  -1.037  -3.496  0.00  0.00    -0.005 C 
ATOM     14  C   LIG d   1       5.840  -0.001  -4.109  0.00  0.00     0.176 C 
ATOM     15  C   LIG d   1       5.081  -4.103  -8.019  0.00  0.00    -0.003 C 
ATOM     16  C   LIG d   1       5.215  -5.470  -7.444  0.00  0.00    -0.035 C 
ATOM     17  C   LIG d   1       5.462  -6.533  -8.246  0.00  0.00    -0.015 C 
ATOM     18  C   LIG d   1       5.612  -6.392  -9.635  0.00  0.00     0.156 C 
ATOM     19  O   LIG d   1       5.818  -7.374 -10.319  0.00  0.00    -0.293 OA
ATOM     20  C   LIG d   1       5.518  -5.036 -10.285  0.00  0.00     0.011 C 
ATOM     21  C   LIG d   1       5.954  -3.985  -9.270  0.00  0.00    -0.036 C 
ATOM     22  H   LIG d   1       4.762  -4.811  -4.125  0.00  0.00     0.058 H 
ATOM     23  H   LIG d   1       5.822  -1.518  -8.463  0.00  0.00     0.027 H 
ATOM     24  H   LIG d   1       4.215  -1.492  -7.690  0.00  0.00     0.027 H 
ATOM     25  H   LIG d   1       6.852  -0.830  -6.309  0.00  0.00     0.027 H 
ATOM     26  H   LIG d   1       5.673   0.366  -6.889  0.00  0.00     0.027 H 
ATOM     27  H   LIG d   1       6.563  -3.204  -3.440  0.00  0.00     0.027 H 
ATOM     28  H   LIG d   1       7.184  -2.577  -5.001  0.00  0.00     0.027 H 
ATOM     29  H   LIG d   1       6.647  -1.102  -2.422  0.00  0.00     0.031 H 
ATOM     30  H   LIG d   1       7.857  -0.757  -3.690  0.00  0.00     0.031 H 
ATOM     31  H   LIG d   1       5.546  -7.516  -7.805  0.00  0.00     0.066 H 
ATOM     32  H   LIG d   1       6.175  -5.002 -11.154  0.00  0.00     0.035 H 
ATOM     33  H   LIG d   1       4.490  -4.850 -10.595  0.00  0.00     0.035 H 
ATOM     34  H   LIG d   1       5.817  -3.001  -9.720  0.00  0.00     0.028 H 
ATOM     35  H   LIG d   1       7.002  -4.122  -9.000  0.00  0.00     0.028 H 
ENDROOT
BRANCH  14  36
ATOM     36  C   LIG d   1       4.917   0.567  -3.062  0.00  0.00     0.174 C 
ATOM     37  O   LIG d   1       4.533   1.709  -3.151  0.00  0.00    -0.293 OA
BRANCH  36  38
ATOM     38  C   LIG d   1       4.473  -0.289  -1.904  0.00  0.00    -0.002 C 
ATOM     39  H   LIG d   1       5.341  -0.573  -1.309  0.00  0.00     0.031 H 
ATOM     40  H   LIG d   1       3.775   0.272  -1.284  0.00  0.00     0.031 H 
ATOM     41  H   LIG d   1       3.983  -1.186  -2.283  0.00  0.00     0.031 H 
ENDBRANCH  36  38
ENDBRANCH  14  36
BRANCH  14  42
ATOM     42  O   LIG d   1       6.592   1.047  -4.722  0.00  0.00    -0.450 OA
BRANCH  42  43
ATOM     43  C   LIG d   1       7.844   1.241  -4.277  0.00  0.00     0.305 C 
ATOM     44  O   LIG d   1       8.040   1.944  -3.315  0.00  0.00    -0.251 OA
BRANCH  43  45
ATOM     45  C   LIG d   1       9.003   0.580  -4.976  0.00  0.00     0.033 C 
ATOM     46  H   LIG d   1       9.725   1.339  -5.280  0.00  0.00     0.034 H 
ATOM     47  H   LIG d   1       9.483  -0.126  -4.298  0.00  0.00     0.034 H 
ATOM     48  H   LIG d   1       8.643   0.049  -5.857  0.00  0.00     0.034 H 
ENDBRANCH  43  45
ENDBRANCH  42  43
ENDBRANCH  14  42
BRANCH   9  49
ATOM     49  C   LIG d   1       3.599  -0.218  -5.311  0.00  0.00    -0.055 C 
ATOM     50  H   LIG d   1       3.416   0.507  -4.519  0.00  0.00     0.024 H 
ATOM     51  H   LIG d   1       3.482   0.264  -6.281  0.00  0.00     0.024 H 
ATOM     52  H   LIG d   1       2.885  -1.037  -5.225  0.00  0.00     0.024 H 
ENDBRANCH   9  49
BRANCH  15  53
ATOM     53  C   LIG d   1       3.616  -3.871  -8.393  0.00  0.00    -0.055 C 
ATOM     54  H   LIG d   1       3.457  -2.812  -8.595  0.00  0.00     0.024 H 
ATOM     55  H   LIG d   1       3.371  -4.452  -9.282  0.00  0.00     0.024 H 
ATOM     56  H   LIG d   1       2.977  -4.183  -7.567  0.00  0.00     0.024 H 
ENDBRANCH  15  53
BRANCH   1  57
ATOM     57  C   LIG d   1       5.233  -7.045  -5.422  0.00  0.00    -0.040 C 
ATOM     58  H   LIG d   1       6.141  -7.507  -5.810  0.00  0.00     0.028 H 
ATOM     59  H   LIG d   1       5.295  -6.981  -4.336  0.00  0.00     0.028 H 
ATOM     60  H   LIG d   1       4.371  -7.650  -5.702  0.00  0.00     0.028 H 
ENDBRANCH   1  57
TORSDOF 8
ENDMDL
MODEL 2
REMARK VINA RESULT:      -5.7      3.242      4.932
REMARK  8 active torsions:
REMARK  status: ('A' for Active; 'I' for Inactive)
REMARK    1  A    between atoms: C_1  and  C_2 
REMARK    2  A    between atoms: C_10  and  C_23 
REMARK    3  A    between atoms: C_15  and  C_16 
REMARK    4  A    between atoms: C_15  and  O_19 
REMARK    5  A    between atoms: C_16  and  C_18 
REMARK    6  A    between atoms: O_19  and  C_20 
REMARK    7  A    between atoms: C_20  and  C_22 
REMARK    8  A    between atoms: C_24  and  C_31 
ROOT
ATOM      1  C   LIG d   1       7.356  -6.651  -5.103  0.00  0.00    -0.050 C 
ATOM      2  C   LIG d   1       6.745  -5.634  -5.706  0.00  0.00    -0.077 C 
ATOM      3  C   LIG d   1       7.286  -4.232  -5.623  0.00  0.00    -0.015 C 
ATOM      4  H   LIG d   1       8.000  -4.093  -6.435  0.00  0.00     0.035 H 
ATOM      5  C   LIG d   1       8.025  -4.037  -4.299  0.00  0.00    -0.025 C 
ATOM      6  H   LIG d   1       7.329  -4.161  -3.469  0.00  0.00     0.032 H 
ATOM      7  C   LIG d   1       8.610  -2.622  -4.278  0.00  0.00    -0.048 C 
ATOM      8  C   LIG d   1       7.458  -1.621  -4.313  0.00  0.00    -0.043 C 
ATOM      9  C   LIG d   1       6.651  -1.764  -5.606  0.00  0.00     0.018 C 
ATOM     10  C   LIG d   1       6.182  -3.217  -5.786  0.00  0.00    -0.025 C 
ATOM     11  H   LIG d   1       5.743  -3.321  -6.778  0.00  0.00     0.031 H 
ATOM     12  C   LIG d   1       5.067  -3.382  -4.737  0.00  0.00    -0.045 C 
ATOM     13  C   LIG d   1       4.324  -2.026  -4.787  0.00  0.00    -0.005 C 
ATOM     14  C   LIG d   1       5.320  -0.996  -5.387  0.00  0.00     0.176 C 
ATOM     15  C   LIG d   1       9.144  -5.075  -4.194  0.00  0.00    -0.003 C 
ATOM     16  C   LIG d   1       8.575  -6.445  -4.323  0.00  0.00    -0.035 C 
ATOM     17  C   LIG d   1       9.173  -7.499  -3.718  0.00  0.00    -0.015 C 
ATOM     18  C   LIG d   1      10.335  -7.346  -2.944  0.00  0.00     0.156 C 
ATOM     19  O   LIG d   1      10.847  -8.319  -2.431  0.00  0.00    -0.293 OA
ATOM     20  C   LIG d   1      10.952  -5.986  -2.746  0.00  0.00     0.011 C 
ATOM     21  C   LIG d   1       9.849  -4.937  -2.843  0.00  0.00    -0.036 C 
ATOM     22  H   LIG d   1       5.842  -5.818  -6.269  0.00  0.00     0.058 H 
ATOM     23  H   LIG d   1       9.190  -2.479  -3.367  0.00  0.00     0.027 H 
ATOM     24  H   LIG d   1       9.248  -2.477  -5.149  0.00  0.00     0.027 H 
ATOM     25  H   LIG d   1       6.803  -1.797  -3.460  0.00  0.00     0.027 H 
ATOM     26  H   LIG d   1       7.860  -0.609  -4.253  0.00  0.00     0.027 H 
ATOM     27  H   LIG d   1       4.398  -4.197  -5.012  0.00  0.00     0.027 H 
ATOM     28  H   LIG d   1       5.492  -3.550  -3.748  0.00  0.00     0.027 H 
ATOM     29  H   LIG d   1       3.453  -2.102  -5.437  0.00  0.00     0.031 H 
ATOM     30  H   LIG d   1       4.016  -1.733  -3.783  0.00  0.00     0.031 H 
ATOM     31  H   LIG d   1       8.745  -8.485  -3.834  0.00  0.00     0.066 H 
ATOM     32  H   LIG d   1      11.418  -5.937  -1.761  0.00  0.00     0.035 H 
ATOM     33  H   LIG d   1      11.702  -5.809  -3.515  0.00  0.00     0.035 H 
ATOM     34  H   LIG d   1      10.309  -3.952  -2.770  0.00  0.00     0.028 H 
ATOM     35  H   LIG d   1       9.124  -5.065  -2.037  0.00  0.00     0.028 H 
ENDROOT
BRANCH  14  36
ATOM     36  C   LIG d   1       4.818  -0.447  -6.697  0.00  0.00     0.174 C 
ATOM     37  O   LIG d   1       5.169   0.648  -7.067  0.00  0.00    -0.293 OA
BRANCH  36  38
ATOM     38  C   LIG d   1       3.877  -1.263  -7.546  0.00  0.00    -0.002 C 
ATOM     39  H   LIG d   1       3.126  -0.608  -7.988  0.00  0.00     0.031 H 
ATOM     40  H   LIG d   1       4.440  -1.758  -8.338  0.00  0.00     0.031 H 
ATOM     41  H   LIG d   1       3.387  -2.013  -6.925  0.00  0.00     0.031 H 
ENDBRANCH  36  38
ENDBRANCH  14  36
BRANCH  14  42
ATOM     42  O   LIG d   1       5.513   0.065  -4.450  0.00  0.00    -0.450 OA
BRANCH  42  43
ATOM     43  C   LIG d   1       4.496   0.337  -3.618  0.00  0.00     0.305 C 
ATOM     44  O   LIG d   1       3.546   0.972  -4.012  0.00  0.00    -0.251 OA
BRANCH  43  45
ATOM     45  C   LIG d   1       4.537  -0.150  -2.193  0.00  0.00     0.033 C 
ATOM     46  H   LIG d   1       4.261   0.665  -1.522  0.00  0.00     0.034 H 
ATOM     47  H   LIG d   1       3.836  -0.975  -2.069  0.00  0.00     0.034 H 
ATOM     48  H   LIG d   1       5.544  -0.490  -1.953  0.00  0.00     0.034 H 
ENDBRANCH  43  45
ENDBRANCH  42  43
ENDBRANCH  14  42
BRANCH   9  49
ATOM     49  C   LIG d   1       7.423  -1.229  -6.814  0.00  0.00    -0.055 C 
ATOM     50  H   LIG d   1       8.486  -1.195  -6.580  0.00  0.00     0.024 H 
ATOM     51  H   LIG d   1       7.260  -1.885  -7.668  0.00  0.00     0.024 H 
ATOM     52  H   LIG d   1       7.071  -0.226  -7.054  0.00  0.00     0.024 H 
ENDBRANCH   9  49
BRANCH  15  53
ATOM     53  C   LIG d   1      10.154  -4.857  -5.323  0.00  0.00    -0.055 C 
ATOM     54  H   LIG d   1      10.881  -5.669  -5.321  0.00  0.00     0.024 H 
ATOM     55  H   LIG d   1       9.631  -4.839  -6.279  0.00  0.00     0.024 H 
ATOM     56  H   LIG d   1      10.668  -3.908  -5.171  0.00  0.00     0.024 H 
ENDBRANCH  15  53
BRANCH   1  57
ATOM     57  C   LIG d   1       6.777  -8.036  -5.221  0.00  0.00    -0.040 C 
ATOM     58  H   LIG d   1       6.471  -8.216  -6.251  0.00  0.00     0.028 H 
ATOM     59  H   LIG d   1       7.530  -8.771  -4.933  0.00  0.00     0.028 H 
ATOM     60  H   LIG d   1       5.912  -8.126  -4.564  0.00  0.00     0.028 H 
ENDBRANCH   1  57
TORSDOF 8
ENDMDL
MODEL 3
REMARK VINA RESULT:      -5.4      3.285      7.257
REMARK  8 active torsions:
REMARK  status: ('A' for Active; 'I' for Inactive)
REMARK    1  A    between atoms: C_1  and  C_2 
REMARK    2  A    between atoms: C_10  and  C_23 
REMARK    3  A    between atoms: C_15  and  C_16 
REMARK    4  A    between atoms: C_15  and  O_19 
REMARK    5  A    between atoms: C_16  and  C_18 
REMARK    6  A    between atoms: O_19  and  C_20 
REMARK    7  A    between atoms: C_20  and  C_22 
REMARK    8  A    between atoms: C_24  and  C_31 
ROOT
ATOM      1  C   LIG d   1       7.323   0.302  -4.169  0.00  0.00    -0.050 C 
ATOM      2  C   LIG d   1       8.027  -0.534  -4.927  0.00  0.00    -0.077 C 
ATOM      3  C   LIG d   1       7.456  -1.850  -5.382  0.00  0.00    -0.015 C 
ATOM      4  H   LIG d   1       6.922  -1.685  -6.318  0.00  0.00     0.035 H 
ATOM      5  C   LIG d   1       6.459  -2.371  -4.348  0.00  0.00    -0.025 C 
ATOM      6  H   LIG d   1       6.972  -2.554  -3.403  0.00  0.00     0.032 H 
ATOM      7  C   LIG d   1       5.858  -3.677  -4.873  0.00  0.00    -0.048 C 
ATOM      8  C   LIG d   1       6.976  -4.711  -4.994  0.00  0.00    -0.043 C 
ATOM      9  C   LIG d   1       8.032  -4.255  -6.002  0.00  0.00     0.018 C 
ATOM     10  C   LIG d   1       8.553  -2.854  -5.636  0.00  0.00    -0.025 C 
ATOM     11  H   LIG d   1       9.188  -2.496  -6.445  0.00  0.00     0.031 H 
ATOM     12  C   LIG d   1       9.432  -3.097  -4.394  0.00  0.00    -0.045 C 
ATOM     13  C   LIG d   1      10.146  -4.431  -4.716  0.00  0.00    -0.005 C 
ATOM     14  C   LIG d   1       9.277  -5.155  -5.780  0.00  0.00     0.176 C 
ATOM     15  C   LIG d   1       5.360  -1.326  -4.144  0.00  0.00    -0.003 C 
ATOM     16  C   LIG d   1       5.966  -0.029  -3.736  0.00  0.00    -0.035 C 
ATOM     17  C   LIG d   1       5.275   0.842  -2.962  0.00  0.00    -0.015 C 
ATOM     18  C   LIG d   1       3.977   0.558  -2.509  0.00  0.00     0.156 C 
ATOM     19  O   LIG d   1       3.387   1.372  -1.829  0.00  0.00    -0.293 OA
ATOM     20  C   LIG d   1       3.309  -0.747  -2.857  0.00  0.00     0.011 C 
ATOM     21  C   LIG d   1       4.391  -1.803  -3.060  0.00  0.00    -0.036 C 
ATOM     22  H   LIG d   1       9.029  -0.263  -5.224  0.00  0.00     0.058 H 
ATOM     23  H   LIG d   1       5.101  -4.038  -4.177  0.00  0.00     0.027 H 
ATOM     24  H   LIG d   1       5.409  -3.507  -5.852  0.00  0.00     0.027 H 
ATOM     25  H   LIG d   1       7.445  -4.848  -4.020  0.00  0.00     0.027 H 
ATOM     26  H   LIG d   1       6.552  -5.660  -5.324  0.00  0.00     0.027 H 
ATOM     27  H   LIG d   1      10.157  -2.293  -4.274  0.00  0.00     0.027 H 
ATOM     28  H   LIG d   1       8.816  -3.197  -3.501  0.00  0.00     0.027 H 
ATOM     29  H   LIG d   1      11.134  -4.235  -5.134  0.00  0.00     0.031 H 
ATOM     30  H   LIG d   1      10.237  -5.032  -3.811  0.00  0.00     0.031 H 
ATOM     31  H   LIG d   1       5.734   1.781  -2.687  0.00  0.00     0.066 H 
ATOM     32  H   LIG d   1       2.650  -1.049  -2.043  0.00  0.00     0.035 H 
ATOM     33  H   LIG d   1       2.729  -0.628  -3.772  0.00  0.00     0.035 H 
ATOM     34  H   LIG d   1       3.909  -2.726  -3.381  0.00  0.00     0.028 H 
ATOM     35  H   LIG d   1       4.937  -1.977  -2.132  0.00  0.00     0.028 H 
ENDROOT
BRANCH  14  36
ATOM     36  C   LIG d   1      10.028  -5.328  -7.076  0.00  0.00     0.174 C 
ATOM     37  O   LIG d   1       9.753  -6.243  -7.815  0.00  0.00    -0.293 OA
BRANCH  36  38
ATOM     38  C   LIG d   1      11.122  -4.360  -7.448  0.00  0.00    -0.002 C 
ATOM     39  H   LIG d   1      11.007  -3.443  -6.871  0.00  0.00     0.031 H 
ATOM     40  H   LIG d   1      12.091  -4.808  -7.232  0.00  0.00     0.031 H 
ATOM     41  H   LIG d   1      11.056  -4.132  -8.512  0.00  0.00     0.031 H 
ENDBRANCH  36  38
ENDBRANCH  14  36
BRANCH  14  42
ATOM     42  O   LIG d   1       8.878  -6.428  -5.269  0.00  0.00    -0.450 OA
BRANCH  42  43
ATOM     43  C   LIG d   1       9.708  -7.022  -4.397  0.00  0.00     0.305 C 
ATOM     44  O   LIG d   1      10.714  -7.560  -4.793  0.00  0.00    -0.251 OA
BRANCH  43  45
ATOM     45  C   LIG d   1       9.384  -7.018  -2.926  0.00  0.00     0.033 C 
ATOM     46  H   LIG d   1      10.304  -7.127  -2.351  0.00  0.00     0.034 H 
ATOM     47  H   LIG d   1       8.900  -6.077  -2.662  0.00  0.00     0.034 H 
ATOM     48  H   LIG d   1       8.714  -7.847  -2.698  0.00  0.00     0.034 H 
ENDBRANCH  43  45
ENDBRANCH  42  43
ENDBRANCH  14  42
BRANCH   9  49
ATOM     49  C   LIG d   1       7.516  -4.344  -7.439  0.00  0.00    -0.055 C 
ATOM     50  H   LIG d   1       6.427  -4.296  -7.438  0.00  0.00     0.024 H 
ATOM     51  H   LIG d   1       7.915  -3.514  -8.021  0.00  0.00     0.024 H 
ATOM     52  H   LIG d   1       7.838  -5.286  -7.883  0.00  0.00     0.024 H 
ENDBRANCH   9  49
BRANCH  15  53
ATOM     53  C   LIG d   1       4.599  -1.119  -5.456  0.00  0.00    -0.055 C 
ATOM     54  H   LIG d   1       4.987  -0.237  -5.964  0.00  0.00     0.024 H 
ATOM     55  H   LIG d   1       4.731  -1.993  -6.093  0.00  0.00     0.024 H 
ATOM     56  H   LIG d   1       3.540  -0.980  -5.242  0.00  0.00     0.024 H 
ENDBRANCH  15  53
BRANCH   1  57
ATOM     57  C   LIG d   1       7.937   1.611  -3.744  0.00  0.00    -0.040 C 
ATOM     58  H   LIG d   1       7.214   2.414  -3.887  0.00  0.00     0.028 H 
ATOM     59  H   LIG d   1       8.217   1.557  -2.692  0.00  0.00     0.028 H 
ATOM     60  H   LIG d   1       8.823   1.809  -4.346  0.00  0.00     0.028 H 
ENDBRANCH   1  57
TORSDOF 8
ENDMDL
MODEL 4
REMARK VINA RESULT:      -5.3      3.538      7.667
REMARK  8 active torsions:
REMARK  status: ('A' for Active; 'I' for Inactive)
REMARK    1  A    between atoms: C_1  and  C_2 
REMARK    2  A    between atoms: C_10  and  C_23 
REMARK    3  A    between atoms: C_15  and  C_16 
REMARK    4  A    between atoms: C_15  and  O_19 
REMARK    5  A    between atoms: C_16  and  C_18 
REMARK    6  A    between atoms: O_19  and  C_20 
REMARK    7  A    between atoms: C_20  and  C_22 
REMARK    8  A    between atoms: C_24  and  C_31 
ROOT
ATOM      1  C   LIG d   1       9.941   3.260  -3.791  0.00  0.00    -0.050 C 
ATOM      2  C   LIG d   1       9.253   2.172  -3.455  0.00  0.00    -0.077 C 
ATOM      3  C   LIG d   1       8.685   1.248  -4.498  0.00  0.00    -0.015 C 
ATOM      4  H   LIG d   1       9.446   0.509  -4.750  0.00  0.00     0.035 H 
ATOM      5  C   LIG d   1       8.347   2.036  -5.762  0.00  0.00    -0.025 C 
ATOM      6  H   LIG d   1       7.578   2.777  -5.539  0.00  0.00     0.032 H 
ATOM      7  C   LIG d   1       7.829   1.055  -6.818  0.00  0.00    -0.048 C 
ATOM      8  C   LIG d   1       6.533   0.431  -6.305  0.00  0.00    -0.043 C 
ATOM      9  C   LIG d   1       6.782  -0.365  -5.022  0.00  0.00     0.018 C 
ATOM     10  C   LIG d   1       7.475   0.518  -3.970  0.00  0.00    -0.025 C 
ATOM     11  H   LIG d   1       7.772  -0.109  -3.130  0.00  0.00     0.031 H 
ATOM     12  C   LIG d   1       6.365   1.476  -3.498  0.00  0.00    -0.045 C 
ATOM     13  C   LIG d   1       5.109   0.574  -3.448  0.00  0.00    -0.005 C 
ATOM     14  C   LIG d   1       5.391  -0.631  -4.386  0.00  0.00     0.176 C 
ATOM     15  C   LIG d   1       9.610   2.738  -6.266  0.00  0.00    -0.003 C 
ATOM     16  C   LIG d   1      10.164   3.609  -5.193  0.00  0.00    -0.035 C 
ATOM     17  C   LIG d   1      10.867   4.725  -5.506  0.00  0.00    -0.015 C 
ATOM     18  C   LIG d   1      11.090   5.108  -6.838  0.00  0.00     0.156 C 
ATOM     19  O   LIG d   1      11.737   6.107  -7.074  0.00  0.00    -0.293 OA
ATOM     20  C   LIG d   1      10.535   4.292  -7.976  0.00  0.00     0.011 C 
ATOM     21  C   LIG d   1       9.272   3.588  -7.493  0.00  0.00    -0.036 C 
ATOM     22  H   LIG d   1       9.099   1.946  -2.409  0.00  0.00     0.058 H 
ATOM     23  H   LIG d   1       7.635   1.586  -7.749  0.00  0.00     0.027 H 
ATOM     24  H   LIG d   1       8.570   0.273  -6.986  0.00  0.00     0.027 H 
ATOM     25  H   LIG d   1       5.810   1.221  -6.103  0.00  0.00     0.027 H 
ATOM     26  H   LIG d   1       6.130  -0.237  -7.067  0.00  0.00     0.027 H 
ATOM     27  H   LIG d   1       6.594   1.871  -2.509  0.00  0.00     0.027 H 
ATOM     28  H   LIG d   1       6.227   2.286  -4.214  0.00  0.00     0.027 H 
ATOM     29  H   LIG d   1       4.953   0.207  -2.433  0.00  0.00     0.031 H 
ATOM     30  H   LIG d   1       4.235   1.133  -3.781  0.00  0.00     0.031 H 
ATOM     31  H   LIG d   1      11.266   5.335  -4.709  0.00  0.00     0.066 H 
ATOM     32  H   LIG d   1      10.292   4.949  -8.812  0.00  0.00     0.035 H 
ATOM     33  H   LIG d   1      11.274   3.556  -8.292  0.00  0.00     0.035 H 
ATOM     34  H   LIG d   1       8.914   2.943  -8.296  0.00  0.00     0.028 H 
ATOM     35  H   LIG d   1       8.501   4.315  -7.234  0.00  0.00     0.028 H 
ENDROOT
BRANCH  14  36
ATOM     36  C   LIG d   1       5.412  -1.930  -3.621  0.00  0.00     0.174 C 
ATOM     37  O   LIG d   1       5.843  -1.959  -2.493  0.00  0.00    -0.293 OA
BRANCH  36  38
ATOM     38  C   LIG d   1       4.895  -3.192  -4.264  0.00  0.00    -0.002 C 
ATOM     39  H   LIG d   1       4.045  -3.566  -3.695  0.00  0.00     0.031 H 
ATOM     40  H   LIG d   1       4.583  -2.977  -5.285  0.00  0.00     0.031 H 
ATOM     41  H   LIG d   1       5.685  -3.942  -4.275  0.00  0.00     0.031 H 
ENDBRANCH  36  38
ENDBRANCH  14  36
BRANCH  14  42
ATOM     42  O   LIG d   1       4.387  -0.676  -5.402  0.00  0.00    -0.450 OA
BRANCH  42  43
ATOM     43  C   LIG d   1       3.263   0.022  -5.179  0.00  0.00     0.305 C 
ATOM     44  O   LIG d   1       3.009   0.990  -5.856  0.00  0.00    -0.251 OA
BRANCH  43  45
ATOM     45  C   LIG d   1       2.317  -0.401  -4.085  0.00  0.00     0.033 C 
ATOM     46  H   LIG d   1       2.191   0.419  -3.376  0.00  0.00     0.034 H 
ATOM     47  H   LIG d   1       1.350  -0.657  -4.519  0.00  0.00     0.034 H 
ATOM     48  H   LIG d   1       2.724  -1.269  -3.567  0.00  0.00     0.034 H 
ENDBRANCH  43  45
ENDBRANCH  42  43
ENDBRANCH  14  42
BRANCH   9  49
ATOM     49  C   LIG d   1       7.537  -1.665  -5.303  0.00  0.00    -0.055 C 
ATOM     50  H   LIG d   1       7.683  -1.776  -6.377  0.00  0.00     0.024 H 
ATOM     51  H   LIG d   1       8.506  -1.638  -4.805  0.00  0.00     0.024 H 
ATOM     52  H   LIG d   1       6.959  -2.509  -4.926  0.00  0.00     0.024 H 
ENDBRANCH   9  49
BRANCH  15  53
ATOM     53  C   LIG d   1      10.662   1.693  -6.641  0.00  0.00    -0.055 C 
ATOM     54  H   LIG d   1      10.810   1.698  -7.721  0.00  0.00     0.024 H 
ATOM     55  H   LIG d   1      11.603   1.930  -6.144  0.00  0.00     0.024 H 
ATOM     56  H   LIG d   1      10.323   0.707  -6.325  0.00  0.00     0.024 H 
ENDBRANCH  15  53
BRANCH   1  57
ATOM     57  C   LIG d   1      10.494   4.150  -2.710  0.00  0.00    -0.040 C 
ATOM     58  H   LIG d   1      11.157   4.893  -3.154  0.00  0.00     0.028 H 
ATOM     59  H   LIG d   1       9.674   4.655  -2.199  0.00  0.00     0.028 H 
ATOM     60  H   LIG d   1      11.052   3.548  -1.993  0.00  0.00     0.028 H 
ENDBRANCH   1  57
TORSDOF 8
ENDMDL
MODEL 5
REMARK VINA RESULT:      -5.3      3.841      6.825
REMARK  8 active torsions:
REMARK  status: ('A' for Active; 'I' for Inactive)
REMARK    1  A    between atoms: C_1  and  C_2 
REMARK    2  A    between atoms: C_10  and  C_23 
REMARK    3  A    between atoms: C_15  and  C_16 
REMARK    4  A    between atoms: C_15  and  O_19 
REMARK    5  A    between atoms: C_16  and  C_18 
REMARK    6  A    between atoms: O_19  and  C_20 
REMARK    7  A    between atoms: C_20  and  C_22 
REMARK    8  A    between atoms: C_24  and  C_31 
ROOT
ATOM      1  C   LIG d   1       5.503  -0.623  -6.233  0.00  0.00    -0.050 C 
ATOM      2  C   LIG d   1       6.744  -0.383  -6.651  0.00  0.00    -0.077 C 
ATOM      3  C   LIG d   1       7.801   0.135  -5.715  0.00  0.00    -0.015 C 
ATOM      4  H   LIG d   1       8.284  -0.718  -5.240  0.00  0.00     0.035 H 
ATOM      5  C   LIG d   1       7.157   0.989  -4.624  0.00  0.00    -0.025 C 
ATOM      6  H   LIG d   1       6.675   1.858  -5.073  0.00  0.00     0.032 H 
ATOM      7  C   LIG d   1       8.256   1.448  -3.660  0.00  0.00    -0.048 C 
ATOM      8  C   LIG d   1       9.230   2.340  -4.426  0.00  0.00    -0.043 C 
ATOM      9  C   LIG d   1       9.908   1.562  -5.556  0.00  0.00     0.018 C 
ATOM     10  C   LIG d   1       8.852   0.914  -6.468  0.00  0.00    -0.025 C 
ATOM     11  H   LIG d   1       9.357   0.250  -7.168  0.00  0.00     0.031 H 
ATOM     12  C   LIG d   1       8.261   2.099  -7.254  0.00  0.00    -0.045 C 
ATOM     13  C   LIG d   1       9.493   2.988  -7.544  0.00  0.00    -0.005 C 
ATOM     14  C   LIG d   1      10.568   2.614  -6.487  0.00  0.00     0.176 C 
ATOM     15  C   LIG d   1       6.117   0.148  -3.880  0.00  0.00    -0.003 C 
ATOM     16  C   LIG d   1       5.114  -0.381  -4.844  0.00  0.00    -0.035 C 
ATOM     17  C   LIG d   1       3.843  -0.632  -4.448  0.00  0.00    -0.015 C 
ATOM     18  C   LIG d   1       3.421  -0.397  -3.130  0.00  0.00     0.156 C 
ATOM     19  O   LIG d   1       2.277  -0.650  -2.812  0.00  0.00    -0.293 OA
ATOM     20  C   LIG d   1       4.373   0.164  -2.105  0.00  0.00     0.011 C 
ATOM     21  C   LIG d   1       5.415   1.010  -2.829  0.00  0.00    -0.036 C 
ATOM     22  H   LIG d   1       6.997  -0.565  -7.685  0.00  0.00     0.058 H 
ATOM     23  H   LIG d   1       7.812   2.012  -2.840  0.00  0.00     0.027 H 
ATOM     24  H   LIG d   1       8.785   0.580  -3.268  0.00  0.00     0.027 H 
ATOM     25  H   LIG d   1       8.688   3.186  -4.847  0.00  0.00     0.027 H 
ATOM     26  H   LIG d   1       9.993   2.710  -3.739  0.00  0.00     0.027 H 
ATOM     27  H   LIG d   1       7.809   1.755  -8.184  0.00  0.00     0.027 H 
ATOM     28  H   LIG d   1       7.534   2.638  -6.648  0.00  0.00     0.027 H 
ATOM     29  H   LIG d   1       9.882   2.775  -8.539  0.00  0.00     0.031 H 
ATOM     30  H   LIG d   1       9.219   4.041  -7.467  0.00  0.00     0.031 H 
ATOM     31  H   LIG d   1       3.136  -1.024  -5.164  0.00  0.00     0.066 H 
ATOM     32  H   LIG d   1       3.823   0.785  -1.398  0.00  0.00     0.035 H 
ATOM     33  H   LIG d   1       4.860  -0.653  -1.573  0.00  0.00     0.035 H 
ATOM     34  H   LIG d   1       6.142   1.355  -2.094  0.00  0.00     0.028 H 
ATOM     35  H   LIG d   1       4.946   1.868  -3.312  0.00  0.00     0.028 H 
ENDROOT
BRANCH  14  36
ATOM     36  C   LIG d   1      11.797   2.031  -7.136  0.00  0.00     0.174 C 
ATOM     37  O   LIG d   1      12.875   2.151  -6.606  0.00  0.00    -0.293 OA
BRANCH  36  38
ATOM     38  C   LIG d   1      11.680   1.298  -8.448  0.00  0.00    -0.002 C 
ATOM     39  H   LIG d   1      11.173   0.347  -8.288  0.00  0.00     0.031 H 
ATOM     40  H   LIG d   1      11.107   1.902  -9.152  0.00  0.00     0.031 H 
ATOM     41  H   LIG d   1      12.676   1.116  -8.852  0.00  0.00     0.031 H 
ENDBRANCH  36  38
ENDBRANCH  14  36
BRANCH  14  42
ATOM     42  O   LIG d   1      10.914   3.782  -5.741  0.00  0.00    -0.450 OA
BRANCH  42  43
ATOM     43  C   LIG d   1      10.808   4.962  -6.371  0.00  0.00     0.305 C 
ATOM     44  O   LIG d   1      11.589   5.252  -7.245  0.00  0.00    -0.251 OA
BRANCH  43  45
ATOM     45  C   LIG d   1       9.714   5.925  -5.988  0.00  0.00     0.033 C 
ATOM     46  H   LIG d   1      10.062   6.568  -5.179  0.00  0.00     0.034 H 
ATOM     47  H   LIG d   1       9.450   6.537  -6.850  0.00  0.00     0.034 H 
ATOM     48  H   LIG d   1       8.838   5.368  -5.657  0.00  0.00     0.034 H 
ENDBRANCH  43  45
ENDBRANCH  42  43
ENDBRANCH  14  42
BRANCH   9  49
ATOM     49  C   LIG d   1      10.930   0.559  -5.017  0.00  0.00    -0.055 C 
ATOM     50  H   LIG d   1      11.276  -0.079  -5.829  0.00  0.00     0.024 H 
ATOM     51  H   LIG d   1      11.776   1.097  -4.590  0.00  0.00     0.024 H 
ATOM     52  H   LIG d   1      10.463  -0.054  -4.246  0.00  0.00     0.024 H 
ENDBRANCH   9  49
BRANCH  15  53
ATOM     53  C   LIG d   1       6.808  -1.033  -3.196  0.00  0.00    -0.055 C 
ATOM     54  H   LIG d   1       6.203  -1.930  -3.322  0.00  0.00     0.024 H 
ATOM     55  H   LIG d   1       7.789  -1.190  -3.644  0.00  0.00     0.024 H 
ATOM     56  H   LIG d   1       6.924  -0.819  -2.133  0.00  0.00     0.024 H 
ENDBRANCH  15  53
BRANCH   1  57
ATOM     57  C   LIG d   1       4.481  -1.147  -7.207  0.00  0.00    -0.040 C 
ATOM     58  H   LIG d   1       4.750  -0.838  -8.217  0.00  0.00     0.028 H 
ATOM     59  H   LIG d   1       4.454  -2.236  -7.156  0.00  0.00     0.028 H 
ATOM     60  H   LIG d   1       3.500  -0.747  -6.955  0.00  0.00     0.028 H 
ENDBRANCH   1  57
TORSDOF 8
ENDMDL
MODEL 6
REMARK VINA RESULT:      -5.3      8.019     10.491
REMARK  8 active torsions:
REMARK  status: ('A' for Active; 'I' for Inactive)
REMARK    1  A    between atoms: C_1  and  C_2 
REMARK    2  A    between atoms: C_10  and  C_23 
REMARK    3  A    between atoms: C_15  and  C_16 
REMARK    4  A    between atoms: C_15  and  O_19 
REMARK    5  A    between atoms: C_16  and  C_18 
REMARK    6  A    between atoms: O_19  and  C_20 
REMARK    7  A    between atoms: C_20  and  C_22 
REMARK    8  A    between atoms: C_24  and  C_31 
ROOT
ATOM      1  C   LIG d   1       8.118  -8.439  -4.028  0.00  0.00    -0.050 C 
ATOM      2  C   LIG d   1       9.338  -8.593  -3.519  0.00  0.00    -0.077 C 
ATOM      3  C   LIG d   1       9.636  -9.666  -2.507  0.00  0.00    -0.015 C 
ATOM      4  H   LIG d   1       9.905 -10.576  -3.044  0.00  0.00     0.035 H 
ATOM      5  C   LIG d   1       8.389  -9.956  -1.673  0.00  0.00    -0.025 C 
ATOM      6  H   LIG d   1       8.104  -9.062  -1.116  0.00  0.00     0.032 H 
ATOM      7  C   LIG d   1       8.715 -11.091  -0.698  0.00  0.00    -0.048 C 
ATOM      8  C   LIG d   1       9.806 -10.612   0.257  0.00  0.00    -0.043 C 
ATOM      9  C   LIG d   1      11.090 -10.280  -0.506  0.00  0.00     0.018 C 
ATOM     10  C   LIG d   1      10.799  -9.273  -1.631  0.00  0.00    -0.025 C 
ATOM     11  H   LIG d   1      11.693  -9.170  -2.245  0.00  0.00     0.031 H 
ATOM     12  C   LIG d   1      10.559  -7.944  -0.889  0.00  0.00    -0.045 C 
ATOM     13  C   LIG d   1      11.608  -7.973   0.247  0.00  0.00    -0.005 C 
ATOM     14  C   LIG d   1      11.986  -9.464   0.464  0.00  0.00     0.176 C 
ATOM     15  C   LIG d   1       7.249 -10.369  -2.606  0.00  0.00    -0.003 C 
ATOM     16  C   LIG d   1       7.012  -9.301  -3.616  0.00  0.00    -0.035 C 
ATOM     17  C   LIG d   1       5.780  -9.119  -4.150  0.00  0.00    -0.015 C 
ATOM     18  C   LIG d   1       4.686  -9.912  -3.771  0.00  0.00     0.156 C 
ATOM     19  O   LIG d   1       3.602  -9.725  -4.285  0.00  0.00    -0.293 OA
ATOM     20  C   LIG d   1       4.843 -10.993  -2.733  0.00  0.00     0.011 C 
ATOM     21  C   LIG d   1       5.973 -10.596  -1.790  0.00  0.00    -0.036 C 
ATOM     22  H   LIG d   1      10.131  -7.934  -3.839  0.00  0.00     0.058 H 
ATOM     23  H   LIG d   1       7.822 -11.354  -0.130  0.00  0.00     0.027 H 
ATOM     24  H   LIG d   1       9.070 -11.959  -1.252  0.00  0.00     0.027 H 
ATOM     25  H   LIG d   1       9.459  -9.721   0.781  0.00  0.00     0.027 H 
ATOM     26  H   LIG d   1      10.015 -11.396   0.985  0.00  0.00     0.027 H 
ATOM     27  H   LIG d   1      10.735  -7.098  -1.552  0.00  0.00     0.027 H 
ATOM     28  H   LIG d   1       9.550  -7.911  -0.479  0.00  0.00     0.027 H 
ATOM     29  H   LIG d   1      12.498  -7.419  -0.051  0.00  0.00     0.031 H 
ATOM     30  H   LIG d   1      11.186  -7.541   1.155  0.00  0.00     0.031 H 
ATOM     31  H   LIG d   1       5.637  -8.344  -4.888  0.00  0.00     0.066 H 
ATOM     32  H   LIG d   1       3.914 -11.095  -2.170  0.00  0.00     0.035 H 
ATOM     33  H   LIG d   1       5.080 -11.937  -3.221  0.00  0.00     0.035 H 
ATOM     34  H   LIG d   1       6.131 -11.412  -1.085  0.00  0.00     0.028 H 
ATOM     35  H   LIG d   1       5.719  -9.685  -1.247  0.00  0.00     0.028 H 
ENDROOT
BRANCH  14  36
ATOM     36  C   LIG d   1      13.440  -9.712   0.158  0.00  0.00     0.174 C 
ATOM     37  O   LIG d   1      14.035 -10.596   0.726  0.00  0.00    -0.293 OA
BRANCH  36  38
ATOM     38  C   LIG d   1      14.153  -8.856  -0.858  0.00  0.00    -0.002 C 
ATOM     39  H   LIG d   1      14.926  -9.445  -1.351  0.00  0.00     0.031 H 
ATOM     40  H   LIG d   1      13.437  -8.502  -1.600  0.00  0.00     0.031 H 
ATOM     41  H   LIG d   1      14.609  -8.003  -0.357  0.00  0.00     0.031 H 
ENDBRANCH  36  38
ENDBRANCH  14  36
BRANCH  14  42
ATOM     42  O   LIG d   1      11.701  -9.825   1.817  0.00  0.00    -0.450 OA
BRANCH  42  43
ATOM     43  C   LIG d   1      11.650  -8.830   2.716  0.00  0.00     0.305 C 
ATOM     44  O   LIG d   1      10.582  -8.379   3.058  0.00  0.00    -0.251 OA
BRANCH  43  45
ATOM     45  C   LIG d   1      12.923  -8.275   3.300  0.00  0.00     0.033 C 
ATOM     46  H   LIG d   1      13.780  -8.753   2.824  0.00  0.00     0.034 H 
ATOM     47  H   LIG d   1      12.965  -7.199   3.126  0.00  0.00     0.034 H 
ATOM     48  H   LIG d   1      12.948  -8.471   4.371  0.00  0.00     0.034 H 
ENDBRANCH  43  45
ENDBRANCH  42  43
ENDBRANCH  14  42
BRANCH   9  49
ATOM     49  C   LIG d   1      11.794 -11.544  -1.001  0.00  0.00    -0.055 C 
ATOM     50  H   LIG d   1      11.834 -12.277  -0.197  0.00  0.00     0.024 H 
ATOM     51  H   LIG d   1      11.244 -11.960  -1.845  0.00  0.00     0.024 H 
ATOM     52  H   LIG d   1      12.808 -11.295  -1.316  0.00  0.00     0.024 H 
ENDBRANCH   9  49
BRANCH  15  53
ATOM     53  C   LIG d   1       7.626 -11.659  -3.336  0.00  0.00    -0.055 C 
ATOM     54  H   LIG d   1       8.521 -11.489  -3.934  0.00  0.00     0.024 H 
ATOM     55  H   LIG d   1       7.820 -12.446  -2.607  0.00  0.00     0.024 H 
ATOM     56  H   LIG d   1       6.805 -11.961  -3.987  0.00  0.00     0.024 H 
ENDBRANCH  15  53
BRANCH   1  57
ATOM     57  C   LIG d   1       7.871  -7.353  -5.043  0.00  0.00    -0.040 C 
ATOM     58  H   LIG d   1       7.241  -6.581  -4.602  0.00  0.00     0.028 H 
ATOM     59  H   LIG d   1       8.822  -6.915  -5.346  0.00  0.00     0.028 H 
ATOM     60  H   LIG d   1       7.372  -7.776  -5.914  0.00  0.00     0.028 H 
ENDBRANCH   1  57
TORSDOF 8
ENDMDL
MODEL 7
REMARK VINA RESULT:      -5.2      1.670      7.306
REMARK  8 active torsions:
REMARK  status: ('A' for Active; 'I' for Inactive)
REMARK    1  A    between atoms: C_1  and  C_2 
REMARK    2  A    between atoms: C_10  and  C_23 
REMARK    3  A    between atoms: C_15  and  C_16 
REMARK    4  A    between atoms: C_15  and  O_19 
REMARK    5  A    between atoms: C_16  and  C_18 
REMARK    6  A    between atoms: O_19  and  C_20 
REMARK    7  A    between atoms: C_20  and  C_22 
REMARK    8  A    between atoms: C_24  and  C_31 
ROOT
ATOM      1  C   LIG d   1       4.441  -2.057  -3.630  0.00  0.00    -0.050 C 
ATOM      2  C   LIG d   1       4.363  -3.333  -3.998  0.00  0.00    -0.077 C 
ATOM      3  C   LIG d   1       5.509  -4.024  -4.685  0.00  0.00    -0.015 C 
ATOM      4  H   LIG d   1       6.166  -4.438  -3.920  0.00  0.00     0.035 H 
ATOM      5  C   LIG d   1       6.309  -3.013  -5.506  0.00  0.00    -0.025 C 
ATOM      6  H   LIG d   1       5.676  -2.590  -6.287  0.00  0.00     0.032 H 
ATOM      7  C   LIG d   1       7.498  -3.740  -6.140  0.00  0.00    -0.048 C 
ATOM      8  C   LIG d   1       6.962  -4.794  -7.106  0.00  0.00    -0.043 C 
ATOM      9  C   LIG d   1       6.129  -5.840  -6.363  0.00  0.00     0.018 C 
ATOM     10  C   LIG d   1       5.016  -5.158  -5.549  0.00  0.00    -0.025 C 
ATOM     11  H   LIG d   1       4.537  -5.907  -4.919  0.00  0.00     0.031 H 
ATOM     12  C   LIG d   1       4.005  -4.695  -6.615  0.00  0.00    -0.045 C 
ATOM     13  C   LIG d   1       3.996  -5.860  -7.632  0.00  0.00    -0.005 C 
ATOM     14  C   LIG d   1       5.335  -6.625  -7.442  0.00  0.00     0.176 C 
ATOM     15  C   LIG d   1       6.802  -1.897  -4.581  0.00  0.00    -0.003 C 
ATOM     16  C   LIG d   1       5.644  -1.268  -3.889  0.00  0.00    -0.035 C 
ATOM     17  C   LIG d   1       5.694   0.030  -3.504  0.00  0.00    -0.015 C 
ATOM     18  C   LIG d   1       6.821   0.830  -3.749  0.00  0.00     0.156 C 
ATOM     19  O   LIG d   1       6.830   1.985  -3.374  0.00  0.00    -0.293 OA
ATOM     20  C   LIG d   1       8.020   0.270  -4.469  0.00  0.00     0.011 C 
ATOM     21  C   LIG d   1       7.547  -0.841  -5.400  0.00  0.00    -0.036 C 
ATOM     22  H   LIG d   1       3.456  -3.887  -3.799  0.00  0.00     0.058 H 
ATOM     23  H   LIG d   1       8.117  -3.026  -6.685  0.00  0.00     0.027 H 
ATOM     24  H   LIG d   1       8.089  -4.223  -5.362  0.00  0.00     0.027 H 
ATOM     25  H   LIG d   1       6.341  -4.308  -7.859  0.00  0.00     0.027 H 
ATOM     26  H   LIG d   1       7.800  -5.288  -7.599  0.00  0.00     0.027 H 
ATOM     27  H   LIG d   1       3.017  -4.562  -6.174  0.00  0.00     0.027 H 
ATOM     28  H   LIG d   1       4.342  -3.774  -7.089  0.00  0.00     0.027 H 
ATOM     29  H   LIG d   1       3.167  -6.534  -7.420  0.00  0.00     0.031 H 
ATOM     30  H   LIG d   1       3.910  -5.469  -8.646  0.00  0.00     0.031 H 
ATOM     31  H   LIG d   1       4.844   0.461  -2.996  0.00  0.00     0.066 H 
ATOM     32  H   LIG d   1       8.496   1.059  -5.052  0.00  0.00     0.035 H 
ATOM     33  H   LIG d   1       8.729  -0.128  -3.745  0.00  0.00     0.035 H 
ATOM     34  H   LIG d   1       8.424  -1.291  -5.866  0.00  0.00     0.028 H 
ATOM     35  H   LIG d   1       6.885  -0.442  -6.171  0.00  0.00     0.028 H 
ENDROOT
BRANCH  14  36
ATOM     36  C   LIG d   1       5.098  -8.040  -6.982  0.00  0.00     0.174 C 
ATOM     37  O   LIG d   1       4.205  -8.281  -6.205  0.00  0.00    -0.293 OA
BRANCH  36  38
ATOM     38  C   LIG d   1       5.975  -9.155  -7.493  0.00  0.00    -0.002 C 
ATOM     39  H   LIG d   1       5.525 -10.115  -7.240  0.00  0.00     0.031 H 
ATOM     40  H   LIG d   1       6.072  -9.073  -8.575  0.00  0.00     0.031 H 
ATOM     41  H   LIG d   1       6.959  -9.081  -7.032  0.00  0.00     0.031 H 
ENDBRANCH  36  38
ENDBRANCH  14  36
BRANCH  14  42
ATOM     42  O   LIG d   1       6.052  -6.623  -8.678  0.00  0.00    -0.450 OA
BRANCH  42  43
ATOM     43  C   LIG d   1       5.337  -6.429  -9.797  0.00  0.00     0.305 C 
ATOM     44  O   LIG d   1       4.701  -7.340 -10.272  0.00  0.00    -0.251 OA
BRANCH  43  45
ATOM     45  C   LIG d   1       5.328  -5.077 -10.461  0.00  0.00     0.033 C 
ATOM     46  H   LIG d   1       4.669  -5.103 -11.330  0.00  0.00     0.034 H 
ATOM     47  H   LIG d   1       4.969  -4.327  -9.755  0.00  0.00     0.034 H 
ATOM     48  H   LIG d   1       6.338  -4.821 -10.781  0.00  0.00     0.034 H 
ENDBRANCH  43  45
ENDBRANCH  42  43
ENDBRANCH  14  42
BRANCH   9  49
ATOM     49  C   LIG d   1       7.007  -6.765  -5.519  0.00  0.00    -0.055 C 
ATOM     50  H   LIG d   1       8.023  -6.761  -5.913  0.00  0.00     0.024 H 
ATOM     51  H   LIG d   1       7.016  -6.416  -4.487  0.00  0.00     0.024 H 
ATOM     52  H   LIG d   1       6.607  -7.779  -5.556  0.00  0.00     0.024 H 
ENDBRANCH   9  49
BRANCH  15  53
ATOM     53  C   LIG d   1       7.742  -2.484  -3.526  0.00  0.00    -0.055 C 
ATOM     54  H   LIG d   1       7.641  -3.569  -3.514  0.00  0.00     0.024 H 
ATOM     55  H   LIG d   1       8.771  -2.218  -3.768  0.00  0.00     0.024 H 
ATOM     56  H   LIG d   1       7.483  -2.084  -2.546  0.00  0.00     0.024 H 
ENDBRANCH  15  53
BRANCH   1  57
ATOM     57  C   LIG d   1       3.267  -1.413  -2.939  0.00  0.00    -0.040 C 
ATOM     58  H   LIG d   1       3.549  -1.140  -1.923  0.00  0.00     0.028 H 
ATOM     59  H   LIG d   1       2.970  -0.518  -3.486  0.00  0.00     0.028 H 
ATOM     60  H   LIG d   1       2.433  -2.114  -2.909  0.00  0.00     0.028 H 
ENDBRANCH   1  57
TORSDOF 8
ENDMDL
MODEL 8
REMARK VINA RESULT:      -5.2      5.567      9.523
REMARK  8 active torsions:
REMARK  status: ('A' for Active; 'I' for Inactive)
REMARK    1  A    between atoms: C_1  and  C_2 
REMARK    2  A    between atoms: C_10  and  C_23 
REMARK    3  A    between atoms: C_15  and  C_16 
REMARK    4  A    between atoms: C_15  and  O_19 
REMARK    5  A    between atoms: C_16  and  C_18 
REMARK    6  A    between atoms: O_19  and  C_20 
REMARK    7  A    between atoms: C_20  and  C_22 
REMARK    8  A    between atoms: C_24  and  C_31 
ROOT
ATOM      1  C   LIG d   1       9.570   3.880  -7.037  0.00  0.00    -0.050 C 
ATOM      2  C   LIG d   1      10.340   4.772  -6.420  0.00  0.00    -0.077 C 
ATOM      3  C   LIG d   1      10.720   4.614  -4.972  0.00  0.00    -0.015 C 
ATOM      4  H   LIG d   1      11.628   4.013  -4.921  0.00  0.00     0.035 H 
ATOM      5  C   LIG d   1       9.614   3.872  -4.223  0.00  0.00    -0.025 C 
ATOM      6  H   LIG d   1       8.695   4.458  -4.250  0.00  0.00     0.032 H 
ATOM      7  C   LIG d   1      10.062   3.678  -2.771  0.00  0.00    -0.048 C 
ATOM      8  C   LIG d   1      10.214   5.053  -2.123  0.00  0.00    -0.043 C 
ATOM      9  C   LIG d   1      11.294   5.872  -2.831  0.00  0.00     0.018 C 
ATOM     10  C   LIG d   1      11.003   5.954  -4.340  0.00  0.00    -0.025 C 
ATOM     11  H   LIG d   1      11.858   6.411  -4.835  0.00  0.00     0.031 H 
ATOM     12  C   LIG d   1       9.807   6.919  -4.436  0.00  0.00    -0.045 C 
ATOM     13  C   LIG d   1      10.125   7.994  -3.370  0.00  0.00    -0.005 C 
ATOM     14  C   LIG d   1      11.115   7.342  -2.366  0.00  0.00     0.176 C 
ATOM     15  C   LIG d   1       9.381   2.515  -4.891  0.00  0.00    -0.003 C 
ATOM     16  C   LIG d   1       9.050   2.711  -6.329  0.00  0.00    -0.035 C 
ATOM     17  C   LIG d   1       8.266   1.821  -6.983  0.00  0.00    -0.015 C 
ATOM     18  C   LIG d   1       7.731   0.695  -6.339  0.00  0.00     0.156 C 
ATOM     19  O   LIG d   1       7.045  -0.087  -6.966  0.00  0.00    -0.293 OA
ATOM     20  C   LIG d   1       8.000   0.445  -4.877  0.00  0.00     0.011 C 
ATOM     21  C   LIG d   1       8.229   1.788  -4.193  0.00  0.00    -0.036 C 
ATOM     22  H   LIG d   1      10.702   5.629  -6.969  0.00  0.00     0.058 H 
ATOM     23  H   LIG d   1       9.313   3.100  -2.230  0.00  0.00     0.027 H 
ATOM     24  H   LIG d   1      11.019   3.156  -2.750  0.00  0.00     0.027 H 
ATOM     25  H   LIG d   1       9.264   5.584  -2.182  0.00  0.00     0.027 H 
ATOM     26  H   LIG d   1      10.489   4.927  -1.076  0.00  0.00     0.027 H 
ATOM     27  H   LIG d   1       9.754   7.366  -5.428  0.00  0.00     0.027 H 
ATOM     28  H   LIG d   1       8.877   6.404  -4.195  0.00  0.00     0.027 H 
ATOM     29  H   LIG d   1      10.605   8.853  -3.838  0.00  0.00     0.031 H 
ATOM     30  H   LIG d   1       9.208   8.305  -2.869  0.00  0.00     0.031 H 
ATOM     31  H   LIG d   1       8.048   1.981  -8.029  0.00  0.00     0.066 H 
ATOM     32  H   LIG d   1       7.140  -0.053  -4.428  0.00  0.00     0.035 H 
ATOM     33  H   LIG d   1       8.883  -0.183  -4.770  0.00  0.00     0.035 H 
ATOM     34  H   LIG d   1       8.493   1.599  -3.153  0.00  0.00     0.028 H 
ATOM     35  H   LIG d   1       7.329   2.402  -4.238  0.00  0.00     0.028 H 
ENDROOT
BRANCH  14  36
ATOM     36  C   LIG d   1      12.445   8.051  -2.368  0.00  0.00     0.174 C 
ATOM     37  O   LIG d   1      13.115   8.081  -1.363  0.00  0.00    -0.293 OA
BRANCH  36  38
ATOM     38  C   LIG d   1      12.939   8.724  -3.623  0.00  0.00    -0.002 C 
ATOM     39  H   LIG d   1      13.807   8.187  -4.005  0.00  0.00     0.031 H 
ATOM     40  H   LIG d   1      12.148   8.717  -4.373  0.00  0.00     0.031 H 
ATOM     41  H   LIG d   1      13.217   9.753  -3.398  0.00  0.00     0.031 H 
ENDBRANCH  36  38
ENDBRANCH  14  36
BRANCH  14  42
ATOM     42  O   LIG d   1      10.542   7.377  -1.058  0.00  0.00    -0.450 OA
BRANCH  42  43
ATOM     43  C   LIG d   1       9.566   8.273  -0.843  0.00  0.00     0.305 C 
ATOM     44  O   LIG d   1       8.409   7.932  -0.907  0.00  0.00    -0.251 OA
BRANCH  43  45
ATOM     45  C   LIG d   1       9.914   9.703  -0.520  0.00  0.00     0.033 C 
ATOM     46  H   LIG d   1      10.946   9.757  -0.175  0.00  0.00     0.034 H 
ATOM     47  H   LIG d   1       9.797  10.316  -1.414  0.00  0.00     0.034 H 
ATOM     48  H   LIG d   1       9.250  10.072   0.262  0.00  0.00     0.034 H 
ENDBRANCH  43  45
ENDBRANCH  42  43
ENDBRANCH  14  42
BRANCH   9  49
ATOM     49  C   LIG d   1      12.696   5.345  -2.520  0.00  0.00    -0.055 C 
ATOM     50  H   LIG d   1      13.355   5.542  -3.366  0.00  0.00     0.024 H 
ATOM     51  H   LIG d   1      13.084   5.845  -1.633  0.00  0.00     0.024 H 
ATOM     52  H   LIG d   1      12.648   4.271  -2.340  0.00  0.00     0.024 H 
ENDBRANCH   9  49
BRANCH  15  53
ATOM     53  C   LIG d   1      10.654   1.670  -4.793  0.00  0.00    -0.055 C 
ATOM     54  H   LIG d   1      11.242   1.794  -5.702  0.00  0.00     0.024 H 
ATOM     55  H   LIG d   1      11.240   1.996  -3.934  0.00  0.00     0.024 H 
ATOM     56  H   LIG d   1      10.384   0.621  -4.673  0.00  0.00     0.024 H 
ENDBRANCH  15  53
BRANCH   1  57
ATOM     57  C   LIG d   1       9.223   4.081  -8.489  0.00  0.00    -0.040 C 
ATOM     58  H   LIG d   1      10.005   4.665  -8.973  0.00  0.00     0.028 H 
ATOM     59  H   LIG d   1       9.138   3.111  -8.980  0.00  0.00     0.028 H 
ATOM     60  H   LIG d   1       8.274   4.611  -8.566  0.00  0.00     0.028 H 
ENDBRANCH   1  57
TORSDOF 8
ENDMDL
MODEL 9
REMARK VINA RESULT:      -5.1      2.959      8.282
REMARK  8 active torsions:
REMARK  status: ('A' for Active; 'I' for Inactive)
REMARK    1  A    between atoms: C_1  and  C_2 
REMARK    2  A    between atoms: C_10  and  C_23 
REMARK    3  A    between atoms: C_15  and  C_16 
REMARK    4  A    between atoms: C_15  and  O_19 
REMARK    5  A    between atoms: C_16  and  C_18 
REMARK    6  A    between atoms: O_19  and  C_20 
REMARK    7  A    between atoms: C_20  and  C_22 
REMARK    8  A    between atoms: C_24  and  C_31 
ROOT
ATOM      1  C   LIG d   1       8.531  -4.343  -4.395  0.00  0.00    -0.050 C 
ATOM      2  C   LIG d   1       8.468  -5.507  -5.037  0.00  0.00    -0.077 C 
ATOM      3  C   LIG d   1       7.228  -5.931  -5.775  0.00  0.00    -0.015 C 
ATOM      4  H   LIG d   1       7.286  -5.541  -6.792  0.00  0.00     0.035 H 
ATOM      5  C   LIG d   1       5.993  -5.332  -5.104  0.00  0.00    -0.025 C 
ATOM      6  H   LIG d   1       5.906  -5.715  -4.087  0.00  0.00     0.032 H 
ATOM      7  C   LIG d   1       4.759  -5.737  -5.917  0.00  0.00    -0.048 C 
ATOM      8  C   LIG d   1       4.620  -7.256  -5.863  0.00  0.00    -0.043 C 
ATOM      9  C   LIG d   1       5.833  -7.937  -6.502  0.00  0.00     0.018 C 
ATOM     10  C   LIG d   1       7.133  -7.434  -5.851  0.00  0.00    -0.025 C 
ATOM     11  H   LIG d   1       7.978  -7.819  -6.420  0.00  0.00     0.031 H 
ATOM     12  C   LIG d   1       7.135  -8.098  -4.461  0.00  0.00    -0.045 C 
ATOM     13  C   LIG d   1       6.581  -9.516  -4.740  0.00  0.00    -0.005 C 
ATOM     14  C   LIG d   1       5.785  -9.427  -6.071  0.00  0.00     0.176 C 
ATOM     15  C   LIG d   1       6.130  -3.809  -5.072  0.00  0.00    -0.003 C 
ATOM     16  C   LIG d   1       7.388  -3.431  -4.371  0.00  0.00    -0.035 C 
ATOM     17  C   LIG d   1       7.480  -2.253  -3.707  0.00  0.00    -0.015 C 
ATOM     18  C   LIG d   1       6.403  -1.356  -3.643  0.00  0.00     0.156 C 
ATOM     19  O   LIG d   1       6.532  -0.304  -3.050  0.00  0.00    -0.293 OA
ATOM     20  C   LIG d   1       5.089  -1.682  -4.304  0.00  0.00     0.011 C 
ATOM     21  C   LIG d   1       4.932  -3.199  -4.340  0.00  0.00    -0.036 C 
ATOM     22  H   LIG d   1       9.328  -6.162  -5.029  0.00  0.00     0.058 H 
ATOM     23  H   LIG d   1       3.870  -5.273  -5.489  0.00  0.00     0.027 H 
ATOM     24  H   LIG d   1       4.881  -5.416  -6.951  0.00  0.00     0.027 H 
ATOM     25  H   LIG d   1       4.537  -7.573  -4.824  0.00  0.00     0.027 H 
ATOM     26  H   LIG d   1       3.719  -7.553  -6.401  0.00  0.00     0.027 H 
ATOM     27  H   LIG d   1       8.147  -8.154  -4.063  0.00  0.00     0.027 H 
ATOM     28  H   LIG d   1       6.481  -7.559  -3.777  0.00  0.00     0.027 H 
ATOM     29  H   LIG d   1       7.403 -10.221  -4.861  0.00  0.00     0.031 H 
ATOM     30  H   LIG d   1       5.936  -9.831  -3.919  0.00  0.00     0.031 H 
ATOM     31  H   LIG d   1       8.407  -1.998  -3.214  0.00  0.00     0.066 H 
ATOM     32  H   LIG d   1       4.273  -1.243  -3.730  0.00  0.00     0.035 H 
ATOM     33  H   LIG d   1       5.080  -1.283  -5.317  0.00  0.00     0.035 H 
ATOM     34  H   LIG d   1       4.016  -3.433  -4.882  0.00  0.00     0.028 H 
ATOM     35  H   LIG d   1       4.875  -3.604  -3.330  0.00  0.00     0.028 H 
ENDROOT
BRANCH  14  36
ATOM     36  C   LIG d   1       6.403 -10.294  -7.138  0.00  0.00     0.174 C 
ATOM     37  O   LIG d   1       5.711 -10.763  -8.010  0.00  0.00    -0.293 OA
BRANCH  36  38
ATOM     38  C   LIG d   1       7.883 -10.576  -7.116  0.00  0.00    -0.002 C 
ATOM     39  H   LIG d   1       8.302 -10.391  -8.105  0.00  0.00     0.031 H 
ATOM     40  H   LIG d   1       8.366  -9.925  -6.388  0.00  0.00     0.031 H 
ATOM     41  H   LIG d   1       8.049 -11.617  -6.839  0.00  0.00     0.031 H 
ENDBRANCH  36  38
ENDBRANCH  14  36
BRANCH  14  42
ATOM     42  O   LIG d   1       4.434  -9.827  -5.834  0.00  0.00    -0.450 OA
BRANCH  42  43
ATOM     43  C   LIG d   1       4.220 -10.682  -4.822  0.00  0.00     0.305 C 
ATOM     44  O   LIG d   1       4.436 -11.861  -4.973  0.00  0.00    -0.251 OA
BRANCH  43  45
ATOM     45  C   LIG d   1       3.711 -10.173  -3.499  0.00  0.00     0.033 C 
ATOM     46  H   LIG d   1       2.631 -10.313  -3.446  0.00  0.00     0.034 H 
ATOM     47  H   LIG d   1       4.189 -10.723  -2.688  0.00  0.00     0.034 H 
ATOM     48  H   LIG d   1       3.943  -9.112  -3.403  0.00  0.00     0.034 H 
ENDBRANCH  43  45
ENDBRANCH  42  43
ENDBRANCH  14  42
BRANCH   9  49
ATOM     49  C   LIG d   1       5.828  -7.785  -8.024  0.00  0.00    -0.055 C 
ATOM     50  H   LIG d   1       5.721  -6.733  -8.284  0.00  0.00     0.024 H 
ATOM     51  H   LIG d   1       6.765  -8.166  -8.430  0.00  0.00     0.024 H 
ATOM     52  H   LIG d   1       4.995  -8.349  -8.442  0.00  0.00     0.024 H 
ENDBRANCH   9  49
BRANCH  15  53
ATOM     53  C   LIG d   1       6.186  -3.269  -6.502  0.00  0.00    -0.055 C 
ATOM     54  H   LIG d   1       5.858  -4.044  -7.195  0.00  0.00     0.024 H 
ATOM     55  H   LIG d   1       5.531  -2.402  -6.590  0.00  0.00     0.024 H 
ATOM     56  H   LIG d   1       7.209  -2.977  -6.741  0.00  0.00     0.024 H 
ENDBRANCH  15  53
BRANCH   1  57
ATOM     57  C   LIG d   1       9.797  -3.961  -3.675  0.00  0.00    -0.040 C 
ATOM     58  H   LIG d   1      10.143  -4.804  -3.076  0.00  0.00     0.028 H 
ATOM     59  H   LIG d   1      10.564  -3.695  -4.403  0.00  0.00     0.028 H 
ATOM     60  H   LIG d   1       9.603  -3.109  -3.024  0.00  0.00     0.028 H 
ENDBRANCH   1  57
TORSDOF 8
ENDMDL
