MODEL 1
REMARK VINA RESULT:      -7.3      0.000      0.000
REMARK  4 active torsions:
REMARK  status: ('A' for Active; 'I' for Inactive)
REMARK    1  A    between atoms: C_4  and  C_7 
REMARK    2  A    between atoms: C_7  and  N_41 
REMARK    3  A    between atoms: C_10  and  C_21 
REMARK    4  A    between atoms: C_12  and  C_15 
ROOT
ATOM      1  C   LIG d   1       4.811  -3.613  -6.531  0.00  0.00    -0.031 C 
ATOM      2  C   LIG d   1       3.999  -3.602  -7.828  0.00  0.00    -0.004 C 
ATOM      3  C   LIG d   1       4.142  -2.234  -8.503  0.00  0.00     0.015 C 
ATOM      4  H   LIG d   1       5.187  -2.066  -8.765  0.00  0.00     0.037 H 
ATOM      5  C   LIG d   1       3.675  -1.145  -7.535  0.00  0.00     0.032 C 
ATOM      6  H   LIG d   1       2.620  -1.292  -7.304  0.00  0.00     0.041 H 
ATOM      7  C   LIG d   1       4.496  -1.227  -6.246  0.00  0.00    -0.024 C 
ATOM      8  H   LIG d   1       5.863  -3.441  -6.759  0.00  0.00     0.082 H 
ATOM      9  H   LIG d   1       4.700  -4.580  -6.041  0.00  0.00     0.082 H 
ATOM     10  H   LIG d   1       2.949  -3.787  -7.602  0.00  0.00     0.032 H 
ATOM     11  H   LIG d   1       4.370  -4.378  -8.497  0.00  0.00     0.032 H 
ATOM     12  H   LIG d   1       4.156  -0.461  -5.548  0.00  0.00     0.082 H 
ATOM     13  H   LIG d   1       5.549  -1.066  -6.476  0.00  0.00     0.082 H 
ATOM     14  N   LIG d   1       4.295  -2.558  -5.633  0.00  0.00     0.239 N 
ATOM     15  H   LIG d   1       3.291  -2.708  -5.485  0.00  0.00     0.204 HD
ENDROOT
BRANCH  14  16
ATOM     16  C   LIG d   1       4.987  -2.622  -4.329  0.00  0.00    -0.006 C 
ATOM     17  H   LIG d   1       6.063  -2.668  -4.499  0.00  0.00     0.087 H 
ATOM     18  H   LIG d   1       4.669  -3.503  -3.770  0.00  0.00     0.087 H 
BRANCH  16  19
ATOM     19  C   LIG d   1       4.655  -1.381  -3.542  0.00  0.00    -0.003 A 
ATOM     20  C   LIG d   1       5.666  -0.540  -3.117  0.00  0.00    -0.053 A 
ATOM     21  C   LIG d   1       5.361   0.599  -2.395  0.00  0.00    -0.061 A 
ATOM     22  H   LIG d   1       6.694  -0.770  -3.353  0.00  0.00     0.062 H 
ATOM     23  C   LIG d   1       4.044   0.897  -2.098  0.00  0.00    -0.062 A 
ATOM     24  H   LIG d   1       6.151   1.256  -2.063  0.00  0.00     0.062 H 
ATOM     25  C   LIG d   1       3.032   0.055  -2.524  0.00  0.00    -0.061 A 
ATOM     26  H   LIG d   1       3.805   1.786  -1.534  0.00  0.00     0.062 H 
ATOM     27  C   LIG d   1       3.338  -1.083  -3.245  0.00  0.00    -0.053 A 
ATOM     28  H   LIG d   1       2.004   0.289  -2.291  0.00  0.00     0.062 H 
ATOM     29  H   LIG d   1       2.548  -1.740  -3.576  0.00  0.00     0.062 H 
ENDBRANCH  16  19
ENDBRANCH  14  16
BRANCH   5  30
ATOM     30  C   LIG d   1       3.867   0.209  -8.168  0.00  0.00    -0.039 A 
ATOM     31  C   LIG d   1       2.778   1.032  -8.384  0.00  0.00    -0.058 A 
ATOM     32  C   LIG d   1       2.954   2.275  -8.965  0.00  0.00    -0.061 A 
ATOM     33  H   LIG d   1       1.788   0.706  -8.098  0.00  0.00     0.062 H 
ATOM     34  C   LIG d   1       4.220   2.693  -9.331  0.00  0.00    -0.062 A 
ATOM     35  H   LIG d   1       2.103   2.917  -9.133  0.00  0.00     0.062 H 
ATOM     36  C   LIG d   1       5.309   1.869  -9.115  0.00  0.00    -0.061 A 
ATOM     37  H   LIG d   1       4.358   3.663  -9.785  0.00  0.00     0.062 H 
ATOM     38  C   LIG d   1       5.133   0.629  -8.529  0.00  0.00    -0.058 A 
ATOM     39  H   LIG d   1       6.298   2.196  -9.401  0.00  0.00     0.062 H 
ATOM     40  H   LIG d   1       5.985  -0.012  -8.357  0.00  0.00     0.062 H 
ENDBRANCH   5  30
BRANCH   3  41
ATOM     41  C   LIG d   1       3.297  -2.198  -9.750  0.00  0.00     0.046 C 
ATOM     42  O   LIG d   1       2.112  -2.422  -9.682  0.00  0.00    -0.549 OA
ATOM     43  O   LIG d   1       3.861  -1.914 -10.935  0.00  0.00    -0.549 OA
ENDBRANCH   3  41
TORSDOF 4
ENDMDL
MODEL 2
REMARK VINA RESULT:      -7.3      0.032      1.021
REMARK  4 active torsions:
REMARK  status: ('A' for Active; 'I' for Inactive)
REMARK    1  A    between atoms: C_4  and  C_7 
REMARK    2  A    between atoms: C_7  and  N_41 
REMARK    3  A    between atoms: C_10  and  C_21 
REMARK    4  A    between atoms: C_12  and  C_15 
ROOT
ATOM      1  C   LIG d   1       4.801  -3.616  -6.506  0.00  0.00    -0.031 C 
ATOM      2  C   LIG d   1       3.987  -3.606  -7.801  0.00  0.00    -0.004 C 
ATOM      3  C   LIG d   1       4.136  -2.242  -8.482  0.00  0.00     0.015 C 
ATOM      4  H   LIG d   1       5.181  -2.080  -8.747  0.00  0.00     0.037 H 
ATOM      5  C   LIG d   1       3.676  -1.147  -7.517  0.00  0.00     0.032 C 
ATOM      6  H   LIG d   1       2.621  -1.287  -7.283  0.00  0.00     0.041 H 
ATOM      7  C   LIG d   1       4.499  -1.228  -6.230  0.00  0.00    -0.024 C 
ATOM      8  H   LIG d   1       5.854  -3.451  -6.737  0.00  0.00     0.082 H 
ATOM      9  H   LIG d   1       4.686  -4.582  -6.012  0.00  0.00     0.082 H 
ATOM     10  H   LIG d   1       2.936  -3.785  -7.573  0.00  0.00     0.032 H 
ATOM     11  H   LIG d   1       4.352  -4.387  -8.468  0.00  0.00     0.032 H 
ATOM     12  H   LIG d   1       4.165  -0.458  -5.534  0.00  0.00     0.082 H 
ATOM     13  H   LIG d   1       5.553  -1.074  -6.463  0.00  0.00     0.082 H 
ATOM     14  N   LIG d   1       4.293  -2.555  -5.611  0.00  0.00     0.239 N 
ATOM     15  H   LIG d   1       3.288  -2.699  -5.460  0.00  0.00     0.204 HD
ENDROOT
BRANCH  14  16
ATOM     16  C   LIG d   1       4.987  -2.618  -4.308  0.00  0.00    -0.006 C 
ATOM     17  H   LIG d   1       6.062  -2.677  -4.480  0.00  0.00     0.087 H 
ATOM     18  H   LIG d   1       4.661  -3.491  -3.742  0.00  0.00     0.087 H 
BRANCH  16  19
ATOM     19  C   LIG d   1       4.670  -1.369  -3.529  0.00  0.00    -0.003 A 
ATOM     20  C   LIG d   1       3.360  -1.073  -3.197  0.00  0.00    -0.053 A 
ATOM     21  C   LIG d   1       3.070   0.073  -2.482  0.00  0.00    -0.061 A 
ATOM     22  H   LIG d   1       2.565  -1.741  -3.493  0.00  0.00     0.062 H 
ATOM     23  C   LIG d   1       4.089   0.925  -2.097  0.00  0.00    -0.062 A 
ATOM     24  H   LIG d   1       2.047   0.304  -2.223  0.00  0.00     0.062 H 
ATOM     25  C   LIG d   1       5.399   0.629  -2.429  0.00  0.00    -0.061 A 
ATOM     26  H   LIG d   1       3.862   1.821  -1.538  0.00  0.00     0.062 H 
ATOM     27  C   LIG d   1       5.689  -0.517  -3.145  0.00  0.00    -0.053 A 
ATOM     28  H   LIG d   1       6.194   1.295  -2.129  0.00  0.00     0.062 H 
ATOM     29  H   LIG d   1       6.711  -0.746  -3.404  0.00  0.00     0.062 H 
ENDBRANCH  16  19
ENDBRANCH  14  16
BRANCH   5  30
ATOM     30  C   LIG d   1       3.875   0.203  -8.156  0.00  0.00    -0.039 A 
ATOM     31  C   LIG d   1       2.789   1.029  -8.380  0.00  0.00    -0.058 A 
ATOM     32  C   LIG d   1       2.970   2.268  -8.965  0.00  0.00    -0.061 A 
ATOM     33  H   LIG d   1       1.797   0.707  -8.095  0.00  0.00     0.062 H 
ATOM     34  C   LIG d   1       4.238   2.681  -9.329  0.00  0.00    -0.062 A 
ATOM     35  H   LIG d   1       2.122   2.913  -9.140  0.00  0.00     0.062 H 
ATOM     36  C   LIG d   1       5.324   1.855  -9.107  0.00  0.00    -0.061 A 
ATOM     37  H   LIG d   1       4.381   3.648  -9.787  0.00  0.00     0.062 H 
ATOM     38  C   LIG d   1       5.143   0.619  -8.515  0.00  0.00    -0.058 A 
ATOM     39  H   LIG d   1       6.315   2.178  -9.390  0.00  0.00     0.062 H 
ATOM     40  H   LIG d   1       5.992  -0.025  -8.337  0.00  0.00     0.062 H 
ENDBRANCH   5  30
BRANCH   3  41
ATOM     41  C   LIG d   1       3.288  -2.206  -9.727  0.00  0.00     0.046 C 
ATOM     42  O   LIG d   1       2.101  -2.421  -9.656  0.00  0.00    -0.549 OA
ATOM     43  O   LIG d   1       3.852  -1.932 -10.915  0.00  0.00    -0.549 OA
ENDBRANCH   3  41
TORSDOF 4
ENDMDL
MODEL 3
REMARK VINA RESULT:      -6.7      1.470      1.925
REMARK  4 active torsions:
REMARK  status: ('A' for Active; 'I' for Inactive)
REMARK    1  A    between atoms: C_4  and  C_7 
REMARK    2  A    between atoms: C_7  and  N_41 
REMARK    3  A    between atoms: C_10  and  C_21 
REMARK    4  A    between atoms: C_12  and  C_15 
ROOT
ATOM      1  C   LIG d   1       7.331  -2.449  -6.567  0.00  0.00    -0.031 C 
ATOM      2  C   LIG d   1       6.551  -2.900  -7.803  0.00  0.00    -0.004 C 
ATOM      3  C   LIG d   1       5.967  -1.673  -8.509  0.00  0.00     0.015 C 
ATOM      4  H   LIG d   1       6.779  -1.027  -8.847  0.00  0.00     0.037 H 
ATOM      5  C   LIG d   1       5.078  -0.905  -7.528  0.00  0.00     0.032 C 
ATOM      6  H   LIG d   1       4.245  -1.538  -7.221  0.00  0.00     0.041 H 
ATOM      7  C   LIG d   1       5.901  -0.512  -6.300  0.00  0.00    -0.024 C 
ATOM      8  H   LIG d   1       8.150  -1.796  -6.872  0.00  0.00     0.082 H 
ATOM      9  H   LIG d   1       7.736  -3.322  -6.055  0.00  0.00     0.082 H 
ATOM     10  H   LIG d   1       5.741  -3.564  -7.501  0.00  0.00     0.032 H 
ATOM     11  H   LIG d   1       7.219  -3.428  -8.484  0.00  0.00     0.032 H 
ATOM     12  H   LIG d   1       5.266   0.023  -5.593  0.00  0.00     0.082 H 
ATOM     13  H   LIG d   1       6.725   0.132  -6.607  0.00  0.00     0.082 H 
ATOM     14  N   LIG d   1       6.413  -1.738  -5.653  0.00  0.00     0.239 N 
ATOM     15  H   LIG d   1       5.622  -2.353  -5.431  0.00  0.00     0.204 HD
ENDROOT
BRANCH  14  16
ATOM     16  C   LIG d   1       7.116  -1.392  -4.400  0.00  0.00    -0.006 C 
ATOM     17  H   LIG d   1       7.893  -0.660  -4.618  0.00  0.00     0.087 H 
ATOM     18  H   LIG d   1       7.567  -2.280  -3.956  0.00  0.00     0.087 H 
BRANCH  16  19
ATOM     19  C   LIG d   1       6.123  -0.798  -3.435  0.00  0.00    -0.003 A 
ATOM     20  C   LIG d   1       5.196  -1.611  -2.808  0.00  0.00    -0.053 A 
ATOM     21  C   LIG d   1       4.286  -1.066  -1.922  0.00  0.00    -0.061 A 
ATOM     22  H   LIG d   1       5.187  -2.672  -3.007  0.00  0.00     0.062 H 
ATOM     23  C   LIG d   1       4.302   0.292  -1.663  0.00  0.00    -0.062 A 
ATOM     24  H   LIG d   1       3.562  -1.700  -1.433  0.00  0.00     0.062 H 
ATOM     25  C   LIG d   1       5.229   1.104  -2.289  0.00  0.00    -0.061 A 
ATOM     26  H   LIG d   1       3.590   0.718  -0.971  0.00  0.00     0.062 H 
ATOM     27  C   LIG d   1       6.139   0.559  -3.175  0.00  0.00    -0.053 A 
ATOM     28  H   LIG d   1       5.240   2.165  -2.086  0.00  0.00     0.062 H 
ATOM     29  H   LIG d   1       6.862   1.194  -3.665  0.00  0.00     0.062 H 
ENDBRANCH  16  19
ENDBRANCH  14  16
BRANCH   5  30
ATOM     30  C   LIG d   1       4.546   0.337  -8.196  0.00  0.00    -0.039 A 
ATOM     31  C   LIG d   1       3.182   0.537  -8.299  0.00  0.00    -0.058 A 
ATOM     32  C   LIG d   1       2.694   1.677  -8.910  0.00  0.00    -0.061 A 
ATOM     33  H   LIG d   1       2.497  -0.197  -7.899  0.00  0.00     0.062 H 
ATOM     34  C   LIG d   1       3.570   2.616  -9.421  0.00  0.00    -0.062 A 
ATOM     35  H   LIG d   1       1.628   1.832  -8.990  0.00  0.00     0.062 H 
ATOM     36  C   LIG d   1       4.934   2.415  -9.319  0.00  0.00    -0.061 A 
ATOM     37  H   LIG d   1       3.189   3.505  -9.900  0.00  0.00     0.062 H 
ATOM     38  C   LIG d   1       5.422   1.279  -8.702  0.00  0.00    -0.058 A 
ATOM     39  H   LIG d   1       5.619   3.150  -9.718  0.00  0.00     0.062 H 
ATOM     40  H   LIG d   1       6.487   1.124  -8.618  0.00  0.00     0.062 H 
ENDBRANCH   5  30
BRANCH   3  41
ATOM     41  C   LIG d   1       5.148  -2.115  -9.693  0.00  0.00     0.046 C 
ATOM     42  O   LIG d   1       5.458  -1.766 -10.807  0.00  0.00    -0.549 OA
ATOM     43  O   LIG d   1       4.073  -2.900  -9.511  0.00  0.00    -0.549 OA
ENDBRANCH   3  41
TORSDOF 4
ENDMDL
MODEL 4
REMARK VINA RESULT:      -6.6      3.876      6.054
REMARK  4 active torsions:
REMARK  status: ('A' for Active; 'I' for Inactive)
REMARK    1  A    between atoms: C_4  and  C_7 
REMARK    2  A    between atoms: C_7  and  N_41 
REMARK    3  A    between atoms: C_10  and  C_21 
REMARK    4  A    between atoms: C_12  and  C_15 
ROOT
ATOM      1  C   LIG d   1       8.592  -2.401  -6.317  0.00  0.00    -0.031 C 
ATOM      2  C   LIG d   1       7.198  -2.124  -6.883  0.00  0.00    -0.004 C 
ATOM      3  C   LIG d   1       6.437  -1.203  -5.924  0.00  0.00     0.015 C 
ATOM      4  H   LIG d   1       6.958  -0.248  -5.846  0.00  0.00     0.037 H 
ATOM      5  C   LIG d   1       6.366  -1.862  -4.545  0.00  0.00     0.032 C 
ATOM      6  H   LIG d   1       5.811  -2.798  -4.617  0.00  0.00     0.041 H 
ATOM      7  C   LIG d   1       7.784  -2.148  -4.047  0.00  0.00    -0.024 C 
ATOM      8  H   LIG d   1       9.139  -1.463  -6.222  0.00  0.00     0.082 H 
ATOM      9  H   LIG d   1       9.131  -3.068  -6.991  0.00  0.00     0.082 H 
ATOM     10  H   LIG d   1       6.655  -3.063  -6.992  0.00  0.00     0.032 H 
ATOM     11  H   LIG d   1       7.288  -1.641  -7.856  0.00  0.00     0.032 H 
ATOM     12  H   LIG d   1       7.737  -2.630  -3.070  0.00  0.00     0.082 H 
ATOM     13  H   LIG d   1       8.334  -1.210  -3.962  0.00  0.00     0.082 H 
ATOM     14  N   LIG d   1       8.453  -3.058  -5.000  0.00  0.00     0.239 N 
ATOM     15  H   LIG d   1       7.884  -3.905  -5.108  0.00  0.00     0.204 HD
ENDROOT
BRANCH  14  16
ATOM     16  C   LIG d   1       9.784  -3.440  -4.484  0.00  0.00    -0.006 C 
ATOM     17  H   LIG d   1      10.166  -2.636  -3.855  0.00  0.00     0.087 H 
ATOM     18  H   LIG d   1      10.478  -3.617  -5.307  0.00  0.00     0.087 H 
BRANCH  16  19
ATOM     19  C   LIG d   1       9.645  -4.696  -3.665  0.00  0.00    -0.003 A 
ATOM     20  C   LIG d   1       9.244  -5.874  -4.269  0.00  0.00    -0.053 A 
ATOM     21  C   LIG d   1       9.117  -7.027  -3.517  0.00  0.00    -0.061 A 
ATOM     22  H   LIG d   1       9.036  -5.895  -5.328  0.00  0.00     0.062 H 
ATOM     23  C   LIG d   1       9.391  -7.003  -2.162  0.00  0.00    -0.062 A 
ATOM     24  H   LIG d   1       8.805  -7.948  -3.988  0.00  0.00     0.062 H 
ATOM     25  C   LIG d   1       9.792  -5.825  -1.559  0.00  0.00    -0.061 A 
ATOM     26  H   LIG d   1       9.291  -7.904  -1.575  0.00  0.00     0.062 H 
ATOM     27  C   LIG d   1       9.919  -4.672  -2.311  0.00  0.00    -0.053 A 
ATOM     28  H   LIG d   1      10.005  -5.807  -0.500  0.00  0.00     0.062 H 
ATOM     29  H   LIG d   1      10.230  -3.752  -1.839  0.00  0.00     0.062 H 
ENDBRANCH  16  19
ENDBRANCH  14  16
BRANCH   5  30
ATOM     30  C   LIG d   1       5.671  -0.938  -3.579  0.00  0.00    -0.039 A 
ATOM     31  C   LIG d   1       4.613  -1.400  -2.819  0.00  0.00    -0.058 A 
ATOM     32  C   LIG d   1       3.975  -0.552  -1.932  0.00  0.00    -0.061 A 
ATOM     33  H   LIG d   1       4.285  -2.426  -2.916  0.00  0.00     0.062 H 
ATOM     34  C   LIG d   1       4.394   0.759  -1.808  0.00  0.00    -0.062 A 
ATOM     35  H   LIG d   1       3.149  -0.915  -1.339  0.00  0.00     0.062 H 
ATOM     36  C   LIG d   1       5.451   1.222  -2.569  0.00  0.00    -0.061 A 
ATOM     37  H   LIG d   1       3.896   1.422  -1.116  0.00  0.00     0.062 H 
ATOM     38  C   LIG d   1       6.093   0.372  -3.450  0.00  0.00    -0.058 A 
ATOM     39  H   LIG d   1       5.779   2.246  -2.471  0.00  0.00     0.062 H 
ATOM     40  H   LIG d   1       6.921   0.732  -4.042  0.00  0.00     0.062 H 
ENDBRANCH   5  30
BRANCH   3  41
ATOM     41  C   LIG d   1       5.042  -0.975  -6.446  0.00  0.00     0.046 C 
ATOM     42  O   LIG d   1       4.313  -1.916  -6.653  0.00  0.00    -0.549 OA
ATOM     43  O   LIG d   1       4.609   0.274  -6.681  0.00  0.00    -0.549 OA
ENDBRANCH   3  41
TORSDOF 4
ENDMDL
MODEL 5
REMARK VINA RESULT:      -6.5      2.839      6.132
REMARK  4 active torsions:
REMARK  status: ('A' for Active; 'I' for Inactive)
REMARK    1  A    between atoms: C_4  and  C_7 
REMARK    2  A    between atoms: C_7  and  N_41 
REMARK    3  A    between atoms: C_10  and  C_21 
REMARK    4  A    between atoms: C_12  and  C_15 
ROOT
ATOM      1  C   LIG d   1       5.605  -3.013  -7.627  0.00  0.00    -0.031 C 
ATOM      2  C   LIG d   1       6.863  -2.961  -6.757  0.00  0.00    -0.004 C 
ATOM      3  C   LIG d   1       6.477  -2.540  -5.336  0.00  0.00     0.015 C 
ATOM      4  H   LIG d   1       5.807  -3.285  -4.905  0.00  0.00     0.037 H 
ATOM      5  C   LIG d   1       5.769  -1.184  -5.387  0.00  0.00     0.032 C 
ATOM      6  H   LIG d   1       6.453  -0.432  -5.782  0.00  0.00     0.041 H 
ATOM      7  C   LIG d   1       4.544  -1.287  -6.297  0.00  0.00    -0.024 C 
ATOM      8  H   LIG d   1       4.910  -3.747  -7.218  0.00  0.00     0.082 H 
ATOM      9  H   LIG d   1       5.879  -3.298  -8.643  0.00  0.00     0.082 H 
ATOM     10  H   LIG d   1       7.564  -2.237  -7.172  0.00  0.00     0.032 H 
ATOM     11  H   LIG d   1       7.330  -3.945  -6.731  0.00  0.00     0.032 H 
ATOM     12  H   LIG d   1       4.045  -0.319  -6.348  0.00  0.00     0.082 H 
ATOM     13  H   LIG d   1       3.855  -2.029  -5.894  0.00  0.00     0.082 H 
ATOM     14  N   LIG d   1       4.985  -1.671  -7.655  0.00  0.00     0.239 N 
ATOM     15  H   LIG d   1       5.679  -0.990  -7.985  0.00  0.00     0.204 HD
ENDROOT
BRANCH  14  16
ATOM     16  C   LIG d   1       3.833  -1.666  -8.581  0.00  0.00    -0.006 C 
ATOM     17  H   LIG d   1       2.940  -1.973  -8.037  0.00  0.00     0.087 H 
ATOM     18  H   LIG d   1       4.006  -2.351  -9.411  0.00  0.00     0.087 H 
BRANCH  16  19
ATOM     19  C   LIG d   1       3.644  -0.270  -9.113  0.00  0.00    -0.003 A 
ATOM     20  C   LIG d   1       2.902   0.650  -8.394  0.00  0.00    -0.053 A 
ATOM     21  C   LIG d   1       2.730   1.931  -8.883  0.00  0.00    -0.061 A 
ATOM     22  H   LIG d   1       2.463   0.369  -7.449  0.00  0.00     0.062 H 
ATOM     23  C   LIG d   1       3.297   2.294 -10.089  0.00  0.00    -0.062 A 
ATOM     24  H   LIG d   1       2.150   2.650  -8.321  0.00  0.00     0.062 H 
ATOM     25  C   LIG d   1       4.039   1.374 -10.808  0.00  0.00    -0.061 A 
ATOM     26  H   LIG d   1       3.162   3.295 -10.471  0.00  0.00     0.062 H 
ATOM     27  C   LIG d   1       4.212   0.092 -10.320  0.00  0.00    -0.053 A 
ATOM     28  H   LIG d   1       4.482   1.658 -11.751  0.00  0.00     0.062 H 
ATOM     29  H   LIG d   1       4.790  -0.626 -10.882  0.00  0.00     0.062 H 
ENDBRANCH  16  19
ENDBRANCH  14  16
BRANCH   5  30
ATOM     30  C   LIG d   1       5.334  -0.789  -4.000  0.00  0.00    -0.039 A 
ATOM     31  C   LIG d   1       4.689  -1.707  -3.190  0.00  0.00    -0.058 A 
ATOM     32  C   LIG d   1       4.290  -1.345  -1.917  0.00  0.00    -0.061 A 
ATOM     33  H   LIG d   1       4.500  -2.707  -3.552  0.00  0.00     0.062 H 
ATOM     34  C   LIG d   1       4.533  -0.066  -1.454  0.00  0.00    -0.062 A 
ATOM     35  H   LIG d   1       3.787  -2.062  -1.285  0.00  0.00     0.062 H 
ATOM     36  C   LIG d   1       5.176   0.852  -2.264  0.00  0.00    -0.061 A 
ATOM     37  H   LIG d   1       4.221   0.217  -0.460  0.00  0.00     0.062 H 
ATOM     38  C   LIG d   1       5.581   0.488  -3.535  0.00  0.00    -0.058 A 
ATOM     39  H   LIG d   1       5.367   1.851  -1.901  0.00  0.00     0.062 H 
ATOM     40  H   LIG d   1       6.088   1.203  -4.165  0.00  0.00     0.062 H 
ENDBRANCH   5  30
BRANCH   3  41
ATOM     41  C   LIG d   1       7.719  -2.429  -4.489  0.00  0.00     0.046 C 
ATOM     42  O   LIG d   1       8.536  -1.571  -4.726  0.00  0.00    -0.549 OA
ATOM     43  O   LIG d   1       7.916  -3.282  -3.471  0.00  0.00    -0.549 OA
ENDBRANCH   3  41
TORSDOF 4
ENDMDL
MODEL 6
REMARK VINA RESULT:      -6.2      5.253      7.746
REMARK  4 active torsions:
REMARK  status: ('A' for Active; 'I' for Inactive)
REMARK    1  A    between atoms: C_4  and  C_7 
REMARK    2  A    between atoms: C_7  and  N_41 
REMARK    3  A    between atoms: C_10  and  C_21 
REMARK    4  A    between atoms: C_12  and  C_15 
ROOT
ATOM      1  C   LIG d   1       8.380  -1.671  -5.940  0.00  0.00    -0.031 C 
ATOM      2  C   LIG d   1       9.861  -1.863  -5.607  0.00  0.00    -0.004 C 
ATOM      3  C   LIG d   1      10.073  -3.268  -5.036  0.00  0.00     0.015 C 
ATOM      4  H   LIG d   1       9.804  -4.011  -5.788  0.00  0.00     0.037 H 
ATOM      5  C   LIG d   1       9.189  -3.447  -3.800  0.00  0.00     0.032 C 
ATOM      6  H   LIG d   1       9.484  -2.730  -3.034  0.00  0.00     0.041 H 
ATOM      7  C   LIG d   1       7.727  -3.209  -4.185  0.00  0.00    -0.024 C 
ATOM      8  H   LIG d   1       8.077  -2.405  -6.688  0.00  0.00     0.082 H 
ATOM      9  H   LIG d   1       8.224  -0.666  -6.333  0.00  0.00     0.082 H 
ATOM     10  H   LIG d   1      10.168  -1.121  -4.870  0.00  0.00     0.032 H 
ATOM     11  H   LIG d   1      10.457  -1.744  -6.512  0.00  0.00     0.032 H 
ATOM     12  H   LIG d   1       7.095  -3.322  -3.303  0.00  0.00     0.082 H 
ATOM     13  H   LIG d   1       7.428  -3.936  -4.941  0.00  0.00     0.082 H 
ATOM     14  N   LIG d   1       7.586  -1.832  -4.704  0.00  0.00     0.239 N 
ATOM     15  H   LIG d   1       7.931  -1.173  -3.997  0.00  0.00     0.204 HD
ENDROOT
BRANCH  14  16
ATOM     16  C   LIG d   1       6.163  -1.539  -4.976  0.00  0.00    -0.006 C 
ATOM     17  H   LIG d   1       5.620  -2.478  -5.082  0.00  0.00     0.087 H 
ATOM     18  H   LIG d   1       6.061  -0.954  -5.891  0.00  0.00     0.087 H 
BRANCH  16  19
ATOM     19  C   LIG d   1       5.598  -0.760  -3.817  0.00  0.00    -0.003 A 
ATOM     20  C   LIG d   1       4.763  -1.383  -2.907  0.00  0.00    -0.053 A 
ATOM     21  C   LIG d   1       4.245  -0.668  -1.843  0.00  0.00    -0.061 A 
ATOM     22  H   LIG d   1       4.520  -2.428  -3.024  0.00  0.00     0.062 H 
ATOM     23  C   LIG d   1       4.561   0.669  -1.689  0.00  0.00    -0.062 A 
ATOM     24  H   LIG d   1       3.593  -1.154  -1.132  0.00  0.00     0.062 H 
ATOM     25  C   LIG d   1       5.396   1.291  -2.599  0.00  0.00    -0.061 A 
ATOM     26  H   LIG d   1       4.156   1.228  -0.858  0.00  0.00     0.062 H 
ATOM     27  C   LIG d   1       5.914   0.576  -3.663  0.00  0.00    -0.053 A 
ATOM     28  H   LIG d   1       5.642   2.335  -2.478  0.00  0.00     0.062 H 
ATOM     29  H   LIG d   1       6.565   1.063  -4.373  0.00  0.00     0.062 H 
ENDBRANCH  16  19
ENDBRANCH  14  16
BRANCH   5  30
ATOM     30  C   LIG d   1       9.346  -4.847  -3.266  0.00  0.00    -0.039 A 
ATOM     31  C   LIG d   1       9.016  -5.931  -4.058  0.00  0.00    -0.058 A 
ATOM     32  C   LIG d   1       9.162  -7.216  -3.569  0.00  0.00    -0.061 A 
ATOM     33  H   LIG d   1       8.646  -5.774  -5.062  0.00  0.00     0.062 H 
ATOM     34  C   LIG d   1       9.635  -7.417  -2.286  0.00  0.00    -0.062 A 
ATOM     35  H   LIG d   1       8.904  -8.062  -4.188  0.00  0.00     0.062 H 
ATOM     36  C   LIG d   1       9.964  -6.333  -1.493  0.00  0.00    -0.061 A 
ATOM     37  H   LIG d   1       9.748  -8.420  -1.903  0.00  0.00     0.062 H 
ATOM     38  C   LIG d   1       9.825  -5.049  -1.985  0.00  0.00    -0.058 A 
ATOM     39  H   LIG d   1      10.335  -6.491  -0.491  0.00  0.00     0.062 H 
ATOM     40  H   LIG d   1      10.086  -4.203  -1.367  0.00  0.00     0.062 H 
ENDBRANCH   5  30
BRANCH   3  41
ATOM     41  C   LIG d   1      11.519  -3.442  -4.651  0.00  0.00     0.046 C 
ATOM     42  O   LIG d   1      12.036  -2.669  -3.878  0.00  0.00    -0.549 OA
ATOM     43  O   LIG d   1      12.234  -4.456  -5.164  0.00  0.00    -0.549 OA
ENDBRANCH   3  41
TORSDOF 4
ENDMDL
MODEL 7
REMARK VINA RESULT:      -6.1      1.905      2.287
REMARK  4 active torsions:
REMARK  status: ('A' for Active; 'I' for Inactive)
REMARK    1  A    between atoms: C_4  and  C_7 
REMARK    2  A    between atoms: C_7  and  N_41 
REMARK    3  A    between atoms: C_10  and  C_21 
REMARK    4  A    between atoms: C_12  and  C_15 
ROOT
ATOM      1  C   LIG d   1       6.618  -3.755  -5.749  0.00  0.00    -0.031 C 
ATOM      2  C   LIG d   1       5.626  -4.586  -6.565  0.00  0.00    -0.004 C 
ATOM      3  C   LIG d   1       5.139  -3.761  -7.760  0.00  0.00     0.015 C 
ATOM      4  H   LIG d   1       5.985  -3.525  -8.408  0.00  0.00     0.037 H 
ATOM      5  C   LIG d   1       4.505  -2.465  -7.252  0.00  0.00     0.032 C 
ATOM      6  H   LIG d   1       3.637  -2.701  -6.636  0.00  0.00     0.041 H 
ATOM      7  C   LIG d   1       5.529  -1.695  -6.415  0.00  0.00    -0.024 C 
ATOM      8  H   LIG d   1       7.475  -3.497  -6.371  0.00  0.00     0.082 H 
ATOM      9  H   LIG d   1       6.955  -4.334  -4.888  0.00  0.00     0.082 H 
ATOM     10  H   LIG d   1       4.775  -4.856  -5.940  0.00  0.00     0.032 H 
ATOM     11  H   LIG d   1       6.116  -5.491  -6.923  0.00  0.00     0.032 H 
ATOM     12  H   LIG d   1       5.076  -0.777  -6.039  0.00  0.00     0.082 H 
ATOM     13  H   LIG d   1       6.391  -1.447  -7.035  0.00  0.00     0.082 H 
ATOM     14  N   LIG d   1       5.938  -2.533  -5.268  0.00  0.00     0.239 N 
ATOM     15  H   LIG d   1       5.102  -2.803  -4.738  0.00  0.00     0.204 HD
ENDROOT
BRANCH  14  16
ATOM     16  C   LIG d   1       6.841  -1.769  -4.381  0.00  0.00    -0.006 C 
ATOM     17  H   LIG d   1       7.477  -1.127  -4.990  0.00  0.00     0.087 H 
ATOM     18  H   LIG d   1       7.463  -2.445  -3.793  0.00  0.00     0.087 H 
BRANCH  16  19
ATOM     19  C   LIG d   1       6.008  -0.920  -3.456  0.00  0.00    -0.003 A 
ATOM     20  C   LIG d   1       5.074  -1.513  -2.626  0.00  0.00    -0.053 A 
ATOM     21  C   LIG d   1       4.311  -0.734  -1.777  0.00  0.00    -0.061 A 
ATOM     22  H   LIG d   1       4.945  -2.585  -2.638  0.00  0.00     0.062 H 
ATOM     23  C   LIG d   1       4.481   0.638  -1.758  0.00  0.00    -0.062 A 
ATOM     24  H   LIG d   1       3.581  -1.197  -1.129  0.00  0.00     0.062 H 
ATOM     25  C   LIG d   1       5.415   1.230  -2.588  0.00  0.00    -0.061 A 
ATOM     26  H   LIG d   1       3.884   1.247  -1.094  0.00  0.00     0.062 H 
ATOM     27  C   LIG d   1       6.178   0.451  -3.437  0.00  0.00    -0.053 A 
ATOM     28  H   LIG d   1       5.547   2.302  -2.572  0.00  0.00     0.062 H 
ATOM     29  H   LIG d   1       6.906   0.915  -4.085  0.00  0.00     0.062 H 
ENDBRANCH  16  19
ENDBRANCH  14  16
BRANCH   5  30
ATOM     30  C   LIG d   1       4.076  -1.620  -8.424  0.00  0.00    -0.039 A 
ATOM     31  C   LIG d   1       2.754  -1.238  -8.554  0.00  0.00    -0.058 A 
ATOM     32  C   LIG d   1       2.360  -0.462  -9.628  0.00  0.00    -0.061 A 
ATOM     33  H   LIG d   1       2.028  -1.545  -7.814  0.00  0.00     0.062 H 
ATOM     34  C   LIG d   1       3.289  -0.070 -10.574  0.00  0.00    -0.062 A 
ATOM     35  H   LIG d   1       1.327  -0.165  -9.729  0.00  0.00     0.062 H 
ATOM     36  C   LIG d   1       4.611  -0.452 -10.444  0.00  0.00    -0.061 A 
ATOM     37  H   LIG d   1       2.982   0.536 -11.413  0.00  0.00     0.062 H 
ATOM     38  C   LIG d   1       5.006  -1.222  -9.366  0.00  0.00    -0.058 A 
ATOM     39  H   LIG d   1       5.337  -0.144 -11.182  0.00  0.00     0.062 H 
ATOM     40  H   LIG d   1       6.039  -1.517  -9.262  0.00  0.00     0.062 H 
ENDBRANCH   5  30
BRANCH   3  41
ATOM     41  C   LIG d   1       4.117  -4.553  -8.535  0.00  0.00     0.046 C 
ATOM     42  O   LIG d   1       3.185  -5.063  -7.959  0.00  0.00    -0.549 OA
ATOM     43  O   LIG d   1       4.241  -4.690  -9.865  0.00  0.00    -0.549 OA
ENDBRANCH   3  41
TORSDOF 4
ENDMDL
MODEL 8
REMARK VINA RESULT:      -6.0      4.966      6.567
REMARK  4 active torsions:
REMARK  status: ('A' for Active; 'I' for Inactive)
REMARK    1  A    between atoms: C_4  and  C_7 
REMARK    2  A    between atoms: C_7  and  N_41 
REMARK    3  A    between atoms: C_10  and  C_21 
REMARK    4  A    between atoms: C_12  and  C_15 
ROOT
ATOM      1  C   LIG d   1       8.381  -0.334  -5.308  0.00  0.00    -0.031 C 
ATOM      2  C   LIG d   1       8.754   0.641  -6.426  0.00  0.00    -0.004 C 
ATOM      3  C   LIG d   1       9.483   1.846  -5.824  0.00  0.00     0.015 C 
ATOM      4  H   LIG d   1      10.409   1.513  -5.354  0.00  0.00     0.037 H 
ATOM      5  C   LIG d   1       8.584   2.505  -4.776  0.00  0.00     0.032 C 
ATOM      6  H   LIG d   1       7.676   2.873  -5.255  0.00  0.00     0.041 H 
ATOM      7  C   LIG d   1       8.216   1.476  -3.705  0.00  0.00    -0.024 C 
ATOM      8  H   LIG d   1       9.287  -0.683  -4.812  0.00  0.00     0.082 H 
ATOM      9  H   LIG d   1       7.849  -1.186  -5.731  0.00  0.00     0.082 H 
ATOM     10  H   LIG d   1       7.849   0.979  -6.931  0.00  0.00     0.032 H 
ATOM     11  H   LIG d   1       9.405   0.142  -7.143  0.00  0.00     0.032 H 
ATOM     12  H   LIG d   1       7.564   1.939  -2.964  0.00  0.00     0.082 H 
ATOM     13  H   LIG d   1       9.124   1.120  -3.218  0.00  0.00     0.082 H 
ATOM     14  N   LIG d   1       7.495   0.355  -4.345  0.00  0.00     0.239 N 
ATOM     15  H   LIG d   1       6.681   0.726  -4.848  0.00  0.00     0.204 HD
ENDROOT
BRANCH  14  16
ATOM     16  C   LIG d   1       7.029  -0.598  -3.317  0.00  0.00    -0.006 C 
ATOM     17  H   LIG d   1       7.558  -0.402  -2.384  0.00  0.00     0.087 H 
ATOM     18  H   LIG d   1       7.216  -1.625  -3.632  0.00  0.00     0.087 H 
BRANCH  16  19
ATOM     19  C   LIG d   1       5.551  -0.400  -3.106  0.00  0.00    -0.003 A 
ATOM     20  C   LIG d   1       5.080   0.787  -2.573  0.00  0.00    -0.053 A 
ATOM     21  C   LIG d   1       3.724   0.968  -2.381  0.00  0.00    -0.061 A 
ATOM     22  H   LIG d   1       5.773   1.573  -2.312  0.00  0.00     0.062 H 
ATOM     23  C   LIG d   1       2.837  -0.035  -2.721  0.00  0.00    -0.062 A 
ATOM     24  H   LIG d   1       3.357   1.895  -1.964  0.00  0.00     0.062 H 
ATOM     25  C   LIG d   1       3.307  -1.222  -3.255  0.00  0.00    -0.061 A 
ATOM     26  H   LIG d   1       1.776   0.106  -2.571  0.00  0.00     0.062 H 
ATOM     27  C   LIG d   1       4.663  -1.403  -3.447  0.00  0.00    -0.053 A 
ATOM     28  H   LIG d   1       2.613  -2.006  -3.520  0.00  0.00     0.062 H 
ATOM     29  H   LIG d   1       5.030  -2.330  -3.862  0.00  0.00     0.062 H 
ENDBRANCH  16  19
ENDBRANCH  14  16
BRANCH   5  30
ATOM     30  C   LIG d   1       9.316   3.656  -4.136  0.00  0.00    -0.039 A 
ATOM     31  C   LIG d   1      10.206   3.422  -3.103  0.00  0.00    -0.058 A 
ATOM     32  C   LIG d   1      10.879   4.477  -2.516  0.00  0.00    -0.061 A 
ATOM     33  H   LIG d   1      10.376   2.413  -2.756  0.00  0.00     0.062 H 
ATOM     34  C   LIG d   1      10.661   5.768  -2.961  0.00  0.00    -0.062 A 
ATOM     35  H   LIG d   1      11.573   4.293  -1.710  0.00  0.00     0.062 H 
ATOM     36  C   LIG d   1       9.771   6.003  -3.993  0.00  0.00    -0.061 A 
ATOM     37  H   LIG d   1      11.185   6.593  -2.502  0.00  0.00     0.062 H 
ATOM     38  C   LIG d   1       9.103   4.946  -4.584  0.00  0.00    -0.058 A 
ATOM     39  H   LIG d   1       9.602   7.011  -4.340  0.00  0.00     0.062 H 
ATOM     40  H   LIG d   1       8.412   5.129  -5.393  0.00  0.00     0.062 H 
ENDBRANCH   5  30
BRANCH   3  41
ATOM     41  C   LIG d   1       9.800   2.838  -6.913  0.00  0.00     0.046 C 
ATOM     42  O   LIG d   1       8.931   3.199  -7.672  0.00  0.00    -0.549 OA
ATOM     43  O   LIG d   1      11.046   3.321  -7.040  0.00  0.00    -0.549 OA
ENDBRANCH   3  41
TORSDOF 4
ENDMDL
MODEL 9
REMARK VINA RESULT:      -5.8      3.280      6.003
REMARK  4 active torsions:
REMARK  status: ('A' for Active; 'I' for Inactive)
REMARK    1  A    between atoms: C_4  and  C_7 
REMARK    2  A    between atoms: C_7  and  N_41 
REMARK    3  A    between atoms: C_10  and  C_21 
REMARK    4  A    between atoms: C_12  and  C_15 
ROOT
ATOM      1  C   LIG d   1       7.282  -3.795  -7.207  0.00  0.00    -0.031 C 
ATOM      2  C   LIG d   1       6.199  -2.814  -7.662  0.00  0.00    -0.004 C 
ATOM      3  C   LIG d   1       5.838  -1.885  -6.499  0.00  0.00     0.015 C 
ATOM      4  H   LIG d   1       6.714  -1.301  -6.214  0.00  0.00     0.037 H 
ATOM      5  C   LIG d   1       5.374  -2.727  -5.308  0.00  0.00     0.032 C 
ATOM      6  H   LIG d   1       4.475  -3.280  -5.582  0.00  0.00     0.041 H 
ATOM      7  C   LIG d   1       6.481  -3.710  -4.922  0.00  0.00    -0.024 C 
ATOM      8  H   LIG d   1       8.173  -3.241  -6.909  0.00  0.00     0.082 H 
ATOM      9  H   LIG d   1       7.531  -4.467  -8.029  0.00  0.00     0.082 H 
ATOM     10  H   LIG d   1       5.314  -3.368  -7.973  0.00  0.00     0.032 H 
ATOM     11  H   LIG d   1       6.570  -2.223  -8.498  0.00  0.00     0.032 H 
ATOM     12  H   LIG d   1       6.148  -4.322  -4.083  0.00  0.00     0.082 H 
ATOM     13  H   LIG d   1       7.375  -3.156  -4.635  0.00  0.00     0.082 H 
ATOM     14  N   LIG d   1       6.764  -4.591  -6.075  0.00  0.00     0.239 N 
ATOM     15  H   LIG d   1       5.894  -5.053  -6.363  0.00  0.00     0.204 HD
ENDROOT
BRANCH  14  16
ATOM     16  C   LIG d   1       7.749  -5.624  -5.691  0.00  0.00    -0.006 C 
ATOM     17  H   LIG d   1       8.327  -5.265  -4.840  0.00  0.00     0.087 H 
ATOM     18  H   LIG d   1       8.420  -5.841  -6.522  0.00  0.00     0.087 H 
BRANCH  16  19
ATOM     19  C   LIG d   1       7.010  -6.878  -5.303  0.00  0.00    -0.003 A 
ATOM     20  C   LIG d   1       7.666  -7.882  -4.614  0.00  0.00    -0.053 A 
ATOM     21  C   LIG d   1       6.988  -9.033  -4.258  0.00  0.00    -0.061 A 
ATOM     22  H   LIG d   1       8.706  -7.765  -4.350  0.00  0.00     0.062 H 
ATOM     23  C   LIG d   1       5.654  -9.180  -4.589  0.00  0.00    -0.062 A 
ATOM     24  H   LIG d   1       7.500  -9.817  -3.719  0.00  0.00     0.062 H 
ATOM     25  C   LIG d   1       4.998  -8.176  -5.278  0.00  0.00    -0.061 A 
ATOM     26  H   LIG d   1       5.124 -10.079  -4.311  0.00  0.00     0.062 H 
ATOM     27  C   LIG d   1       5.677  -7.025  -5.634  0.00  0.00    -0.053 A 
ATOM     28  H   LIG d   1       3.956  -8.292  -5.537  0.00  0.00     0.062 H 
ATOM     29  H   LIG d   1       5.164  -6.242  -6.173  0.00  0.00     0.062 H 
ENDBRANCH  16  19
ENDBRANCH  14  16
BRANCH   5  30
ATOM     30  C   LIG d   1       5.073  -1.824  -4.140  0.00  0.00    -0.039 A 
ATOM     31  C   LIG d   1       3.878  -1.954  -3.455  0.00  0.00    -0.058 A 
ATOM     32  C   LIG d   1       3.602  -1.127  -2.383  0.00  0.00    -0.061 A 
ATOM     33  H   LIG d   1       3.161  -2.704  -3.758  0.00  0.00     0.062 H 
ATOM     34  C   LIG d   1       4.519  -0.168  -1.995  0.00  0.00    -0.062 A 
ATOM     35  H   LIG d   1       2.669  -1.229  -1.849  0.00  0.00     0.062 H 
ATOM     36  C   LIG d   1       5.713  -0.038  -2.680  0.00  0.00    -0.061 A 
ATOM     37  H   LIG d   1       4.304   0.478  -1.158  0.00  0.00     0.062 H 
ATOM     38  C   LIG d   1       5.992  -0.869  -3.749  0.00  0.00    -0.058 A 
ATOM     39  H   LIG d   1       6.430   0.711  -2.377  0.00  0.00     0.062 H 
ATOM     40  H   LIG d   1       6.926  -0.770  -4.281  0.00  0.00     0.062 H 
ENDBRANCH   5  30
BRANCH   3  41
ATOM     41  C   LIG d   1       4.730  -0.956  -6.923  0.00  0.00     0.046 C 
ATOM     42  O   LIG d   1       3.704  -1.407  -7.375  0.00  0.00    -0.549 OA
ATOM     43  O   LIG d   1       4.882   0.372  -6.796  0.00  0.00    -0.549 OA
ENDBRANCH   3  41
TORSDOF 4
ENDMDL
MODEL 10
REMARK VINA RESULT:      -5.7      6.334      8.469
REMARK  4 active torsions:
REMARK  status: ('A' for Active; 'I' for Inactive)
REMARK    1  A    between atoms: C_4  and  C_7 
REMARK    2  A    between atoms: C_7  and  N_41 
REMARK    3  A    between atoms: C_10  and  C_21 
REMARK    4  A    between atoms: C_12  and  C_15 
ROOT
ATOM      1  C   LIG d   1       9.014   2.090  -5.832  0.00  0.00    -0.031 C 
ATOM      2  C   LIG d   1       9.094   3.587  -6.135  0.00  0.00    -0.004 C 
ATOM      3  C   LIG d   1      10.033   4.257  -5.128  0.00  0.00     0.015 C 
ATOM      4  H   LIG d   1      11.037   3.844  -5.236  0.00  0.00     0.037 H 
ATOM      5  C   LIG d   1       9.520   3.994  -3.710  0.00  0.00     0.032 C 
ATOM      6  H   LIG d   1       8.533   4.442  -3.592  0.00  0.00     0.041 H 
ATOM      7  C   LIG d   1       9.427   2.485  -3.478  0.00  0.00    -0.024 C 
ATOM      8  H   LIG d   1      10.005   1.646  -5.926  0.00  0.00     0.082 H 
ATOM      9  H   LIG d   1       8.334   1.612  -6.539  0.00  0.00     0.082 H 
ATOM     10  H   LIG d   1       8.101   4.029  -6.055  0.00  0.00     0.032 H 
ATOM     11  H   LIG d   1       9.477   3.736  -7.144  0.00  0.00     0.032 H 
ATOM     12  H   LIG d   1       9.048   2.294  -2.473  0.00  0.00     0.082 H 
ATOM     13  H   LIG d   1      10.417   2.040  -3.583  0.00  0.00     0.082 H 
ATOM     14  N   LIG d   1       8.490   1.904  -4.463  0.00  0.00     0.239 N 
ATOM     15  H   LIG d   1       7.586   2.383  -4.384  0.00  0.00     0.204 HD
ENDROOT
BRANCH  14  16
ATOM     16  C   LIG d   1       8.295   0.466  -4.187  0.00  0.00    -0.006 C 
ATOM     17  H   LIG d   1       9.081   0.123  -3.514  0.00  0.00     0.087 H 
ATOM     18  H   LIG d   1       8.331  -0.110  -5.112  0.00  0.00     0.087 H 
BRANCH  16  19
ATOM     19  C   LIG d   1       6.953   0.275  -3.530  0.00  0.00    -0.003 A 
ATOM     20  C   LIG d   1       6.495  -0.999  -3.247  0.00  0.00    -0.053 A 
ATOM     21  C   LIG d   1       5.264  -1.173  -2.644  0.00  0.00    -0.061 A 
ATOM     22  H   LIG d   1       7.102  -1.857  -3.493  0.00  0.00     0.062 H 
ATOM     23  C   LIG d   1       4.490  -0.075  -2.322  0.00  0.00    -0.062 A 
ATOM     24  H   LIG d   1       4.907  -2.169  -2.423  0.00  0.00     0.062 H 
ATOM     25  C   LIG d   1       4.947   1.200  -2.605  0.00  0.00    -0.061 A 
ATOM     26  H   LIG d   1       3.528  -0.211  -1.851  0.00  0.00     0.062 H 
ATOM     27  C   LIG d   1       6.179   1.374  -3.208  0.00  0.00    -0.053 A 
ATOM     28  H   LIG d   1       4.342   2.058  -2.354  0.00  0.00     0.062 H 
ATOM     29  H   LIG d   1       6.534   2.369  -3.430  0.00  0.00     0.062 H 
ENDBRANCH  16  19
ENDBRANCH  14  16
BRANCH   5  30
ATOM     30  C   LIG d   1      10.471   4.599  -2.710  0.00  0.00    -0.039 A 
ATOM     31  C   LIG d   1      11.816   4.283  -2.755  0.00  0.00    -0.058 A 
ATOM     32  C   LIG d   1      12.689   4.839  -1.838  0.00  0.00    -0.061 A 
ATOM     33  H   LIG d   1      12.186   3.603  -3.509  0.00  0.00     0.062 H 
ATOM     34  C   LIG d   1      12.215   5.709  -0.874  0.00  0.00    -0.062 A 
ATOM     35  H   LIG d   1      13.739   4.591  -1.874  0.00  0.00     0.062 H 
ATOM     36  C   LIG d   1      10.870   6.025  -0.828  0.00  0.00    -0.061 A 
ATOM     37  H   LIG d   1      12.896   6.143  -0.157  0.00  0.00     0.062 H 
ATOM     38  C   LIG d   1       9.999   5.474  -1.750  0.00  0.00    -0.058 A 
ATOM     39  H   LIG d   1      10.501   6.706  -0.075  0.00  0.00     0.062 H 
ATOM     40  H   LIG d   1       8.949   5.724  -1.717  0.00  0.00     0.062 H 
ENDBRANCH   5  30
BRANCH   3  41
ATOM     41  C   LIG d   1      10.069   5.741  -5.384  0.00  0.00     0.046 C 
ATOM     42  O   LIG d   1       9.102   6.421  -5.136  0.00  0.00    -0.549 OA
ATOM     43  O   LIG d   1      11.178   6.309  -5.886  0.00  0.00    -0.549 OA
ENDBRANCH   3  41
TORSDOF 4
ENDMDL
