MODEL 1
REMARK VINA RESULT:      -6.5      0.000      0.000
REMARK  2 active torsions:
REMARK  status: ('A' for Active; 'I' for Inactive)
REMARK    1  A    between atoms: C_1  and  C_2 
REMARK    2  A    between atoms: C_10  and  O_23 
ROOT
ATOM      1  C   LIG d   1       4.464  -0.841  -3.385  0.00  0.00     0.030 C 
ATOM      2  C   LIG d   1       4.557  -1.768  -4.582  0.00  0.00    -0.040 C 
ATOM      3  C   LIG d   1       5.993  -2.318  -4.618  0.00  0.00    -0.045 C 
ATOM      4  C   LIG d   1       7.026  -1.202  -4.677  0.00  0.00    -0.009 C 
ATOM      5  H   LIG d   1       8.011  -1.653  -4.561  0.00  0.00     0.035 H 
ATOM      6  C   LIG d   1       6.976  -0.510  -6.012  0.00  0.00    -0.036 A 
ATOM      7  C   LIG d   1       6.406  -1.121  -7.108  0.00  0.00    -0.054 A 
ATOM      8  C   LIG d   1       6.356  -0.459  -8.321  0.00  0.00    -0.020 A 
ATOM      9  C   LIG d   1       6.879   0.821  -8.445  0.00  0.00     0.117 A 
ATOM     10  C   LIG d   1       7.459   1.443  -7.350  0.00  0.00    -0.013 A 
ATOM     11  C   LIG d   1       7.511   0.776  -6.130  0.00  0.00    -0.018 A 
ATOM     12  C   LIG d   1       8.129   1.406  -4.942  0.00  0.00    -0.058 C 
ATOM     13  C   LIG d   1       7.812   0.962  -3.734  0.00  0.00    -0.080 C 
ATOM     14  C   LIG d   1       6.836  -0.170  -3.558  0.00  0.00    -0.012 C 
ATOM     15  H   LIG d   1       6.987  -0.637  -2.586  0.00  0.00     0.035 H 
ATOM     16  C   LIG d   1       5.414   0.357  -3.655  0.00  0.00    -0.022 C 
ATOM     17  H   LIG d   1       5.235   0.797  -4.635  0.00  0.00     0.032 H 
ATOM     18  C   LIG d   1       4.991   1.326  -2.543  0.00  0.00    -0.042 C 
ATOM     19  C   LIG d   1       3.445   1.178  -2.536  0.00  0.00     0.007 C 
ATOM     20  C   LIG d   1       3.136  -0.189  -3.136  0.00  0.00     0.140 C 
ATOM     21  O   LIG d   1       2.044  -0.653  -3.365  0.00  0.00    -0.297 OA
ATOM     22  H   LIG d   1       4.349  -1.214  -5.497  0.00  0.00     0.028 H 
ATOM     23  H   LIG d   1       3.848  -2.588  -4.475  0.00  0.00     0.028 H 
ATOM     24  H   LIG d   1       6.107  -2.954  -5.496  0.00  0.00     0.027 H 
ATOM     25  H   LIG d   1       6.166  -2.915  -3.722  0.00  0.00     0.027 H 
ATOM     26  H   LIG d   1       5.998  -2.117  -7.019  0.00  0.00     0.062 H 
ATOM     27  H   LIG d   1       5.908  -0.941  -9.178  0.00  0.00     0.065 H 
ATOM     28  H   LIG d   1       7.867   2.439  -7.444  0.00  0.00     0.066 H 
ATOM     29  H   LIG d   1       8.832   2.217  -5.059  0.00  0.00     0.062 H 
ATOM     30  H   LIG d   1       8.260   1.421  -2.864  0.00  0.00     0.058 H 
ATOM     31  H   LIG d   1       5.280   2.348  -2.791  0.00  0.00     0.027 H 
ATOM     32  H   LIG d   1       5.415   1.024  -1.585  0.00  0.00     0.027 H 
ATOM     33  H   LIG d   1       3.109   1.244  -1.596  0.00  0.00     0.034 H 
ATOM     34  H   LIG d   1       2.992   1.962  -3.140  0.00  0.00     0.034 H 
ENDROOT
BRANCH   1  35
ATOM     35  C   LIG d   1       4.914  -1.581  -2.124  0.00  0.00    -0.053 C 
ATOM     36  H   LIG d   1       5.763  -2.222  -2.362  0.00  0.00     0.024 H 
ATOM     37  H   LIG d   1       5.208  -0.858  -1.363  0.00  0.00     0.024 H 
ATOM     38  H   LIG d   1       4.092  -2.191  -1.747  0.00  0.00     0.024 H 
ENDBRANCH   1  35
BRANCH   9  39
ATOM     39  O   LIG d   1       6.823   1.465  -9.640  0.00  0.00    -0.507 OA
ATOM     40  H   LIG d   1       5.925   1.634  -9.955  0.00  0.00     0.292 HD
ENDBRANCH   9  39
TORSDOF 2
ENDMDL
MODEL 2
REMARK VINA RESULT:      -6.4      3.605      4.783
REMARK  2 active torsions:
REMARK  status: ('A' for Active; 'I' for Inactive)
REMARK    1  A    between atoms: C_1  and  C_2 
REMARK    2  A    between atoms: C_10  and  O_23 
ROOT
ATOM      1  C   LIG d   1       4.316  -1.074  -5.383  0.00  0.00     0.030 C 
ATOM      2  C   LIG d   1       4.720  -2.267  -6.228  0.00  0.00    -0.040 C 
ATOM      3  C   LIG d   1       5.486  -1.721  -7.444  0.00  0.00    -0.045 C 
ATOM      4  C   LIG d   1       4.656  -0.717  -8.232  0.00  0.00    -0.009 C 
ATOM      5  H   LIG d   1       5.301  -0.273  -8.990  0.00  0.00     0.035 H 
ATOM      6  C   LIG d   1       3.516  -1.409  -8.928  0.00  0.00    -0.036 A 
ATOM      7  C   LIG d   1       3.543  -2.768  -9.157  0.00  0.00    -0.054 A 
ATOM      8  C   LIG d   1       2.477  -3.386  -9.782  0.00  0.00    -0.020 A 
ATOM      9  C   LIG d   1       1.374  -2.645 -10.186  0.00  0.00     0.117 A 
ATOM     10  C   LIG d   1       1.338  -1.277  -9.965  0.00  0.00    -0.013 A 
ATOM     11  C   LIG d   1       2.413  -0.655  -9.337  0.00  0.00    -0.018 A 
ATOM     12  C   LIG d   1       2.413   0.804  -9.092  0.00  0.00    -0.058 C 
ATOM     13  C   LIG d   1       3.208   1.305  -8.157  0.00  0.00    -0.080 C 
ATOM     14  C   LIG d   1       4.108   0.409  -7.348  0.00  0.00    -0.012 C 
ATOM     15  H   LIG d   1       4.928   0.994  -6.931  0.00  0.00     0.035 H 
ATOM     16  C   LIG d   1       3.316  -0.233  -6.222  0.00  0.00    -0.022 C 
ATOM     17  H   LIG d   1       2.513  -0.850  -6.623  0.00  0.00     0.032 H 
ATOM     18  C   LIG d   1       2.775   0.732  -5.159  0.00  0.00    -0.042 C 
ATOM     19  C   LIG d   1       2.610  -0.189  -3.920  0.00  0.00     0.007 C 
ATOM     20  C   LIG d   1       3.559  -1.365  -4.120  0.00  0.00     0.140 C 
ATOM     21  O   LIG d   1       3.679  -2.333  -3.408  0.00  0.00    -0.297 OA
ATOM     22  H   LIG d   1       3.833  -2.805  -6.559  0.00  0.00     0.028 H 
ATOM     23  H   LIG d   1       5.364  -2.930  -5.651  0.00  0.00     0.028 H 
ATOM     24  H   LIG d   1       5.753  -2.552  -8.097  0.00  0.00     0.027 H 
ATOM     25  H   LIG d   1       6.399  -1.234  -7.099  0.00  0.00     0.027 H 
ATOM     26  H   LIG d   1       4.398  -3.351  -8.846  0.00  0.00     0.062 H 
ATOM     27  H   LIG d   1       2.501  -4.451  -9.960  0.00  0.00     0.065 H 
ATOM     28  H   LIG d   1       0.482  -0.698 -10.279  0.00  0.00     0.066 H 
ATOM     29  H   LIG d   1       1.773   1.453  -9.669  0.00  0.00     0.062 H 
ATOM     30  H   LIG d   1       3.210   2.370  -7.974  0.00  0.00     0.058 H 
ATOM     31  H   LIG d   1       1.815   1.146  -5.465  0.00  0.00     0.027 H 
ATOM     32  H   LIG d   1       3.494   1.528  -4.958  0.00  0.00     0.027 H 
ATOM     33  H   LIG d   1       2.839   0.324  -3.091  0.00  0.00     0.034 H 
ATOM     34  H   LIG d   1       1.583  -0.545  -3.854  0.00  0.00     0.034 H 
ENDROOT
BRANCH   1  35
ATOM     35  C   LIG d   1       5.550  -0.231  -5.056  0.00  0.00    -0.053 C 
ATOM     36  H   LIG d   1       5.265   0.818  -4.985  0.00  0.00     0.024 H 
ATOM     37  H   LIG d   1       5.971  -0.558  -4.105  0.00  0.00     0.024 H 
ATOM     38  H   LIG d   1       6.294  -0.354  -5.844  0.00  0.00     0.024 H 
ENDBRANCH   1  35
BRANCH   9  39
ATOM     39  O   LIG d   1       0.329  -3.261 -10.799  0.00  0.00    -0.507 OA
ATOM     40  H   LIG d   1      -0.538  -2.964 -10.491  0.00  0.00     0.292 HD
ENDBRANCH   9  39
TORSDOF 2
ENDMDL
MODEL 3
REMARK VINA RESULT:      -6.0      2.889      4.405
REMARK  2 active torsions:
REMARK  status: ('A' for Active; 'I' for Inactive)
REMARK    1  A    between atoms: C_1  and  C_2 
REMARK    2  A    between atoms: C_10  and  O_23 
ROOT
ATOM      1  C   LIG d   1       5.065  -0.446  -3.989  0.00  0.00     0.030 C 
ATOM      2  C   LIG d   1       6.267   0.002  -4.798  0.00  0.00    -0.040 C 
ATOM      3  C   LIG d   1       6.122  -0.608  -6.202  0.00  0.00    -0.045 C 
ATOM      4  C   LIG d   1       6.000  -2.124  -6.150  0.00  0.00    -0.009 C 
ATOM      5  H   LIG d   1       5.765  -2.474  -7.155  0.00  0.00     0.035 H 
ATOM      6  C   LIG d   1       7.306  -2.742  -5.728  0.00  0.00    -0.036 A 
ATOM      7  C   LIG d   1       8.490  -2.045  -5.839  0.00  0.00    -0.054 A 
ATOM      8  C   LIG d   1       9.676  -2.625  -5.429  0.00  0.00    -0.020 A 
ATOM      9  C   LIG d   1       9.684  -3.913  -4.906  0.00  0.00     0.117 A 
ATOM     10  C   LIG d   1       8.499  -4.624  -4.795  0.00  0.00    -0.013 A 
ATOM     11  C   LIG d   1       7.307  -4.040  -5.210  0.00  0.00    -0.018 A 
ATOM     12  C   LIG d   1       6.025  -4.773  -5.114  0.00  0.00    -0.058 C 
ATOM     13  C   LIG d   1       4.887  -4.092  -5.111  0.00  0.00    -0.080 C 
ATOM     14  C   LIG d   1       4.886  -2.589  -5.205  0.00  0.00    -0.012 C 
ATOM     15  H   LIG d   1       3.917  -2.246  -5.568  0.00  0.00     0.035 H 
ATOM     16  C   LIG d   1       5.161  -1.988  -3.838  0.00  0.00    -0.022 C 
ATOM     17  H   LIG d   1       6.141  -2.294  -3.476  0.00  0.00     0.032 H 
ATOM     18  C   LIG d   1       4.087  -2.249  -2.773  0.00  0.00    -0.042 C 
ATOM     19  C   LIG d   1       4.298  -1.069  -1.785  0.00  0.00     0.007 C 
ATOM     20  C   LIG d   1       4.981   0.044  -2.574  0.00  0.00     0.140 C 
ATOM     21  O   LIG d   1       5.373   1.103  -2.147  0.00  0.00    -0.297 OA
ATOM     22  H   LIG d   1       7.183  -0.356  -4.330  0.00  0.00     0.028 H 
ATOM     23  H   LIG d   1       6.285   1.089  -4.866  0.00  0.00     0.028 H 
ATOM     24  H   LIG d   1       6.996  -0.342  -6.796  0.00  0.00     0.027 H 
ATOM     25  H   LIG d   1       5.231  -0.196  -6.677  0.00  0.00     0.027 H 
ATOM     26  H   LIG d   1       8.491  -1.044  -6.245  0.00  0.00     0.062 H 
ATOM     27  H   LIG d   1      10.601  -2.077  -5.516  0.00  0.00     0.065 H 
ATOM     28  H   LIG d   1       8.503  -5.625  -4.390  0.00  0.00     0.066 H 
ATOM     29  H   LIG d   1       6.016  -5.850  -5.048  0.00  0.00     0.062 H 
ATOM     30  H   LIG d   1       3.949  -4.623  -5.039  0.00  0.00     0.058 H 
ATOM     31  H   LIG d   1       4.258  -3.204  -2.277  0.00  0.00     0.027 H 
ATOM     32  H   LIG d   1       3.090  -2.212  -3.212  0.00  0.00     0.027 H 
ATOM     33  H   LIG d   1       3.412  -0.769  -1.430  0.00  0.00     0.034 H 
ATOM     34  H   LIG d   1       4.933  -1.384  -0.959  0.00  0.00     0.034 H 
ENDROOT
BRANCH   1  35
ATOM     35  C   LIG d   1       3.779  -0.081  -4.733  0.00  0.00    -0.053 C 
ATOM     36  H   LIG d   1       3.019  -0.839  -4.540  0.00  0.00     0.024 H 
ATOM     37  H   LIG d   1       3.420   0.888  -4.385  0.00  0.00     0.024 H 
ATOM     38  H   LIG d   1       3.979  -0.031  -5.804  0.00  0.00     0.024 H 
ENDBRANCH   1  35
BRANCH   9  39
ATOM     39  O   LIG d   1      10.853  -4.475  -4.504  0.00  0.00    -0.507 OA
ATOM     40  H   LIG d   1      11.104  -4.254  -3.597  0.00  0.00     0.292 HD
ENDBRANCH   9  39
TORSDOF 2
ENDMDL
MODEL 4
REMARK VINA RESULT:      -5.9      1.439      5.408
REMARK  2 active torsions:
REMARK  status: ('A' for Active; 'I' for Inactive)
REMARK    1  A    between atoms: C_1  and  C_2 
REMARK    2  A    between atoms: C_10  and  O_23 
ROOT
ATOM      1  C   LIG d   1       7.037  -1.548  -6.870  0.00  0.00     0.030 C 
ATOM      2  C   LIG d   1       7.652  -0.520  -5.940  0.00  0.00    -0.040 C 
ATOM      3  C   LIG d   1       8.081  -1.263  -4.664  0.00  0.00    -0.045 C 
ATOM      4  C   LIG d   1       6.914  -1.995  -4.016  0.00  0.00    -0.009 C 
ATOM      5  H   LIG d   1       7.312  -2.604  -3.205  0.00  0.00     0.035 H 
ATOM      6  C   LIG d   1       5.936  -1.011  -3.432  0.00  0.00    -0.036 A 
ATOM      7  C   LIG d   1       6.314   0.285  -3.151  0.00  0.00    -0.054 A 
ATOM      8  C   LIG d   1       5.395   1.176  -2.631  0.00  0.00    -0.020 A 
ATOM      9  C   LIG d   1       4.088   0.775  -2.386  0.00  0.00     0.117 A 
ATOM     10  C   LIG d   1       3.699  -0.527  -2.660  0.00  0.00    -0.013 A 
ATOM     11  C   LIG d   1       4.625  -1.425  -3.182  0.00  0.00    -0.018 A 
ATOM     12  C   LIG d   1       4.248  -2.824  -3.479  0.00  0.00    -0.058 C 
ATOM     13  C   LIG d   1       4.979  -3.526  -4.333  0.00  0.00    -0.080 C 
ATOM     14  C   LIG d   1       6.185  -2.918  -4.999  0.00  0.00    -0.012 C 
ATOM     15  H   LIG d   1       6.853  -3.709  -5.339  0.00  0.00     0.035 H 
ATOM     16  C   LIG d   1       5.747  -2.075  -6.184  0.00  0.00    -0.022 C 
ATOM     17  H   LIG d   1       5.105  -1.259  -5.857  0.00  0.00     0.032 H 
ATOM     18  C   LIG d   1       5.092  -2.846  -7.338  0.00  0.00    -0.042 C 
ATOM     19  C   LIG d   1       5.343  -1.912  -8.553  0.00  0.00     0.007 C 
ATOM     20  C   LIG d   1       6.552  -1.052  -8.200  0.00  0.00     0.140 C 
ATOM     21  O   LIG d   1       7.023  -0.155  -8.858  0.00  0.00    -0.297 OA
ATOM     22  H   LIG d   1       6.917   0.246  -5.695  0.00  0.00     0.028 H 
ATOM     23  H   LIG d   1       8.521  -0.063  -6.413  0.00  0.00     0.028 H 
ATOM     24  H   LIG d   1       8.487  -0.543  -3.954  0.00  0.00     0.027 H 
ATOM     25  H   LIG d   1       8.856  -1.986  -4.919  0.00  0.00     0.027 H 
ATOM     26  H   LIG d   1       7.329   0.603  -3.339  0.00  0.00     0.062 H 
ATOM     27  H   LIG d   1       5.694   2.191  -2.413  0.00  0.00     0.065 H 
ATOM     28  H   LIG d   1       2.683  -0.842  -2.470  0.00  0.00     0.066 H 
ATOM     29  H   LIG d   1       3.386  -3.268  -3.005  0.00  0.00     0.062 H 
ATOM     30  H   LIG d   1       4.705  -4.548  -4.555  0.00  0.00     0.058 H 
ATOM     31  H   LIG d   1       4.024  -2.973  -7.161  0.00  0.00     0.027 H 
ATOM     32  H   LIG d   1       5.579  -3.811  -7.484  0.00  0.00     0.027 H 
ATOM     33  H   LIG d   1       5.519  -2.466  -9.368  0.00  0.00     0.034 H 
ATOM     34  H   LIG d   1       4.472  -1.281  -8.724  0.00  0.00     0.034 H 
ENDROOT
BRANCH   1  35
ATOM     35  C   LIG d   1       8.016  -2.703  -7.082  0.00  0.00    -0.053 C 
ATOM     36  H   LIG d   1       8.217  -3.190  -6.128  0.00  0.00     0.024 H 
ATOM     37  H   LIG d   1       7.582  -3.426  -7.773  0.00  0.00     0.024 H 
ATOM     38  H   LIG d   1       8.948  -2.319  -7.498  0.00  0.00     0.024 H 
ENDBRANCH   1  35
BRANCH   9  39
ATOM     39  O   LIG d   1       3.190   1.658  -1.877  0.00  0.00    -0.507 OA
ATOM     40  H   LIG d   1       3.462   2.055  -1.038  0.00  0.00     0.292 HD
ENDBRANCH   9  39
TORSDOF 2
ENDMDL
MODEL 5
REMARK VINA RESULT:      -5.9      2.781      4.446
REMARK  2 active torsions:
REMARK  status: ('A' for Active; 'I' for Inactive)
REMARK    1  A    between atoms: C_1  and  C_2 
REMARK    2  A    between atoms: C_10  and  O_23 
ROOT
ATOM      1  C   LIG d   1       5.262  -0.811  -3.562  0.00  0.00     0.030 C 
ATOM      2  C   LIG d   1       6.251  -1.957  -3.485  0.00  0.00    -0.040 C 
ATOM      3  C   LIG d   1       7.132  -1.881  -4.743  0.00  0.00    -0.045 C 
ATOM      4  C   LIG d   1       6.303  -1.926  -6.018  0.00  0.00    -0.009 C 
ATOM      5  H   LIG d   1       6.971  -1.730  -6.857  0.00  0.00     0.035 H 
ATOM      6  C   LIG d   1       5.699  -3.291  -6.204  0.00  0.00    -0.036 A 
ATOM      7  C   LIG d   1       6.217  -4.391  -5.556  0.00  0.00    -0.054 A 
ATOM      8  C   LIG d   1       5.635  -5.633  -5.727  0.00  0.00    -0.020 A 
ATOM      9  C   LIG d   1       4.527  -5.782  -6.552  0.00  0.00     0.117 A 
ATOM     10  C   LIG d   1       4.001  -4.683  -7.213  0.00  0.00    -0.013 A 
ATOM     11  C   LIG d   1       4.589  -3.433  -7.041  0.00  0.00    -0.018 A 
ATOM     12  C   LIG d   1       4.059  -2.239  -7.736  0.00  0.00    -0.058 C 
ATOM     13  C   LIG d   1       4.341  -1.034  -7.262  0.00  0.00    -0.080 C 
ATOM     14  C   LIG d   1       5.193  -0.868  -6.032  0.00  0.00    -0.012 C 
ATOM     15  H   LIG d   1       5.626   0.132  -6.017  0.00  0.00     0.035 H 
ATOM     16  C   LIG d   1       4.346  -1.075  -4.788  0.00  0.00    -0.022 C 
ATOM     17  H   LIG d   1       3.933  -2.083  -4.770  0.00  0.00     0.032 H 
ATOM     18  C   LIG d   1       3.240  -0.036  -4.561  0.00  0.00    -0.042 C 
ATOM     19  C   LIG d   1       3.011  -0.116  -3.027  0.00  0.00     0.007 C 
ATOM     20  C   LIG d   1       4.296  -0.673  -2.423  0.00  0.00     0.140 C 
ATOM     21  O   LIG d   1       4.495  -0.946  -1.264  0.00  0.00    -0.297 OA
ATOM     22  H   LIG d   1       5.718  -2.907  -3.463  0.00  0.00     0.028 H 
ATOM     23  H   LIG d   1       6.868  -1.856  -2.593  0.00  0.00     0.028 H 
ATOM     24  H   LIG d   1       7.827  -2.720  -4.741  0.00  0.00     0.027 H 
ATOM     25  H   LIG d   1       7.701  -0.950  -4.721  0.00  0.00     0.027 H 
ATOM     26  H   LIG d   1       7.078  -4.283  -4.914  0.00  0.00     0.062 H 
ATOM     27  H   LIG d   1       6.043  -6.493  -5.218  0.00  0.00     0.065 H 
ATOM     28  H   LIG d   1       3.140  -4.796  -7.855  0.00  0.00     0.066 H 
ATOM     29  H   LIG d   1       3.449  -2.349  -8.620  0.00  0.00     0.062 H 
ATOM     30  H   LIG d   1       3.955  -0.159  -7.765  0.00  0.00     0.058 H 
ATOM     31  H   LIG d   1       2.335  -0.310  -5.102  0.00  0.00     0.027 H 
ATOM     32  H   LIG d   1       3.579   0.959  -4.851  0.00  0.00     0.027 H 
ATOM     33  H   LIG d   1       2.811   0.798  -2.672  0.00  0.00     0.034 H 
ATOM     34  H   LIG d   1       2.177  -0.782  -2.809  0.00  0.00     0.034 H 
ENDROOT
BRANCH   1  35
ATOM     35  C   LIG d   1       6.014   0.507  -3.756  0.00  0.00    -0.053 C 
ATOM     36  H   LIG d   1       6.203   0.964  -2.785  0.00  0.00     0.024 H 
ATOM     37  H   LIG d   1       6.963   0.314  -4.257  0.00  0.00     0.024 H 
ATOM     38  H   LIG d   1       5.413   1.183  -4.365  0.00  0.00     0.024 H 
ENDBRANCH   1  35
BRANCH   9  39
ATOM     39  O   LIG d   1       3.960  -7.006  -6.714  0.00  0.00    -0.507 OA
ATOM     40  H   LIG d   1       3.557  -7.142  -7.582  0.00  0.00     0.292 HD
ENDBRANCH   9  39
TORSDOF 2
ENDMDL
MODEL 6
REMARK VINA RESULT:      -5.7      3.436      6.236
REMARK  2 active torsions:
REMARK  status: ('A' for Active; 'I' for Inactive)
REMARK    1  A    between atoms: C_1  and  C_2 
REMARK    2  A    between atoms: C_10  and  O_23 
ROOT
ATOM      1  C   LIG d   1       2.716  -1.660  -9.718  0.00  0.00     0.030 C 
ATOM      2  C   LIG d   1       1.936  -0.540  -9.058  0.00  0.00    -0.040 C 
ATOM      3  C   LIG d   1       2.903   0.643  -8.881  0.00  0.00    -0.045 C 
ATOM      4  C   LIG d   1       4.135   0.252  -8.077  0.00  0.00    -0.009 C 
ATOM      5  H   LIG d   1       4.833   1.088  -8.108  0.00  0.00     0.035 H 
ATOM      6  C   LIG d   1       3.765  -0.002  -6.641  0.00  0.00    -0.036 A 
ATOM      7  C   LIG d   1       2.597   0.500  -6.108  0.00  0.00    -0.054 A 
ATOM      8  C   LIG d   1       2.269   0.240  -4.791  0.00  0.00    -0.020 A 
ATOM      9  C   LIG d   1       3.112  -0.526  -3.995  0.00  0.00     0.117 A 
ATOM     10  C   LIG d   1       4.291  -1.031  -4.519  0.00  0.00    -0.013 A 
ATOM     11  C   LIG d   1       4.622  -0.767  -5.845  0.00  0.00    -0.018 A 
ATOM     12  C   LIG d   1       5.877  -1.283  -6.435  0.00  0.00    -0.058 C 
ATOM     13  C   LIG d   1       5.979  -1.386  -7.753  0.00  0.00    -0.080 C 
ATOM     14  C   LIG d   1       4.839  -0.984  -8.650  0.00  0.00    -0.012 C 
ATOM     15  H   LIG d   1       5.217  -0.772  -9.650  0.00  0.00     0.035 H 
ATOM     16  C   LIG d   1       3.818  -2.106  -8.718  0.00  0.00    -0.022 C 
ATOM     17  H   LIG d   1       3.404  -2.307  -7.731  0.00  0.00     0.032 H 
ATOM     18  C   LIG d   1       4.305  -3.404  -9.374  0.00  0.00    -0.042 C 
ATOM     19  C   LIG d   1       2.980  -4.057  -9.855  0.00  0.00     0.007 C 
ATOM     20  C   LIG d   1       1.967  -2.927 -10.006  0.00  0.00     0.140 C 
ATOM     21  O   LIG d   1       0.800  -3.032 -10.298  0.00  0.00    -0.297 OA
ATOM     22  H   LIG d   1       1.568  -0.866  -8.086  0.00  0.00     0.028 H 
ATOM     23  H   LIG d   1       1.100  -0.244  -9.691  0.00  0.00     0.028 H 
ATOM     24  H   LIG d   1       2.384   1.452  -8.366  0.00  0.00     0.027 H 
ATOM     25  H   LIG d   1       3.218   0.993  -9.865  0.00  0.00     0.027 H 
ATOM     26  H   LIG d   1       1.937   1.096  -6.721  0.00  0.00     0.062 H 
ATOM     27  H   LIG d   1       1.353   0.634  -4.377  0.00  0.00     0.065 H 
ATOM     28  H   LIG d   1       4.949  -1.626  -3.902  0.00  0.00     0.066 H 
ATOM     29  H   LIG d   1       6.700  -1.572  -5.800  0.00  0.00     0.062 H 
ATOM     30  H   LIG d   1       6.893  -1.765  -8.188  0.00  0.00     0.058 H 
ATOM     31  H   LIG d   1       4.807  -4.041  -8.645  0.00  0.00     0.027 H 
ATOM     32  H   LIG d   1       4.960  -3.189 -10.219  0.00  0.00     0.027 H 
ATOM     33  H   LIG d   1       3.136  -4.522 -10.728  0.00  0.00     0.034 H 
ATOM     34  H   LIG d   1       2.630  -4.777  -9.118  0.00  0.00     0.034 H 
ENDROOT
BRANCH   1  35
ATOM     35  C   LIG d   1       3.366  -1.147 -11.005  0.00  0.00    -0.053 C 
ATOM     36  H   LIG d   1       2.601  -0.718 -11.652  0.00  0.00     0.024 H 
ATOM     37  H   LIG d   1       4.103  -0.382 -10.759  0.00  0.00     0.024 H 
ATOM     38  H   LIG d   1       3.857  -1.973 -11.519  0.00  0.00     0.024 H 
ENDBRANCH   1  35
BRANCH   9  39
ATOM     39  O   LIG d   1       2.781  -0.779  -2.702  0.00  0.00    -0.507 OA
ATOM     40  H   LIG d   1       2.122  -0.171  -2.339  0.00  0.00     0.292 HD
ENDBRANCH   9  39
TORSDOF 2
ENDMDL
MODEL 7
REMARK VINA RESULT:      -5.6      1.908      2.522
REMARK  2 active torsions:
REMARK  status: ('A' for Active; 'I' for Inactive)
REMARK    1  A    between atoms: C_1  and  C_2 
REMARK    2  A    between atoms: C_10  and  O_23 
ROOT
ATOM      1  C   LIG d   1       5.693  -1.402  -3.694  0.00  0.00     0.030 C 
ATOM      2  C   LIG d   1       4.967  -2.432  -4.538  0.00  0.00    -0.040 C 
ATOM      3  C   LIG d   1       5.953  -2.910  -5.617  0.00  0.00    -0.045 C 
ATOM      4  C   LIG d   1       6.480  -1.753  -6.454  0.00  0.00    -0.009 C 
ATOM      5  H   LIG d   1       7.268  -2.141  -7.100  0.00  0.00     0.035 H 
ATOM      6  C   LIG d   1       5.387  -1.195  -7.326  0.00  0.00    -0.036 A 
ATOM      7  C   LIG d   1       4.262  -1.936  -7.616  0.00  0.00    -0.054 A 
ATOM      8  C   LIG d   1       3.262  -1.397  -8.404  0.00  0.00    -0.020 A 
ATOM      9  C   LIG d   1       3.385  -0.109  -8.910  0.00  0.00     0.117 A 
ATOM     10  C   LIG d   1       4.515   0.643  -8.628  0.00  0.00    -0.013 A 
ATOM     11  C   LIG d   1       5.521   0.099  -7.836  0.00  0.00    -0.018 A 
ATOM     12  C   LIG d   1       6.745   0.869  -7.522  0.00  0.00    -0.058 C 
ATOM     13  C   LIG d   1       7.473   0.528  -6.468  0.00  0.00    -0.080 C 
ATOM     14  C   LIG d   1       7.072  -0.631  -5.594  0.00  0.00    -0.012 C 
ATOM     15  H   LIG d   1       7.941  -0.995  -5.047  0.00  0.00     0.035 H 
ATOM     16  C   LIG d   1       6.000  -0.188  -4.613  0.00  0.00    -0.022 C 
ATOM     17  H   LIG d   1       5.110   0.147  -5.145  0.00  0.00     0.032 H 
ATOM     18  C   LIG d   1       6.439   0.860  -3.583  0.00  0.00    -0.042 C 
ATOM     19  C   LIG d   1       5.432   0.635  -2.422  0.00  0.00     0.007 C 
ATOM     20  C   LIG d   1       4.925  -0.797  -2.556  0.00  0.00     0.140 C 
ATOM     21  O   LIG d   1       4.079  -1.335  -1.883  0.00  0.00    -0.297 OA
ATOM     22  H   LIG d   1       4.094  -1.979  -5.007  0.00  0.00     0.028 H 
ATOM     23  H   LIG d   1       4.661  -3.273  -3.916  0.00  0.00     0.028 H 
ATOM     24  H   LIG d   1       5.447  -3.620  -6.271  0.00  0.00     0.027 H 
ATOM     25  H   LIG d   1       6.793  -3.409  -5.133  0.00  0.00     0.027 H 
ATOM     26  H   LIG d   1       4.161  -2.938  -7.226  0.00  0.00     0.062 H 
ATOM     27  H   LIG d   1       2.382  -1.980  -8.629  0.00  0.00     0.065 H 
ATOM     28  H   LIG d   1       4.613   1.644  -9.020  0.00  0.00     0.066 H 
ATOM     29  H   LIG d   1       7.040   1.700  -8.144  0.00  0.00     0.062 H 
ATOM     30  H   LIG d   1       8.366   1.089  -6.233  0.00  0.00     0.058 H 
ATOM     31  H   LIG d   1       6.342   1.867  -3.989  0.00  0.00     0.027 H 
ATOM     32  H   LIG d   1       7.461   0.673  -3.251  0.00  0.00     0.027 H 
ATOM     33  H   LIG d   1       5.896   0.773  -1.547  0.00  0.00     0.034 H 
ATOM     34  H   LIG d   1       4.602   1.334  -2.508  0.00  0.00     0.034 H 
ENDROOT
BRANCH   1  35
ATOM     35  C   LIG d   1       7.002  -1.994  -3.170  0.00  0.00    -0.053 C 
ATOM     36  H   LIG d   1       6.784  -2.720  -2.386  0.00  0.00     0.024 H 
ATOM     37  H   LIG d   1       7.529  -2.489  -3.986  0.00  0.00     0.024 H 
ATOM     38  H   LIG d   1       7.626  -1.198  -2.765  0.00  0.00     0.024 H 
ENDBRANCH   1  35
BRANCH   9  39
ATOM     39  O   LIG d   1       2.397   0.414  -9.682  0.00  0.00    -0.507 OA
ATOM     40  H   LIG d   1       1.989  -0.223 -10.284  0.00  0.00     0.292 HD
ENDBRANCH   9  39
TORSDOF 2
ENDMDL
MODEL 8
REMARK VINA RESULT:      -5.5     15.589     17.268
REMARK  2 active torsions:
REMARK  status: ('A' for Active; 'I' for Inactive)
REMARK    1  A    between atoms: C_1  and  C_2 
REMARK    2  A    between atoms: C_10  and  O_23 
ROOT
ATOM      1  C   LIG d   1      -5.552  11.607 -13.577  0.00  0.00     0.030 C 
ATOM      2  C   LIG d   1      -4.549  12.043 -14.627  0.00  0.00    -0.040 C 
ATOM      3  C   LIG d   1      -4.883  11.277 -15.918  0.00  0.00    -0.045 C 
ATOM      4  C   LIG d   1      -4.867   9.771 -15.703  0.00  0.00    -0.009 C 
ATOM      5  H   LIG d   1      -5.243   9.300 -16.611  0.00  0.00     0.035 H 
ATOM      6  C   LIG d   1      -3.461   9.288 -15.467  0.00  0.00    -0.036 A 
ATOM      7  C   LIG d   1      -2.376  10.045 -15.854  0.00  0.00    -0.054 A 
ATOM      8  C   LIG d   1      -1.094   9.591 -15.612  0.00  0.00    -0.020 A 
ATOM      9  C   LIG d   1      -0.888   8.371 -14.981  0.00  0.00     0.117 A 
ATOM     10  C   LIG d   1      -1.972   7.600 -14.592  0.00  0.00    -0.013 A 
ATOM     11  C   LIG d   1      -3.263   8.057 -14.838  0.00  0.00    -0.018 A 
ATOM     12  C   LIG d   1      -4.444   7.256 -14.444  0.00  0.00    -0.058 C 
ATOM     13  C   LIG d   1      -5.616   7.858 -14.299  0.00  0.00    -0.080 C 
ATOM     14  C   LIG d   1      -5.759   9.338 -14.533  0.00  0.00    -0.012 C 
ATOM     15  H   LIG d   1      -6.801   9.577 -14.746  0.00  0.00     0.035 H 
ATOM     16  C   LIG d   1      -5.303  10.099 -13.300  0.00  0.00    -0.022 C 
ATOM     17  H   LIG d   1      -4.252   9.898 -13.094  0.00  0.00     0.032 H 
ATOM     18  C   LIG d   1      -6.151   9.885 -12.040  0.00  0.00    -0.042 C 
ATOM     19  C   LIG d   1      -5.871  11.176 -11.222  0.00  0.00     0.007 C 
ATOM     20  C   LIG d   1      -5.431  12.239 -12.222  0.00  0.00     0.140 C 
ATOM     21  O   LIG d   1      -5.060  13.361 -11.974  0.00  0.00    -0.297 OA
ATOM     22  H   LIG d   1      -3.539  11.797 -14.300  0.00  0.00     0.028 H 
ATOM     23  H   LIG d   1      -4.633  13.116 -14.799  0.00  0.00     0.028 H 
ATOM     24  H   LIG d   1      -4.150  11.535 -16.683  0.00  0.00     0.027 H 
ATOM     25  H   LIG d   1      -5.873  11.577 -16.261  0.00  0.00     0.027 H 
ATOM     26  H   LIG d   1      -2.529  10.995 -16.346  0.00  0.00     0.062 H 
ATOM     27  H   LIG d   1      -0.246  10.187 -15.917  0.00  0.00     0.065 H 
ATOM     28  H   LIG d   1      -1.815   6.650 -14.102  0.00  0.00     0.066 H 
ATOM     29  H   LIG d   1      -4.351   6.194 -14.276  0.00  0.00     0.062 H 
ATOM     30  H   LIG d   1      -6.480   7.277 -14.010  0.00  0.00     0.058 H 
ATOM     31  H   LIG d   1      -5.818   9.002 -11.495  0.00  0.00     0.027 H 
ATOM     32  H   LIG d   1      -7.209   9.809 -12.293  0.00  0.00     0.027 H 
ATOM     33  H   LIG d   1      -6.705  11.453 -10.742  0.00  0.00     0.034 H 
ATOM     34  H   LIG d   1      -5.079  10.993 -10.497  0.00  0.00     0.034 H 
ENDROOT
BRANCH   1  35
ATOM     35  C   LIG d   1      -6.973  11.805 -14.107  0.00  0.00    -0.053 C 
ATOM     36  H   LIG d   1      -6.936  12.348 -15.051  0.00  0.00     0.024 H 
ATOM     37  H   LIG d   1      -7.440  10.833 -14.266  0.00  0.00     0.024 H 
ATOM     38  H   LIG d   1      -7.556  12.374 -13.383  0.00  0.00     0.024 H 
ENDBRANCH   1  35
BRANCH   9  39
ATOM     39  O   LIG d   1       0.376   7.933 -14.745  0.00  0.00    -0.507 OA
ATOM     40  H   LIG d   1       0.442   7.291 -14.025  0.00  0.00     0.292 HD
ENDBRANCH   9  39
TORSDOF 2
ENDMDL
MODEL 9
REMARK VINA RESULT:      -5.4      4.993      7.167
REMARK  2 active torsions:
REMARK  status: ('A' for Active; 'I' for Inactive)
REMARK    1  A    between atoms: C_1  and  C_2 
REMARK    2  A    between atoms: C_10  and  O_23 
ROOT
ATOM      1  C   LIG d   1       3.982   0.097  -8.625  0.00  0.00     0.030 C 
ATOM      2  C   LIG d   1       3.526  -1.288  -8.209  0.00  0.00    -0.040 C 
ATOM      3  C   LIG d   1       4.357  -2.300  -9.016  0.00  0.00    -0.045 C 
ATOM      4  C   LIG d   1       4.219  -2.079 -10.515  0.00  0.00    -0.009 C 
ATOM      5  H   LIG d   1       4.933  -2.733 -11.016  0.00  0.00     0.035 H 
ATOM      6  C   LIG d   1       2.835  -2.449 -10.975  0.00  0.00    -0.036 A 
ATOM      7  C   LIG d   1       2.032  -3.275 -10.218  0.00  0.00    -0.054 A 
ATOM      8  C   LIG d   1       0.757  -3.588 -10.652  0.00  0.00    -0.020 A 
ATOM      9  C   LIG d   1       0.278  -3.077 -11.851  0.00  0.00     0.117 A 
ATOM     10  C   LIG d   1       1.079  -2.249 -12.622  0.00  0.00    -0.013 A 
ATOM     11  C   LIG d   1       2.363  -1.936 -12.186  0.00  0.00    -0.018 A 
ATOM     12  C   LIG d   1       3.249  -1.063 -12.987  0.00  0.00    -0.058 C 
ATOM     13  C   LIG d   1       4.263  -0.449 -12.395  0.00  0.00    -0.080 C 
ATOM     14  C   LIG d   1       4.524  -0.633 -10.923  0.00  0.00    -0.012 C 
ATOM     15  H   LIG d   1       5.563  -0.390 -10.702  0.00  0.00     0.035 H 
ATOM     16  C   LIG d   1       3.607   0.275 -10.122  0.00  0.00    -0.022 C 
ATOM     17  H   LIG d   1       2.563   0.022 -10.305  0.00  0.00     0.032 H 
ATOM     18  C   LIG d   1       3.838   1.780 -10.308  0.00  0.00    -0.042 C 
ATOM     19  C   LIG d   1       3.267   2.375  -8.992  0.00  0.00     0.007 C 
ATOM     20  C   LIG d   1       3.314   1.260  -7.953  0.00  0.00     0.140 C 
ATOM     21  O   LIG d   1       2.898   1.303  -6.820  0.00  0.00    -0.297 OA
ATOM     22  H   LIG d   1       2.468  -1.414  -8.434  0.00  0.00     0.028 H 
ATOM     23  H   LIG d   1       3.699  -1.432  -7.143  0.00  0.00     0.028 H 
ATOM     24  H   LIG d   1       4.022  -3.308  -8.773  0.00  0.00     0.027 H 
ATOM     25  H   LIG d   1       5.407  -2.199  -8.737  0.00  0.00     0.027 H 
ATOM     26  H   LIG d   1       2.399  -3.677  -9.285  0.00  0.00     0.062 H 
ATOM     27  H   LIG d   1       0.131  -4.235 -10.056  0.00  0.00     0.065 H 
ATOM     28  H   LIG d   1       0.709  -1.850 -13.555  0.00  0.00     0.066 H 
ATOM     29  H   LIG d   1       3.070  -0.927 -14.043  0.00  0.00     0.062 H 
ATOM     30  H   LIG d   1       4.911   0.191 -12.976  0.00  0.00     0.058 H 
ATOM     31  H   LIG d   1       3.287   2.152 -11.171  0.00  0.00     0.027 H 
ATOM     32  H   LIG d   1       4.902   1.999 -10.403  0.00  0.00     0.027 H 
ATOM     33  H   LIG d   1       3.827   3.155  -8.709  0.00  0.00     0.034 H 
ATOM     34  H   LIG d   1       2.240   2.700  -9.145  0.00  0.00     0.034 H 
ENDROOT
BRANCH   1  35
ATOM     35  C   LIG d   1       5.498   0.213  -8.458  0.00  0.00    -0.053 C 
ATOM     36  H   LIG d   1       5.790   1.262  -8.499  0.00  0.00     0.024 H 
ATOM     37  H   LIG d   1       5.791  -0.207  -7.495  0.00  0.00     0.024 H 
ATOM     38  H   LIG d   1       5.996  -0.335  -9.259  0.00  0.00     0.024 H 
ENDBRANCH   1  35
BRANCH   9  39
ATOM     39  O   LIG d   1      -0.977  -3.388 -12.268  0.00  0.00    -0.507 OA
ATOM     40  H   LIG d   1      -1.307  -2.821 -12.978  0.00  0.00     0.292 HD
ENDBRANCH   9  39
TORSDOF 2
ENDMDL
