MODEL 1
REMARK VINA RESULT:      -5.7      0.000      0.000
REMARK  4 active torsions:
REMARK  status: ('A' for Active; 'I' for Inactive)
REMARK    1  A    between atoms: C_1  and  C_2 
REMARK    2  A    between atoms: C_2  and  N_3 
REMARK    3  A    between atoms: C_5  and  C_19 
REMARK    4  A    between atoms: C_11  and  N_14 
ROOT
ATOM      1  N   LIG d   1       3.185   0.565  -8.925  0.00  0.00    -0.331 N 
ATOM      2  C   LIG d   1       3.046   0.131 -10.187  0.00  0.00     0.019 A 
ATOM      3  C   LIG d   1       3.330  -1.169 -10.555  0.00  0.00     0.061 A 
ATOM      4  C   LIG d   1       3.802  -2.113  -9.525  0.00  0.00     0.201 A 
ATOM      5  O   LIG d   1       4.066  -3.271  -9.797  0.00  0.00    -0.286 OA
ATOM      6  C   LIG d   1       3.940  -1.593  -8.157  0.00  0.00     0.083 A 
ATOM      7  C   LIG d   1       3.623  -0.242  -7.907  0.00  0.00     0.149 A 
ATOM      8  N   LIG d   1       3.754   0.219  -6.669  0.00  0.00    -0.196 NA
ATOM      9  C   LIG d   1       4.179  -0.575  -5.698  0.00  0.00     0.220 A 
ATOM     10  N   LIG d   1       4.489  -1.850  -5.903  0.00  0.00    -0.222 NA
ATOM     11  C   LIG d   1       4.377  -2.394  -7.102  0.00  0.00     0.045 A 
ATOM     12  H   LIG d   1       2.700   0.824 -10.941  0.00  0.00     0.082 H 
ATOM     13  H   LIG d   1       4.630  -3.431  -7.264  0.00  0.00     0.084 H 
ENDROOT
BRANCH   9  14
ATOM     14  N   LIG d   1       4.302  -0.057  -4.424  0.00  0.00    -0.300 N 
ATOM     15  C   LIG d   1       5.540  -0.031  -3.625  0.00  0.00     0.015 C 
ATOM     16  C   LIG d   1       5.340   1.140  -2.626  0.00  0.00    -0.036 C 
ATOM     17  H   LIG d   1       5.667  -0.972  -3.090  0.00  0.00     0.046 H 
ATOM     18  H   LIG d   1       6.402   0.161  -4.265  0.00  0.00     0.046 H 
ATOM     19  C   LIG d   1       3.830   1.008  -2.296  0.00  0.00    -0.036 C 
ATOM     20  H   LIG d   1       5.555   2.099  -3.096  0.00  0.00     0.028 H 
ATOM     21  H   LIG d   1       5.950   0.998  -1.733  0.00  0.00     0.028 H 
ATOM     22  C   LIG d   1       3.221   0.553  -3.638  0.00  0.00     0.015 C 
ATOM     23  H   LIG d   1       3.417   1.970  -1.990  0.00  0.00     0.028 H 
ATOM     24  H   LIG d   1       3.669   0.256  -1.524  0.00  0.00     0.028 H 
ATOM     25  H   LIG d   1       2.814   1.412  -4.171  0.00  0.00     0.046 H 
ATOM     26  H   LIG d   1       2.434  -0.180  -3.459  0.00  0.00     0.046 H 
ENDBRANCH   9  14
BRANCH   1  27
ATOM     27  C   LIG d   1       2.862   1.962  -8.624  0.00  0.00     0.022 C 
ATOM     28  H   LIG d   1       2.853   2.107  -7.544  0.00  0.00     0.049 H 
ATOM     29  H   LIG d   1       1.880   2.203  -9.032  0.00  0.00     0.049 H 
BRANCH  27  30
ATOM     30  C   LIG d   1       3.915   2.876  -9.254  0.00  0.00    -0.047 C 
ATOM     31  H   LIG d   1       4.862   2.341  -9.329  0.00  0.00     0.025 H 
ATOM     32  H   LIG d   1       3.587   3.177 -10.249  0.00  0.00     0.025 H 
ATOM     33  H   LIG d   1       4.046   3.761  -8.631  0.00  0.00     0.025 H 
ENDBRANCH  27  30
ENDBRANCH   1  27
BRANCH   3  34
ATOM     34  C   LIG d   1       3.164  -1.603 -11.947  0.00  0.00     0.077 C 
ATOM     35  O   LIG d   1       2.079  -2.019 -12.333  0.00  0.00    -0.544 OA
ATOM     36  O   LIG d   1       4.109  -1.548 -12.721  0.00  0.00    -0.544 OA
ENDBRANCH   3  34
TORSDOF 4
ENDMDL
MODEL 2
REMARK VINA RESULT:      -5.4      1.592      3.006
REMARK  4 active torsions:
REMARK  status: ('A' for Active; 'I' for Inactive)
REMARK    1  A    between atoms: C_1  and  C_2 
REMARK    2  A    between atoms: C_2  and  N_3 
REMARK    3  A    between atoms: C_5  and  C_19 
REMARK    4  A    between atoms: C_11  and  N_14 
ROOT
ATOM      1  N   LIG d   1       4.217  -2.303  -8.520  0.00  0.00    -0.331 N 
ATOM      2  C   LIG d   1       3.945  -2.203  -9.831  0.00  0.00     0.019 A 
ATOM      3  C   LIG d   1       3.337  -1.090 -10.375  0.00  0.00     0.061 A 
ATOM      4  C   LIG d   1       2.975   0.029  -9.486  0.00  0.00     0.201 A 
ATOM      5  O   LIG d   1       2.436   1.034  -9.916  0.00  0.00    -0.286 OA
ATOM      6  C   LIG d   1       3.291  -0.124  -8.059  0.00  0.00     0.083 A 
ATOM      7  C   LIG d   1       3.910  -1.313  -7.622  0.00  0.00     0.149 A 
ATOM      8  N   LIG d   1       4.188  -1.443  -6.330  0.00  0.00    -0.196 NA
ATOM      9  C   LIG d   1       3.883  -0.478  -5.477  0.00  0.00     0.220 A 
ATOM     10  N   LIG d   1       3.296   0.652  -5.857  0.00  0.00    -0.222 NA
ATOM     11  C   LIG d   1       2.994   0.869  -7.125  0.00  0.00     0.045 A 
ATOM     12  H   LIG d   1       4.212  -3.024 -10.481  0.00  0.00     0.082 H 
ATOM     13  H   LIG d   1       2.517   1.789  -7.429  0.00  0.00     0.084 H 
ENDROOT
BRANCH   9  14
ATOM     14  N   LIG d   1       4.188  -0.651  -4.142  0.00  0.00    -0.300 N 
ATOM     15  C   LIG d   1       4.951   0.293  -3.306  0.00  0.00     0.015 C 
ATOM     16  C   LIG d   1       4.496  -0.011  -1.853  0.00  0.00    -0.036 C 
ATOM     17  H   LIG d   1       6.021   0.118  -3.415  0.00  0.00     0.046 H 
ATOM     18  H   LIG d   1       4.705   1.321  -3.572  0.00  0.00     0.046 H 
ATOM     19  C   LIG d   1       4.342  -1.554  -1.895  0.00  0.00    -0.036 C 
ATOM     20  H   LIG d   1       3.545   0.471  -1.630  0.00  0.00     0.028 H 
ATOM     21  H   LIG d   1       5.262   0.287  -1.136  0.00  0.00     0.028 H 
ATOM     22  C   LIG d   1       3.811  -1.810  -3.321  0.00  0.00     0.015 C 
ATOM     23  H   LIG d   1       3.622  -1.890  -1.148  0.00  0.00     0.028 H 
ATOM     24  H   LIG d   1       5.306  -2.042  -1.748  0.00  0.00     0.028 H 
ATOM     25  H   LIG d   1       2.726  -1.913  -3.299  0.00  0.00     0.046 H 
ATOM     26  H   LIG d   1       4.262  -2.715  -3.728  0.00  0.00     0.046 H 
ENDBRANCH   9  14
BRANCH   1  27
ATOM     27  C   LIG d   1       4.864  -3.521  -8.028  0.00  0.00     0.022 C 
ATOM     28  H   LIG d   1       5.275  -3.338  -7.036  0.00  0.00     0.049 H 
ATOM     29  H   LIG d   1       5.667  -3.806  -8.708  0.00  0.00     0.049 H 
BRANCH  27  30
ATOM     30  C   LIG d   1       3.834  -4.650  -7.953  0.00  0.00    -0.047 C 
ATOM     31  H   LIG d   1       4.029  -5.262  -7.072  0.00  0.00     0.025 H 
ATOM     32  H   LIG d   1       2.833  -4.225  -7.887  0.00  0.00     0.025 H 
ATOM     33  H   LIG d   1       3.908  -5.269  -8.848  0.00  0.00     0.025 H 
ENDBRANCH  27  30
ENDBRANCH   1  27
BRANCH   3  34
ATOM     34  C   LIG d   1       3.058  -1.022 -11.814  0.00  0.00     0.077 C 
ATOM     35  O   LIG d   1       3.887  -0.542 -12.577  0.00  0.00    -0.544 OA
ATOM     36  O   LIG d   1       1.998  -1.447 -12.252  0.00  0.00    -0.544 OA
ENDBRANCH   3  34
TORSDOF 4
ENDMDL
MODEL 3
REMARK VINA RESULT:      -5.1      3.491      6.960
REMARK  4 active torsions:
REMARK  status: ('A' for Active; 'I' for Inactive)
REMARK    1  A    between atoms: C_1  and  C_2 
REMARK    2  A    between atoms: C_2  and  N_3 
REMARK    3  A    between atoms: C_5  and  C_19 
REMARK    4  A    between atoms: C_11  and  N_14 
ROOT
ATOM      1  N   LIG d   1       5.958  -0.590  -5.778  0.00  0.00    -0.331 N 
ATOM      2  C   LIG d   1       5.922  -0.449  -4.444  0.00  0.00     0.019 A 
ATOM      3  C   LIG d   1       4.764  -0.125  -3.767  0.00  0.00     0.061 A 
ATOM      4  C   LIG d   1       3.522   0.072  -4.537  0.00  0.00     0.201 A 
ATOM      5  O   LIG d   1       2.472   0.359  -3.989  0.00  0.00    -0.286 OA
ATOM      6  C   LIG d   1       3.608  -0.091  -5.996  0.00  0.00     0.083 A 
ATOM      7  C   LIG d   1       4.853  -0.419  -6.571  0.00  0.00     0.149 A 
ATOM      8  N   LIG d   1       4.922  -0.560  -7.890  0.00  0.00    -0.196 NA
ATOM      9  C   LIG d   1       3.845  -0.391  -8.641  0.00  0.00     0.220 A 
ATOM     10  N   LIG d   1       2.660  -0.078  -8.129  0.00  0.00    -0.222 NA
ATOM     11  C   LIG d   1       2.499   0.071  -6.825  0.00  0.00     0.045 A 
ATOM     12  H   LIG d   1       6.833  -0.595  -3.880  0.00  0.00     0.082 H 
ATOM     13  H   LIG d   1       1.533   0.325  -6.414  0.00  0.00     0.084 H 
ENDROOT
BRANCH   9  14
ATOM     14  N   LIG d   1       3.958  -0.547 -10.008  0.00  0.00    -0.300 N 
ATOM     15  C   LIG d   1       3.524  -1.727 -10.776  0.00  0.00     0.015 C 
ATOM     16  C   LIG d   1       3.279  -1.194 -12.213  0.00  0.00    -0.036 C 
ATOM     17  H   LIG d   1       4.306  -2.486 -10.779  0.00  0.00     0.046 H 
ATOM     18  H   LIG d   1       2.602  -2.134 -10.360  0.00  0.00     0.046 H 
ATOM     19  C   LIG d   1       4.424  -0.158 -12.357  0.00  0.00    -0.036 C 
ATOM     20  H   LIG d   1       2.304  -0.713 -12.292  0.00  0.00     0.028 H 
ATOM     21  H   LIG d   1       3.380  -1.994 -12.947  0.00  0.00     0.028 H 
ATOM     22  C   LIG d   1       4.535   0.435 -10.937  0.00  0.00     0.015 C 
ATOM     23  H   LIG d   1       4.156   0.615 -13.078  0.00  0.00     0.028 H 
ATOM     24  H   LIG d   1       5.354  -0.649 -12.644  0.00  0.00     0.028 H 
ATOM     25  H   LIG d   1       3.979   1.371 -10.881  0.00  0.00     0.046 H 
ATOM     26  H   LIG d   1       5.582   0.609 -10.689  0.00  0.00     0.046 H 
ENDBRANCH   9  14
BRANCH   1  27
ATOM     27  C   LIG d   1       7.232  -0.934  -6.413  0.00  0.00     0.022 C 
ATOM     28  H   LIG d   1       8.016  -0.278  -6.033  0.00  0.00     0.049 H 
ATOM     29  H   LIG d   1       7.146  -0.809  -7.492  0.00  0.00     0.049 H 
BRANCH  27  30
ATOM     30  C   LIG d   1       7.585  -2.388  -6.094  0.00  0.00    -0.047 C 
ATOM     31  H   LIG d   1       8.305  -2.416  -5.276  0.00  0.00     0.025 H 
ATOM     32  H   LIG d   1       6.682  -2.926  -5.803  0.00  0.00     0.025 H 
ATOM     33  H   LIG d   1       8.019  -2.858  -6.976  0.00  0.00     0.025 H 
ENDBRANCH  27  30
ENDBRANCH   1  27
BRANCH   3  34
ATOM     34  C   LIG d   1       4.768   0.018  -2.307  0.00  0.00     0.077 C 
ATOM     35  O   LIG d   1       5.089   1.083  -1.797  0.00  0.00    -0.544 OA
ATOM     36  O   LIG d   1       4.448  -0.928  -1.599  0.00  0.00    -0.544 OA
ENDBRANCH   3  34
TORSDOF 4
ENDMDL
MODEL 4
REMARK VINA RESULT:      -5.0      4.146      5.233
REMARK  4 active torsions:
REMARK  status: ('A' for Active; 'I' for Inactive)
REMARK    1  A    between atoms: C_1  and  C_2 
REMARK    2  A    between atoms: C_2  and  N_3 
REMARK    3  A    between atoms: C_5  and  C_19 
REMARK    4  A    between atoms: C_11  and  N_14 
ROOT
ATOM      1  N   LIG d   1       8.597   1.791  -6.290  0.00  0.00    -0.331 N 
ATOM      2  C   LIG d   1       9.155   2.335  -7.382  0.00  0.00     0.019 A 
ATOM      3  C   LIG d   1       8.592   2.215  -8.637  0.00  0.00     0.061 A 
ATOM      4  C   LIG d   1       7.331   1.464  -8.781  0.00  0.00     0.201 A 
ATOM      5  O   LIG d   1       6.791   1.328  -9.865  0.00  0.00    -0.286 OA
ATOM      6  C   LIG d   1       6.756   0.885  -7.558  0.00  0.00     0.083 A 
ATOM      7  C   LIG d   1       7.430   1.072  -6.334  0.00  0.00     0.149 A 
ATOM      8  N   LIG d   1       6.905   0.542  -5.235  0.00  0.00    -0.196 NA
ATOM      9  C   LIG d   1       5.778  -0.149  -5.296  0.00  0.00     0.220 A 
ATOM     10  N   LIG d   1       5.122  -0.347  -6.434  0.00  0.00    -0.222 NA
ATOM     11  C   LIG d   1       5.568   0.154  -7.573  0.00  0.00     0.045 A 
ATOM     12  H   LIG d   1      10.079   2.886  -7.276  0.00  0.00     0.082 H 
ATOM     13  H   LIG d   1       5.031  -0.009  -8.496  0.00  0.00     0.084 H 
ENDROOT
BRANCH   9  14
ATOM     14  N   LIG d   1       5.264  -0.685  -4.132  0.00  0.00    -0.300 N 
ATOM     15  C   LIG d   1       5.540  -0.199  -2.769  0.00  0.00     0.015 C 
ATOM     16  C   LIG d   1       4.321  -0.665  -1.929  0.00  0.00    -0.036 C 
ATOM     17  H   LIG d   1       6.459  -0.641  -2.386  0.00  0.00     0.046 H 
ATOM     18  H   LIG d   1       5.611   0.890  -2.760  0.00  0.00     0.046 H 
ATOM     19  C   LIG d   1       4.031  -2.055  -2.555  0.00  0.00    -0.036 C 
ATOM     20  H   LIG d   1       3.474   0.006  -2.059  0.00  0.00     0.028 H 
ATOM     21  H   LIG d   1       4.587  -0.758  -0.876  0.00  0.00     0.028 H 
ATOM     22  C   LIG d   1       4.357  -1.838  -4.046  0.00  0.00     0.015 C 
ATOM     23  H   LIG d   1       2.982  -2.325  -2.423  0.00  0.00     0.028 H 
ATOM     24  H   LIG d   1       4.682  -2.815  -2.123  0.00  0.00     0.028 H 
ATOM     25  H   LIG d   1       3.440  -1.631  -4.600  0.00  0.00     0.046 H 
ATOM     26  H   LIG d   1       4.844  -2.724  -4.453  0.00  0.00     0.046 H 
ENDBRANCH   9  14
BRANCH   1  27
ATOM     27  C   LIG d   1       9.265   1.967  -4.999  0.00  0.00     0.022 C 
ATOM     28  H   LIG d   1      10.323   1.723  -5.101  0.00  0.00     0.049 H 
ATOM     29  H   LIG d   1       8.810   1.307  -4.261  0.00  0.00     0.049 H 
BRANCH  27  30
ATOM     30  C   LIG d   1       9.119   3.420  -4.543  0.00  0.00    -0.047 C 
ATOM     31  H   LIG d   1       8.354   3.482  -3.769  0.00  0.00     0.025 H 
ATOM     32  H   LIG d   1      10.070   3.774  -4.145  0.00  0.00     0.025 H 
ATOM     33  H   LIG d   1       8.827   4.039  -5.392  0.00  0.00     0.025 H 
ENDBRANCH  27  30
ENDBRANCH   1  27
BRANCH   3  34
ATOM     34  C   LIG d   1       9.234   2.826  -9.805  0.00  0.00     0.077 C 
ATOM     35  O   LIG d   1       8.973   3.982 -10.113  0.00  0.00    -0.544 OA
ATOM     36  O   LIG d   1      10.033   2.181 -10.471  0.00  0.00    -0.544 OA
ENDBRANCH   3  34
TORSDOF 4
ENDMDL
MODEL 5
REMARK VINA RESULT:      -5.0      5.133      6.358
REMARK  4 active torsions:
REMARK  status: ('A' for Active; 'I' for Inactive)
REMARK    1  A    between atoms: C_1  and  C_2 
REMARK    2  A    between atoms: C_2  and  N_3 
REMARK    3  A    between atoms: C_5  and  C_19 
REMARK    4  A    between atoms: C_11  and  N_14 
ROOT
ATOM      1  N   LIG d   1       7.731   1.521  -7.423  0.00  0.00    -0.331 N 
ATOM      2  C   LIG d   1       8.584   2.188  -8.216  0.00  0.00     0.019 A 
ATOM      3  C   LIG d   1       9.587   2.990  -7.710  0.00  0.00     0.061 A 
ATOM      4  C   LIG d   1       9.727   3.117  -6.248  0.00  0.00     0.201 A 
ATOM      5  O   LIG d   1      10.595   3.812  -5.750  0.00  0.00    -0.286 OA
ATOM      6  C   LIG d   1       8.771   2.370  -5.418  0.00  0.00     0.083 A 
ATOM      7  C   LIG d   1       7.785   1.587  -6.054  0.00  0.00     0.149 A 
ATOM      8  N   LIG d   1       6.923   0.919  -5.297  0.00  0.00    -0.196 NA
ATOM      9  C   LIG d   1       6.990   0.994  -3.977  0.00  0.00     0.220 A 
ATOM     10  N   LIG d   1       7.904   1.726  -3.349  0.00  0.00    -0.222 NA
ATOM     11  C   LIG d   1       8.807   2.415  -4.025  0.00  0.00     0.045 A 
ATOM     12  H   LIG d   1       8.481   2.093  -9.288  0.00  0.00     0.082 H 
ATOM     13  H   LIG d   1       9.548   3.008  -3.510  0.00  0.00     0.084 H 
ENDROOT
BRANCH   9  14
ATOM     14  N   LIG d   1       6.076   0.285  -3.224  0.00  0.00    -0.300 N 
ATOM     15  C   LIG d   1       5.099   0.867  -2.288  0.00  0.00     0.015 C 
ATOM     16  C   LIG d   1       3.962  -0.185  -2.199  0.00  0.00    -0.036 C 
ATOM     17  H   LIG d   1       5.555   1.020  -1.310  0.00  0.00     0.046 H 
ATOM     18  H   LIG d   1       4.713   1.810  -2.678  0.00  0.00     0.046 H 
ATOM     19  C   LIG d   1       4.764  -1.511  -2.254  0.00  0.00    -0.036 C 
ATOM     20  H   LIG d   1       3.283  -0.103  -3.047  0.00  0.00     0.028 H 
ATOM     21  H   LIG d   1       3.420  -0.094  -1.256  0.00  0.00     0.028 H 
ATOM     22  C   LIG d   1       5.919  -1.176  -3.220  0.00  0.00     0.015 C 
ATOM     23  H   LIG d   1       4.148  -2.318  -2.652  0.00  0.00     0.028 H 
ATOM     24  H   LIG d   1       5.149  -1.770  -1.267  0.00  0.00     0.028 H 
ATOM     25  H   LIG d   1       5.676  -1.527  -4.224  0.00  0.00     0.046 H 
ATOM     26  H   LIG d   1       6.840  -1.647  -2.875  0.00  0.00     0.046 H 
ENDBRANCH   9  14
BRANCH   1  27
ATOM     27  C   LIG d   1       6.695   0.694  -8.045  0.00  0.00     0.022 C 
ATOM     28  H   LIG d   1       6.103   0.208  -7.269  0.00  0.00     0.049 H 
ATOM     29  H   LIG d   1       7.164  -0.064  -8.672  0.00  0.00     0.049 H 
BRANCH  27  30
ATOM     30  C   LIG d   1       5.786   1.575  -8.904  0.00  0.00    -0.047 C 
ATOM     31  H   LIG d   1       5.245   2.272  -8.263  0.00  0.00     0.025 H 
ATOM     32  H   LIG d   1       6.390   2.133  -9.620  0.00  0.00     0.025 H 
ATOM     33  H   LIG d   1       5.073   0.948  -9.440  0.00  0.00     0.025 H 
ENDBRANCH  27  30
ENDBRANCH   1  27
BRANCH   3  34
ATOM     34  C   LIG d   1      10.499   3.701  -8.613  0.00  0.00     0.077 C 
ATOM     35  O   LIG d   1      10.239   4.842  -8.973  0.00  0.00    -0.544 OA
ATOM     36  O   LIG d   1      11.521   3.154  -9.004  0.00  0.00    -0.544 OA
ENDBRANCH   3  34
TORSDOF 4
ENDMDL
MODEL 6
REMARK VINA RESULT:      -4.9     11.497     13.347
REMARK  4 active torsions:
REMARK  status: ('A' for Active; 'I' for Inactive)
REMARK    1  A    between atoms: C_1  and  C_2 
REMARK    2  A    between atoms: C_2  and  N_3 
REMARK    3  A    between atoms: C_5  and  C_19 
REMARK    4  A    between atoms: C_11  and  N_14 
ROOT
ATOM      1  N   LIG d   1      10.311   9.790  -5.719  0.00  0.00    -0.331 N 
ATOM      2  C   LIG d   1      10.169  10.793  -6.599  0.00  0.00     0.019 A 
ATOM      3  C   LIG d   1       9.819  12.070  -6.212  0.00  0.00     0.061 A 
ATOM      4  C   LIG d   1       9.595  12.343  -4.780  0.00  0.00     0.201 A 
ATOM      5  O   LIG d   1       9.285  13.453  -4.385  0.00  0.00    -0.286 OA
ATOM      6  C   LIG d   1       9.762  11.215  -3.852  0.00  0.00     0.083 A 
ATOM      7  C   LIG d   1      10.118   9.954  -4.371  0.00  0.00     0.149 A 
ATOM      8  N   LIG d   1      10.262   8.940  -3.526  0.00  0.00    -0.196 NA
ATOM      9  C   LIG d   1      10.071   9.116  -2.228  0.00  0.00     0.220 A 
ATOM     10  N   LIG d   1       9.731  10.290  -1.709  0.00  0.00    -0.222 NA
ATOM     11  C   LIG d   1       9.577  11.355  -2.477  0.00  0.00     0.045 A 
ATOM     12  H   LIG d   1      10.333  10.592  -7.649  0.00  0.00     0.082 H 
ATOM     13  H   LIG d   1       9.301  12.308  -2.051  0.00  0.00     0.084 H 
ENDROOT
BRANCH   9  14
ATOM     14  N   LIG d   1      10.230   8.037  -1.381  0.00  0.00    -0.300 N 
ATOM     15  C   LIG d   1       9.842   6.647  -1.680  0.00  0.00     0.015 C 
ATOM     16  C   LIG d   1      10.749   5.780  -0.767  0.00  0.00    -0.036 C 
ATOM     17  H   LIG d   1       8.792   6.486  -1.438  0.00  0.00     0.046 H 
ATOM     18  H   LIG d   1      10.030   6.417  -2.729  0.00  0.00     0.046 H 
ATOM     19  C   LIG d   1      10.808   6.645   0.520  0.00  0.00    -0.036 C 
ATOM     20  H   LIG d   1      11.741   5.656  -1.200  0.00  0.00     0.028 H 
ATOM     21  H   LIG d   1      10.288   4.812  -0.567  0.00  0.00     0.028 H 
ATOM     22  C   LIG d   1      10.810   8.085  -0.031  0.00  0.00     0.015 C 
ATOM     23  H   LIG d   1      11.723   6.443   1.078  0.00  0.00     0.028 H 
ATOM     24  H   LIG d   1       9.930   6.470   1.142  0.00  0.00     0.028 H 
ATOM     25  H   LIG d   1      11.832   8.463  -0.079  0.00  0.00     0.046 H 
ATOM     26  H   LIG d   1      10.206   8.728   0.608  0.00  0.00     0.046 H 
ENDBRANCH   9  14
BRANCH   1  27
ATOM     27  C   LIG d   1      10.684   8.465  -6.219  0.00  0.00     0.022 C 
ATOM     28  H   LIG d   1      10.970   7.828  -5.382  0.00  0.00     0.049 H 
ATOM     29  H   LIG d   1      11.524   8.559  -6.907  0.00  0.00     0.049 H 
BRANCH  27  30
ATOM     30  C   LIG d   1       9.493   7.842  -6.950  0.00  0.00    -0.047 C 
ATOM     31  H   LIG d   1       9.025   7.094  -6.310  0.00  0.00     0.025 H 
ATOM     32  H   LIG d   1       8.768   8.619  -7.192  0.00  0.00     0.025 H 
ATOM     33  H   LIG d   1       9.839   7.368  -7.869  0.00  0.00     0.025 H 
ENDBRANCH  27  30
ENDBRANCH   1  27
BRANCH   3  34
ATOM     34  C   LIG d   1       9.674  13.138  -7.207  0.00  0.00     0.077 C 
ATOM     35  O   LIG d   1       8.877  13.014  -8.128  0.00  0.00    -0.544 OA
ATOM     36  O   LIG d   1      10.349  14.155  -7.116  0.00  0.00    -0.544 OA
ENDBRANCH   3  34
TORSDOF 4
ENDMDL
MODEL 7
REMARK VINA RESULT:      -4.9      3.100      5.946
REMARK  4 active torsions:
REMARK  status: ('A' for Active; 'I' for Inactive)
REMARK    1  A    between atoms: C_1  and  C_2 
REMARK    2  A    between atoms: C_2  and  N_3 
REMARK    3  A    between atoms: C_5  and  C_19 
REMARK    4  A    between atoms: C_11  and  N_14 
ROOT
ATOM      1  N   LIG d   1       5.242  -3.669  -5.791  0.00  0.00    -0.331 N 
ATOM      2  C   LIG d   1       5.379  -4.960  -5.453  0.00  0.00     0.019 A 
ATOM      3  C   LIG d   1       4.849  -5.982  -6.215  0.00  0.00     0.061 A 
ATOM      4  C   LIG d   1       4.108  -5.643  -7.444  0.00  0.00     0.201 A 
ATOM      5  O   LIG d   1       3.621  -6.506  -8.152  0.00  0.00    -0.286 OA
ATOM      6  C   LIG d   1       3.983  -4.216  -7.775  0.00  0.00     0.083 A 
ATOM      7  C   LIG d   1       4.564  -3.264  -6.913  0.00  0.00     0.149 A 
ATOM      8  N   LIG d   1       4.442  -1.977  -7.218  0.00  0.00    -0.196 NA
ATOM      9  C   LIG d   1       3.784  -1.604  -8.304  0.00  0.00     0.220 A 
ATOM     10  N   LIG d   1       3.222  -2.476  -9.133  0.00  0.00    -0.222 NA
ATOM     11  C   LIG d   1       3.304  -3.777  -8.911  0.00  0.00     0.045 A 
ATOM     12  H   LIG d   1       5.923  -5.208  -4.553  0.00  0.00     0.082 H 
ATOM     13  H   LIG d   1       2.845  -4.483  -9.588  0.00  0.00     0.084 H 
ENDROOT
BRANCH   9  14
ATOM     14  N   LIG d   1       3.679  -0.257  -8.586  0.00  0.00    -0.300 N 
ATOM     15  C   LIG d   1       4.452   0.468  -9.610  0.00  0.00     0.015 C 
ATOM     16  C   LIG d   1       3.579   1.702  -9.963  0.00  0.00    -0.036 C 
ATOM     17  H   LIG d   1       5.414   0.784  -9.207  0.00  0.00     0.046 H 
ATOM     18  H   LIG d   1       4.597  -0.157 -10.492  0.00  0.00     0.046 H 
ATOM     19  C   LIG d   1       2.990   2.069  -8.576  0.00  0.00    -0.036 C 
ATOM     20  H   LIG d   1       2.789   1.437 -10.665  0.00  0.00     0.028 H 
ATOM     21  H   LIG d   1       4.193   2.513 -10.355  0.00  0.00     0.028 H 
ATOM     22  C   LIG d   1       2.783   0.692  -7.912  0.00  0.00     0.015 C 
ATOM     23  H   LIG d   1       2.040   2.592  -8.687  0.00  0.00     0.028 H 
ATOM     24  H   LIG d   1       3.697   2.671  -8.004  0.00  0.00     0.028 H 
ATOM     25  H   LIG d   1       1.746   0.375  -8.033  0.00  0.00     0.046 H 
ATOM     26  H   LIG d   1       3.032   0.749  -6.853  0.00  0.00     0.046 H 
ENDBRANCH   9  14
BRANCH   1  27
ATOM     27  C   LIG d   1       5.836  -2.650  -4.923  0.00  0.00     0.022 C 
ATOM     28  H   LIG d   1       5.881  -1.700  -5.457  0.00  0.00     0.049 H 
ATOM     29  H   LIG d   1       6.843  -2.956  -4.640  0.00  0.00     0.049 H 
BRANCH  27  30
ATOM     30  C   LIG d   1       4.979  -2.488  -3.666  0.00  0.00    -0.047 C 
ATOM     31  H   LIG d   1       5.627  -2.384  -2.796  0.00  0.00     0.025 H 
ATOM     32  H   LIG d   1       4.355  -1.600  -3.764  0.00  0.00     0.025 H 
ATOM     33  H   LIG d   1       4.345  -3.366  -3.544  0.00  0.00     0.025 H 
ENDBRANCH  27  30
ENDBRANCH   1  27
BRANCH   3  34
ATOM     34  C   LIG d   1       5.023  -7.382  -5.810  0.00  0.00     0.077 C 
ATOM     35  O   LIG d   1       4.319  -7.856  -4.927  0.00  0.00    -0.544 OA
ATOM     36  O   LIG d   1       5.870  -8.075  -6.355  0.00  0.00    -0.544 OA
ENDBRANCH   3  34
TORSDOF 4
ENDMDL
MODEL 8
REMARK VINA RESULT:      -4.9     10.898     13.061
REMARK  4 active torsions:
REMARK  status: ('A' for Active; 'I' for Inactive)
REMARK    1  A    between atoms: C_1  and  C_2 
REMARK    2  A    between atoms: C_2  and  N_3 
REMARK    3  A    between atoms: C_5  and  C_19 
REMARK    4  A    between atoms: C_11  and  N_14 
ROOT
ATOM      1  N   LIG d   1      10.325   7.947  -4.060  0.00  0.00    -0.331 N 
ATOM      2  C   LIG d   1      10.461   6.618  -3.934  0.00  0.00     0.019 A 
ATOM      3  C   LIG d   1      10.359   5.978  -2.715  0.00  0.00     0.061 A 
ATOM      4  C   LIG d   1      10.092   6.784  -1.509  0.00  0.00     0.201 A 
ATOM      5  O   LIG d   1       9.993   6.269  -0.409  0.00  0.00    -0.286 OA
ATOM      6  C   LIG d   1       9.951   8.236  -1.694  0.00  0.00     0.083 A 
ATOM      7  C   LIG d   1      10.081   8.772  -2.992  0.00  0.00     0.149 A 
ATOM      8  N   LIG d   1       9.957  10.085  -3.148  0.00  0.00    -0.196 NA
ATOM      9  C   LIG d   1       9.721  10.866  -2.106  0.00  0.00     0.220 A 
ATOM     10  N   LIG d   1       9.598  10.392  -0.871  0.00  0.00    -0.222 NA
ATOM     11  C   LIG d   1       9.697   9.096  -0.626  0.00  0.00     0.045 A 
ATOM     12  H   LIG d   1      10.656   6.028  -4.818  0.00  0.00     0.082 H 
ATOM     13  H   LIG d   1       9.596   8.715   0.379  0.00  0.00     0.084 H 
ENDROOT
BRANCH   9  14
ATOM     14  N   LIG d   1       9.599  12.226  -2.310  0.00  0.00    -0.300 N 
ATOM     15  C   LIG d   1       8.820  12.866  -3.385  0.00  0.00     0.015 C 
ATOM     16  C   LIG d   1       8.485  14.280  -2.842  0.00  0.00    -0.036 C 
ATOM     17  H   LIG d   1       9.417  12.937  -4.295  0.00  0.00     0.046 H 
ATOM     18  H   LIG d   1       7.904  12.306  -3.576  0.00  0.00     0.046 H 
ATOM     19  C   LIG d   1       9.788  14.633  -2.079  0.00  0.00    -0.036 C 
ATOM     20  H   LIG d   1       7.632  14.249  -2.165  0.00  0.00     0.028 H 
ATOM     21  H   LIG d   1       8.308  14.979  -3.660  0.00  0.00     0.028 H 
ATOM     22  C   LIG d   1      10.227  13.275  -1.495  0.00  0.00     0.015 C 
ATOM     23  H   LIG d   1       9.586  15.350  -1.282  0.00  0.00     0.028 H 
ATOM     24  H   LIG d   1      10.543  15.021  -2.764  0.00  0.00     0.028 H 
ATOM     25  H   LIG d   1       9.894  13.191  -0.460  0.00  0.00     0.046 H 
ATOM     26  H   LIG d   1      11.312  13.182  -1.544  0.00  0.00     0.046 H 
ENDBRANCH   9  14
BRANCH   1  27
ATOM     27  C   LIG d   1      10.449   8.542  -5.392  0.00  0.00     0.022 C 
ATOM     28  H   LIG d   1      11.347   8.158  -5.879  0.00  0.00     0.049 H 
ATOM     29  H   LIG d   1      10.521   9.625  -5.301  0.00  0.00     0.049 H 
BRANCH  27  30
ATOM     30  C   LIG d   1       9.221   8.179  -6.229  0.00  0.00    -0.047 C 
ATOM     31  H   LIG d   1       9.335   8.583  -7.235  0.00  0.00     0.025 H 
ATOM     32  H   LIG d   1       9.123   7.095  -6.280  0.00  0.00     0.025 H 
ATOM     33  H   LIG d   1       8.329   8.604  -5.767  0.00  0.00     0.025 H 
ENDBRANCH  27  30
ENDBRANCH   1  27
BRANCH   3  34
ATOM     34  C   LIG d   1      10.513   4.522  -2.621  0.00  0.00     0.077 C 
ATOM     35  O   LIG d   1       9.542   3.793  -2.771  0.00  0.00    -0.544 OA
ATOM     36  O   LIG d   1      11.613   4.037  -2.395  0.00  0.00    -0.544 OA
ENDBRANCH   3  34
TORSDOF 4
ENDMDL
MODEL 9
REMARK VINA RESULT:      -4.9     11.247     13.828
REMARK  4 active torsions:
REMARK  status: ('A' for Active; 'I' for Inactive)
REMARK    1  A    between atoms: C_1  and  C_2 
REMARK    2  A    between atoms: C_2  and  N_3 
REMARK    3  A    between atoms: C_5  and  C_19 
REMARK    4  A    between atoms: C_11  and  N_14 
ROOT
ATOM      1  N   LIG d   1      10.298   9.664  -2.101  0.00  0.00    -0.331 N 
ATOM      2  C   LIG d   1      10.533  10.703  -1.285  0.00  0.00     0.019 A 
ATOM      3  C   LIG d   1      10.888  10.536   0.038  0.00  0.00     0.061 A 
ATOM      4  C   LIG d   1      11.014   9.168   0.573  0.00  0.00     0.201 A 
ATOM      5  O   LIG d   1      11.325   8.964   1.734  0.00  0.00    -0.286 OA
ATOM      6  C   LIG d   1      10.747   8.060  -0.356  0.00  0.00     0.083 A 
ATOM      7  C   LIG d   1      10.387   8.360  -1.686  0.00  0.00     0.149 A 
ATOM      8  N   LIG d   1      10.143   7.353  -2.517  0.00  0.00    -0.196 NA
ATOM      9  C   LIG d   1      10.234   6.101  -2.099  0.00  0.00     0.220 A 
ATOM     10  N   LIG d   1      10.566   5.786  -0.852  0.00  0.00    -0.222 NA
ATOM     11  C   LIG d   1      10.836   6.726   0.038  0.00  0.00     0.045 A 
ATOM     12  H   LIG d   1      10.440  11.706  -1.678  0.00  0.00     0.082 H 
ATOM     13  H   LIG d   1      11.106   6.465   1.051  0.00  0.00     0.084 H 
ENDROOT
BRANCH   9  14
ATOM     14  N   LIG d   1       9.973   5.082  -2.993  0.00  0.00    -0.300 N 
ATOM     15  C   LIG d   1      10.225   3.649  -2.760  0.00  0.00     0.015 C 
ATOM     16  C   LIG d   1       9.241   2.915  -3.709  0.00  0.00    -0.036 C 
ATOM     17  H   LIG d   1      11.256   3.400  -3.012  0.00  0.00     0.046 H 
ATOM     18  H   LIG d   1      10.015   3.390  -1.722  0.00  0.00     0.046 H 
ATOM     19  C   LIG d   1       9.266   3.840  -4.954  0.00  0.00    -0.036 C 
ATOM     20  H   LIG d   1       8.241   2.868  -3.278  0.00  0.00     0.028 H 
ATOM     21  H   LIG d   1       9.607   1.918  -3.955  0.00  0.00     0.028 H 
ATOM     22  C   LIG d   1       9.402   5.248  -4.338  0.00  0.00     0.015 C 
ATOM     23  H   LIG d   1       8.337   3.753  -5.518  0.00  0.00     0.028 H 
ATOM     24  H   LIG d   1      10.125   3.611  -5.587  0.00  0.00     0.028 H 
ATOM     25  H   LIG d   1       8.421   5.719  -4.269  0.00  0.00     0.046 H 
ATOM     26  H   LIG d   1      10.066   5.858  -4.949  0.00  0.00     0.046 H 
ENDBRANCH   9  14
BRANCH   1  27
ATOM     27  C   LIG d   1       9.925   9.935  -3.491  0.00  0.00     0.022 C 
ATOM     28  H   LIG d   1       9.345   9.098  -3.880  0.00  0.00     0.049 H 
ATOM     29  H   LIG d   1      10.826  10.062  -4.091  0.00  0.00     0.049 H 
BRANCH  27  30
ATOM     30  C   LIG d   1       9.084  11.212  -3.555  0.00  0.00    -0.047 C 
ATOM     31  H   LIG d   1       8.200  11.034  -4.167  0.00  0.00     0.025 H 
ATOM     32  H   LIG d   1       8.779  11.496  -2.548  0.00  0.00     0.025 H 
ATOM     33  H   LIG d   1       9.676  12.014  -3.996  0.00  0.00     0.025 H 
ENDBRANCH  27  30
ENDBRANCH   1  27
BRANCH   3  34
ATOM     34  C   LIG d   1      11.137  11.700   0.897  0.00  0.00     0.077 C 
ATOM     35  O   LIG d   1      12.284  12.010   1.190  0.00  0.00    -0.544 OA
ATOM     36  O   LIG d   1      10.197  12.360   1.318  0.00  0.00    -0.544 OA
ENDBRANCH   3  34
TORSDOF 4
ENDMDL
MODEL 10
REMARK VINA RESULT:      -4.8      2.504      3.413
REMARK  4 active torsions:
REMARK  status: ('A' for Active; 'I' for Inactive)
REMARK    1  A    between atoms: C_1  and  C_2 
REMARK    2  A    between atoms: C_2  and  N_3 
REMARK    3  A    between atoms: C_5  and  C_19 
REMARK    4  A    between atoms: C_11  and  N_14 
ROOT
ATOM      1  N   LIG d   1       3.641  -2.476  -8.402  0.00  0.00    -0.331 N 
ATOM      2  C   LIG d   1       3.255  -3.516  -9.156  0.00  0.00     0.019 A 
ATOM      3  C   LIG d   1       3.345  -4.821  -8.714  0.00  0.00     0.061 A 
ATOM      4  C   LIG d   1       3.883  -5.080  -7.366  0.00  0.00     0.201 A 
ATOM      5  O   LIG d   1       3.984  -6.212  -6.928  0.00  0.00    -0.286 OA
ATOM      6  C   LIG d   1       4.295  -3.910  -6.576  0.00  0.00     0.083 A 
ATOM      7  C   LIG d   1       4.158  -2.626  -7.140  0.00  0.00     0.149 A 
ATOM      8  N   LIG d   1       4.536  -1.575  -6.420  0.00  0.00    -0.196 NA
ATOM      9  C   LIG d   1       5.033  -1.739  -5.204  0.00  0.00     0.220 A 
ATOM     10  N   LIG d   1       5.179  -2.936  -4.647  0.00  0.00    -0.222 NA
ATOM     11  C   LIG d   1       4.818  -4.034  -5.289  0.00  0.00     0.045 A 
ATOM     12  H   LIG d   1       2.859  -3.325 -10.143  0.00  0.00     0.082 H 
ATOM     13  H   LIG d   1       4.937  -5.005  -4.832  0.00  0.00     0.084 H 
ENDROOT
BRANCH   9  14
ATOM     14  N   LIG d   1       5.415  -0.622  -4.488  0.00  0.00    -0.300 N 
ATOM     15  C   LIG d   1       4.508   0.278  -3.754  0.00  0.00     0.015 C 
ATOM     16  C   LIG d   1       5.399   0.936  -2.668  0.00  0.00    -0.036 C 
ATOM     17  H   LIG d   1       4.101   1.035  -4.424  0.00  0.00     0.046 H 
ATOM     18  H   LIG d   1       3.702  -0.290  -3.290  0.00  0.00     0.046 H 
ATOM     19  C   LIG d   1       6.735   1.119  -3.435  0.00  0.00    -0.036 C 
ATOM     20  H   LIG d   1       5.528   0.275  -1.812  0.00  0.00     0.028 H 
ATOM     21  H   LIG d   1       4.990   1.899  -2.359  0.00  0.00     0.028 H 
ATOM     22  C   LIG d   1       6.792  -0.131  -4.335  0.00  0.00     0.015 C 
ATOM     23  H   LIG d   1       7.578   1.136  -2.743  0.00  0.00     0.028 H 
ATOM     24  H   LIG d   1       6.712   2.028  -4.037  0.00  0.00     0.028 H 
ATOM     25  H   LIG d   1       7.409  -0.898  -3.867  0.00  0.00     0.046 H 
ATOM     26  H   LIG d   1       7.202   0.131  -5.310  0.00  0.00     0.046 H 
ENDBRANCH   9  14
BRANCH   1  27
ATOM     27  C   LIG d   1       3.511  -1.124  -8.951  0.00  0.00     0.022 C 
ATOM     28  H   LIG d   1       4.130  -1.034  -9.844  0.00  0.00     0.049 H 
ATOM     29  H   LIG d   1       3.837  -0.397  -8.208  0.00  0.00     0.049 H 
BRANCH  27  30
ATOM     30  C   LIG d   1       2.048  -0.861  -9.315  0.00  0.00    -0.047 C 
ATOM     31  H   LIG d   1       1.530  -0.441  -8.453  0.00  0.00     0.025 H 
ATOM     32  H   LIG d   1       2.002  -0.157 -10.146  0.00  0.00     0.025 H 
ATOM     33  H   LIG d   1       1.572  -1.797  -9.605  0.00  0.00     0.025 H 
ENDBRANCH  27  30
ENDBRANCH   1  27
BRANCH   3  34
ATOM     34  C   LIG d   1       2.910  -5.930  -9.571  0.00  0.00     0.077 C 
ATOM     35  O   LIG d   1       3.669  -6.384 -10.417  0.00  0.00    -0.544 OA
ATOM     36  O   LIG d   1       1.789  -6.402  -9.437  0.00  0.00    -0.544 OA
ENDBRANCH   3  34
TORSDOF 4
ENDMDL
