MODEL 1
REMARK VINA RESULT:      -6.4      0.000      0.000
REMARK  9 active torsions:
REMARK  status: ('A' for Active; 'I' for Inactive)
REMARK    1  A    between atoms: CD1_1  and  CG1_2 
REMARK    2  A    between atoms: CG1_2  and  CB_3 
REMARK    3  A    between atoms: CB_3  and  CG2_5 
REMARK    4  A    between atoms: CB_3  and  CA_6 
REMARK       I    between atoms: CA_6  and  C_8 
REMARK       I    between atoms: CA_6  and  N_10 
REMARK       I    between atoms: N_10  and  C_11 
REMARK       I    between atoms: C_11  and  N_13 
REMARK    5  A    between atoms: N_13  and  C_14 
REMARK    6  A    between atoms: C_14  and  C_15 
REMARK    7  A    between atoms: C_15  and  C_16 
REMARK    8  A    between atoms: C_19  and  O_22 
REMARK    9  A    between atoms: O_22  and  C_23 
ROOT
ATOM      1  CA  ILE d   1       5.820  -0.082  -3.696  0.00  0.00     0.067 C 
ATOM      2  HA  ILE d   1       6.590  -0.736  -3.287  0.00  0.00     0.056 H 
ATOM      3  C   ILE d   1       5.415  -0.572  -5.062  0.00  0.00     0.062 C 
ATOM      4  O   ILE d   1       5.161   0.221  -5.937  0.00  0.00    -0.548 OA
ATOM      5  N   ILE d   1       6.345   1.282  -3.802  0.00  0.00    -0.291 N 
ATOM      6  H   ILE d   1       5.761   2.040  -3.646  0.00  0.00     0.151 HD
ATOM      7  OXT ILE d   1       5.336  -1.889  -5.305  0.00  0.00    -0.548 OA
ATOM      8  C   UNK d   0       7.640   1.483  -4.116  0.00  0.00     0.300 C 
ATOM      9  O   UNK d   0       8.373   0.533  -4.311  0.00  0.00    -0.253 OA
ATOM     10  N   UNK d   0       8.123   2.737  -4.214  0.00  0.00    -0.299 N 
ATOM     11  H   UNK d   0       7.538   3.495  -4.059  0.00  0.00     0.150 HD
ENDROOT
BRANCH  10  12
ATOM     12  C   UNK d   0       9.531   2.955  -4.555  0.00  0.00     0.017 C 
ATOM     13  H   UNK d   0       9.768   2.424  -5.477  0.00  0.00     0.047 H 
ATOM     14  H   UNK d   0      10.162   2.583  -3.749  0.00  0.00     0.047 H 
BRANCH  12  15
ATOM     15  C   UNK d   0       9.783   4.453  -4.750  0.00  0.00    -0.012 C 
ATOM     16  H   UNK d   0       8.932   4.900  -5.264  0.00  0.00     0.033 H 
ATOM     17  H   UNK d   0      10.684   4.594  -5.347  0.00  0.00     0.033 H 
BRANCH  15  18
ATOM     18  C   UNK d   0       9.961   5.111  -3.406  0.00  0.00    -0.046 A 
ATOM     19  C   UNK d   0      10.704   4.482  -2.424  0.00  0.00    -0.055 A 
ATOM     20  C   UNK d   0      10.867   5.083  -1.190  0.00  0.00    -0.020 A 
ATOM     21  H   UNK d   0      11.156   3.521  -2.621  0.00  0.00     0.062 H 
ATOM     22  C   UNK d   0      10.287   6.317  -0.939  0.00  0.00     0.120 A 
ATOM     23  H   UNK d   0      11.448   4.592  -0.423  0.00  0.00     0.065 H 
ATOM     24  C   UNK d   0       9.542   6.946  -1.926  0.00  0.00    -0.020 A 
ATOM     25  C   UNK d   0       9.381   6.341  -3.157  0.00  0.00    -0.055 A 
ATOM     26  H   UNK d   0       9.092   7.908  -1.734  0.00  0.00     0.065 H 
ATOM     27  H   UNK d   0       8.800   6.829  -3.927  0.00  0.00     0.062 H 
BRANCH  22  28
ATOM     28  O   UNK d   0      10.447   6.910   0.273  0.00  0.00    -0.495 OA
BRANCH  28  29
ATOM     29  C   UNK d   0      11.079   6.137   1.296  0.00  0.00     0.079 C 
ATOM     30  H   UNK d   0      10.839   6.560   2.272  0.00  0.00     0.066 H 
ATOM     31  H   UNK d   0      10.718   5.108   1.247  0.00  0.00     0.066 H 
ATOM     32  H   UNK d   0      12.158   6.151   1.148  0.00  0.00     0.066 H 
ENDBRANCH  28  29
ENDBRANCH  22  28
ENDBRANCH  15  18
ENDBRANCH  12  15
ENDBRANCH  10  12
BRANCH   1  33
ATOM     33  CB  ILE d   1       4.602  -0.088  -2.769  0.00  0.00    -0.020 C 
ATOM     34  HB  ILE d   1       3.691  -0.120  -3.367  0.00  0.00     0.032 H 
BRANCH  33  35
ATOM     35  CG1 ILE d   1       4.658  -1.318  -1.860  0.00  0.00    -0.051 C 
ATOM     36 1HG1 ILE d   1       5.657  -1.754  -1.901  0.00  0.00     0.027 H 
ATOM     37 2HG1 ILE d   1       4.433  -1.023  -0.836  0.00  0.00     0.027 H 
BRANCH  35  38
ATOM     38  CD1 ILE d   1       3.632  -2.349  -2.333  0.00  0.00    -0.065 C 
ATOM     39 1HD1 ILE d   1       2.734  -2.276  -1.719  0.00  0.00     0.023 H 
ATOM     40 2HD1 ILE d   1       3.376  -2.155  -3.375  0.00  0.00     0.023 H 
ATOM     41 3HD1 ILE d   1       4.054  -3.350  -2.243  0.00  0.00     0.023 H 
ENDBRANCH  35  38
ENDBRANCH  33  35
BRANCH  33  42
ATOM     42  CG2 ILE d   1       4.607   1.179  -1.912  0.00  0.00    -0.060 C 
ATOM     43 1HG2 ILE d   1       4.238   0.945  -0.914  0.00  0.00     0.023 H 
ATOM     44 2HG2 ILE d   1       5.623   1.567  -1.843  0.00  0.00     0.023 H 
ATOM     45 3HG2 ILE d   1       3.962   1.930  -2.371  0.00  0.00     0.023 H 
ENDBRANCH  33  42
ENDBRANCH   1  33
TORSDOF 11
ENDMDL
MODEL 2
REMARK VINA RESULT:      -6.3      5.874      9.901
REMARK  9 active torsions:
REMARK  status: ('A' for Active; 'I' for Inactive)
REMARK    1  A    between atoms: CD1_1  and  CG1_2 
REMARK    2  A    between atoms: CG1_2  and  CB_3 
REMARK    3  A    between atoms: CB_3  and  CG2_5 
REMARK    4  A    between atoms: CB_3  and  CA_6 
REMARK       I    between atoms: CA_6  and  C_8 
REMARK       I    between atoms: CA_6  and  N_10 
REMARK       I    between atoms: N_10  and  C_11 
REMARK       I    between atoms: C_11  and  N_13 
REMARK    5  A    between atoms: N_13  and  C_14 
REMARK    6  A    between atoms: C_14  and  C_15 
REMARK    7  A    between atoms: C_15  and  C_16 
REMARK    8  A    between atoms: C_19  and  O_22 
REMARK    9  A    between atoms: O_22  and  C_23 
ROOT
ATOM      1  CA  ILE d   1       4.486  -1.112  -4.134  0.00  0.00     0.067 C 
ATOM      2  HA  ILE d   1       5.237  -0.330  -4.253  0.00  0.00     0.056 H 
ATOM      3  C   ILE d   1       5.111  -2.456  -4.404  0.00  0.00     0.062 C 
ATOM      4  O   ILE d   1       4.481  -3.310  -4.981  0.00  0.00    -0.548 OA
ATOM      5  N   ILE d   1       3.391  -0.884  -5.080  0.00  0.00    -0.291 N 
ATOM      6  H   ILE d   1       2.479  -1.100  -4.828  0.00  0.00     0.151 HD
ATOM      7  OXT ILE d   1       6.368  -2.703  -4.004  0.00  0.00    -0.548 OA
ATOM      8  C   UNK d   0       3.649  -0.374  -6.300  0.00  0.00     0.300 C 
ATOM      9  O   UNK d   0       4.791  -0.103  -6.617  0.00  0.00    -0.253 OA
ATOM     10  N   UNK d   0       2.641  -0.164  -7.170  0.00  0.00    -0.299 N 
ATOM     11  H   UNK d   0       1.730  -0.381  -6.918  0.00  0.00     0.150 HD
ENDROOT
BRANCH  10  12
ATOM     12  C   UNK d   0       2.922   0.390  -8.497  0.00  0.00     0.017 C 
ATOM     13  H   UNK d   0       3.924   0.095  -8.809  0.00  0.00     0.047 H 
ATOM     14  H   UNK d   0       2.859   1.477  -8.457  0.00  0.00     0.047 H 
BRANCH  12  15
ATOM     15  C   UNK d   0       1.898  -0.144  -9.501  0.00  0.00    -0.012 C 
ATOM     16  H   UNK d   0       1.113   0.597  -9.648  0.00  0.00     0.033 H 
ATOM     17  H   UNK d   0       1.460  -1.066  -9.117  0.00  0.00     0.033 H 
BRANCH  15  18
ATOM     18  C   UNK d   0       2.581  -0.423 -10.815  0.00  0.00    -0.046 A 
ATOM     19  C   UNK d   0       3.801   0.165 -11.095  0.00  0.00    -0.055 A 
ATOM     20  C   UNK d   0       4.429  -0.087 -12.300  0.00  0.00    -0.020 A 
ATOM     21  H   UNK d   0       4.263   0.821 -10.373  0.00  0.00     0.062 H 
ATOM     22  C   UNK d   0       3.835  -0.930 -13.227  0.00  0.00     0.120 A 
ATOM     23  H   UNK d   0       5.382   0.371 -12.519  0.00  0.00     0.065 H 
ATOM     24  C   UNK d   0       2.610  -1.519 -12.944  0.00  0.00    -0.020 A 
ATOM     25  C   UNK d   0       1.986  -1.263 -11.738  0.00  0.00    -0.055 A 
ATOM     26  H   UNK d   0       2.148  -2.178 -13.662  0.00  0.00     0.065 H 
ATOM     27  H   UNK d   0       1.033  -1.720 -11.516  0.00  0.00     0.062 H 
BRANCH  22  28
ATOM     28  O   UNK d   0       4.450  -1.181 -14.413  0.00  0.00    -0.495 OA
BRANCH  28  29
ATOM     29  C   UNK d   0       4.307  -0.196 -15.439  0.00  0.00     0.079 C 
ATOM     30  H   UNK d   0       4.869   0.697 -15.168  0.00  0.00     0.066 H 
ATOM     31  H   UNK d   0       4.689  -0.595 -16.380  0.00  0.00     0.066 H 
ATOM     32  H   UNK d   0       3.253   0.058 -15.555  0.00  0.00     0.066 H 
ENDBRANCH  28  29
ENDBRANCH  22  28
ENDBRANCH  15  18
ENDBRANCH  12  15
ENDBRANCH  10  12
BRANCH   1  33
ATOM     33  CB  ILE d   1       3.940  -1.081  -2.704  0.00  0.00    -0.020 C 
ATOM     34  HB  ILE d   1       4.164  -2.026  -2.210  0.00  0.00     0.032 H 
BRANCH  33  35
ATOM     35  CG1 ILE d   1       4.597   0.066  -1.932  0.00  0.00    -0.051 C 
ATOM     36 1HG1 ILE d   1       4.537  -0.136  -0.862  0.00  0.00     0.027 H 
ATOM     37 2HG1 ILE d   1       5.642   0.151  -2.228  0.00  0.00     0.027 H 
BRANCH  35  38
ATOM     38  CD1 ILE d   1       3.869   1.374  -2.245  0.00  0.00    -0.065 C 
ATOM     39 1HD1 ILE d   1       2.925   1.405  -1.700  0.00  0.00     0.023 H 
ATOM     40 2HD1 ILE d   1       4.490   2.217  -1.941  0.00  0.00     0.023 H 
ATOM     41 3HD1 ILE d   1       3.673   1.435  -3.316  0.00  0.00     0.023 H 
ENDBRANCH  35  38
ENDBRANCH  33  35
BRANCH  33  42
ATOM     42  CG2 ILE d   1       2.426  -0.869  -2.742  0.00  0.00    -0.060 C 
ATOM     43 1HG2 ILE d   1       2.157  -0.327  -3.649  0.00  0.00     0.023 H 
ATOM     44 2HG2 ILE d   1       1.923  -1.835  -2.734  0.00  0.00     0.023 H 
ATOM     45 3HG2 ILE d   1       2.118  -0.291  -1.870  0.00  0.00     0.023 H 
ENDBRANCH  33  42
ENDBRANCH   1  33
TORSDOF 11
ENDMDL
MODEL 3
REMARK VINA RESULT:      -6.3      6.173      8.004
REMARK  9 active torsions:
REMARK  status: ('A' for Active; 'I' for Inactive)
REMARK    1  A    between atoms: CD1_1  and  CG1_2 
REMARK    2  A    between atoms: CG1_2  and  CB_3 
REMARK    3  A    between atoms: CB_3  and  CG2_5 
REMARK    4  A    between atoms: CB_3  and  CA_6 
REMARK       I    between atoms: CA_6  and  C_8 
REMARK       I    between atoms: CA_6  and  N_10 
REMARK       I    between atoms: N_10  and  C_11 
REMARK       I    between atoms: C_11  and  N_13 
REMARK    5  A    between atoms: N_13  and  C_14 
REMARK    6  A    between atoms: C_14  and  C_15 
REMARK    7  A    between atoms: C_15  and  C_16 
REMARK    8  A    between atoms: C_19  and  O_22 
REMARK    9  A    between atoms: O_22  and  C_23 
ROOT
ATOM      1  CA  ILE d   1       3.681   0.214  -8.086  0.00  0.00     0.067 C 
ATOM      2  HA  ILE d   1       4.705  -0.085  -7.858  0.00  0.00     0.056 H 
ATOM      3  C   ILE d   1       3.633   1.699  -8.331  0.00  0.00     0.062 C 
ATOM      4  O   ILE d   1       2.687   2.344  -7.945  0.00  0.00    -0.548 OA
ATOM      5  N   ILE d   1       2.813  -0.123  -6.956  0.00  0.00    -0.291 N 
ATOM      6  H   ILE d   1       1.901  -0.414  -7.114  0.00  0.00     0.151 HD
ATOM      7  OXT ILE d   1       4.639   2.305  -8.979  0.00  0.00    -0.548 OA
ATOM      8  C   UNK d   0       3.279  -0.030  -5.695  0.00  0.00     0.300 C 
ATOM      9  O   UNK d   0       4.422   0.333  -5.495  0.00  0.00    -0.253 OA
ATOM     10  N   UNK d   0       2.480  -0.341  -4.655  0.00  0.00    -0.299 N 
ATOM     11  H   UNK d   0       1.568  -0.630  -4.814  0.00  0.00     0.150 HD
ENDROOT
BRANCH  10  12
ATOM     12  C   UNK d   0       2.988  -0.239  -3.285  0.00  0.00     0.017 C 
ATOM     13  H   UNK d   0       2.237   0.234  -2.653  0.00  0.00     0.047 H 
ATOM     14  H   UNK d   0       3.899   0.359  -3.278  0.00  0.00     0.047 H 
BRANCH  12  15
ATOM     15  C   UNK d   0       3.295  -1.640  -2.750  0.00  0.00    -0.012 C 
ATOM     16  H   UNK d   0       2.515  -2.330  -3.070  0.00  0.00     0.033 H 
ATOM     17  H   UNK d   0       3.331  -1.613  -1.660  0.00  0.00     0.033 H 
BRANCH  15  18
ATOM     18  C   UNK d   0       4.626  -2.102  -3.285  0.00  0.00    -0.046 A 
ATOM     19  C   UNK d   0       5.791  -1.494  -2.855  0.00  0.00    -0.055 A 
ATOM     20  C   UNK d   0       7.012  -1.914  -3.345  0.00  0.00    -0.020 A 
ATOM     21  H   UNK d   0       5.746  -0.690  -2.135  0.00  0.00     0.062 H 
ATOM     22  C   UNK d   0       7.069  -2.947  -4.270  0.00  0.00     0.120 A 
ATOM     23  H   UNK d   0       7.922  -1.439  -3.009  0.00  0.00     0.065 H 
ATOM     24  C   UNK d   0       5.899  -3.555  -4.700  0.00  0.00    -0.020 A 
ATOM     25  C   UNK d   0       4.680  -3.132  -4.207  0.00  0.00    -0.055 A 
ATOM     26  H   UNK d   0       5.940  -4.362  -5.416  0.00  0.00     0.065 H 
ATOM     27  H   UNK d   0       3.768  -3.604  -4.542  0.00  0.00     0.062 H 
BRANCH  22  28
ATOM     28  O   UNK d   0       8.269  -3.363  -4.753  0.00  0.00    -0.495 OA
BRANCH  28  29
ATOM     29  C   UNK d   0       8.725  -4.651  -4.335  0.00  0.00     0.079 C 
ATOM     30  H   UNK d   0       8.297  -4.891  -3.362  0.00  0.00     0.066 H 
ATOM     31  H   UNK d   0       8.413  -5.400  -5.064  0.00  0.00     0.066 H 
ATOM     32  H   UNK d   0       9.812  -4.646  -4.263  0.00  0.00     0.066 H 
ENDBRANCH  28  29
ENDBRANCH  22  28
ENDBRANCH  15  18
ENDBRANCH  12  15
ENDBRANCH  10  12
BRANCH   1  33
ATOM     33  CB  ILE d   1       3.202  -0.526  -9.336  0.00  0.00    -0.020 C 
ATOM     34  HB  ILE d   1       3.641  -0.067 -10.221  0.00  0.00     0.032 H 
BRANCH  33  35
ATOM     35  CG1 ILE d   1       3.630  -1.993  -9.258  0.00  0.00    -0.051 C 
ATOM     36 1HG1 ILE d   1       4.518  -2.146  -9.873  0.00  0.00     0.027 H 
ATOM     37 2HG1 ILE d   1       3.857  -2.250  -8.223  0.00  0.00     0.027 H 
BRANCH  35  38
ATOM     38  CD1 ILE d   1       2.497  -2.884  -9.769  0.00  0.00    -0.065 C 
ATOM     39 1HD1 ILE d   1       2.917  -3.733 -10.308  0.00  0.00     0.023 H 
ATOM     40 2HD1 ILE d   1       1.911  -3.246  -8.924  0.00  0.00     0.023 H 
ATOM     41 3HD1 ILE d   1       1.856  -2.310 -10.437  0.00  0.00     0.023 H 
ENDBRANCH  35  38
ENDBRANCH  33  35
BRANCH  33  42
ATOM     42  CG2 ILE d   1       1.676  -0.445  -9.422  0.00  0.00    -0.060 C 
ATOM     43 1HG2 ILE d   1       1.385   0.530  -9.813  0.00  0.00     0.023 H 
ATOM     44 2HG2 ILE d   1       1.307  -1.228 -10.085  0.00  0.00     0.023 H 
ATOM     45 3HG2 ILE d   1       1.249  -0.579  -8.427  0.00  0.00     0.023 H 
ENDBRANCH  33  42
ENDBRANCH   1  33
TORSDOF 11
ENDMDL
MODEL 4
REMARK VINA RESULT:      -6.1      2.293      3.068
REMARK  9 active torsions:
REMARK  status: ('A' for Active; 'I' for Inactive)
REMARK    1  A    between atoms: CD1_1  and  CG1_2 
REMARK    2  A    between atoms: CG1_2  and  CB_3 
REMARK    3  A    between atoms: CB_3  and  CG2_5 
REMARK    4  A    between atoms: CB_3  and  CA_6 
REMARK       I    between atoms: CA_6  and  C_8 
REMARK       I    between atoms: CA_6  and  N_10 
REMARK       I    between atoms: N_10  and  C_11 
REMARK       I    between atoms: C_11  and  N_13 
REMARK    5  A    between atoms: N_13  and  C_14 
REMARK    6  A    between atoms: C_14  and  C_15 
REMARK    7  A    between atoms: C_15  and  C_16 
REMARK    8  A    between atoms: C_19  and  O_22 
REMARK    9  A    between atoms: O_22  and  C_23 
ROOT
ATOM      1  CA  ILE d   1       4.931  -0.133  -4.030  0.00  0.00     0.067 C 
ATOM      2  HA  ILE d   1       5.402  -0.948  -3.480  0.00  0.00     0.056 H 
ATOM      3  C   ILE d   1       4.781  -0.523  -5.477  0.00  0.00     0.062 C 
ATOM      4  O   ILE d   1       4.944   0.301  -6.345  0.00  0.00    -0.548 OA
ATOM      5  N   ILE d   1       5.765   1.067  -3.932  0.00  0.00    -0.291 N 
ATOM      6  H   ILE d   1       5.352   1.943  -3.885  0.00  0.00     0.151 HD
ATOM      7  OXT ILE d   1       4.464  -1.786  -5.802  0.00  0.00    -0.548 OA
ATOM      8  C   UNK d   0       7.108   0.955  -3.908  0.00  0.00     0.300 C 
ATOM      9  O   UNK d   0       7.627  -0.143  -3.967  0.00  0.00    -0.253 OA
ATOM     10  N   UNK d   0       7.876   2.059  -3.817  0.00  0.00    -0.299 N 
ATOM     11  H   UNK d   0       7.462   2.935  -3.771  0.00  0.00     0.150 HD
ENDROOT
BRANCH  10  12
ATOM     12  C   UNK d   0       9.335   1.936  -3.791  0.00  0.00     0.017 C 
ATOM     13  H   UNK d   0       9.709   1.822  -4.808  0.00  0.00     0.047 H 
ATOM     14  H   UNK d   0       9.616   1.064  -3.201  0.00  0.00     0.047 H 
BRANCH  12  15
ATOM     15  C   UNK d   0       9.942   3.194  -3.163  0.00  0.00    -0.012 C 
ATOM     16  H   UNK d   0      10.992   3.014  -2.932  0.00  0.00     0.033 H 
ATOM     17  H   UNK d   0       9.404   3.437  -2.246  0.00  0.00     0.033 H 
BRANCH  15  18
ATOM     18  C   UNK d   0       9.830   4.343  -4.132  0.00  0.00    -0.046 A 
ATOM     19  C   UNK d   0      10.051   4.131  -5.480  0.00  0.00    -0.055 A 
ATOM     20  C   UNK d   0       9.950   5.183  -6.370  0.00  0.00    -0.020 A 
ATOM     21  H   UNK d   0      10.303   3.144  -5.838  0.00  0.00     0.062 H 
ATOM     22  C   UNK d   0       9.626   6.451  -5.910  0.00  0.00     0.120 A 
ATOM     23  H   UNK d   0      10.123   5.019  -7.423  0.00  0.00     0.065 H 
ATOM     24  C   UNK d   0       9.404   6.661  -4.557  0.00  0.00    -0.020 A 
ATOM     25  C   UNK d   0       9.507   5.606  -3.671  0.00  0.00    -0.055 A 
ATOM     26  H   UNK d   0       9.148   7.645  -4.196  0.00  0.00     0.065 H 
ATOM     27  H   UNK d   0       9.335   5.767  -2.616  0.00  0.00     0.062 H 
BRANCH  22  28
ATOM     28  O   UNK d   0       9.525   7.487  -6.783  0.00  0.00    -0.495 OA
BRANCH  28  29
ATOM     29  C   UNK d   0       9.505   8.804  -6.228  0.00  0.00     0.079 C 
ATOM     30  H   UNK d   0       8.532   8.993  -5.776  0.00  0.00     0.066 H 
ATOM     31  H   UNK d   0      10.282   8.889  -5.467  0.00  0.00     0.066 H 
ATOM     32  H   UNK d   0       9.688   9.534  -7.016  0.00  0.00     0.066 H 
ENDBRANCH  28  29
ENDBRANCH  22  28
ENDBRANCH  15  18
ENDBRANCH  12  15
ENDBRANCH  10  12
BRANCH   1  33
ATOM     33  CB  ILE d   1       3.552   0.155  -3.432  0.00  0.00    -0.020 C 
ATOM     34  HB  ILE d   1       2.893   0.540  -4.210  0.00  0.00     0.032 H 
BRANCH  33  35
ATOM     35  CG1 ILE d   1       2.965  -1.137  -2.859  0.00  0.00    -0.051 C 
ATOM     36 1HG1 ILE d   1       2.187  -0.891  -2.134  0.00  0.00     0.027 H 
ATOM     37 2HG1 ILE d   1       2.535  -1.730  -3.665  0.00  0.00     0.027 H 
BRANCH  35  38
ATOM     38  CD1 ILE d   1       4.070  -1.937  -2.169  0.00  0.00    -0.065 C 
ATOM     39 1HD1 ILE d   1       4.652  -2.475  -2.918  0.00  0.00     0.023 H 
ATOM     40 2HD1 ILE d   1       4.724  -1.257  -1.622  0.00  0.00     0.023 H 
ATOM     41 3HD1 ILE d   1       3.624  -2.649  -1.474  0.00  0.00     0.023 H 
ENDBRANCH  35  38
ENDBRANCH  33  35
BRANCH  33  42
ATOM     42  CG2 ILE d   1       3.687   1.193  -2.317  0.00  0.00    -0.060 C 
ATOM     43 1HG2 ILE d   1       4.474   0.886  -1.628  0.00  0.00     0.023 H 
ATOM     44 2HG2 ILE d   1       3.940   2.161  -2.749  0.00  0.00     0.023 H 
ATOM     45 3HG2 ILE d   1       2.742   1.271  -1.777  0.00  0.00     0.023 H 
ENDBRANCH  33  42
ENDBRANCH   1  33
TORSDOF 11
ENDMDL
MODEL 5
REMARK VINA RESULT:      -6.0      4.912      7.063
REMARK  9 active torsions:
REMARK  status: ('A' for Active; 'I' for Inactive)
REMARK    1  A    between atoms: CD1_1  and  CG1_2 
REMARK    2  A    between atoms: CG1_2  and  CB_3 
REMARK    3  A    between atoms: CB_3  and  CG2_5 
REMARK    4  A    between atoms: CB_3  and  CA_6 
REMARK       I    between atoms: CA_6  and  C_8 
REMARK       I    between atoms: CA_6  and  N_10 
REMARK       I    between atoms: N_10  and  C_11 
REMARK       I    between atoms: C_11  and  N_13 
REMARK    5  A    between atoms: N_13  and  C_14 
REMARK    6  A    between atoms: C_14  and  C_15 
REMARK    7  A    between atoms: C_15  and  C_16 
REMARK    8  A    between atoms: C_19  and  O_22 
REMARK    9  A    between atoms: O_22  and  C_23 
ROOT
ATOM      1  CA  ILE d   1       2.769  -0.087  -7.394  0.00  0.00     0.067 C 
ATOM      2  HA  ILE d   1       1.901  -0.668  -7.080  0.00  0.00     0.056 H 
ATOM      3  C   ILE d   1       3.924  -1.015  -7.666  0.00  0.00     0.062 C 
ATOM      4  O   ILE d   1       5.047  -0.685  -7.367  0.00  0.00    -0.548 OA
ATOM      5  N   ILE d   1       3.136   0.852  -6.332  0.00  0.00    -0.291 N 
ATOM      6  H   ILE d   1       3.485   1.729  -6.558  0.00  0.00     0.151 HD
ATOM      7  OXT ILE d   1       3.705  -2.207  -8.241  0.00  0.00    -0.548 OA
ATOM      8  C   UNK d   0       2.990   0.500  -5.039  0.00  0.00     0.300 C 
ATOM      9  O   UNK d   0       2.552  -0.598  -4.755  0.00  0.00    -0.253 OA
ATOM     10  N   UNK d   0       3.328   1.364  -4.062  0.00  0.00    -0.299 N 
ATOM     11  H   UNK d   0       3.677   2.240  -4.289  0.00  0.00     0.150 HD
ENDROOT
BRANCH  10  12
ATOM     12  C   UNK d   0       3.168   0.980  -2.657  0.00  0.00     0.017 C 
ATOM     13  H   UNK d   0       2.774  -0.034  -2.601  0.00  0.00     0.047 H 
ATOM     14  H   UNK d   0       2.477   1.666  -2.169  0.00  0.00     0.047 H 
BRANCH  12  15
ATOM     15  C   UNK d   0       4.527   1.038  -1.954  0.00  0.00    -0.012 C 
ATOM     16  H   UNK d   0       4.425   0.662  -0.937  0.00  0.00     0.033 H 
ATOM     17  H   UNK d   0       4.877   2.070  -1.928  0.00  0.00     0.033 H 
BRANCH  15  18
ATOM     18  C   UNK d   0       5.519   0.190  -2.708  0.00  0.00    -0.046 A 
ATOM     19  C   UNK d   0       6.539   0.793  -3.421  0.00  0.00    -0.055 A 
ATOM     20  C   UNK d   0       7.449   0.017  -4.114  0.00  0.00    -0.020 A 
ATOM     21  H   UNK d   0       6.625   1.869  -3.436  0.00  0.00     0.062 H 
ATOM     22  C   UNK d   0       7.338  -1.365  -4.094  0.00  0.00     0.120 A 
ATOM     23  H   UNK d   0       8.246   0.487  -4.670  0.00  0.00     0.065 H 
ATOM     24  C   UNK d   0       6.313  -1.967  -3.379  0.00  0.00    -0.020 A 
ATOM     25  C   UNK d   0       5.405  -1.188  -2.687  0.00  0.00    -0.055 A 
ATOM     26  H   UNK d   0       6.226  -3.043  -3.358  0.00  0.00     0.065 H 
ATOM     27  H   UNK d   0       4.606  -1.655  -2.130  0.00  0.00     0.062 H 
BRANCH  22  28
ATOM     28  O   UNK d   0       8.231  -2.130  -4.775  0.00  0.00    -0.495 OA
BRANCH  28  29
ATOM     29  C   UNK d   0       8.078  -3.548  -4.678  0.00  0.00     0.079 C 
ATOM     30  H   UNK d   0       8.896  -4.039  -5.205  0.00  0.00     0.066 H 
ATOM     31  H   UNK d   0       8.092  -3.844  -3.628  0.00  0.00     0.066 H 
ATOM     32  H   UNK d   0       7.129  -3.842  -5.125  0.00  0.00     0.066 H 
ENDBRANCH  28  29
ENDBRANCH  22  28
ENDBRANCH  15  18
ENDBRANCH  12  15
ENDBRANCH  10  12
BRANCH   1  33
ATOM     33  CB  ILE d   1       2.428   0.691  -8.667  0.00  0.00    -0.020 C 
ATOM     34  HB  ILE d   1       1.360   0.605  -8.870  0.00  0.00     0.032 H 
BRANCH  33  35
ATOM     35  CG1 ILE d   1       2.793   2.165  -8.478  0.00  0.00    -0.051 C 
ATOM     36 1HG1 ILE d   1       1.919   2.785  -8.684  0.00  0.00     0.027 H 
ATOM     37 2HG1 ILE d   1       3.121   2.329  -7.452  0.00  0.00     0.027 H 
BRANCH  35  38
ATOM     38  CD1 ILE d   1       3.921   2.539  -9.441  0.00  0.00    -0.065 C 
ATOM     39 1HD1 ILE d   1       4.053   1.742 -10.173  0.00  0.00     0.023 H 
ATOM     40 2HD1 ILE d   1       3.666   3.466  -9.955  0.00  0.00     0.023 H 
ATOM     41 3HD1 ILE d   1       4.846   2.676  -8.881  0.00  0.00     0.023 H 
ENDBRANCH  35  38
ENDBRANCH  33  35
BRANCH  33  42
ATOM     42  CG2 ILE d   1       3.221   0.116  -9.843  0.00  0.00    -0.060 C 
ATOM     43 1HG2 ILE d   1       4.288   0.216  -9.645  0.00  0.00     0.023 H 
ATOM     44 2HG2 ILE d   1       2.970  -0.937  -9.970  0.00  0.00     0.023 H 
ATOM     45 3HG2 ILE d   1       2.968   0.663 -10.752  0.00  0.00     0.023 H 
ENDBRANCH  33  42
ENDBRANCH   1  33
TORSDOF 11
ENDMDL
MODEL 6
REMARK VINA RESULT:      -5.9      5.671     10.578
REMARK  9 active torsions:
REMARK  status: ('A' for Active; 'I' for Inactive)
REMARK    1  A    between atoms: CD1_1  and  CG1_2 
REMARK    2  A    between atoms: CG1_2  and  CB_3 
REMARK    3  A    between atoms: CB_3  and  CG2_5 
REMARK    4  A    between atoms: CB_3  and  CA_6 
REMARK       I    between atoms: CA_6  and  C_8 
REMARK       I    between atoms: CA_6  and  N_10 
REMARK       I    between atoms: N_10  and  C_11 
REMARK       I    between atoms: C_11  and  N_13 
REMARK    5  A    between atoms: N_13  and  C_14 
REMARK    6  A    between atoms: C_14  and  C_15 
REMARK    7  A    between atoms: C_15  and  C_16 
REMARK    8  A    between atoms: C_19  and  O_22 
REMARK    9  A    between atoms: O_22  and  C_23 
ROOT
ATOM      1  CA  ILE d   1       4.948  -0.931  -3.872  0.00  0.00     0.067 C 
ATOM      2  HA  ILE d   1       5.422   0.038  -4.034  0.00  0.00     0.056 H 
ATOM      3  C   ILE d   1       5.991  -2.017  -3.918  0.00  0.00     0.062 C 
ATOM      4  O   ILE d   1       5.731  -3.082  -4.425  0.00  0.00    -0.548 OA
ATOM      5  N   ILE d   1       3.951  -1.166  -4.919  0.00  0.00    -0.291 N 
ATOM      6  H   ILE d   1       3.132  -1.641  -4.712  0.00  0.00     0.151 HD
ATOM      7  OXT ILE d   1       7.207  -1.801  -3.394  0.00  0.00    -0.548 OA
ATOM      8  C   UNK d   0       4.172  -0.722  -6.173  0.00  0.00     0.300 C 
ATOM      9  O   UNK d   0       5.199  -0.126  -6.434  0.00  0.00    -0.253 OA
ATOM     10  N   UNK d   0       3.256  -0.938  -7.137  0.00  0.00    -0.299 N 
ATOM     11  H   UNK d   0       2.437  -1.414  -6.928  0.00  0.00     0.150 HD
ENDROOT
BRANCH  10  12
ATOM     12  C   UNK d   0       3.497  -0.455  -8.498  0.00  0.00     0.017 C 
ATOM     13  H   UNK d   0       3.972  -1.242  -9.084  0.00  0.00     0.047 H 
ATOM     14  H   UNK d   0       4.148   0.417  -8.465  0.00  0.00     0.047 H 
BRANCH  12  15
ATOM     15  C   UNK d   0       2.164  -0.072  -9.147  0.00  0.00    -0.012 C 
ATOM     16  H   UNK d   0       2.275   0.878  -9.669  0.00  0.00     0.033 H 
ATOM     17  H   UNK d   0       1.399   0.022  -8.376  0.00  0.00     0.033 H 
BRANCH  15  18
ATOM     18  C   UNK d   0       1.759  -1.141 -10.130  0.00  0.00    -0.046 A 
ATOM     19  C   UNK d   0       1.961  -2.474  -9.820  0.00  0.00    -0.055 A 
ATOM     20  C   UNK d   0       1.591  -3.455 -10.720  0.00  0.00    -0.020 A 
ATOM     21  H   UNK d   0       2.407  -2.747  -8.876  0.00  0.00     0.062 H 
ATOM     22  C   UNK d   0       1.018  -3.103 -11.933  0.00  0.00     0.120 A 
ATOM     23  H   UNK d   0       1.748  -4.496 -10.479  0.00  0.00     0.065 H 
ATOM     24  C   UNK d   0       0.817  -1.765 -12.241  0.00  0.00    -0.020 A 
ATOM     25  C   UNK d   0       1.188  -0.787 -11.338  0.00  0.00    -0.055 A 
ATOM     26  H   UNK d   0       0.367  -1.488 -13.182  0.00  0.00     0.065 H 
ATOM     27  H   UNK d   0       1.033   0.255 -11.577  0.00  0.00     0.062 H 
BRANCH  22  28
ATOM     28  O   UNK d   0       0.653  -4.066 -12.819  0.00  0.00    -0.495 OA
BRANCH  28  29
ATOM     29  C   UNK d   0       0.764  -3.746 -14.208  0.00  0.00     0.079 C 
ATOM     30  H   UNK d   0       0.031  -2.981 -14.464  0.00  0.00     0.066 H 
ATOM     31  H   UNK d   0       1.768  -3.372 -14.414  0.00  0.00     0.066 H 
ATOM     32  H   UNK d   0       0.580  -4.640 -14.803  0.00  0.00     0.066 H 
ENDBRANCH  28  29
ENDBRANCH  22  28
ENDBRANCH  15  18
ENDBRANCH  12  15
ENDBRANCH  10  12
BRANCH   1  33
ATOM     33  CB  ILE d   1       4.261  -0.939  -2.504  0.00  0.00    -0.020 C 
ATOM     34  HB  ILE d   1       4.634  -1.778  -1.916  0.00  0.00     0.032 H 
BRANCH  33  35
ATOM     35  CG1 ILE d   1       4.564   0.371  -1.773  0.00  0.00    -0.051 C 
ATOM     36 1HG1 ILE d   1       4.305   0.266  -0.718  0.00  0.00     0.027 H 
ATOM     37 2HG1 ILE d   1       5.625   0.602  -1.865  0.00  0.00     0.027 H 
BRANCH  35  38
ATOM     38  CD1 ILE d   1       3.739   1.501  -2.390  0.00  0.00    -0.065 C 
ATOM     39 1HD1 ILE d   1       4.256   2.450  -2.245  0.00  0.00     0.023 H 
ATOM     40 2HD1 ILE d   1       3.612   1.317  -3.457  0.00  0.00     0.023 H 
ATOM     41 3HD1 ILE d   1       2.761   1.543  -1.909  0.00  0.00     0.023 H 
ENDBRANCH  35  38
ENDBRANCH  33  35
BRANCH  33  42
ATOM     42  CG2 ILE d   1       2.750  -1.080  -2.694  0.00  0.00    -0.060 C 
ATOM     43 1HG2 ILE d   1       2.459  -2.119  -2.539  0.00  0.00     0.023 H 
ATOM     44 2HG2 ILE d   1       2.232  -0.446  -1.974  0.00  0.00     0.023 H 
ATOM     45 3HG2 ILE d   1       2.481  -0.775  -3.707  0.00  0.00     0.023 H 
ENDBRANCH  33  42
ENDBRANCH   1  33
TORSDOF 11
ENDMDL
MODEL 7
REMARK VINA RESULT:      -5.9      4.483      6.599
REMARK  9 active torsions:
REMARK  status: ('A' for Active; 'I' for Inactive)
REMARK    1  A    between atoms: CD1_1  and  CG1_2 
REMARK    2  A    between atoms: CG1_2  and  CB_3 
REMARK    3  A    between atoms: CB_3  and  CG2_5 
REMARK    4  A    between atoms: CB_3  and  CA_6 
REMARK       I    between atoms: CA_6  and  C_8 
REMARK       I    between atoms: CA_6  and  N_10 
REMARK       I    between atoms: N_10  and  C_11 
REMARK       I    between atoms: C_11  and  N_13 
REMARK    5  A    between atoms: N_13  and  C_14 
REMARK    6  A    between atoms: C_14  and  C_15 
REMARK    7  A    between atoms: C_15  and  C_16 
REMARK    8  A    between atoms: C_19  and  O_22 
REMARK    9  A    between atoms: O_22  and  C_23 
ROOT
ATOM      1  CA  ILE d   1       3.798   0.017  -7.778  0.00  0.00     0.067 C 
ATOM      2  HA  ILE d   1       3.408  -1.000  -7.731  0.00  0.00     0.056 H 
ATOM      3  C   ILE d   1       5.297  -0.025  -7.923  0.00  0.00     0.062 C 
ATOM      4  O   ILE d   1       5.982   0.793  -7.356  0.00  0.00    -0.548 OA
ATOM      5  N   ILE d   1       3.447   0.732  -6.549  0.00  0.00    -0.291 N 
ATOM      6  H   ILE d   1       3.238   1.678  -6.580  0.00  0.00     0.151 HD
ATOM      7  OXT ILE d   1       5.871  -0.971  -8.682  0.00  0.00    -0.548 OA
ATOM      8  C   UNK d   0       3.413   0.075  -5.372  0.00  0.00     0.300 C 
ATOM      9  O   UNK d   0       3.674  -1.112  -5.332  0.00  0.00    -0.253 OA
ATOM     10  N   UNK d   0       3.089   0.732  -4.241  0.00  0.00    -0.299 N 
ATOM     11  H   UNK d   0       2.881   1.679  -4.274  0.00  0.00     0.150 HD
ENDROOT
BRANCH  10  12
ATOM     12  C   UNK d   0       3.052   0.017  -2.964  0.00  0.00     0.017 C 
ATOM     13  H   UNK d   0       3.125  -1.055  -3.145  0.00  0.00     0.047 H 
ATOM     14  H   UNK d   0       2.116   0.236  -2.451  0.00  0.00     0.047 H 
BRANCH  12  15
ATOM     15  C   UNK d   0       4.228   0.467  -2.093  0.00  0.00    -0.012 C 
ATOM     16  H   UNK d   0       4.231  -0.103  -1.164  0.00  0.00     0.033 H 
ATOM     17  H   UNK d   0       4.127   1.529  -1.868  0.00  0.00     0.033 H 
BRANCH  15  18
ATOM     18  C   UNK d   0       5.520   0.231  -2.833  0.00  0.00    -0.046 A 
ATOM     19  C   UNK d   0       6.249   1.306  -3.305  0.00  0.00    -0.055 A 
ATOM     20  C   UNK d   0       7.433   1.093  -3.985  0.00  0.00    -0.020 A 
ATOM     21  H   UNK d   0       5.894   2.313  -3.143  0.00  0.00     0.062 H 
ATOM     22  C   UNK d   0       7.889  -0.201  -4.192  0.00  0.00     0.120 A 
ATOM     23  H   UNK d   0       8.004   1.932  -4.354  0.00  0.00     0.065 H 
ATOM     24  C   UNK d   0       7.155  -1.278  -3.717  0.00  0.00    -0.020 A 
ATOM     25  C   UNK d   0       5.972  -1.060  -3.038  0.00  0.00    -0.055 A 
ATOM     26  H   UNK d   0       7.509  -2.286  -3.873  0.00  0.00     0.065 H 
ATOM     27  H   UNK d   0       5.398  -1.897  -2.668  0.00  0.00     0.062 H 
BRANCH  22  28
ATOM     28  O   UNK d   0       9.053  -0.414  -4.860  0.00  0.00    -0.495 OA
BRANCH  28  29
ATOM     29  C   UNK d   0       8.952  -0.865  -6.213  0.00  0.00     0.079 C 
ATOM     30  H   UNK d   0       9.246  -1.913  -6.269  0.00  0.00     0.066 H 
ATOM     31  H   UNK d   0       7.923  -0.757  -6.555  0.00  0.00     0.066 H 
ATOM     32  H   UNK d   0       9.609  -0.269  -6.845  0.00  0.00     0.066 H 
ENDBRANCH  28  29
ENDBRANCH  22  28
ENDBRANCH  15  18
ENDBRANCH  12  15
ENDBRANCH  10  12
BRANCH   1  33
ATOM     33  CB  ILE d   1       3.189   0.741  -8.981  0.00  0.00    -0.020 C 
ATOM     34  HB  ILE d   1       3.927   0.800  -9.781  0.00  0.00     0.032 H 
BRANCH  33  35
ATOM     35  CG1 ILE d   1       1.963  -0.031  -9.474  0.00  0.00    -0.051 C 
ATOM     36 1HG1 ILE d   1       1.109   0.198  -8.835  0.00  0.00     0.027 H 
ATOM     37 2HG1 ILE d   1       1.738   0.261 -10.499  0.00  0.00     0.027 H 
BRANCH  35  38
ATOM     38  CD1 ILE d   1       2.251  -1.532  -9.422  0.00  0.00    -0.065 C 
ATOM     39 1HD1 ILE d   1       3.144  -1.752 -10.007  0.00  0.00     0.023 H 
ATOM     40 2HD1 ILE d   1       2.412  -1.835  -8.386  0.00  0.00     0.023 H 
ATOM     41 3HD1 ILE d   1       1.402  -2.080  -9.832  0.00  0.00     0.023 H 
ENDBRANCH  35  38
ENDBRANCH  33  35
BRANCH  33  42
ATOM     42  CG2 ILE d   1       2.770   2.153  -8.566  0.00  0.00    -0.060 C 
ATOM     43 1HG2 ILE d   1       2.606   2.182  -7.489  0.00  0.00     0.023 H 
ATOM     44 2HG2 ILE d   1       3.555   2.859  -8.834  0.00  0.00     0.023 H 
ATOM     45 3HG2 ILE d   1       1.846   2.423  -9.081  0.00  0.00     0.023 H 
ENDBRANCH  33  42
ENDBRANCH   1  33
TORSDOF 11
ENDMDL
MODEL 8
REMARK VINA RESULT:      -5.6      3.648      6.623
REMARK  9 active torsions:
REMARK  status: ('A' for Active; 'I' for Inactive)
REMARK    1  A    between atoms: CD1_1  and  CG1_2 
REMARK    2  A    between atoms: CG1_2  and  CB_3 
REMARK    3  A    between atoms: CB_3  and  CG2_5 
REMARK    4  A    between atoms: CB_3  and  CA_6 
REMARK       I    between atoms: CA_6  and  C_8 
REMARK       I    between atoms: CA_6  and  N_10 
REMARK       I    between atoms: N_10  and  C_11 
REMARK       I    between atoms: C_11  and  N_13 
REMARK    5  A    between atoms: N_13  and  C_14 
REMARK    6  A    between atoms: C_14  and  C_15 
REMARK    7  A    between atoms: C_15  and  C_16 
REMARK    8  A    between atoms: C_19  and  O_22 
REMARK    9  A    between atoms: O_22  and  C_23 
ROOT
ATOM      1  CA  ILE d   1       4.043   0.149  -7.865  0.00  0.00     0.067 C 
ATOM      2  HA  ILE d   1       4.403   1.094  -7.457  0.00  0.00     0.056 H 
ATOM      3  C   ILE d   1       2.729   0.373  -8.568  0.00  0.00     0.062 C 
ATOM      4  O   ILE d   1       1.857  -0.460  -8.496  0.00  0.00    -0.548 OA
ATOM      5  N   ILE d   1       3.856  -0.812  -6.775  0.00  0.00    -0.291 N 
ATOM      6  H   ILE d   1       4.040  -1.753  -6.921  0.00  0.00     0.151 HD
ATOM      7  OXT ILE d   1       2.529   1.496  -9.273  0.00  0.00    -0.548 OA
ATOM      8  C   UNK d   0       3.430  -0.389  -5.568  0.00  0.00     0.300 C 
ATOM      9  O   UNK d   0       3.201   0.790  -5.384  0.00  0.00    -0.253 OA
ATOM     10  N   UNK d   0       3.259  -1.273  -4.566  0.00  0.00    -0.299 N 
ATOM     11  H   UNK d   0       3.442  -2.214  -4.713  0.00  0.00     0.150 HD
ENDROOT
BRANCH  10  12
ATOM     12  C   UNK d   0       2.796  -0.813  -3.255  0.00  0.00     0.017 C 
ATOM     13  H   UNK d   0       1.923  -1.392  -2.954  0.00  0.00     0.047 H 
ATOM     14  H   UNK d   0       2.530   0.242  -3.313  0.00  0.00     0.047 H 
BRANCH  12  15
ATOM     15  C   UNK d   0       3.912  -1.002  -2.224  0.00  0.00    -0.012 C 
ATOM     16  H   UNK d   0       4.034  -2.063  -2.011  0.00  0.00     0.033 H 
ATOM     17  H   UNK d   0       3.652  -0.474  -1.307  0.00  0.00     0.033 H 
BRANCH  15  18
ATOM     18  C   UNK d   0       5.202  -0.448  -2.774  0.00  0.00    -0.046 A 
ATOM     19  C   UNK d   0       5.406   0.920  -2.806  0.00  0.00    -0.055 A 
ATOM     20  C   UNK d   0       6.587   1.430  -3.311  0.00  0.00    -0.020 A 
ATOM     21  H   UNK d   0       4.643   1.588  -2.435  0.00  0.00     0.062 H 
ATOM     22  C   UNK d   0       7.566   0.570  -3.785  0.00  0.00     0.120 A 
ATOM     23  H   UNK d   0       6.747   2.498  -3.335  0.00  0.00     0.065 H 
ATOM     24  C   UNK d   0       7.358  -0.801  -3.753  0.00  0.00    -0.020 A 
ATOM     25  C   UNK d   0       6.176  -1.307  -3.248  0.00  0.00    -0.055 A 
ATOM     26  H   UNK d   0       8.120  -1.473  -4.118  0.00  0.00     0.065 H 
ATOM     27  H   UNK d   0       6.012  -2.375  -3.222  0.00  0.00     0.062 H 
BRANCH  22  28
ATOM     28  O   UNK d   0       8.728   1.069  -4.282  0.00  0.00    -0.495 OA
BRANCH  28  29
ATOM     29  C   UNK d   0       9.289   2.200  -3.609  0.00  0.00     0.079 C 
ATOM     30  H   UNK d   0       9.762   2.858  -4.338  0.00  0.00     0.066 H 
ATOM     31  H   UNK d   0       8.497   2.741  -3.090  0.00  0.00     0.066 H 
ATOM     32  H   UNK d   0      10.032   1.862  -2.888  0.00  0.00     0.066 H 
ENDBRANCH  28  29
ENDBRANCH  22  28
ENDBRANCH  15  18
ENDBRANCH  12  15
ENDBRANCH  10  12
BRANCH   1  33
ATOM     33  CB  ILE d   1       5.067  -0.400  -8.860  0.00  0.00    -0.020 C 
ATOM     34  HB  ILE d   1       4.688  -0.281  -9.875  0.00  0.00     0.032 H 
BRANCH  33  35
ATOM     35  CG1 ILE d   1       6.384   0.367  -8.714  0.00  0.00    -0.051 C 
ATOM     36 1HG1 ILE d   1       6.800   0.187  -7.722  0.00  0.00     0.027 H 
ATOM     37 2HG1 ILE d   1       7.089   0.025  -9.471  0.00  0.00     0.027 H 
BRANCH  35  38
ATOM     38  CD1 ILE d   1       6.125   1.863  -8.894  0.00  0.00    -0.065 C 
ATOM     39 1HD1 ILE d   1       5.470   2.018  -9.752  0.00  0.00     0.023 H 
ATOM     40 2HD1 ILE d   1       5.647   2.259  -7.997  0.00  0.00     0.023 H 
ATOM     41 3HD1 ILE d   1       7.071   2.379  -9.060  0.00  0.00     0.023 H 
ENDBRANCH  35  38
ENDBRANCH  33  35
BRANCH  33  42
ATOM     42  CG2 ILE d   1       5.308  -1.884  -8.575  0.00  0.00    -0.060 C 
ATOM     43 1HG2 ILE d   1       6.033  -1.987  -7.768  0.00  0.00     0.023 H 
ATOM     44 2HG2 ILE d   1       4.369  -2.356  -8.284  0.00  0.00     0.023 H 
ATOM     45 3HG2 ILE d   1       5.695  -2.368  -9.474  0.00  0.00     0.023 H 
ENDBRANCH  33  42
ENDBRANCH   1  33
TORSDOF 11
ENDMDL
MODEL 9
REMARK VINA RESULT:      -5.4      1.917      2.841
REMARK  9 active torsions:
REMARK  status: ('A' for Active; 'I' for Inactive)
REMARK    1  A    between atoms: CD1_1  and  CG1_2 
REMARK    2  A    between atoms: CG1_2  and  CB_3 
REMARK    3  A    between atoms: CB_3  and  CG2_5 
REMARK    4  A    between atoms: CB_3  and  CA_6 
REMARK       I    between atoms: CA_6  and  C_8 
REMARK       I    between atoms: CA_6  and  N_10 
REMARK       I    between atoms: N_10  and  C_11 
REMARK       I    between atoms: C_11  and  N_13 
REMARK    5  A    between atoms: N_13  and  C_14 
REMARK    6  A    between atoms: C_14  and  C_15 
REMARK    7  A    between atoms: C_15  and  C_16 
REMARK    8  A    between atoms: C_19  and  O_22 
REMARK    9  A    between atoms: O_22  and  C_23 
ROOT
ATOM      1  CA  ILE d   1       4.763   0.054  -4.262  0.00  0.00     0.067 C 
ATOM      2  HA  ILE d   1       4.427   1.090  -4.215  0.00  0.00     0.056 H 
ATOM      3  C   ILE d   1       4.465  -0.631  -2.953  0.00  0.00     0.062 C 
ATOM      4  O   ILE d   1       5.247  -1.432  -2.499  0.00  0.00    -0.548 OA
ATOM      5  N   ILE d   1       6.206   0.020  -4.513  0.00  0.00    -0.291 N 
ATOM      6  H   ILE d   1       6.586  -0.684  -5.061  0.00  0.00     0.151 HD
ATOM      7  OXT ILE d   1       3.332  -0.350  -2.292  0.00  0.00    -0.548 OA
ATOM      8  C   UNK d   0       7.005   0.967  -3.984  0.00  0.00     0.300 C 
ATOM      9  O   UNK d   0       6.529   1.850  -3.297  0.00  0.00    -0.253 OA
ATOM     10  N   UNK d   0       8.332   0.936  -4.216  0.00  0.00    -0.299 N 
ATOM     11  H   UNK d   0       8.712   0.231  -4.763  0.00  0.00     0.150 HD
ENDROOT
BRANCH  10  12
ATOM     12  C   UNK d   0       9.201   1.966  -3.640  0.00  0.00     0.017 C 
ATOM     13  H   UNK d   0      10.135   1.511  -3.311  0.00  0.00     0.047 H 
ATOM     14  H   UNK d   0       8.702   2.428  -2.789  0.00  0.00     0.047 H 
BRANCH  12  15
ATOM     15  C   UNK d   0       9.497   3.032  -4.698  0.00  0.00    -0.012 C 
ATOM     16  H   UNK d   0       8.682   3.063  -5.420  0.00  0.00     0.033 H 
ATOM     17  H   UNK d   0      10.428   2.787  -5.209  0.00  0.00     0.033 H 
BRANCH  15  18
ATOM     18  C   UNK d   0       9.630   4.377  -4.030  0.00  0.00    -0.046 A 
ATOM     19  C   UNK d   0      10.026   4.454  -2.708  0.00  0.00    -0.055 A 
ATOM     20  C   UNK d   0      10.147   5.686  -2.093  0.00  0.00    -0.020 A 
ATOM     21  H   UNK d   0      10.241   3.552  -2.155  0.00  0.00     0.062 H 
ATOM     22  C   UNK d   0       9.871   6.845  -2.805  0.00  0.00     0.120 A 
ATOM     23  H   UNK d   0      10.456   5.747  -1.061  0.00  0.00     0.065 H 
ATOM     24  C   UNK d   0       9.473   6.765  -4.132  0.00  0.00    -0.020 A 
ATOM     25  C   UNK d   0       9.354   5.531  -4.741  0.00  0.00    -0.055 A 
ATOM     26  H   UNK d   0       9.262   7.665  -4.689  0.00  0.00     0.065 H 
ATOM     27  H   UNK d   0       9.044   5.466  -5.774  0.00  0.00     0.062 H 
BRANCH  22  28
ATOM     28  O   UNK d   0       9.989   8.057  -2.203  0.00  0.00    -0.495 OA
BRANCH  28  29
ATOM     29  C   UNK d   0       9.233   8.266  -1.008  0.00  0.00     0.079 C 
ATOM     30  H   UNK d   0       9.569   9.181  -0.521  0.00  0.00     0.066 H 
ATOM     31  H   UNK d   0       8.175   8.355  -1.259  0.00  0.00     0.066 H 
ATOM     32  H   UNK d   0       9.377   7.421  -0.335  0.00  0.00     0.066 H 
ENDBRANCH  28  29
ENDBRANCH  22  28
ENDBRANCH  15  18
ENDBRANCH  12  15
ENDBRANCH  10  12
BRANCH   1  33
ATOM     33  CB  ILE d   1       4.030  -0.669  -5.394  0.00  0.00    -0.020 C 
ATOM     34  HB  ILE d   1       3.648  -1.622  -5.029  0.00  0.00     0.032 H 
BRANCH  33  35
ATOM     35  CG1 ILE d   1       2.866   0.195  -5.882  0.00  0.00    -0.051 C 
ATOM     36 1HG1 ILE d   1       1.927  -0.216  -5.509  0.00  0.00     0.027 H 
ATOM     37 2HG1 ILE d   1       2.989   1.213  -5.512  0.00  0.00     0.027 H 
BRANCH  35  38
ATOM     38  CD1 ILE d   1       2.845   0.207  -7.412  0.00  0.00    -0.065 C 
ATOM     39 1HD1 ILE d   1       2.386   1.131  -7.762  0.00  0.00     0.023 H 
ATOM     40 2HD1 ILE d   1       3.866   0.143  -7.789  0.00  0.00     0.023 H 
ATOM     41 3HD1 ILE d   1       2.270  -0.646  -7.774  0.00  0.00     0.023 H 
ENDBRANCH  35  38
ENDBRANCH  33  35
BRANCH  33  42
ATOM     42  CG2 ILE d   1       5.001  -0.917  -6.551  0.00  0.00    -0.060 C 
ATOM     43 1HG2 ILE d   1       4.545  -0.587  -7.484  0.00  0.00     0.023 H 
ATOM     44 2HG2 ILE d   1       5.922  -0.361  -6.378  0.00  0.00     0.023 H 
ATOM     45 3HG2 ILE d   1       5.225  -1.983  -6.613  0.00  0.00     0.023 H 
ENDBRANCH  33  42
ENDBRANCH   1  33
TORSDOF 11
ENDMDL
MODEL 10
REMARK VINA RESULT:      -5.2      5.481     10.242
REMARK  9 active torsions:
REMARK  status: ('A' for Active; 'I' for Inactive)
REMARK    1  A    between atoms: CD1_1  and  CG1_2 
REMARK    2  A    between atoms: CG1_2  and  CB_3 
REMARK    3  A    between atoms: CB_3  and  CG2_5 
REMARK    4  A    between atoms: CB_3  and  CA_6 
REMARK       I    between atoms: CA_6  and  C_8 
REMARK       I    between atoms: CA_6  and  N_10 
REMARK       I    between atoms: N_10  and  C_11 
REMARK       I    between atoms: C_11  and  N_13 
REMARK    5  A    between atoms: N_13  and  C_14 
REMARK    6  A    between atoms: C_14  and  C_15 
REMARK    7  A    between atoms: C_15  and  C_16 
REMARK    8  A    between atoms: C_19  and  O_22 
REMARK    9  A    between atoms: O_22  and  C_23 
ROOT
ATOM      1  CA  ILE d   1       4.162  -0.580  -4.853  0.00  0.00     0.067 C 
ATOM      2  HA  ILE d   1       3.632  -1.479  -5.171  0.00  0.00     0.056 H 
ATOM      3  C   ILE d   1       3.320   0.175  -3.858  0.00  0.00     0.062 C 
ATOM      4  O   ILE d   1       3.305   1.383  -3.873  0.00  0.00    -0.548 OA
ATOM      5  N   ILE d   1       4.423   0.270  -6.017  0.00  0.00    -0.291 N 
ATOM      6  H   ILE d   1       5.241   0.787  -6.067  0.00  0.00     0.151 HD
ATOM      7  OXT ILE d   1       2.588  -0.494  -2.955  0.00  0.00    -0.548 OA
ATOM      8  C   UNK d   0       3.525   0.334  -7.020  0.00  0.00     0.300 C 
ATOM      9  O   UNK d   0       2.498  -0.315  -6.959  0.00  0.00    -0.253 OA
ATOM     10  N   UNK d   0       3.764   1.116  -8.091  0.00  0.00    -0.299 N 
ATOM     11  H   UNK d   0       4.583   1.633  -8.140  0.00  0.00     0.150 HD
ENDROOT
BRANCH  10  12
ATOM     12  C   UNK d   0       2.788   1.184  -9.181  0.00  0.00     0.017 C 
ATOM     13  H   UNK d   0       2.574   2.227  -9.412  0.00  0.00     0.047 H 
ATOM     14  H   UNK d   0       1.869   0.683  -8.878  0.00  0.00     0.047 H 
BRANCH  12  15
ATOM     15  C   UNK d   0       3.360   0.495 -10.423  0.00  0.00    -0.012 C 
ATOM     16  H   UNK d   0       4.428   0.328 -10.286  0.00  0.00     0.033 H 
ATOM     17  H   UNK d   0       3.200   1.128 -11.296  0.00  0.00     0.033 H 
BRANCH  15  18
ATOM     18  C   UNK d   0       2.666  -0.828 -10.627  0.00  0.00    -0.046 A 
ATOM     19  C   UNK d   0       3.093  -1.944  -9.932  0.00  0.00    -0.055 A 
ATOM     20  C   UNK d   0       2.460  -3.158 -10.118  0.00  0.00    -0.020 A 
ATOM     21  H   UNK d   0       3.922  -1.868  -9.244  0.00  0.00     0.062 H 
ATOM     22  C   UNK d   0       1.396  -3.255 -11.002  0.00  0.00     0.120 A 
ATOM     23  H   UNK d   0       2.793  -4.030  -9.576  0.00  0.00     0.065 H 
ATOM     24  C   UNK d   0       0.969  -2.133 -11.699  0.00  0.00    -0.020 A 
ATOM     25  C   UNK d   0       1.605  -0.922 -11.509  0.00  0.00    -0.055 A 
ATOM     26  H   UNK d   0       0.138  -2.205 -12.384  0.00  0.00     0.065 H 
ATOM     27  H   UNK d   0       1.275  -0.048 -12.051  0.00  0.00     0.062 H 
BRANCH  22  28
ATOM     28  O   UNK d   0       0.770  -4.448 -11.187  0.00  0.00    -0.495 OA
BRANCH  28  29
ATOM     29  C   UNK d   0      -0.505  -4.615 -10.563  0.00  0.00     0.079 C 
ATOM     30  H   UNK d   0      -1.044  -5.428 -11.050  0.00  0.00     0.066 H 
ATOM     31  H   UNK d   0      -0.363  -4.853  -9.508  0.00  0.00     0.066 H 
ATOM     32  H   UNK d   0      -1.078  -3.693 -10.653  0.00  0.00     0.066 H 
ENDBRANCH  28  29
ENDBRANCH  22  28
ENDBRANCH  15  18
ENDBRANCH  12  15
ENDBRANCH  10  12
BRANCH   1  33
ATOM     33  CB  ILE d   1       5.490  -0.975  -4.203  0.00  0.00    -0.020 C 
ATOM     34  HB  ILE d   1       5.370  -1.002  -3.120  0.00  0.00     0.032 H 
BRANCH  33  35
ATOM     35  CG1 ILE d   1       5.912  -2.359  -4.704  0.00  0.00    -0.051 C 
ATOM     36 1HG1 ILE d   1       6.085  -2.318  -5.780  0.00  0.00     0.027 H 
ATOM     37 2HG1 ILE d   1       6.829  -2.663  -4.200  0.00  0.00     0.027 H 
BRANCH  35  38
ATOM     38  CD1 ILE d   1       4.805  -3.370  -4.403  0.00  0.00    -0.065 C 
ATOM     39 1HD1 ILE d   1       5.250  -4.334  -4.156  0.00  0.00     0.023 H 
ATOM     40 2HD1 ILE d   1       4.211  -3.017  -3.559  0.00  0.00     0.023 H 
ATOM     41 3HD1 ILE d   1       4.164  -3.478  -5.278  0.00  0.00     0.023 H 
ENDBRANCH  35  38
ENDBRANCH  33  35
BRANCH  33  42
ATOM     42  CG2 ILE d   1       6.563   0.050  -4.573  0.00  0.00    -0.060 C 
ATOM     43 1HG2 ILE d   1       6.589   0.175  -5.656  0.00  0.00     0.023 H 
ATOM     44 2HG2 ILE d   1       6.332   1.005  -4.102  0.00  0.00     0.023 H 
ATOM     45 3HG2 ILE d   1       7.536  -0.301  -4.225  0.00  0.00     0.023 H 
ENDBRANCH  33  42
ENDBRANCH   1  33
TORSDOF 11
ENDMDL
