MODEL 1
REMARK VINA RESULT:      -6.5      0.000      0.000
REMARK  21 active torsions:
REMARK  status: ('A' for Active; 'I' for Inactive)
REMARK    1  A    between atoms: C_1  and  C_2 
REMARK    2  A    between atoms: C_3  and  C_27 
REMARK    3  A    between atoms: C_4  and  O_26 
REMARK    4  A    between atoms: C_6  and  C_17 
REMARK    5  A    between atoms: C_7  and  O_16 
REMARK    6  A    between atoms: C_8  and  O_15 
REMARK    7  A    between atoms: C_9  and  C_12 
REMARK    8  A    between atoms: C_12  and  C_13 
REMARK    9  A    between atoms: C_12  and  C_14 
REMARK   10  A    between atoms: N_18  and  C_19 
REMARK   11  A    between atoms: C_19  and  C_20 
REMARK   12  A    between atoms: C_28  and  O_52 
REMARK   13  A    between atoms: C_30  and  C_43 
REMARK   14  A    between atoms: C_31  and  O_42 
REMARK   15  A    between atoms: C_32  and  O_41 
REMARK   16  A    between atoms: C_33  and  C_38 
REMARK   17  A    between atoms: C_36  and  C_37 
REMARK   18  A    between atoms: C_38  and  C_39 
REMARK   19  A    between atoms: C_38  and  C_40 
REMARK   20  A    between atoms: N_44  and  C_45 
REMARK   21  A    between atoms: C_45  and  C_46 
ROOT
ATOM      1  C   LIG d   1       8.059  -4.401  -5.526  0.00  0.00    -0.038 A 
ATOM      2  C   LIG d   1       7.628  -3.336  -6.330  0.00  0.00     0.031 A 
ATOM      3  C   LIG d   1       6.521  -3.483  -7.160  0.00  0.00     0.134 A 
ATOM      4  C   LIG d   1       5.840  -4.707  -7.185  0.00  0.00     0.041 A 
ATOM      5  C   LIG d   1       4.671  -4.907  -8.042  0.00  0.00     0.094 A 
ATOM      6  C   LIG d   1       4.035  -6.148  -8.025  0.00  0.00     0.172 A 
ATOM      7  C   LIG d   1       4.511  -7.174  -7.201  0.00  0.00     0.163 A 
ATOM      8  C   LIG d   1       5.598  -7.002  -6.398  0.00  0.00     0.008 A 
ATOM      9  C   LIG d   1       6.285  -5.775  -6.369  0.00  0.00    -0.006 A 
ATOM     10  C   LIG d   1       7.411  -5.596  -5.544  0.00  0.00    -0.050 A 
ATOM     11  H   LIG d   1       7.759  -6.408  -4.923  0.00  0.00     0.063 H 
ENDROOT
BRANCH   2  12
ATOM     12  C   LIG d   1       8.356  -2.045  -6.294  0.00  0.00     0.031 A 
ATOM     13  C   LIG d   1       9.369  -1.791  -7.231  0.00  0.00    -0.038 A 
ATOM     14  C   LIG d   1      10.047  -0.614  -7.223  0.00  0.00    -0.050 A 
ATOM     15  C   LIG d   1       9.747   0.368  -6.259  0.00  0.00    -0.006 A 
ATOM     16  H   LIG d   1      10.821  -0.432  -7.954  0.00  0.00     0.063 H 
ATOM     17  C   LIG d   1       8.731   0.120  -5.305  0.00  0.00     0.041 A 
ATOM     18  C   LIG d   1      10.443   1.589  -6.231  0.00  0.00     0.008 A 
ATOM     19  C   LIG d   1       8.036  -1.097  -5.329  0.00  0.00     0.134 A 
ATOM     20  C   LIG d   1       8.429   1.148  -4.308  0.00  0.00     0.094 A 
ATOM     21  C   LIG d   1       9.154   2.337  -4.334  0.00  0.00     0.172 A 
ATOM     22  C   LIG d   1      10.151   2.537  -5.296  0.00  0.00     0.163 A 
BRANCH  13  23
ATOM     23  C   LIG d   1       9.706  -2.835  -8.265  0.00  0.00    -0.039 C 
ATOM     24  H   LIG d   1       9.805  -2.360  -9.242  0.00  0.00     0.028 H 
ATOM     25  H   LIG d   1      10.645  -3.319  -7.999  0.00  0.00     0.028 H 
ATOM     26  H   LIG d   1       8.911  -3.579  -8.301  0.00  0.00     0.028 H 
ENDBRANCH  13  23
BRANCH  19  27
ATOM     27  O   LIG d   1       7.058  -1.346  -4.420  0.00  0.00    -0.505 OA
ATOM     28  H   LIG d   1       6.311  -1.849  -4.774  0.00  0.00     0.292 HD
ENDBRANCH  19  27
BRANCH  20  29
ATOM     29  C   LIG d   1       7.381   0.929  -3.300  0.00  0.00     0.176 C 
ATOM     30  N   LIG d   1       6.276   1.605  -3.358  0.00  0.00    -0.242 N 
ATOM     31  H   LIG d   1       6.110   2.201  -4.105  0.00  0.00     0.445 HD
ATOM     32  H   LIG d   1       7.532   0.204  -2.514  0.00  0.00     0.138 H 
BRANCH  30  33
ATOM     33  C   LIG d   1       5.279   1.469  -2.293  0.00  0.00     0.168 C 
ATOM     34  H   LIG d   1       5.785   1.331  -1.337  0.00  0.00     0.108 H 
ATOM     35  H   LIG d   1       4.666   2.369  -2.252  0.00  0.00     0.108 H 
BRANCH  33  36
ATOM     36  C   LIG d   1       4.403   0.275  -2.575  0.00  0.00     0.019 A 
ATOM     37  C   LIG d   1       3.294   0.389  -3.398  0.00  0.00    -0.034 A 
ATOM     38  C   LIG d   1       2.517  -0.730  -3.637  0.00  0.00     0.028 A 
ATOM     39  H   LIG d   1       3.042   1.336  -3.850  0.00  0.00     0.064 H 
ATOM     40  N   LIG d   1       2.814  -1.889  -3.084  0.00  0.00    -0.263 NA
ATOM     41  H   LIG d   1       1.653  -0.652  -4.282  0.00  0.00     0.083 H 
ATOM     42  C   LIG d   1       3.858  -2.031  -2.291  0.00  0.00     0.028 A 
ATOM     43  C   LIG d   1       4.684  -0.959  -2.011  0.00  0.00    -0.034 A 
ATOM     44  H   LIG d   1       4.070  -2.997  -1.856  0.00  0.00     0.083 H 
ATOM     45  H   LIG d   1       5.538  -1.082  -1.361  0.00  0.00     0.064 H 
ENDBRANCH  33  36
ENDBRANCH  30  33
ENDBRANCH  20  29
BRANCH  21  46
ATOM     46  O   LIG d   1       8.894   3.307  -3.421  0.00  0.00    -0.503 OA
ATOM     47  H   LIG d   1       7.963   3.568  -3.379  0.00  0.00     0.292 HD
ENDBRANCH  21  46
BRANCH  22  48
ATOM     48  O   LIG d   1      10.844   3.707  -5.299  0.00  0.00    -0.503 OA
ATOM     49  H   LIG d   1      10.402   4.427  -4.829  0.00  0.00     0.292 HD
ENDBRANCH  22  48
BRANCH  18  50
ATOM     50  C   LIG d   1      11.524   1.854  -7.246  0.00  0.00    -0.017 C 
ATOM     51  H   LIG d   1      11.623   0.991  -7.906  0.00  0.00     0.035 H 
BRANCH  50  52
ATOM     52  C   LIG d   1      11.156   3.088  -8.074  0.00  0.00    -0.059 C 
ATOM     53  H   LIG d   1      10.328   3.611  -7.597  0.00  0.00     0.024 H 
ATOM     54  H   LIG d   1      12.019   3.752  -8.137  0.00  0.00     0.024 H 
ATOM     55  H   LIG d   1      10.863   2.778  -9.076  0.00  0.00     0.024 H 
ENDBRANCH  50  52
BRANCH  50  56
ATOM     56  C   LIG d   1      12.851   2.100  -6.526  0.00  0.00    -0.059 C 
ATOM     57  H   LIG d   1      13.342   1.146  -6.333  0.00  0.00     0.024 H 
ATOM     58  H   LIG d   1      13.494   2.720  -7.151  0.00  0.00     0.024 H 
ATOM     59  H   LIG d   1      12.662   2.609  -5.581  0.00  0.00     0.024 H 
ENDBRANCH  50  56
ENDBRANCH  18  50
ENDBRANCH   2  12
BRANCH   1  60
ATOM     60  C   LIG d   1       9.260  -4.221  -4.634  0.00  0.00    -0.039 C 
ATOM     61  H   LIG d   1       8.962  -4.353  -3.593  0.00  0.00     0.028 H 
ATOM     62  H   LIG d   1      10.018  -4.961  -4.891  0.00  0.00     0.028 H 
ATOM     63  H   LIG d   1       9.668  -3.220  -4.771  0.00  0.00     0.028 H 
ENDBRANCH   1  60
BRANCH   3  64
ATOM     64  O   LIG d   1       6.105  -2.449  -7.937  0.00  0.00    -0.505 OA
ATOM     65  H   LIG d   1       6.825  -1.923  -8.310  0.00  0.00     0.292 HD
ENDBRANCH   3  64
BRANCH   5  66
ATOM     66  C   LIG d   1       4.178  -3.823  -8.902  0.00  0.00     0.176 C 
ATOM     67  N   LIG d   1       3.113  -3.163  -8.566  0.00  0.00    -0.242 N 
ATOM     68  H   LIG d   1       2.686  -3.334  -7.712  0.00  0.00     0.445 HD
ATOM     69  H   LIG d   1       4.701  -3.577  -9.815  0.00  0.00     0.138 H 
BRANCH  67  70
ATOM     70  C   LIG d   1       2.557  -2.159  -9.476  0.00  0.00     0.168 C 
ATOM     71  H   LIG d   1       3.078  -2.206 -10.432  0.00  0.00     0.108 H 
ATOM     72  H   LIG d   1       1.495  -2.356  -9.631  0.00  0.00     0.108 H 
BRANCH  70  73
ATOM     73  C   LIG d   1       2.730  -0.786  -8.878  0.00  0.00     0.019 A 
ATOM     74  C   LIG d   1       3.068  -0.632  -7.542  0.00  0.00    -0.034 A 
ATOM     75  C   LIG d   1       3.224   0.641  -7.030  0.00  0.00     0.028 A 
ATOM     76  H   LIG d   1       3.213  -1.497  -6.911  0.00  0.00     0.064 H 
ATOM     77  N   LIG d   1       3.043   1.702  -7.793  0.00  0.00    -0.263 NA
ATOM     78  H   LIG d   1       3.493   0.770  -5.992  0.00  0.00     0.083 H 
ATOM     79  C   LIG d   1       2.715   1.593  -9.065  0.00  0.00     0.028 A 
ATOM     80  C   LIG d   1       2.548   0.352  -9.649  0.00  0.00    -0.034 A 
ATOM     81  H   LIG d   1       2.575   2.485  -9.659  0.00  0.00     0.083 H 
ATOM     82  H   LIG d   1       2.280   0.269 -10.691  0.00  0.00     0.064 H 
ENDBRANCH  70  73
ENDBRANCH  67  70
ENDBRANCH   5  66
BRANCH   8  83
ATOM     83  C   LIG d   1       6.071  -8.139  -5.530  0.00  0.00    -0.017 C 
ATOM     84  H   LIG d   1       6.791  -7.766  -4.801  0.00  0.00     0.035 H 
BRANCH  83  85
ATOM     85  C   LIG d   1       4.875  -8.753  -4.799  0.00  0.00    -0.059 C 
ATOM     86  H   LIG d   1       3.965  -8.226  -5.083  0.00  0.00     0.024 H 
ATOM     87  H   LIG d   1       4.786  -9.806  -5.068  0.00  0.00     0.024 H 
ATOM     88  H   LIG d   1       5.024  -8.665  -3.722  0.00  0.00     0.024 H 
ENDBRANCH  83  85
BRANCH  83  89
ATOM     89  C   LIG d   1       6.736  -9.204  -6.403  0.00  0.00    -0.059 C 
ATOM     90  H   LIG d   1       6.656 -10.176  -5.916  0.00  0.00     0.024 H 
ATOM     91  H   LIG d   1       6.238  -9.242  -7.372  0.00  0.00     0.024 H 
ATOM     92  H   LIG d   1       7.787  -8.954  -6.545  0.00  0.00     0.024 H 
ENDBRANCH  83  89
ENDBRANCH   8  83
BRANCH   6  93
ATOM     93  O   LIG d   1       2.948  -6.360  -8.809  0.00  0.00    -0.503 OA
ATOM     94  H   LIG d   1       2.886  -7.260  -9.158  0.00  0.00     0.292 HD
ENDBRANCH   6  93
BRANCH   7  95
ATOM     95  O   LIG d   1       3.873  -8.374  -7.202  0.00  0.00    -0.503 OA
ATOM     96  H   LIG d   1       3.286  -8.510  -6.446  0.00  0.00     0.292 HD
ENDBRANCH   7  95
TORSDOF 21
ENDMDL
MODEL 2
REMARK VINA RESULT:      -6.5      0.319      8.420
REMARK  21 active torsions:
REMARK  status: ('A' for Active; 'I' for Inactive)
REMARK    1  A    between atoms: C_1  and  C_2 
REMARK    2  A    between atoms: C_3  and  C_27 
REMARK    3  A    between atoms: C_4  and  O_26 
REMARK    4  A    between atoms: C_6  and  C_17 
REMARK    5  A    between atoms: C_7  and  O_16 
REMARK    6  A    between atoms: C_8  and  O_15 
REMARK    7  A    between atoms: C_9  and  C_12 
REMARK    8  A    between atoms: C_12  and  C_13 
REMARK    9  A    between atoms: C_12  and  C_14 
REMARK   10  A    between atoms: N_18  and  C_19 
REMARK   11  A    between atoms: C_19  and  C_20 
REMARK   12  A    between atoms: C_28  and  O_52 
REMARK   13  A    between atoms: C_30  and  C_43 
REMARK   14  A    between atoms: C_31  and  O_42 
REMARK   15  A    between atoms: C_32  and  O_41 
REMARK   16  A    between atoms: C_33  and  C_38 
REMARK   17  A    between atoms: C_36  and  C_37 
REMARK   18  A    between atoms: C_38  and  C_39 
REMARK   19  A    between atoms: C_38  and  C_40 
REMARK   20  A    between atoms: N_44  and  C_45 
REMARK   21  A    between atoms: C_45  and  C_46 
ROOT
ATOM      1  C   LIG d   1       9.190  -1.546  -7.580  0.00  0.00    -0.038 A 
ATOM      2  C   LIG d   1       8.249  -1.839  -6.582  0.00  0.00     0.031 A 
ATOM      3  C   LIG d   1       7.981  -0.916  -5.576  0.00  0.00     0.134 A 
ATOM      4  C   LIG d   1       8.660   0.310  -5.569  0.00  0.00     0.041 A 
ATOM      5  C   LIG d   1       8.411   1.310  -4.531  0.00  0.00     0.094 A 
ATOM      6  C   LIG d   1       9.117   2.510  -4.576  0.00  0.00     0.172 A 
ATOM      7  C   LIG d   1      10.044   2.746  -5.598  0.00  0.00     0.163 A 
ATOM      8  C   LIG d   1      10.286   1.824  -6.572  0.00  0.00     0.008 A 
ATOM      9  C   LIG d   1       9.607   0.593  -6.582  0.00  0.00    -0.006 A 
ATOM     10  C   LIG d   1       9.860  -0.363  -7.583  0.00  0.00    -0.050 A 
ATOM     11  H   LIG d   1      10.584  -0.156  -8.357  0.00  0.00     0.063 H 
ENDROOT
BRANCH   2  12
ATOM     12  C   LIG d   1       7.537  -3.138  -6.600  0.00  0.00     0.031 A 
ATOM     13  C   LIG d   1       8.016  -4.206  -5.827  0.00  0.00    -0.038 A 
ATOM     14  C   LIG d   1       7.378  -5.405  -5.822  0.00  0.00    -0.050 A 
ATOM     15  C   LIG d   1       6.225  -5.595  -6.607  0.00  0.00    -0.006 A 
ATOM     16  H   LIG d   1       7.758  -6.216  -5.218  0.00  0.00     0.063 H 
ATOM     17  C   LIG d   1       5.734  -4.526  -7.396  0.00  0.00     0.041 A 
ATOM     18  C   LIG d   1       5.554  -6.830  -6.619  0.00  0.00     0.008 A 
ATOM     19  C   LIG d   1       6.400  -3.292  -7.386  0.00  0.00     0.134 A 
ATOM     20  C   LIG d   1       4.536  -4.736  -8.208  0.00  0.00     0.094 A 
ATOM     21  C   LIG d   1       3.917  -5.984  -8.177  0.00  0.00     0.172 A 
ATOM     22  C   LIG d   1       4.439  -7.012  -7.382  0.00  0.00     0.163 A 
BRANCH  13  23
ATOM     23  C   LIG d   1       9.254  -4.019  -4.986  0.00  0.00    -0.039 C 
ATOM     24  H   LIG d   1       9.933  -3.330  -5.489  0.00  0.00     0.028 H 
ATOM     25  H   LIG d   1       8.974  -3.612  -4.015  0.00  0.00     0.028 H 
ATOM     26  H   LIG d   1       9.748  -4.980  -4.849  0.00  0.00     0.028 H 
ENDBRANCH  13  23
BRANCH  19  27
ATOM     27  O   LIG d   1       5.939  -2.259  -8.137  0.00  0.00    -0.505 OA
ATOM     28  H   LIG d   1       4.975  -2.225  -8.208  0.00  0.00     0.292 HD
ENDBRANCH  19  27
BRANCH  20  29
ATOM     29  C   LIG d   1       3.995  -3.651  -9.040  0.00  0.00     0.176 C 
ATOM     30  N   LIG d   1       2.971  -2.970  -8.630  0.00  0.00    -0.242 N 
ATOM     31  H   LIG d   1       2.606  -3.126  -7.745  0.00  0.00     0.445 HD
ATOM     32  H   LIG d   1       4.453  -3.422  -9.991  0.00  0.00     0.138 H 
BRANCH  30  33
ATOM     33  C   LIG d   1       2.363  -1.965  -9.506  0.00  0.00     0.168 C 
ATOM     34  H   LIG d   1       2.809  -2.030 -10.499  0.00  0.00     0.108 H 
ATOM     35  H   LIG d   1       1.291  -2.145  -9.578  0.00  0.00     0.108 H 
BRANCH  33  36
ATOM     36  C   LIG d   1       2.605  -0.590  -8.937  0.00  0.00     0.019 A 
ATOM     37  C   LIG d   1       2.644   0.522  -9.763  0.00  0.00    -0.034 A 
ATOM     38  C   LIG d   1       2.863   1.768  -9.204  0.00  0.00     0.028 A 
ATOM     39  H   LIG d   1       2.501   0.418 -10.828  0.00  0.00     0.064 H 
ATOM     40  N   LIG d   1       3.044   1.902  -7.906  0.00  0.00    -0.263 NA
ATOM     41  H   LIG d   1       2.890   2.641  -9.841  0.00  0.00     0.083 H 
ATOM     42  C   LIG d   1       3.020   0.865  -7.091  0.00  0.00     0.028 A 
ATOM     43  C   LIG d   1       2.801  -0.410  -7.577  0.00  0.00    -0.034 A 
ATOM     44  H   LIG d   1       3.173   1.015  -6.032  0.00  0.00     0.083 H 
ATOM     45  H   LIG d   1       2.780  -1.255  -6.905  0.00  0.00     0.064 H 
ENDBRANCH  33  36
ENDBRANCH  30  33
ENDBRANCH  20  29
BRANCH  21  46
ATOM     46  O   LIG d   1       2.804  -6.205  -8.920  0.00  0.00    -0.503 OA
ATOM     47  H   LIG d   1       2.147  -5.497  -8.865  0.00  0.00     0.292 HD
ENDBRANCH  21  46
BRANCH  22  48
ATOM     48  O   LIG d   1       3.816  -8.220  -7.369  0.00  0.00    -0.503 OA
ATOM     49  H   LIG d   1       4.417  -8.972  -7.462  0.00  0.00     0.292 HD
ENDBRANCH  22  48
BRANCH  18  50
ATOM     50  C   LIG d   1       6.075  -7.969  -5.781  0.00  0.00    -0.017 C 
ATOM     51  H   LIG d   1       6.864  -7.604  -5.122  0.00  0.00     0.035 H 
BRANCH  50  52
ATOM     52  C   LIG d   1       4.935  -8.545  -4.938  0.00  0.00    -0.059 C 
ATOM     53  H   LIG d   1       5.347  -9.041  -4.061  0.00  0.00     0.024 H 
ATOM     54  H   LIG d   1       4.273  -7.737  -4.622  0.00  0.00     0.024 H 
ATOM     55  H   LIG d   1       4.372  -9.264  -5.532  0.00  0.00     0.024 H 
ENDBRANCH  50  52
BRANCH  50  56
ATOM     56  C   LIG d   1       6.636  -9.060  -6.694  0.00  0.00    -0.059 C 
ATOM     57  H   LIG d   1       7.682  -9.241  -6.443  0.00  0.00     0.024 H 
ATOM     58  H   LIG d   1       6.066  -9.979  -6.556  0.00  0.00     0.024 H 
ATOM     59  H   LIG d   1       6.562  -8.739  -7.733  0.00  0.00     0.024 H 
ENDBRANCH  50  56
ENDBRANCH  18  50
ENDBRANCH   2  12
BRANCH   1  60
ATOM     60  C   LIG d   1       9.465  -2.558  -8.662  0.00  0.00    -0.039 C 
ATOM     61  H   LIG d   1      10.096  -3.353  -8.263  0.00  0.00     0.028 H 
ATOM     62  H   LIG d   1       8.525  -2.982  -9.012  0.00  0.00     0.028 H 
ATOM     63  H   LIG d   1       9.976  -2.072  -9.493  0.00  0.00     0.028 H 
ENDBRANCH   1  60
BRANCH   3  64
ATOM     64  O   LIG d   1       7.069  -1.200  -4.610  0.00  0.00    -0.505 OA
ATOM     65  H   LIG d   1       7.141  -0.642  -3.824  0.00  0.00     0.292 HD
ENDBRANCH   3  64
BRANCH   5  66
ATOM     66  C   LIG d   1       7.434   1.054  -3.462  0.00  0.00     0.176 C 
ATOM     67  N   LIG d   1       6.285   1.655  -3.477  0.00  0.00    -0.242 N 
ATOM     68  H   LIG d   1       6.040   2.215  -4.231  0.00  0.00     0.445 HD
ATOM     69  H   LIG d   1       7.674   0.366  -2.665  0.00  0.00     0.138 H 
BRANCH  67  70
ATOM     70  C   LIG d   1       5.357   1.488  -2.357  0.00  0.00     0.168 C 
ATOM     71  H   LIG d   1       5.921   1.328  -1.438  0.00  0.00     0.108 H 
ATOM     72  H   LIG d   1       4.743   2.383  -2.255  0.00  0.00     0.108 H 
BRANCH  70  73
ATOM     73  C   LIG d   1       4.468   0.297  -2.613  0.00  0.00     0.019 A 
ATOM     74  C   LIG d   1       4.764  -0.941  -2.062  0.00  0.00    -0.034 A 
ATOM     75  C   LIG d   1       3.924  -2.007  -2.315  0.00  0.00     0.028 A 
ATOM     76  H   LIG d   1       5.638  -1.068  -1.440  0.00  0.00     0.064 H 
ATOM     77  N   LIG d   1       2.858  -1.862  -3.078  0.00  0.00    -0.263 NA
ATOM     78  H   LIG d   1       4.144  -2.974  -1.885  0.00  0.00     0.083 H 
ATOM     79  C   LIG d   1       2.550  -0.701  -3.624  0.00  0.00     0.028 A 
ATOM     80  C   LIG d   1       3.340   0.413  -3.411  0.00  0.00    -0.034 A 
ATOM     81  H   LIG d   1       1.669  -0.620  -4.243  0.00  0.00     0.083 H 
ATOM     82  H   LIG d   1       3.082   1.360  -3.859  0.00  0.00     0.064 H 
ENDBRANCH  70  73
ENDBRANCH  67  70
ENDBRANCH   5  66
BRANCH   8  83
ATOM     83  C   LIG d   1      11.295   2.127  -7.649  0.00  0.00    -0.017 C 
ATOM     84  H   LIG d   1      11.342   1.293  -8.349  0.00  0.00     0.035 H 
BRANCH  83  85
ATOM     85  C   LIG d   1      10.878   3.396  -8.395  0.00  0.00    -0.059 C 
ATOM     86  H   LIG d   1      11.570   3.579  -9.218  0.00  0.00     0.024 H 
ATOM     87  H   LIG d   1       9.870   3.272  -8.789  0.00  0.00     0.024 H 
ATOM     88  H   LIG d   1      10.899   4.244  -7.709  0.00  0.00     0.024 H 
ENDBRANCH  83  85
BRANCH  83  89
ATOM     89  C   LIG d   1      12.671   2.337  -7.015  0.00  0.00    -0.059 C 
ATOM     90  H   LIG d   1      12.714   3.326  -6.559  0.00  0.00     0.024 H 
ATOM     91  H   LIG d   1      12.839   1.578  -6.252  0.00  0.00     0.024 H 
ATOM     92  H   LIG d   1      13.441   2.257  -7.783  0.00  0.00     0.024 H 
ENDBRANCH  83  89
ENDBRANCH   8  83
BRANCH   6  93
ATOM     93  O   LIG d   1       8.904   3.456  -3.626  0.00  0.00    -0.503 OA
ATOM     94  H   LIG d   1       7.979   3.542  -3.358  0.00  0.00     0.292 HD
ENDBRANCH   6  93
BRANCH   7  95
ATOM     95  O   LIG d   1      10.720   3.925  -5.620  0.00  0.00    -0.503 OA
ATOM     96  H   LIG d   1      11.510   3.917  -6.176  0.00  0.00     0.292 HD
ENDBRANCH   7  95
TORSDOF 21
ENDMDL
MODEL 3
REMARK VINA RESULT:      -6.3      3.882     10.227
REMARK  21 active torsions:
REMARK  status: ('A' for Active; 'I' for Inactive)
REMARK    1  A    between atoms: C_1  and  C_2 
REMARK    2  A    between atoms: C_3  and  C_27 
REMARK    3  A    between atoms: C_4  and  O_26 
REMARK    4  A    between atoms: C_6  and  C_17 
REMARK    5  A    between atoms: C_7  and  O_16 
REMARK    6  A    between atoms: C_8  and  O_15 
REMARK    7  A    between atoms: C_9  and  C_12 
REMARK    8  A    between atoms: C_12  and  C_13 
REMARK    9  A    between atoms: C_12  and  C_14 
REMARK   10  A    between atoms: N_18  and  C_19 
REMARK   11  A    between atoms: C_19  and  C_20 
REMARK   12  A    between atoms: C_28  and  O_52 
REMARK   13  A    between atoms: C_30  and  C_43 
REMARK   14  A    between atoms: C_31  and  O_42 
REMARK   15  A    between atoms: C_32  and  O_41 
REMARK   16  A    between atoms: C_33  and  C_38 
REMARK   17  A    between atoms: C_36  and  C_37 
REMARK   18  A    between atoms: C_38  and  C_39 
REMARK   19  A    between atoms: C_38  and  C_40 
REMARK   20  A    between atoms: N_44  and  C_45 
REMARK   21  A    between atoms: C_45  and  C_46 
ROOT
ATOM      1  C   LIG d   1       9.664   3.015  -7.747  0.00  0.00    -0.038 A 
ATOM      2  C   LIG d   1       9.594   2.710  -6.381  0.00  0.00     0.031 A 
ATOM      3  C   LIG d   1       9.553   3.729  -5.433  0.00  0.00     0.134 A 
ATOM      4  C   LIG d   1       9.582   5.063  -5.859  0.00  0.00     0.041 A 
ATOM      5  C   LIG d   1       9.541   6.167  -4.899  0.00  0.00     0.094 A 
ATOM      6  C   LIG d   1       9.574   7.474  -5.383  0.00  0.00     0.172 A 
ATOM      7  C   LIG d   1       9.643   7.716  -6.759  0.00  0.00     0.163 A 
ATOM      8  C   LIG d   1       9.682   6.699  -7.665  0.00  0.00     0.008 A 
ATOM      9  C   LIG d   1       9.653   5.358  -7.242  0.00  0.00    -0.006 A 
ATOM     10  C   LIG d   1       9.698   4.305  -8.175  0.00  0.00    -0.050 A 
ATOM     11  H   LIG d   1       9.757   4.522  -9.230  0.00  0.00     0.063 H 
ENDROOT
BRANCH   2  12
ATOM     12  C   LIG d   1       9.563   1.295  -5.942  0.00  0.00     0.031 A 
ATOM     13  C   LIG d   1      10.766   0.611  -5.708  0.00  0.00    -0.038 A 
ATOM     14  C   LIG d   1      10.764  -0.684  -5.300  0.00  0.00    -0.050 A 
ATOM     15  C   LIG d   1       9.546  -1.366  -5.118  0.00  0.00    -0.006 A 
ATOM     16  H   LIG d   1      11.699  -1.194  -5.119  0.00  0.00     0.063 H 
ATOM     17  C   LIG d   1       8.325  -0.689  -5.357  0.00  0.00     0.041 A 
ATOM     18  C   LIG d   1       9.524  -2.709  -4.703  0.00  0.00     0.008 A 
ATOM     19  C   LIG d   1       8.343   0.651  -5.772  0.00  0.00     0.134 A 
ATOM     20  C   LIG d   1       7.066  -1.408  -5.165  0.00  0.00     0.094 A 
ATOM     21  C   LIG d   1       7.112  -2.738  -4.752  0.00  0.00     0.172 A 
ATOM     22  C   LIG d   1       8.343  -3.366  -4.528  0.00  0.00     0.163 A 
BRANCH  13  23
ATOM     23  C   LIG d   1      12.078   1.327  -5.905  0.00  0.00    -0.039 C 
ATOM     24  H   LIG d   1      12.147   2.158  -5.203  0.00  0.00     0.028 H 
ATOM     25  H   LIG d   1      12.899   0.633  -5.729  0.00  0.00     0.028 H 
ATOM     26  H   LIG d   1      12.135   1.706  -6.925  0.00  0.00     0.028 H 
ENDBRANCH  13  23
BRANCH  19  27
ATOM     27  O   LIG d   1       7.179   1.311  -6.003  0.00  0.00    -0.505 OA
ATOM     28  H   LIG d   1       6.562   1.293  -5.257  0.00  0.00     0.292 HD
ENDBRANCH  19  27
BRANCH  20  29
ATOM     29  C   LIG d   1       5.778  -0.740  -5.402  0.00  0.00     0.176 C 
ATOM     30  N   LIG d   1       5.084  -1.030  -6.459  0.00  0.00    -0.242 N 
ATOM     31  H   LIG d   1       5.377  -1.737  -7.054  0.00  0.00     0.445 HD
ATOM     32  H   LIG d   1       5.410  -0.011  -4.696  0.00  0.00     0.138 H 
BRANCH  30  33
ATOM     33  C   LIG d   1       3.857  -0.286  -6.754  0.00  0.00     0.168 C 
ATOM     34  H   LIG d   1       3.023  -0.983  -6.847  0.00  0.00     0.108 H 
ATOM     35  H   LIG d   1       3.653   0.416  -5.945  0.00  0.00     0.108 H 
BRANCH  33  36
ATOM     36  C   LIG d   1       4.025   0.470  -8.047  0.00  0.00     0.019 A 
ATOM     37  C   LIG d   1       5.015   0.117  -8.950  0.00  0.00    -0.034 A 
ATOM     38  C   LIG d   1       5.136   0.831 -10.129  0.00  0.00     0.028 A 
ATOM     39  H   LIG d   1       5.680  -0.706  -8.740  0.00  0.00     0.064 H 
ATOM     40  N   LIG d   1       4.331   1.842 -10.390  0.00  0.00    -0.263 NA
ATOM     41  H   LIG d   1       5.902   0.559 -10.841  0.00  0.00     0.083 H 
ATOM     42  C   LIG d   1       3.383   2.209  -9.551  0.00  0.00     0.028 A 
ATOM     43  C   LIG d   1       3.198   1.539  -8.356  0.00  0.00    -0.034 A 
ATOM     44  H   LIG d   1       2.743   3.042  -9.800  0.00  0.00     0.083 H 
ATOM     45  H   LIG d   1       2.419   1.843  -7.673  0.00  0.00     0.064 H 
ENDBRANCH  33  36
ENDBRANCH  30  33
ENDBRANCH  20  29
BRANCH  21  46
ATOM     46  O   LIG d   1       5.959  -3.428  -4.566  0.00  0.00    -0.503 OA
ATOM     47  H   LIG d   1       5.167  -2.958  -4.862  0.00  0.00     0.292 HD
ENDBRANCH  21  46
BRANCH  22  48
ATOM     48  O   LIG d   1       8.361  -4.665  -4.126  0.00  0.00    -0.503 OA
ATOM     49  H   LIG d   1       9.198  -4.942  -3.730  0.00  0.00     0.292 HD
ENDBRANCH  22  48
BRANCH  18  50
ATOM     50  C   LIG d   1      10.822  -3.430  -4.448  0.00  0.00    -0.017 C 
ATOM     51  H   LIG d   1      11.652  -2.729  -4.541  0.00  0.00     0.035 H 
BRANCH  50  52
ATOM     52  C   LIG d   1      10.809  -4.019  -3.035  0.00  0.00    -0.059 C 
ATOM     53  H   LIG d   1       9.944  -4.671  -2.921  0.00  0.00     0.024 H 
ATOM     54  H   LIG d   1      11.722  -4.595  -2.874  0.00  0.00     0.024 H 
ATOM     55  H   LIG d   1      10.755  -3.212  -2.306  0.00  0.00     0.024 H 
ENDBRANCH  50  52
BRANCH  50  56
ATOM     56  C   LIG d   1      10.988  -4.557  -5.468  0.00  0.00    -0.059 C 
ATOM     57  H   LIG d   1      10.753  -5.512  -4.998  0.00  0.00     0.024 H 
ATOM     58  H   LIG d   1      10.312  -4.390  -6.308  0.00  0.00     0.024 H 
ATOM     59  H   LIG d   1      12.017  -4.573  -5.828  0.00  0.00     0.024 H 
ENDBRANCH  50  56
ENDBRANCH  18  50
ENDBRANCH   2  12
BRANCH   1  60
ATOM     60  C   LIG d   1       9.707   1.897  -8.757  0.00  0.00    -0.039 C 
ATOM     61  H   LIG d   1       9.244   2.230  -9.687  0.00  0.00     0.028 H 
ATOM     62  H   LIG d   1      10.743   1.618  -8.947  0.00  0.00     0.028 H 
ATOM     63  H   LIG d   1       9.163   1.036  -8.370  0.00  0.00     0.028 H 
ENDBRANCH   1  60
BRANCH   3  64
ATOM     64  O   LIG d   1       9.484   3.432  -4.110  0.00  0.00    -0.505 OA
ATOM     65  H   LIG d   1      10.269   2.982  -3.766  0.00  0.00     0.292 HD
ENDBRANCH   3  64
BRANCH   5  66
ATOM     66  C   LIG d   1       9.466   5.903  -3.455  0.00  0.00     0.176 C 
ATOM     67  N   LIG d   1      10.479   6.178  -2.693  0.00  0.00    -0.242 N 
ATOM     68  H   LIG d   1      11.256   6.626  -3.062  0.00  0.00     0.445 HD
ATOM     69  H   LIG d   1       8.569   5.478  -3.030  0.00  0.00     0.138 H 
BRANCH  67  70
ATOM     70  C   LIG d   1      10.448   5.812  -1.275  0.00  0.00     0.168 C 
ATOM     71  H   LIG d   1       9.475   5.385  -1.031  0.00  0.00     0.108 H 
ATOM     72  H   LIG d   1      11.229   5.079  -1.071  0.00  0.00     0.108 H 
BRANCH  70  73
ATOM     73  C   LIG d   1      10.681   7.041  -0.433  0.00  0.00     0.019 A 
ATOM     74  C   LIG d   1      11.203   6.935   0.847  0.00  0.00    -0.034 A 
ATOM     75  C   LIG d   1      11.409   8.084   1.586  0.00  0.00     0.028 A 
ATOM     76  H   LIG d   1      11.451   5.968   1.259  0.00  0.00     0.064 H 
ATOM     77  N   LIG d   1      11.103   9.268   1.093  0.00  0.00    -0.263 NA
ATOM     78  H   LIG d   1      11.820   8.011   2.582  0.00  0.00     0.083 H 
ATOM     79  C   LIG d   1      10.599   9.406  -0.118  0.00  0.00     0.028 A 
ATOM     80  C   LIG d   1      10.372   8.302  -0.919  0.00  0.00    -0.034 A 
ATOM     81  H   LIG d   1      10.362  10.392  -0.489  0.00  0.00     0.083 H 
ATOM     82  H   LIG d   1       9.960   8.421  -1.910  0.00  0.00     0.064 H 
ENDBRANCH  70  73
ENDBRANCH  67  70
ENDBRANCH   5  66
BRANCH   8  83
ATOM     83  C   LIG d   1       9.757   7.014  -9.136  0.00  0.00    -0.017 C 
ATOM     84  H   LIG d   1       9.609   8.083  -9.288  0.00  0.00     0.035 H 
BRANCH  83  85
ATOM     85  C   LIG d   1      11.131   6.608  -9.674  0.00  0.00    -0.059 C 
ATOM     86  H   LIG d   1      11.699   7.501  -9.933  0.00  0.00     0.024 H 
ATOM     87  H   LIG d   1      11.668   6.043  -8.912  0.00  0.00     0.024 H 
ATOM     88  H   LIG d   1      11.003   5.989 -10.563  0.00  0.00     0.024 H 
ENDBRANCH  83  85
BRANCH  83  89
ATOM     89  C   LIG d   1       8.669   6.238  -9.880  0.00  0.00    -0.059 C 
ATOM     90  H   LIG d   1       9.124   5.638 -10.668  0.00  0.00     0.024 H 
ATOM     91  H   LIG d   1       8.147   5.584  -9.182  0.00  0.00     0.024 H 
ATOM     92  H   LIG d   1       7.959   6.939 -10.320  0.00  0.00     0.024 H 
ENDBRANCH  83  89
ENDBRANCH   8  83
BRANCH   6  93
ATOM     93  O   LIG d   1       9.536   8.516  -4.514  0.00  0.00    -0.503 OA
ATOM     94  H   LIG d   1      10.326   9.073  -4.535  0.00  0.00     0.292 HD
ENDBRANCH   6  93
BRANCH   7  95
ATOM     95  O   LIG d   1       9.674   9.000  -7.205  0.00  0.00    -0.503 OA
ATOM     96  H   LIG d   1       9.113   9.164  -7.975  0.00  0.00     0.292 HD
ENDBRANCH   7  95
TORSDOF 21
ENDMDL
MODEL 4
REMARK VINA RESULT:      -6.3      3.888      6.433
REMARK  21 active torsions:
REMARK  status: ('A' for Active; 'I' for Inactive)
REMARK    1  A    between atoms: C_1  and  C_2 
REMARK    2  A    between atoms: C_3  and  C_27 
REMARK    3  A    between atoms: C_4  and  O_26 
REMARK    4  A    between atoms: C_6  and  C_17 
REMARK    5  A    between atoms: C_7  and  O_16 
REMARK    6  A    between atoms: C_8  and  O_15 
REMARK    7  A    between atoms: C_9  and  C_12 
REMARK    8  A    between atoms: C_12  and  C_13 
REMARK    9  A    between atoms: C_12  and  C_14 
REMARK   10  A    between atoms: N_18  and  C_19 
REMARK   11  A    between atoms: C_19  and  C_20 
REMARK   12  A    between atoms: C_28  and  O_52 
REMARK   13  A    between atoms: C_30  and  C_43 
REMARK   14  A    between atoms: C_31  and  O_42 
REMARK   15  A    between atoms: C_32  and  O_41 
REMARK   16  A    between atoms: C_33  and  C_38 
REMARK   17  A    between atoms: C_36  and  C_37 
REMARK   18  A    between atoms: C_38  and  C_39 
REMARK   19  A    between atoms: C_38  and  C_40 
REMARK   20  A    between atoms: N_44  and  C_45 
REMARK   21  A    between atoms: C_45  and  C_46 
ROOT
ATOM      1  C   LIG d   1      10.759   0.626  -5.710  0.00  0.00    -0.038 A 
ATOM      2  C   LIG d   1       9.557   1.308  -5.948  0.00  0.00     0.031 A 
ATOM      3  C   LIG d   1       8.337   0.663  -5.776  0.00  0.00     0.134 A 
ATOM      4  C   LIG d   1       8.320  -0.676  -5.362  0.00  0.00     0.041 A 
ATOM      5  C   LIG d   1       7.060  -1.394  -5.168  0.00  0.00     0.094 A 
ATOM      6  C   LIG d   1       7.107  -2.725  -4.756  0.00  0.00     0.172 A 
ATOM      7  C   LIG d   1       8.338  -3.352  -4.534  0.00  0.00     0.163 A 
ATOM      8  C   LIG d   1       9.519  -2.696  -4.710  0.00  0.00     0.008 A 
ATOM      9  C   LIG d   1       9.541  -1.353  -5.126  0.00  0.00    -0.006 A 
ATOM     10  C   LIG d   1      10.758  -0.674  -5.313  0.00  0.00    -0.050 A 
ATOM     11  H   LIG d   1      11.693  -1.186  -5.139  0.00  0.00     0.063 H 
ENDROOT
BRANCH   2  12
ATOM     12  C   LIG d   1       9.588   2.724  -6.385  0.00  0.00     0.031 A 
ATOM     13  C   LIG d   1       9.665   3.030  -7.752  0.00  0.00    -0.038 A 
ATOM     14  C   LIG d   1       9.688   4.319  -8.178  0.00  0.00    -0.050 A 
ATOM     15  C   LIG d   1       9.646   5.372  -7.244  0.00  0.00    -0.006 A 
ATOM     16  H   LIG d   1       9.743   4.537  -9.234  0.00  0.00     0.063 H 
ATOM     17  C   LIG d   1       9.575   5.076  -5.861  0.00  0.00     0.041 A 
ATOM     18  C   LIG d   1       9.676   6.713  -7.666  0.00  0.00     0.008 A 
ATOM     19  C   LIG d   1       9.545   3.740  -5.437  0.00  0.00     0.134 A 
ATOM     20  C   LIG d   1       9.533   6.179  -4.901  0.00  0.00     0.094 A 
ATOM     21  C   LIG d   1       9.565   7.486  -5.383  0.00  0.00     0.172 A 
ATOM     22  C   LIG d   1       9.637   7.731  -6.760  0.00  0.00     0.163 A 
BRANCH  13  23
ATOM     23  C   LIG d   1       9.716   1.912  -8.762  0.00  0.00    -0.039 C 
ATOM     24  H   LIG d   1       8.702   1.655  -9.071  0.00  0.00     0.028 H 
ATOM     25  H   LIG d   1      10.290   2.234  -9.630  0.00  0.00     0.028 H 
ATOM     26  H   LIG d   1      10.192   1.040  -8.315  0.00  0.00     0.028 H 
ENDBRANCH  13  23
BRANCH  19  27
ATOM     27  O   LIG d   1       9.475   3.443  -4.114  0.00  0.00    -0.505 OA
ATOM     28  H   LIG d   1       9.052   2.594  -3.924  0.00  0.00     0.292 HD
ENDBRANCH  19  27
BRANCH  20  29
ATOM     29  C   LIG d   1       9.458   5.913  -3.457  0.00  0.00     0.176 C 
ATOM     30  N   LIG d   1      10.467   6.196  -2.694  0.00  0.00    -0.242 N 
ATOM     31  H   LIG d   1      11.242   6.649  -3.061  0.00  0.00     0.445 HD
ATOM     32  H   LIG d   1       8.562   5.484  -3.034  0.00  0.00     0.138 H 
BRANCH  30  33
ATOM     33  C   LIG d   1      10.436   5.830  -1.276  0.00  0.00     0.168 C 
ATOM     34  H   LIG d   1       9.461   5.410  -1.030  0.00  0.00     0.108 H 
ATOM     35  H   LIG d   1      11.211   5.090  -1.074  0.00  0.00     0.108 H 
BRANCH  33  36
ATOM     36  C   LIG d   1      10.682   7.056  -0.434  0.00  0.00     0.019 A 
ATOM     37  C   LIG d   1      10.398   8.321  -0.925  0.00  0.00    -0.034 A 
ATOM     38  C   LIG d   1      10.632   9.422  -0.121  0.00  0.00     0.028 A 
ATOM     39  H   LIG d   1       9.997   8.445  -1.919  0.00  0.00     0.064 H 
ATOM     40  N   LIG d   1      11.128   9.279   1.091  0.00  0.00    -0.263 NA
ATOM     41  H   LIG d   1      10.409  10.411  -0.494  0.00  0.00     0.083 H 
ATOM     42  C   LIG d   1      11.416   8.092   1.587  0.00  0.00     0.028 A 
ATOM     43  C   LIG d   1      11.203   6.945   0.846  0.00  0.00    -0.034 A 
ATOM     44  H   LIG d   1      11.820   8.015   2.586  0.00  0.00     0.083 H 
ATOM     45  H   LIG d   1      11.439   5.975   1.258  0.00  0.00     0.064 H 
ENDBRANCH  33  36
ENDBRANCH  30  33
ENDBRANCH  20  29
BRANCH  21  46
ATOM     46  O   LIG d   1       9.527   8.528  -4.514  0.00  0.00    -0.503 OA
ATOM     47  H   LIG d   1       8.908   8.406  -3.781  0.00  0.00     0.292 HD
ENDBRANCH  21  46
BRANCH  22  48
ATOM     48  O   LIG d   1       9.668   9.015  -7.204  0.00  0.00    -0.503 OA
ATOM     49  H   LIG d   1       8.819   9.336  -7.538  0.00  0.00     0.292 HD
ENDBRANCH  22  48
BRANCH  18  50
ATOM     50  C   LIG d   1       9.753   7.030  -9.137  0.00  0.00    -0.017 C 
ATOM     51  H   LIG d   1       9.613   8.101  -9.286  0.00  0.00     0.035 H 
BRANCH  50  52
ATOM     52  C   LIG d   1      11.123   6.616  -9.678  0.00  0.00    -0.059 C 
ATOM     53  H   LIG d   1      11.365   7.218 -10.552  0.00  0.00     0.024 H 
ATOM     54  H   LIG d   1      11.879   6.772  -8.907  0.00  0.00     0.024 H 
ATOM     55  H   LIG d   1      11.101   5.563  -9.956  0.00  0.00     0.024 H 
ENDBRANCH  50  52
BRANCH  50  56
ATOM     56  C   LIG d   1       8.658   6.264  -9.881  0.00  0.00    -0.059 C 
ATOM     57  H   LIG d   1       8.720   6.486 -10.947  0.00  0.00     0.024 H 
ATOM     58  H   LIG d   1       8.792   5.193  -9.725  0.00  0.00     0.024 H 
ATOM     59  H   LIG d   1       7.682   6.567  -9.504  0.00  0.00     0.024 H 
ENDBRANCH  50  56
ENDBRANCH  18  50
ENDBRANCH   2  12
BRANCH   1  60
ATOM     60  C   LIG d   1      12.071   1.343  -5.902  0.00  0.00    -0.039 C 
ATOM     61  H   LIG d   1      12.892   0.670  -5.653  0.00  0.00     0.028 H 
ATOM     62  H   LIG d   1      12.164   1.660  -6.940  0.00  0.00     0.028 H 
ATOM     63  H   LIG d   1      12.107   2.216  -5.250  0.00  0.00     0.028 H 
ENDBRANCH   1  60
BRANCH   3  64
ATOM     64  O   LIG d   1       7.173   1.325  -6.005  0.00  0.00    -0.505 OA
ATOM     65  H   LIG d   1       6.620   1.432  -5.220  0.00  0.00     0.292 HD
ENDBRANCH   3  64
BRANCH   5  66
ATOM     66  C   LIG d   1       5.772  -0.726  -5.402  0.00  0.00     0.176 C 
ATOM     67  N   LIG d   1       5.044  -1.061  -6.422  0.00  0.00    -0.242 N 
ATOM     68  H   LIG d   1       5.313  -1.802  -6.987  0.00  0.00     0.445 HD
ATOM     69  H   LIG d   1       5.433   0.044  -4.725  0.00  0.00     0.138 H 
BRANCH  67  70
ATOM     70  C   LIG d   1       3.816  -0.321  -6.719  0.00  0.00     0.168 C 
ATOM     71  H   LIG d   1       2.993  -1.021  -6.855  0.00  0.00     0.108 H 
ATOM     72  H   LIG d   1       3.588   0.354  -5.893  0.00  0.00     0.108 H 
BRANCH  70  73
ATOM     73  C   LIG d   1       4.006   0.481  -7.983  0.00  0.00     0.019 A 
ATOM     74  C   LIG d   1       5.092   0.250  -8.813  0.00  0.00    -0.034 A 
ATOM     75  C   LIG d   1       5.229   1.000  -9.965  0.00  0.00     0.028 A 
ATOM     76  H   LIG d   1       5.819  -0.509  -8.565  0.00  0.00     0.064 H 
ATOM     77  N   LIG d   1       4.349   1.933 -10.272  0.00  0.00    -0.263 NA
ATOM     78  H   LIG d   1       6.070   0.823 -10.620  0.00  0.00     0.083 H 
ATOM     79  C   LIG d   1       3.308   2.184  -9.502  0.00  0.00     0.028 A 
ATOM     80  C   LIG d   1       3.101   1.470  -8.337  0.00  0.00    -0.034 A 
ATOM     81  H   LIG d   1       2.608   2.956  -9.786  0.00  0.00     0.083 H 
ATOM     82  H   LIG d   1       2.246   1.679  -7.712  0.00  0.00     0.064 H 
ENDBRANCH  70  73
ENDBRANCH  67  70
ENDBRANCH   5  66
BRANCH   8  83
ATOM     83  C   LIG d   1      10.817  -3.418  -4.458  0.00  0.00    -0.017 C 
ATOM     84  H   LIG d   1      11.647  -2.719  -4.557  0.00  0.00     0.035 H 
BRANCH  83  85
ATOM     85  C   LIG d   1      10.808  -4.004  -3.045  0.00  0.00    -0.059 C 
ATOM     86  H   LIG d   1       9.925  -4.630  -2.916  0.00  0.00     0.024 H 
ATOM     87  H   LIG d   1      11.705  -4.606  -2.896  0.00  0.00     0.024 H 
ATOM     88  H   LIG d   1      10.789  -3.194  -2.316  0.00  0.00     0.024 H 
ENDBRANCH  83  85
BRANCH  83  89
ATOM     89  C   LIG d   1      10.979  -4.547  -5.477  0.00  0.00    -0.059 C 
ATOM     90  H   LIG d   1      11.424  -4.153  -6.390  0.00  0.00     0.024 H 
ATOM     91  H   LIG d   1      11.625  -5.321  -5.063  0.00  0.00     0.024 H 
ATOM     92  H   LIG d   1      10.002  -4.975  -5.704  0.00  0.00     0.024 H 
ENDBRANCH  83  89
ENDBRANCH   8  83
BRANCH   6  93
ATOM     93  O   LIG d   1       5.954  -3.414  -4.567  0.00  0.00    -0.503 OA
ATOM     94  H   LIG d   1       6.064  -4.375  -4.580  0.00  0.00     0.292 HD
ENDBRANCH   6  93
BRANCH   7  95
ATOM     95  O   LIG d   1       8.356  -4.651  -4.132  0.00  0.00    -0.503 OA
ATOM     96  H   LIG d   1       7.795  -4.835  -3.366  0.00  0.00     0.292 HD
ENDBRANCH   7  95
TORSDOF 21
ENDMDL
MODEL 5
REMARK VINA RESULT:      -5.9      2.581      8.752
REMARK  21 active torsions:
REMARK  status: ('A' for Active; 'I' for Inactive)
REMARK    1  A    between atoms: C_1  and  C_2 
REMARK    2  A    between atoms: C_3  and  C_27 
REMARK    3  A    between atoms: C_4  and  O_26 
REMARK    4  A    between atoms: C_6  and  C_17 
REMARK    5  A    between atoms: C_7  and  O_16 
REMARK    6  A    between atoms: C_8  and  O_15 
REMARK    7  A    between atoms: C_9  and  C_12 
REMARK    8  A    between atoms: C_12  and  C_13 
REMARK    9  A    between atoms: C_12  and  C_14 
REMARK   10  A    between atoms: N_18  and  C_19 
REMARK   11  A    between atoms: C_19  and  C_20 
REMARK   12  A    between atoms: C_28  and  O_52 
REMARK   13  A    between atoms: C_30  and  C_43 
REMARK   14  A    between atoms: C_31  and  O_42 
REMARK   15  A    between atoms: C_32  and  O_41 
REMARK   16  A    between atoms: C_33  and  C_38 
REMARK   17  A    between atoms: C_36  and  C_37 
REMARK   18  A    between atoms: C_38  and  C_39 
REMARK   19  A    between atoms: C_38  and  C_40 
REMARK   20  A    between atoms: N_44  and  C_45 
REMARK   21  A    between atoms: C_45  and  C_46 
ROOT
ATOM      1  C   LIG d   1       7.817   1.272  -7.461  0.00  0.00    -0.038 A 
ATOM      2  C   LIG d   1       8.189  -0.068  -7.278  0.00  0.00     0.031 A 
ATOM      3  C   LIG d   1       9.395  -0.385  -6.660  0.00  0.00     0.134 A 
ATOM      4  C   LIG d   1      10.234   0.649  -6.222  0.00  0.00     0.041 A 
ATOM      5  C   LIG d   1      11.511   0.363  -5.567  0.00  0.00     0.094 A 
ATOM      6  C   LIG d   1      12.304   1.433  -5.154  0.00  0.00     0.172 A 
ATOM      7  C   LIG d   1      11.879   2.749  -5.365  0.00  0.00     0.163 A 
ATOM      8  C   LIG d   1      10.693   3.030  -5.973  0.00  0.00     0.008 A 
ATOM      9  C   LIG d   1       9.847   1.997  -6.414  0.00  0.00    -0.006 A 
ATOM     10  C   LIG d   1       8.624   2.284  -7.047  0.00  0.00    -0.050 A 
ATOM     11  H   LIG d   1       8.324   3.310  -7.201  0.00  0.00     0.063 H 
ENDROOT
BRANCH   2  12
ATOM     12  C   LIG d   1       7.293  -1.152  -7.744  0.00  0.00     0.031 A 
ATOM     13  C   LIG d   1       7.231  -1.466  -9.110  0.00  0.00    -0.038 A 
ATOM     14  C   LIG d   1       6.422  -2.459  -9.562  0.00  0.00    -0.050 A 
ATOM     15  C   LIG d   1       5.621  -3.183  -8.659  0.00  0.00    -0.006 A 
ATOM     16  H   LIG d   1       6.390  -2.691 -10.616  0.00  0.00     0.063 H 
ATOM     17  C   LIG d   1       5.670  -2.872  -7.278  0.00  0.00     0.041 A 
ATOM     18  C   LIG d   1       4.772  -4.210  -9.108  0.00  0.00     0.008 A 
ATOM     19  C   LIG d   1       6.515  -1.848  -6.826  0.00  0.00     0.134 A 
ATOM     20  C   LIG d   1       4.832  -3.631  -6.349  0.00  0.00     0.094 A 
ATOM     21  C   LIG d   1       4.013  -4.636  -6.858  0.00  0.00     0.172 A 
ATOM     22  C   LIG d   1       3.997  -4.908  -8.232  0.00  0.00     0.163 A 
BRANCH  13  23
ATOM     23  C   LIG d   1       8.079  -0.694 -10.090  0.00  0.00    -0.039 C 
ATOM     24  H   LIG d   1       9.124  -0.741  -9.781  0.00  0.00     0.028 H 
ATOM     25  H   LIG d   1       7.973  -1.130 -11.082  0.00  0.00     0.028 H 
ATOM     26  H   LIG d   1       7.753   0.345 -10.112  0.00  0.00     0.028 H 
ENDBRANCH  13  23
BRANCH  19  27
ATOM     27  O   LIG d   1       6.572  -1.541  -5.504  0.00  0.00    -0.505 OA
ATOM     28  H   LIG d   1       7.141  -2.130  -4.989  0.00  0.00     0.292 HD
ENDBRANCH  19  27
BRANCH  20  29
ATOM     29  C   LIG d   1       4.855  -3.338  -4.909  0.00  0.00     0.176 C 
ATOM     30  N   LIG d   1       3.835  -2.766  -4.349  0.00  0.00    -0.242 N 
ATOM     31  H   LIG d   1       3.030  -2.597  -4.862  0.00  0.00     0.445 HD
ATOM     32  H   LIG d   1       5.720  -3.602  -4.319  0.00  0.00     0.138 H 
BRANCH  30  33
ATOM     33  C   LIG d   1       3.901  -2.374  -2.939  0.00  0.00     0.168 C 
ATOM     34  H   LIG d   1       3.053  -2.800  -2.403  0.00  0.00     0.108 H 
ATOM     35  H   LIG d   1       4.829  -2.742  -2.501  0.00  0.00     0.108 H 
BRANCH  33  36
ATOM     36  C   LIG d   1       3.857  -0.870  -2.832  0.00  0.00     0.019 A 
ATOM     37  C   LIG d   1       4.545  -0.211  -1.826  0.00  0.00    -0.034 A 
ATOM     38  C   LIG d   1       4.486   1.169  -1.764  0.00  0.00     0.028 A 
ATOM     39  H   LIG d   1       5.123  -0.766  -1.103  0.00  0.00     0.064 H 
ATOM     40  N   LIG d   1       3.778   1.854  -2.640  0.00  0.00    -0.263 NA
ATOM     41  H   LIG d   1       5.023   1.692  -0.986  0.00  0.00     0.083 H 
ATOM     42  C   LIG d   1       3.106   1.259  -3.606  0.00  0.00     0.028 A 
ATOM     43  C   LIG d   1       3.123  -0.117  -3.735  0.00  0.00    -0.034 A 
ATOM     44  H   LIG d   1       2.538   1.854  -4.306  0.00  0.00     0.083 H 
ATOM     45  H   LIG d   1       2.572  -0.599  -4.529  0.00  0.00     0.064 H 
ENDBRANCH  33  36
ENDBRANCH  30  33
ENDBRANCH  20  29
BRANCH  21  46
ATOM     46  O   LIG d   1       3.226  -5.356  -6.019  0.00  0.00    -0.503 OA
ATOM     47  H   LIG d   1       2.304  -5.421  -6.303  0.00  0.00     0.292 HD
ENDBRANCH  21  46
BRANCH  22  48
ATOM     48  O   LIG d   1       3.188  -5.895  -8.702  0.00  0.00    -0.503 OA
ATOM     49  H   LIG d   1       3.495  -6.787  -8.494  0.00  0.00     0.292 HD
ENDBRANCH  22  48
BRANCH  18  50
ATOM     50  C   LIG d   1       4.719  -4.542 -10.577  0.00  0.00    -0.017 C 
ATOM     51  H   LIG d   1       5.411  -3.899 -11.121  0.00  0.00     0.035 H 
BRANCH  50  52
ATOM     52  C   LIG d   1       5.115  -6.006 -10.784  0.00  0.00    -0.059 C 
ATOM     53  H   LIG d   1       4.219  -6.625 -10.800  0.00  0.00     0.024 H 
ATOM     54  H   LIG d   1       5.644  -6.108 -11.731  0.00  0.00     0.024 H 
ATOM     55  H   LIG d   1       5.763  -6.325  -9.969  0.00  0.00     0.024 H 
ENDBRANCH  50  52
BRANCH  50  56
ATOM     56  C   LIG d   1       3.299  -4.319 -11.099  0.00  0.00    -0.059 C 
ATOM     57  H   LIG d   1       3.022  -3.272 -10.966  0.00  0.00     0.024 H 
ATOM     58  H   LIG d   1       3.257  -4.574 -12.158  0.00  0.00     0.024 H 
ATOM     59  H   LIG d   1       2.604  -4.951 -10.546  0.00  0.00     0.024 H 
ENDBRANCH  50  56
ENDBRANCH  18  50
ENDBRANCH   2  12
BRANCH   1  60
ATOM     60  C   LIG d   1       6.507   1.594  -8.133  0.00  0.00    -0.039 C 
ATOM     61  H   LIG d   1       6.300   0.849  -8.902  0.00  0.00     0.028 H 
ATOM     62  H   LIG d   1       5.707   1.583  -7.393  0.00  0.00     0.028 H 
ATOM     63  H   LIG d   1       6.566   2.581  -8.590  0.00  0.00     0.028 H 
ENDBRANCH   1  60
BRANCH   3  64
ATOM     64  O   LIG d   1       9.754  -1.682  -6.481  0.00  0.00    -0.505 OA
ATOM     65  H   LIG d   1       9.157  -2.317  -6.901  0.00  0.00     0.292 HD
ENDBRANCH   3  64
BRANCH   5  66
ATOM     66  C   LIG d   1      11.948  -1.023  -5.349  0.00  0.00     0.176 C 
ATOM     67  N   LIG d   1      11.856  -1.553  -4.169  0.00  0.00    -0.242 N 
ATOM     68  H   LIG d   1      11.430  -1.062  -3.449  0.00  0.00     0.445 HD
ATOM     69  H   LIG d   1      12.347  -1.600  -6.171  0.00  0.00     0.138 H 
BRANCH  67  70
ATOM     70  C   LIG d   1      12.394  -2.893  -3.924  0.00  0.00     0.168 C 
ATOM     71  H   LIG d   1      13.107  -3.148  -4.708  0.00  0.00     0.108 H 
ATOM     72  H   LIG d   1      12.894  -2.914  -2.956  0.00  0.00     0.108 H 
BRANCH  70  73
ATOM     73  C   LIG d   1      11.267  -3.896  -3.927  0.00  0.00     0.019 A 
ATOM     74  C   LIG d   1      10.546  -4.156  -2.772  0.00  0.00    -0.034 A 
ATOM     75  C   LIG d   1       9.517  -5.076  -2.815  0.00  0.00     0.028 A 
ATOM     76  H   LIG d   1      10.782  -3.642  -1.852  0.00  0.00     0.064 H 
ATOM     77  N   LIG d   1       9.226  -5.713  -3.933  0.00  0.00    -0.263 NA
ATOM     78  H   LIG d   1       8.947  -5.281  -1.921  0.00  0.00     0.083 H 
ATOM     79  C   LIG d   1       9.895  -5.496  -5.048  0.00  0.00     0.028 A 
ATOM     80  C   LIG d   1      10.933  -4.584  -5.084  0.00  0.00    -0.034 A 
ATOM     81  H   LIG d   1       9.628  -6.035  -5.945  0.00  0.00     0.083 H 
ATOM     82  H   LIG d   1      11.477  -4.409  -6.001  0.00  0.00     0.064 H 
ENDBRANCH  70  73
ENDBRANCH  67  70
ENDBRANCH   5  66
BRANCH   8  83
ATOM     83  C   LIG d   1      10.282   4.466  -6.177  0.00  0.00    -0.017 C 
ATOM     84  H   LIG d   1       9.373   4.502  -6.778  0.00  0.00     0.035 H 
BRANCH  83  85
ATOM     85  C   LIG d   1      10.022   5.119  -4.818  0.00  0.00    -0.059 C 
ATOM     86  H   LIG d   1      10.027   4.356  -4.040  0.00  0.00     0.024 H 
ATOM     87  H   LIG d   1      10.802   5.853  -4.613  0.00  0.00     0.024 H 
ATOM     88  H   LIG d   1       9.051   5.616  -4.834  0.00  0.00     0.024 H 
ENDBRANCH  83  85
BRANCH  83  89
ATOM     89  C   LIG d   1      11.400   5.219  -6.899  0.00  0.00    -0.059 C 
ATOM     90  H   LIG d   1      11.186   6.287  -6.888  0.00  0.00     0.024 H 
ATOM     91  H   LIG d   1      12.348   5.034  -6.394  0.00  0.00     0.024 H 
ATOM     92  H   LIG d   1      11.465   4.872  -7.930  0.00  0.00     0.024 H 
ENDBRANCH  83  89
ENDBRANCH   8  83
BRANCH   6  93
ATOM     93  O   LIG d   1      13.492   1.196  -4.544  0.00  0.00    -0.503 OA
ATOM     94  H   LIG d   1      13.524   1.485  -3.621  0.00  0.00     0.292 HD
ENDBRANCH   6  93
BRANCH   7  95
ATOM     95  O   LIG d   1      12.671   3.774  -4.953  0.00  0.00    -0.503 OA
ATOM     96  H   LIG d   1      12.214   4.434  -4.414  0.00  0.00     0.292 HD
ENDBRANCH   7  95
TORSDOF 21
ENDMDL
MODEL 6
REMARK VINA RESULT:      -5.9      4.282      9.874
REMARK  21 active torsions:
REMARK  status: ('A' for Active; 'I' for Inactive)
REMARK    1  A    between atoms: C_1  and  C_2 
REMARK    2  A    between atoms: C_3  and  C_27 
REMARK    3  A    between atoms: C_4  and  O_26 
REMARK    4  A    between atoms: C_6  and  C_17 
REMARK    5  A    between atoms: C_7  and  O_16 
REMARK    6  A    between atoms: C_8  and  O_15 
REMARK    7  A    between atoms: C_9  and  C_12 
REMARK    8  A    between atoms: C_12  and  C_13 
REMARK    9  A    between atoms: C_12  and  C_14 
REMARK   10  A    between atoms: N_18  and  C_19 
REMARK   11  A    between atoms: C_19  and  C_20 
REMARK   12  A    between atoms: C_28  and  O_52 
REMARK   13  A    between atoms: C_30  and  C_43 
REMARK   14  A    between atoms: C_31  and  O_42 
REMARK   15  A    between atoms: C_32  and  O_41 
REMARK   16  A    between atoms: C_33  and  C_38 
REMARK   17  A    between atoms: C_36  and  C_37 
REMARK   18  A    between atoms: C_38  and  C_39 
REMARK   19  A    between atoms: C_38  and  C_40 
REMARK   20  A    between atoms: N_44  and  C_45 
REMARK   21  A    between atoms: C_45  and  C_46 
ROOT
ATOM      1  C   LIG d   1      11.341   2.424  -7.318  0.00  0.00    -0.038 A 
ATOM      2  C   LIG d   1      11.319   2.210  -5.932  0.00  0.00     0.031 A 
ATOM      3  C   LIG d   1      10.848   3.199  -5.074  0.00  0.00     0.134 A 
ATOM      4  C   LIG d   1      10.395   4.412  -5.609  0.00  0.00     0.041 A 
ATOM      5  C   LIG d   1       9.892   5.481  -4.746  0.00  0.00     0.094 A 
ATOM      6  C   LIG d   1       9.456   6.666  -5.336  0.00  0.00     0.172 A 
ATOM      7  C   LIG d   1       9.501   6.822  -6.726  0.00  0.00     0.163 A 
ATOM      8  C   LIG d   1       9.968   5.836  -7.542  0.00  0.00     0.008 A 
ATOM      9  C   LIG d   1      10.423   4.616  -7.010  0.00  0.00    -0.006 A 
ATOM     10  C   LIG d   1      10.910   3.598  -7.850  0.00  0.00    -0.050 A 
ATOM     11  H   LIG d   1      10.938   3.748  -8.919  0.00  0.00     0.063 H 
ENDROOT
BRANCH   2  12
ATOM     12  C   LIG d   1      11.800   0.922  -5.378  0.00  0.00     0.031 A 
ATOM     13  C   LIG d   1      13.153   0.770  -5.040  0.00  0.00    -0.038 A 
ATOM     14  C   LIG d   1      13.617  -0.398  -4.525  0.00  0.00    -0.050 A 
ATOM     15  C   LIG d   1      12.741  -1.483  -4.335  0.00  0.00    -0.006 A 
ATOM     16  H   LIG d   1      14.661  -0.496  -4.266  0.00  0.00     0.063 H 
ATOM     17  C   LIG d   1      11.374  -1.345  -4.678  0.00  0.00     0.041 A 
ATOM     18  C   LIG d   1      13.204  -2.702  -3.809  0.00  0.00     0.008 A 
ATOM     19  C   LIG d   1      10.908  -0.130  -5.202  0.00  0.00     0.134 A 
ATOM     20  C   LIG d   1      10.474  -2.480  -4.476  0.00  0.00     0.094 A 
ATOM     21  C   LIG d   1      10.995  -3.661  -3.951  0.00  0.00     0.172 A 
ATOM     22  C   LIG d   1      12.354  -3.751  -3.627  0.00  0.00     0.163 A 
BRANCH  13  23
ATOM     23  C   LIG d   1      14.104   1.922  -5.245  0.00  0.00    -0.039 C 
ATOM     24  H   LIG d   1      14.086   2.568  -4.366  0.00  0.00     0.028 H 
ATOM     25  H   LIG d   1      15.113   1.538  -5.393  0.00  0.00     0.028 H 
ATOM     26  H   LIG d   1      13.800   2.492  -6.121  0.00  0.00     0.028 H 
ENDBRANCH  13  23
BRANCH  19  27
ATOM     27  O   LIG d   1       9.600   0.015  -5.534  0.00  0.00    -0.505 OA
ATOM     28  H   LIG d   1       9.442   0.087  -6.486  0.00  0.00     0.292 HD
ENDBRANCH  19  27
BRANCH  20  29
ATOM     29  C   LIG d   1       9.048  -2.376  -4.819  0.00  0.00     0.176 C 
ATOM     30  N   LIG d   1       8.161  -2.287  -3.878  0.00  0.00    -0.242 N 
ATOM     31  H   LIG d   1       8.440  -2.215  -2.953  0.00  0.00     0.445 HD
ATOM     32  H   LIG d   1       8.742  -2.373  -5.855  0.00  0.00     0.138 H 
BRANCH  30  33
ATOM     33  C   LIG d   1       6.735  -2.295  -4.215  0.00  0.00     0.168 C 
ATOM     34  H   LIG d   1       6.611  -2.095  -5.280  0.00  0.00     0.108 H 
ATOM     35  H   LIG d   1       6.311  -3.271  -3.978  0.00  0.00     0.108 H 
BRANCH  33  36
ATOM     36  C   LIG d   1       6.024  -1.231  -3.419  0.00  0.00     0.019 A 
ATOM     37  C   LIG d   1       6.378   0.103  -3.544  0.00  0.00    -0.034 A 
ATOM     38  C   LIG d   1       5.699   1.051  -2.801  0.00  0.00     0.028 A 
ATOM     39  H   LIG d   1       7.170   0.398  -4.214  0.00  0.00     0.064 H 
ATOM     40  N   LIG d   1       4.735   0.698  -1.975  0.00  0.00    -0.263 NA
ATOM     41  H   LIG d   1       5.965   2.094  -2.896  0.00  0.00     0.083 H 
ATOM     42  C   LIG d   1       4.376  -0.563  -1.827  0.00  0.00     0.028 A 
ATOM     43  C   LIG d   1       5.005  -1.565  -2.540  0.00  0.00    -0.034 A 
ATOM     44  H   LIG d   1       3.580  -0.814  -1.140  0.00  0.00     0.083 H 
ATOM     45  H   LIG d   1       4.706  -2.595  -2.416  0.00  0.00     0.064 H 
ENDBRANCH  33  36
ENDBRANCH  30  33
ENDBRANCH  20  29
BRANCH  21  46
ATOM     46  O   LIG d   1      10.181  -4.729  -3.753  0.00  0.00    -0.503 OA
ATOM     47  H   LIG d   1       9.618  -4.655  -2.971  0.00  0.00     0.292 HD
ENDBRANCH  21  46
BRANCH  22  48
ATOM     48  O   LIG d   1      12.837  -4.915  -3.117  0.00  0.00    -0.503 OA
ATOM     49  H   LIG d   1      13.277  -5.478  -3.769  0.00  0.00     0.292 HD
ENDBRANCH  22  48
BRANCH  18  50
ATOM     50  C   LIG d   1      14.658  -2.851  -3.444  0.00  0.00    -0.017 C 
ATOM     51  H   LIG d   1      14.809  -3.803  -2.933  0.00  0.00     0.035 H 
BRANCH  50  52
ATOM     52  C   LIG d   1      15.510  -2.814  -4.715  0.00  0.00    -0.059 C 
ATOM     53  H   LIG d   1      15.035  -2.168  -5.452  0.00  0.00     0.024 H 
ATOM     54  H   LIG d   1      16.501  -2.427  -4.476  0.00  0.00     0.024 H 
ATOM     55  H   LIG d   1      15.602  -3.822  -5.119  0.00  0.00     0.024 H 
ENDBRANCH  50  52
BRANCH  50  56
ATOM     56  C   LIG d   1      15.072  -1.705  -2.519  0.00  0.00    -0.059 C 
ATOM     57  H   LIG d   1      14.385  -0.868  -2.648  0.00  0.00     0.024 H 
ATOM     58  H   LIG d   1      15.041  -2.044  -1.483  0.00  0.00     0.024 H 
ATOM     59  H   LIG d   1      16.084  -1.386  -2.767  0.00  0.00     0.024 H 
ENDBRANCH  50  56
ENDBRANCH  18  50
ENDBRANCH   2  12
BRANCH   1  60
ATOM     60  C   LIG d   1      11.854   1.340  -8.230  0.00  0.00    -0.039 C 
ATOM     61  H   LIG d   1      11.018   0.735  -8.582  0.00  0.00     0.028 H 
ATOM     62  H   LIG d   1      12.361   1.791  -9.082  0.00  0.00     0.028 H 
ATOM     63  H   LIG d   1      12.555   0.707  -7.684  0.00  0.00     0.028 H 
ENDBRANCH   1  60
BRANCH   3  64
ATOM     64  O   LIG d   1      10.827   2.990  -3.733  0.00  0.00    -0.505 OA
ATOM     65  H   LIG d   1      10.030   3.322  -3.295  0.00  0.00     0.292 HD
ENDBRANCH   3  64
BRANCH   5  66
ATOM     66  C   LIG d   1       9.846   5.308  -3.287  0.00  0.00     0.176 C 
ATOM     67  N   LIG d   1      10.603   6.033  -2.524  0.00  0.00    -0.242 N 
ATOM     68  H   LIG d   1      11.144   6.741  -2.909  0.00  0.00     0.445 HD
ATOM     69  H   LIG d   1       9.183   4.575  -2.851  0.00  0.00     0.138 H 
BRANCH  67  70
ATOM     70  C   LIG d   1      10.641   5.785  -1.081  0.00  0.00     0.168 C 
ATOM     71  H   LIG d   1       9.729   5.272  -0.777  0.00  0.00     0.108 H 
ATOM     72  H   LIG d   1      11.505   5.164  -0.841  0.00  0.00     0.108 H 
BRANCH  70  73
ATOM     73  C   LIG d   1      10.748   7.098  -0.347  0.00  0.00     0.019 A 
ATOM     74  C   LIG d   1      11.401   7.177   0.873  0.00  0.00    -0.034 A 
ATOM     75  C   LIG d   1      11.484   8.398   1.513  0.00  0.00     0.028 A 
ATOM     76  H   LIG d   1      11.845   6.297   1.314  0.00  0.00     0.064 H 
ATOM     77  N   LIG d   1      10.940   9.477   0.984  0.00  0.00    -0.263 NA
ATOM     78  H   LIG d   1      11.996   8.470   2.461  0.00  0.00     0.083 H 
ATOM     79  C   LIG d   1      10.305   9.437  -0.171  0.00  0.00     0.028 A 
ATOM     80  C   LIG d   1      10.188   8.252  -0.873  0.00  0.00    -0.034 A 
ATOM     81  H   LIG d   1       9.872  10.340  -0.575  0.00  0.00     0.083 H 
ATOM     82  H   LIG d   1       9.667   8.225  -1.819  0.00  0.00     0.064 H 
ENDBRANCH  70  73
ENDBRANCH  67  70
ENDBRANCH   5  66
BRANCH   8  83
ATOM     83  C   LIG d   1       9.997   6.054  -9.032  0.00  0.00    -0.017 C 
ATOM     84  H   LIG d   1       9.633   7.056  -9.261  0.00  0.00     0.035 H 
BRANCH  83  85
ATOM     85  C   LIG d   1      11.431   5.903  -9.542  0.00  0.00    -0.059 C 
ATOM     86  H   LIG d   1      12.115   6.405  -8.858  0.00  0.00     0.024 H 
ATOM     87  H   LIG d   1      11.687   4.845  -9.600  0.00  0.00     0.024 H 
ATOM     88  H   LIG d   1      11.514   6.352 -10.533  0.00  0.00     0.024 H 
ENDBRANCH  83  85
BRANCH  83  89
ATOM     89  C   LIG d   1       9.101   5.020  -9.717  0.00  0.00    -0.059 C 
ATOM     90  H   LIG d   1       9.547   4.724 -10.666  0.00  0.00     0.024 H 
ATOM     91  H   LIG d   1       9.001   4.145  -9.075  0.00  0.00     0.024 H 
ATOM     92  H   LIG d   1       8.117   5.453  -9.896  0.00  0.00     0.024 H 
ENDBRANCH  83  89
ENDBRANCH   8  83
BRANCH   6  93
ATOM     93  O   LIG d   1       8.983   7.673  -4.558  0.00  0.00    -0.503 OA
ATOM     94  H   LIG d   1       8.223   7.425  -4.014  0.00  0.00     0.292 HD
ENDBRANCH   6  93
BRANCH   7  95
ATOM     95  O   LIG d   1       9.070   7.988  -7.276  0.00  0.00    -0.503 OA
ATOM     96  H   LIG d   1       8.109   8.092  -7.277  0.00  0.00     0.292 HD
ENDBRANCH   7  95
TORSDOF 21
ENDMDL
MODEL 7
REMARK VINA RESULT:      -5.9      2.766      5.561
REMARK  21 active torsions:
REMARK  status: ('A' for Active; 'I' for Inactive)
REMARK    1  A    between atoms: C_1  and  C_2 
REMARK    2  A    between atoms: C_3  and  C_27 
REMARK    3  A    between atoms: C_4  and  O_26 
REMARK    4  A    between atoms: C_6  and  C_17 
REMARK    5  A    between atoms: C_7  and  O_16 
REMARK    6  A    between atoms: C_8  and  O_15 
REMARK    7  A    between atoms: C_9  and  C_12 
REMARK    8  A    between atoms: C_12  and  C_13 
REMARK    9  A    between atoms: C_12  and  C_14 
REMARK   10  A    between atoms: N_18  and  C_19 
REMARK   11  A    between atoms: C_19  and  C_20 
REMARK   12  A    between atoms: C_28  and  O_52 
REMARK   13  A    between atoms: C_30  and  C_43 
REMARK   14  A    between atoms: C_31  and  O_42 
REMARK   15  A    between atoms: C_32  and  O_41 
REMARK   16  A    between atoms: C_33  and  C_38 
REMARK   17  A    between atoms: C_36  and  C_37 
REMARK   18  A    between atoms: C_38  and  C_39 
REMARK   19  A    between atoms: C_38  and  C_40 
REMARK   20  A    between atoms: N_44  and  C_45 
REMARK   21  A    between atoms: C_45  and  C_46 
ROOT
ATOM      1  C   LIG d   1       7.304  -0.270 -10.199  0.00  0.00    -0.038 A 
ATOM      2  C   LIG d   1       7.018   0.264  -8.934  0.00  0.00     0.031 A 
ATOM      3  C   LIG d   1       5.703   0.361  -8.492  0.00  0.00     0.134 A 
ATOM      4  C   LIG d   1       4.665  -0.081  -9.323  0.00  0.00     0.041 A 
ATOM      5  C   LIG d   1       3.267   0.001  -8.901  0.00  0.00     0.094 A 
ATOM      6  C   LIG d   1       2.278  -0.454  -9.771  0.00  0.00     0.172 A 
ATOM      7  C   LIG d   1       2.624  -0.978 -11.022  0.00  0.00     0.163 A 
ATOM      8  C   LIG d   1       3.922  -1.061 -11.429  0.00  0.00     0.008 A 
ATOM      9  C   LIG d   1       4.967  -0.618 -10.598  0.00  0.00    -0.006 A 
ATOM     10  C   LIG d   1       6.307  -0.698 -11.018  0.00  0.00    -0.050 A 
ATOM     11  H   LIG d   1       6.544  -1.102 -11.991  0.00  0.00     0.063 H 
ENDROOT
BRANCH   2  12
ATOM     12  C   LIG d   1       8.124   0.728  -8.064  0.00  0.00     0.031 A 
ATOM     13  C   LIG d   1       8.539   2.067  -8.117  0.00  0.00    -0.038 A 
ATOM     14  C   LIG d   1       9.546   2.518  -7.325  0.00  0.00    -0.050 A 
ATOM     15  C   LIG d   1      10.199   1.636  -6.443  0.00  0.00    -0.006 A 
ATOM     16  H   LIG d   1       9.850   3.553  -7.376  0.00  0.00     0.063 H 
ATOM     17  C   LIG d   1       9.794   0.281  -6.384  0.00  0.00     0.041 A 
ATOM     18  C   LIG d   1      11.248   2.083  -5.620  0.00  0.00     0.008 A 
ATOM     19  C   LIG d   1       8.748  -0.168  -7.203  0.00  0.00     0.134 A 
ATOM     20  C   LIG d   1      10.481  -0.626  -5.463  0.00  0.00     0.094 A 
ATOM     21  C   LIG d   1      11.513  -0.121  -4.675  0.00  0.00     0.172 A 
ATOM     22  C   LIG d   1      11.879   1.227  -4.768  0.00  0.00     0.163 A 
BRANCH  13  23
ATOM     23  C   LIG d   1       7.853   3.021  -9.062  0.00  0.00    -0.039 C 
ATOM     24  H   LIG d   1       6.795   2.766  -9.129  0.00  0.00     0.028 H 
ATOM     25  H   LIG d   1       7.960   4.039  -8.690  0.00  0.00     0.028 H 
ATOM     26  H   LIG d   1       8.308   2.944 -10.049  0.00  0.00     0.028 H 
ENDBRANCH  13  23
BRANCH  19  27
ATOM     27  O   LIG d   1       8.349  -1.466  -7.155  0.00  0.00    -0.505 OA
ATOM     28  H   LIG d   1       8.155  -1.849  -8.022  0.00  0.00     0.292 HD
ENDBRANCH  19  27
BRANCH  20  29
ATOM     29  C   LIG d   1      10.089  -2.039  -5.372  0.00  0.00     0.176 C 
ATOM     30  N   LIG d   1       9.362  -2.447  -4.380  0.00  0.00    -0.242 N 
ATOM     31  H   LIG d   1       9.015  -1.809  -3.738  0.00  0.00     0.445 HD
ATOM     32  H   LIG d   1      10.407  -2.737  -6.133  0.00  0.00     0.138 H 
BRANCH  30  33
ATOM     33  C   LIG d   1       9.065  -3.874  -4.229  0.00  0.00     0.168 C 
ATOM     34  H   LIG d   1       9.771  -4.457  -4.819  0.00  0.00     0.108 H 
ATOM     35  H   LIG d   1       9.151  -4.154  -3.179  0.00  0.00     0.108 H 
BRANCH  33  36
ATOM     36  C   LIG d   1       7.662  -4.149  -4.708  0.00  0.00     0.019 A 
ATOM     37  C   LIG d   1       7.344  -5.355  -5.314  0.00  0.00    -0.034 A 
ATOM     38  C   LIG d   1       6.045  -5.573  -5.736  0.00  0.00     0.028 A 
ATOM     39  H   LIG d   1       8.098  -6.115  -5.450  0.00  0.00     0.064 H 
ATOM     40  N   LIG d   1       5.121  -4.648  -5.579  0.00  0.00    -0.263 NA
ATOM     41  H   LIG d   1       5.788  -6.512  -6.204  0.00  0.00     0.083 H 
ATOM     42  C   LIG d   1       5.390  -3.487  -5.013  0.00  0.00     0.028 A 
ATOM     43  C   LIG d   1       6.663  -3.200  -4.561  0.00  0.00    -0.034 A 
ATOM     44  H   LIG d   1       4.605  -2.754  -4.902  0.00  0.00     0.083 H 
ATOM     45  H   LIG d   1       6.877  -2.248  -4.097  0.00  0.00     0.064 H 
ENDBRANCH  33  36
ENDBRANCH  30  33
ENDBRANCH  20  29
BRANCH  21  46
ATOM     46  O   LIG d   1      12.166  -0.940  -3.812  0.00  0.00    -0.503 OA
ATOM     47  H   LIG d   1      12.322  -0.549  -2.941  0.00  0.00     0.292 HD
ENDBRANCH  21  46
BRANCH  22  48
ATOM     48  O   LIG d   1      12.890   1.694  -3.987  0.00  0.00    -0.503 OA
ATOM     49  H   LIG d   1      12.745   2.589  -3.650  0.00  0.00     0.292 HD
ENDBRANCH  22  48
BRANCH  18  50
ATOM     50  C   LIG d   1      11.681   3.525  -5.682  0.00  0.00    -0.017 C 
ATOM     51  H   LIG d   1      11.098   4.047  -6.442  0.00  0.00     0.035 H 
BRANCH  50  52
ATOM     52  C   LIG d   1      11.450   4.185  -4.321  0.00  0.00    -0.059 C 
ATOM     53  H   LIG d   1      10.552   4.800  -4.363  0.00  0.00     0.024 H 
ATOM     54  H   LIG d   1      11.328   3.414  -3.559  0.00  0.00     0.024 H 
ATOM     55  H   LIG d   1      12.307   4.810  -4.071  0.00  0.00     0.024 H 
ENDBRANCH  50  52
BRANCH  50  56
ATOM     56  C   LIG d   1      13.166   3.597  -6.039  0.00  0.00    -0.059 C 
ATOM     57  H   LIG d   1      13.693   2.764  -5.574  0.00  0.00     0.024 H 
ATOM     58  H   LIG d   1      13.283   3.542  -7.122  0.00  0.00     0.024 H 
ATOM     59  H   LIG d   1      13.582   4.537  -5.677  0.00  0.00     0.024 H 
ENDBRANCH  50  56
ENDBRANCH  18  50
ENDBRANCH   2  12
BRANCH   1  60
ATOM     60  C   LIG d   1       8.736  -0.367 -10.659  0.00  0.00    -0.039 C 
ATOM     61  H   LIG d   1       8.791  -1.003 -11.543  0.00  0.00     0.028 H 
ATOM     62  H   LIG d   1       9.107   0.628 -10.904  0.00  0.00     0.028 H 
ATOM     63  H   LIG d   1       9.345  -0.797  -9.864  0.00  0.00     0.028 H 
ENDBRANCH   1  60
BRANCH   3  64
ATOM     64  O   LIG d   1       5.427   0.878  -7.267  0.00  0.00    -0.505 OA
ATOM     65  H   LIG d   1       5.447   1.844  -7.233  0.00  0.00     0.292 HD
ENDBRANCH   3  64
BRANCH   5  66
ATOM     66  C   LIG d   1       2.912   0.551  -7.584  0.00  0.00     0.176 C 
ATOM     67  N   LIG d   1       2.795  -0.238  -6.563  0.00  0.00    -0.242 N 
ATOM     68  H   LIG d   1       3.013  -1.180  -6.649  0.00  0.00     0.445 HD
ATOM     69  H   LIG d   1       2.749   1.613  -7.469  0.00  0.00     0.138 H 
BRANCH  67  70
ATOM     70  C   LIG d   1       2.333   0.292  -5.278  0.00  0.00     0.168 C 
ATOM     71  H   LIG d   1       2.368   1.381  -5.300  0.00  0.00     0.108 H 
ATOM     72  H   LIG d   1       1.310  -0.036  -5.095  0.00  0.00     0.108 H 
BRANCH  70  73
ATOM     73  C   LIG d   1       3.227  -0.216  -4.174  0.00  0.00     0.019 A 
ATOM     74  C   LIG d   1       4.504   0.296  -4.003  0.00  0.00    -0.034 A 
ATOM     75  C   LIG d   1       5.292  -0.189  -2.978  0.00  0.00     0.028 A 
ATOM     76  H   LIG d   1       4.877   1.068  -4.661  0.00  0.00     0.064 H 
ATOM     77  N   LIG d   1       4.846  -1.136  -2.175  0.00  0.00    -0.263 NA
ATOM     78  H   LIG d   1       6.286   0.208  -2.834  0.00  0.00     0.083 H 
ATOM     79  C   LIG d   1       3.640  -1.651  -2.311  0.00  0.00     0.028 A 
ATOM     80  C   LIG d   1       2.793  -1.210  -3.311  0.00  0.00    -0.034 A 
ATOM     81  H   LIG d   1       3.309  -2.424  -1.634  0.00  0.00     0.083 H 
ATOM     82  H   LIG d   1       1.805  -1.635  -3.418  0.00  0.00     0.064 H 
ENDBRANCH  70  73
ENDBRANCH  67  70
ENDBRANCH   5  66
BRANCH   8  83
ATOM     83  C   LIG d   1       4.242  -1.632 -12.786  0.00  0.00    -0.017 C 
ATOM     84  H   LIG d   1       3.327  -2.002 -13.250  0.00  0.00     0.035 H 
BRANCH  83  85
ATOM     85  C   LIG d   1       4.857  -0.543 -13.666  0.00  0.00    -0.059 C 
ATOM     86  H   LIG d   1       4.603   0.437 -13.262  0.00  0.00     0.024 H 
ATOM     87  H   LIG d   1       5.941  -0.659 -13.685  0.00  0.00     0.024 H 
ATOM     88  H   LIG d   1       4.464  -0.630 -14.680  0.00  0.00     0.024 H 
ENDBRANCH  83  85
BRANCH  83  89
ATOM     89  C   LIG d   1       5.235  -2.785 -12.632  0.00  0.00    -0.059 C 
ATOM     90  H   LIG d   1       4.914  -3.436 -11.820  0.00  0.00     0.024 H 
ATOM     91  H   LIG d   1       5.277  -3.355 -13.560  0.00  0.00     0.024 H 
ATOM     92  H   LIG d   1       6.224  -2.384 -12.408  0.00  0.00     0.024 H 
ENDBRANCH  83  89
ENDBRANCH   8  83
BRANCH   6  93
ATOM     93  O   LIG d   1       0.973  -0.390  -9.404  0.00  0.00    -0.503 OA
ATOM     94  H   LIG d   1       0.357  -0.679 -10.091  0.00  0.00     0.292 HD
ENDBRANCH   6  93
BRANCH   7  95
ATOM     95  O   LIG d   1       1.640  -1.414 -11.852  0.00  0.00    -0.503 OA
ATOM     96  H   LIG d   1       1.346  -0.756 -12.496  0.00  0.00     0.292 HD
ENDBRANCH   7  95
TORSDOF 21
ENDMDL
MODEL 8
REMARK VINA RESULT:      -5.8      3.298      8.899
REMARK  21 active torsions:
REMARK  status: ('A' for Active; 'I' for Inactive)
REMARK    1  A    between atoms: C_1  and  C_2 
REMARK    2  A    between atoms: C_3  and  C_27 
REMARK    3  A    between atoms: C_4  and  O_26 
REMARK    4  A    between atoms: C_6  and  C_17 
REMARK    5  A    between atoms: C_7  and  O_16 
REMARK    6  A    between atoms: C_8  and  O_15 
REMARK    7  A    between atoms: C_9  and  C_12 
REMARK    8  A    between atoms: C_12  and  C_13 
REMARK    9  A    between atoms: C_12  and  C_14 
REMARK   10  A    between atoms: N_18  and  C_19 
REMARK   11  A    between atoms: C_19  and  C_20 
REMARK   12  A    between atoms: C_28  and  O_52 
REMARK   13  A    between atoms: C_30  and  C_43 
REMARK   14  A    between atoms: C_31  and  O_42 
REMARK   15  A    between atoms: C_32  and  O_41 
REMARK   16  A    between atoms: C_33  and  C_38 
REMARK   17  A    between atoms: C_36  and  C_37 
REMARK   18  A    between atoms: C_38  and  C_39 
REMARK   19  A    between atoms: C_38  and  C_40 
REMARK   20  A    between atoms: N_44  and  C_45 
REMARK   21  A    between atoms: C_45  and  C_46 
ROOT
ATOM      1  C   LIG d   1       6.143  -5.534  -9.675  0.00  0.00    -0.038 A 
ATOM      2  C   LIG d   1       5.028  -5.376  -8.840  0.00  0.00     0.031 A 
ATOM      3  C   LIG d   1       5.187  -4.928  -7.532  0.00  0.00     0.134 A 
ATOM      4  C   LIG d   1       6.473  -4.636  -7.058  0.00  0.00     0.041 A 
ATOM      5  C   LIG d   1       6.688  -4.163  -5.690  0.00  0.00     0.094 A 
ATOM      6  C   LIG d   1       7.990  -3.890  -5.275  0.00  0.00     0.172 A 
ATOM      7  C   LIG d   1       9.063  -4.067  -6.155  0.00  0.00     0.163 A 
ATOM      8  C   LIG d   1       8.879  -4.507  -7.431  0.00  0.00     0.008 A 
ATOM      9  C   LIG d   1       7.590  -4.801  -7.912  0.00  0.00    -0.006 A 
ATOM     10  C   LIG d   1       7.397  -5.260  -9.227  0.00  0.00    -0.050 A 
ATOM     11  H   LIG d   1       8.244  -5.392  -9.882  0.00  0.00     0.063 H 
ENDROOT
BRANCH   2  12
ATOM     12  C   LIG d   1       3.673  -5.687  -9.352  0.00  0.00     0.031 A 
ATOM     13  C   LIG d   1       3.168  -6.992  -9.243  0.00  0.00    -0.038 A 
ATOM     14  C   LIG d   1       1.927  -7.301  -9.699  0.00  0.00    -0.050 A 
ATOM     15  C   LIG d   1       1.130  -6.311 -10.304  0.00  0.00    -0.006 A 
ATOM     16  H   LIG d   1       1.553  -8.309  -9.603  0.00  0.00     0.063 H 
ATOM     17  C   LIG d   1       1.631  -4.991 -10.427  0.00  0.00     0.041 A 
ATOM     18  C   LIG d   1      -0.154  -6.613 -10.789  0.00  0.00     0.008 A 
ATOM     19  C   LIG d   1       2.911  -4.686  -9.944  0.00  0.00     0.134 A 
ATOM     20  C   LIG d   1       0.793  -3.971 -11.058  0.00  0.00     0.094 A 
ATOM     21  C   LIG d   1      -0.471  -4.335 -11.517  0.00  0.00     0.172 A 
ATOM     22  C   LIG d   1      -0.923  -5.652 -11.376  0.00  0.00     0.163 A 
BRANCH  13  23
ATOM     23  C   LIG d   1       4.013  -8.064  -8.603  0.00  0.00    -0.039 C 
ATOM     24  H   LIG d   1       3.368  -8.772  -8.082  0.00  0.00     0.028 H 
ATOM     25  H   LIG d   1       4.580  -8.587  -9.373  0.00  0.00     0.028 H 
ATOM     26  H   LIG d   1       4.701  -7.608  -7.892  0.00  0.00     0.028 H 
ENDBRANCH  13  23
BRANCH  19  27
ATOM     27  O   LIG d   1       3.401  -3.424 -10.054  0.00  0.00    -0.505 OA
ATOM     28  H   LIG d   1       3.907  -3.131  -9.283  0.00  0.00     0.292 HD
ENDBRANCH  19  27
BRANCH  20  29
ATOM     29  C   LIG d   1       1.276  -2.590 -11.203  0.00  0.00     0.176 C 
ATOM     30  N   LIG d   1       0.886  -1.677 -10.369  0.00  0.00    -0.242 N 
ATOM     31  H   LIG d   1       0.335  -1.917  -9.608  0.00  0.00     0.445 HD
ATOM     32  H   LIG d   1       1.956  -2.338 -12.003  0.00  0.00     0.138 H 
BRANCH  30  33
ATOM     33  C   LIG d   1       1.277  -0.281 -10.579  0.00  0.00     0.168 C 
ATOM     34  H   LIG d   1       1.662  -0.159 -11.591  0.00  0.00     0.108 H 
ATOM     35  H   LIG d   1       0.410   0.365 -10.441  0.00  0.00     0.108 H 
BRANCH  33  36
ATOM     36  C   LIG d   1       2.347   0.096  -9.586  0.00  0.00     0.019 A 
ATOM     37  C   LIG d   1       3.332   1.013  -9.919  0.00  0.00    -0.034 A 
ATOM     38  C   LIG d   1       4.293   1.337  -8.979  0.00  0.00     0.028 A 
ATOM     39  H   LIG d   1       3.346   1.470 -10.896  0.00  0.00     0.064 H 
ATOM     40  N   LIG d   1       4.286   0.778  -7.786  0.00  0.00    -0.263 NA
ATOM     41  H   LIG d   1       5.062   2.055  -9.229  0.00  0.00     0.083 H 
ATOM     42  C   LIG d   1       3.369  -0.102  -7.438  0.00  0.00     0.028 A 
ATOM     43  C   LIG d   1       2.372  -0.471  -8.321  0.00  0.00    -0.034 A 
ATOM     44  H   LIG d   1       3.396  -0.539  -6.450  0.00  0.00     0.083 H 
ATOM     45  H   LIG d   1       1.622  -1.192  -8.030  0.00  0.00     0.064 H 
ENDBRANCH  33  36
ENDBRANCH  30  33
ENDBRANCH  20  29
BRANCH  21  46
ATOM     46  O   LIG d   1      -1.268  -3.408 -12.106  0.00  0.00    -0.503 OA
ATOM     47  H   LIG d   1      -1.605  -3.672 -12.973  0.00  0.00     0.292 HD
ENDBRANCH  21  46
BRANCH  22  48
ATOM     48  O   LIG d   1      -2.160  -5.981 -11.833  0.00  0.00    -0.503 OA
ATOM     49  H   LIG d   1      -2.884  -5.593 -11.323  0.00  0.00     0.292 HD
ENDBRANCH  22  48
BRANCH  18  50
ATOM     50  C   LIG d   1      -0.687  -8.016 -10.660  0.00  0.00    -0.017 C 
ATOM     51  H   LIG d   1       0.037  -8.633 -10.127  0.00  0.00     0.035 H 
BRANCH  50  52
ATOM     52  C   LIG d   1      -2.005  -7.991  -9.883  0.00  0.00    -0.059 C 
ATOM     53  H   LIG d   1      -2.297  -9.010  -9.630  0.00  0.00     0.024 H 
ATOM     54  H   LIG d   1      -1.876  -7.413  -8.967  0.00  0.00     0.024 H 
ATOM     55  H   LIG d   1      -2.780  -7.533 -10.496  0.00  0.00     0.024 H 
ENDBRANCH  50  52
BRANCH  50  56
ATOM     56  C   LIG d   1      -0.927  -8.601 -12.053  0.00  0.00    -0.059 C 
ATOM     57  H   LIG d   1      -0.303  -8.080 -12.779  0.00  0.00     0.024 H 
ATOM     58  H   LIG d   1      -0.673  -9.661 -12.050  0.00  0.00     0.024 H 
ATOM     59  H   LIG d   1      -1.976  -8.479 -12.322  0.00  0.00     0.024 H 
ENDBRANCH  50  56
ENDBRANCH  18  50
ENDBRANCH   2  12
BRANCH   1  60
ATOM     60  C   LIG d   1       5.949  -6.020 -11.089  0.00  0.00    -0.039 C 
ATOM     61  H   LIG d   1       5.491  -5.230 -11.685  0.00  0.00     0.028 H 
ATOM     62  H   LIG d   1       6.915  -6.284 -11.518  0.00  0.00     0.028 H 
ATOM     63  H   LIG d   1       5.300  -6.896 -11.087  0.00  0.00     0.028 H 
ENDBRANCH   1  60
BRANCH   3  64
ATOM     64  O   LIG d   1       4.106  -4.774  -6.724  0.00  0.00    -0.505 OA
ATOM     65  H   LIG d   1       3.266  -5.013  -7.140  0.00  0.00     0.292 HD
ENDBRANCH   3  64
BRANCH   5  66
ATOM     66  C   LIG d   1       5.554  -3.979  -4.773  0.00  0.00     0.176 C 
ATOM     67  N   LIG d   1       5.260  -2.793  -4.337  0.00  0.00    -0.242 N 
ATOM     68  H   LIG d   1       5.740  -2.020  -4.672  0.00  0.00     0.445 HD
ATOM     69  H   LIG d   1       4.966  -4.830  -4.463  0.00  0.00     0.138 H 
BRANCH  67  70
ATOM     70  C   LIG d   1       4.203  -2.623  -3.337  0.00  0.00     0.168 C 
ATOM     71  H   LIG d   1       3.268  -3.027  -3.724  0.00  0.00     0.108 H 
ATOM     72  H   LIG d   1       4.477  -3.151  -2.423  0.00  0.00     0.108 H 
BRANCH  70  73
ATOM     73  C   LIG d   1       4.028  -1.156  -3.035  0.00  0.00     0.019 A 
ATOM     74  C   LIG d   1       3.269  -0.346  -3.866  0.00  0.00    -0.034 A 
ATOM     75  C   LIG d   1       3.126   0.992  -3.554  0.00  0.00     0.028 A 
ATOM     76  H   LIG d   1       2.791  -0.758  -4.743  0.00  0.00     0.064 H 
ATOM     77  N   LIG d   1       3.712   1.503  -2.488  0.00  0.00    -0.263 NA
ATOM     78  H   LIG d   1       2.532   1.628  -4.193  0.00  0.00     0.083 H 
ATOM     79  C   LIG d   1       4.446   0.764  -1.680  0.00  0.00     0.028 A 
ATOM     80  C   LIG d   1       4.628  -0.585  -1.924  0.00  0.00    -0.034 A 
ATOM     81  H   LIG d   1       4.909   1.217  -0.816  0.00  0.00     0.083 H 
ATOM     82  H   LIG d   1       5.230  -1.185  -1.258  0.00  0.00     0.064 H 
ENDBRANCH  70  73
ENDBRANCH  67  70
ENDBRANCH   5  66
BRANCH   8  83
ATOM     83  C   LIG d   1      10.069  -4.681  -8.339  0.00  0.00    -0.017 C 
ATOM     84  H   LIG d   1       9.734  -5.041  -9.312  0.00  0.00     0.035 H 
BRANCH  83  85
ATOM     85  C   LIG d   1      10.781  -3.338  -8.508  0.00  0.00    -0.059 C 
ATOM     86  H   LIG d   1      11.742  -3.369  -7.995  0.00  0.00     0.024 H 
ATOM     87  H   LIG d   1      10.942  -3.143  -9.569  0.00  0.00     0.024 H 
ATOM     88  H   LIG d   1      10.167  -2.545  -8.082  0.00  0.00     0.024 H 
ENDBRANCH  83  85
BRANCH  83  89
ATOM     89  C   LIG d   1      11.034  -5.696  -7.725  0.00  0.00    -0.059 C 
ATOM     90  H   LIG d   1      10.584  -6.133  -6.834  0.00  0.00     0.024 H 
ATOM     91  H   LIG d   1      11.243  -6.483  -8.449  0.00  0.00     0.024 H 
ATOM     92  H   LIG d   1      11.964  -5.196  -7.454  0.00  0.00     0.024 H 
ENDBRANCH  83  89
ENDBRANCH   8  83
BRANCH   6  93
ATOM     93  O   LIG d   1       8.218  -3.449  -4.012  0.00  0.00    -0.503 OA
ATOM     94  H   LIG d   1       7.815  -3.998  -3.326  0.00  0.00     0.292 HD
ENDBRANCH   6  93
BRANCH   7  95
ATOM     95  O   LIG d   1      10.324  -3.793  -5.725  0.00  0.00    -0.503 OA
ATOM     96  H   LIG d   1      11.013  -4.295  -6.181  0.00  0.00     0.292 HD
ENDBRANCH   7  95
TORSDOF 21
ENDMDL
MODEL 9
REMARK VINA RESULT:      -5.8      4.620     10.052
REMARK  21 active torsions:
REMARK  status: ('A' for Active; 'I' for Inactive)
REMARK    1  A    between atoms: C_1  and  C_2 
REMARK    2  A    between atoms: C_3  and  C_27 
REMARK    3  A    between atoms: C_4  and  O_26 
REMARK    4  A    between atoms: C_6  and  C_17 
REMARK    5  A    between atoms: C_7  and  O_16 
REMARK    6  A    between atoms: C_8  and  O_15 
REMARK    7  A    between atoms: C_9  and  C_12 
REMARK    8  A    between atoms: C_12  and  C_13 
REMARK    9  A    between atoms: C_12  and  C_14 
REMARK   10  A    between atoms: N_18  and  C_19 
REMARK   11  A    between atoms: C_19  and  C_20 
REMARK   12  A    between atoms: C_28  and  O_52 
REMARK   13  A    between atoms: C_30  and  C_43 
REMARK   14  A    between atoms: C_31  and  O_42 
REMARK   15  A    between atoms: C_32  and  O_41 
REMARK   16  A    between atoms: C_33  and  C_38 
REMARK   17  A    between atoms: C_36  and  C_37 
REMARK   18  A    between atoms: C_38  and  C_39 
REMARK   19  A    between atoms: C_38  and  C_40 
REMARK   20  A    between atoms: N_44  and  C_45 
REMARK   21  A    between atoms: C_45  and  C_46 
ROOT
ATOM      1  C   LIG d   1      10.675   5.225  -4.537  0.00  0.00    -0.038 A 
ATOM      2  C   LIG d   1      10.308   4.508  -5.685  0.00  0.00     0.031 A 
ATOM      3  C   LIG d   1       9.846   5.177  -6.814  0.00  0.00     0.134 A 
ATOM      4  C   LIG d   1       9.752   6.575  -6.794  0.00  0.00     0.041 A 
ATOM      5  C   LIG d   1       9.271   7.320  -7.957  0.00  0.00     0.094 A 
ATOM      6  C   LIG d   1       9.199   8.710  -7.877  0.00  0.00     0.172 A 
ATOM      7  C   LIG d   1       9.580   9.370  -6.704  0.00  0.00     0.163 A 
ATOM      8  C   LIG d   1      10.029   8.689  -5.612  0.00  0.00     0.008 A 
ATOM      9  C   LIG d   1      10.125   7.286  -5.628  0.00  0.00    -0.006 A 
ATOM     10  C   LIG d   1      10.584   6.581  -4.501  0.00  0.00    -0.050 A 
ATOM     11  H   LIG d   1      10.866   7.117  -3.607  0.00  0.00     0.063 H 
ENDROOT
BRANCH   2  12
ATOM     12  C   LIG d   1      10.413   3.030  -5.695  0.00  0.00     0.031 A 
ATOM     13  C   LIG d   1      11.602   2.419  -6.120  0.00  0.00    -0.038 A 
ATOM     14  C   LIG d   1      11.726   1.066  -6.133  0.00  0.00    -0.050 A 
ATOM     15  C   LIG d   1      10.648   0.255  -5.729  0.00  0.00    -0.006 A 
ATOM     16  H   LIG d   1      12.650   0.612  -6.458  0.00  0.00     0.063 H 
ATOM     17  C   LIG d   1       9.440   0.860  -5.305  0.00  0.00     0.041 A 
ATOM     18  C   LIG d   1      10.755  -1.147  -5.743  0.00  0.00     0.008 A 
ATOM     19  C   LIG d   1       9.330   2.257  -5.290  0.00  0.00     0.134 A 
ATOM     20  C   LIG d   1       8.328   0.006  -4.888  0.00  0.00     0.094 A 
ATOM     21  C   LIG d   1       8.497  -1.377  -4.924  0.00  0.00     0.172 A 
ATOM     22  C   LIG d   1       9.710  -1.930  -5.352  0.00  0.00     0.163 A 
BRANCH  13  23
ATOM     23  C   LIG d   1      12.762   3.275  -6.561  0.00  0.00    -0.039 C 
ATOM     24  H   LIG d   1      13.623   3.077  -5.922  0.00  0.00     0.028 H 
ATOM     25  H   LIG d   1      13.014   3.039  -7.594  0.00  0.00     0.028 H 
ATOM     26  H   LIG d   1      12.487   4.326  -6.485  0.00  0.00     0.028 H 
ENDBRANCH  13  23
BRANCH  19  27
ATOM     27  O   LIG d   1       8.178   2.849  -4.884  0.00  0.00    -0.505 OA
ATOM     28  H   LIG d   1       7.601   2.271  -4.365  0.00  0.00     0.292 HD
ENDBRANCH  19  27
BRANCH  20  29
ATOM     29  C   LIG d   1       7.058   0.595  -4.440  0.00  0.00     0.176 C 
ATOM     30  N   LIG d   1       6.878   0.870  -3.186  0.00  0.00    -0.242 N 
ATOM     31  H   LIG d   1       7.606   0.756  -2.555  0.00  0.00     0.445 HD
ATOM     32  H   LIG d   1       6.276   0.799  -5.157  0.00  0.00     0.138 H 
BRANCH  30  33
ATOM     33  C   LIG d   1       5.575   1.353  -2.723  0.00  0.00     0.168 C 
ATOM     34  H   LIG d   1       5.663   1.706  -1.695  0.00  0.00     0.108 H 
ATOM     35  H   LIG d   1       5.242   2.172  -3.360  0.00  0.00     0.108 H 
BRANCH  33  36
ATOM     36  C   LIG d   1       4.572   0.229  -2.783  0.00  0.00     0.019 A 
ATOM     37  C   LIG d   1       4.856  -1.006  -2.222  0.00  0.00    -0.034 A 
ATOM     38  C   LIG d   1       3.909  -2.010  -2.292  0.00  0.00     0.028 A 
ATOM     39  H   LIG d   1       5.803  -1.180  -1.733  0.00  0.00     0.064 H 
ATOM     40  N   LIG d   1       2.754  -1.807  -2.893  0.00  0.00    -0.263 NA
ATOM     41  H   LIG d   1       4.121  -2.975  -1.853  0.00  0.00     0.083 H 
ATOM     42  C   LIG d   1       2.452  -0.647  -3.443  0.00  0.00     0.028 A 
ATOM     43  C   LIG d   1       3.347   0.406  -3.407  0.00  0.00    -0.034 A 
ATOM     44  H   LIG d   1       1.495  -0.519  -3.926  0.00  0.00     0.083 H 
ATOM     45  H   LIG d   1       3.094   1.354  -3.858  0.00  0.00     0.064 H 
ENDBRANCH  33  36
ENDBRANCH  30  33
ENDBRANCH  20  29
BRANCH  21  46
ATOM     46  O   LIG d   1       7.481  -2.192  -4.543  0.00  0.00    -0.503 OA
ATOM     47  H   LIG d   1       7.766  -3.075  -4.272  0.00  0.00     0.292 HD
ENDBRANCH  21  46
BRANCH  22  48
ATOM     48  O   LIG d   1       9.849  -3.282  -5.378  0.00  0.00    -0.503 OA
ATOM     49  H   LIG d   1      10.612  -3.608  -4.882  0.00  0.00     0.292 HD
ENDBRANCH  22  48
BRANCH  18  50
ATOM     50  C   LIG d   1      12.039  -1.792  -6.194  0.00  0.00    -0.017 C 
ATOM     51  H   LIG d   1      12.753  -1.019  -6.482  0.00  0.00     0.035 H 
BRANCH  50  52
ATOM     52  C   LIG d   1      12.623  -2.623  -5.049  0.00  0.00    -0.059 C 
ATOM     53  H   LIG d   1      11.834  -2.868  -4.340  0.00  0.00     0.024 H 
ATOM     54  H   LIG d   1      13.051  -3.542  -5.450  0.00  0.00     0.024 H 
ATOM     55  H   LIG d   1      13.401  -2.050  -4.545  0.00  0.00     0.024 H 
ENDBRANCH  50  52
BRANCH  50  56
ATOM     56  C   LIG d   1      11.760  -2.700  -7.392  0.00  0.00    -0.059 C 
ATOM     57  H   LIG d   1      11.507  -2.090  -8.260  0.00  0.00     0.024 H 
ATOM     58  H   LIG d   1      12.648  -3.294  -7.613  0.00  0.00     0.024 H 
ATOM     59  H   LIG d   1      10.928  -3.364  -7.160  0.00  0.00     0.024 H 
ENDBRANCH  50  56
ENDBRANCH  18  50
ENDBRANCH   2  12
BRANCH   1  60
ATOM     60  C   LIG d   1      11.173   4.482  -3.324  0.00  0.00    -0.039 C 
ATOM     61  H   LIG d   1      10.380   4.433  -2.577  0.00  0.00     0.028 H 
ATOM     62  H   LIG d   1      11.464   3.472  -3.611  0.00  0.00     0.028 H 
ATOM     63  H   LIG d   1      12.034   5.004  -2.906  0.00  0.00     0.028 H 
ENDBRANCH   1  60
BRANCH   3  64
ATOM     64  O   LIG d   1       9.492   4.481  -7.926  0.00  0.00    -0.505 OA
ATOM     65  H   LIG d   1       8.922   3.720  -7.749  0.00  0.00     0.292 HD
ENDBRANCH   3  64
BRANCH   5  66
ATOM     66  C   LIG d   1       8.875   6.618  -9.186  0.00  0.00     0.176 C 
ATOM     67  N   LIG d   1       9.605   6.718 -10.254  0.00  0.00    -0.242 N 
ATOM     68  H   LIG d   1      10.450   7.193 -10.220  0.00  0.00     0.445 HD
ATOM     69  H   LIG d   1       7.976   6.020  -9.201  0.00  0.00     0.138 H 
BRANCH  67  70
ATOM     70  C   LIG d   1       9.154   6.111 -11.508  0.00  0.00     0.168 C 
ATOM     71  H   LIG d   1       9.677   5.168 -11.665  0.00  0.00     0.108 H 
ATOM     72  H   LIG d   1       8.080   5.928 -11.459  0.00  0.00     0.108 H 
BRANCH  70  73
ATOM     73  C   LIG d   1       9.451   7.046 -12.654  0.00  0.00     0.019 A 
ATOM     74  C   LIG d   1       9.767   8.375 -12.421  0.00  0.00    -0.034 A 
ATOM     75  C   LIG d   1      10.039   9.200 -13.495  0.00  0.00     0.028 A 
ATOM     76  H   LIG d   1       9.806   8.760 -11.412  0.00  0.00     0.064 H 
ATOM     77  N   LIG d   1       9.988   8.739 -14.730  0.00  0.00    -0.263 NA
ATOM     78  H   LIG d   1      10.292  10.236 -13.322  0.00  0.00     0.083 H 
ATOM     79  C   LIG d   1       9.683   7.483 -14.989  0.00  0.00     0.028 A 
ATOM     80  C   LIG d   1       9.406   6.597 -13.965  0.00  0.00    -0.034 A 
ATOM     81  H   LIG d   1       9.652   7.141 -16.013  0.00  0.00     0.083 H 
ATOM     82  H   LIG d   1       9.159   5.569 -14.183  0.00  0.00     0.064 H 
ENDBRANCH  70  73
ENDBRANCH  67  70
ENDBRANCH   5  66
BRANCH   8  83
ATOM     83  C   LIG d   1      10.426   9.448  -4.372  0.00  0.00    -0.017 C 
ATOM     84  H   LIG d   1      10.508   8.757  -3.534  0.00  0.00     0.035 H 
BRANCH  83  85
ATOM     85  C   LIG d   1      11.774  10.133  -4.604  0.00  0.00    -0.059 C 
ATOM     86  H   LIG d   1      12.133   9.901  -5.607  0.00  0.00     0.024 H 
ATOM     87  H   LIG d   1      11.656  11.212  -4.500  0.00  0.00     0.024 H 
ATOM     88  H   LIG d   1      12.495   9.774  -3.869  0.00  0.00     0.024 H 
ENDBRANCH  83  85
BRANCH  83  89
ATOM     89  C   LIG d   1       9.365  10.505  -4.060  0.00  0.00    -0.059 C 
ATOM     90  H   LIG d   1       9.377  10.729  -2.993  0.00  0.00     0.024 H 
ATOM     91  H   LIG d   1       9.579  11.413  -4.623  0.00  0.00     0.024 H 
ATOM     92  H   LIG d   1       8.382  10.127  -4.340  0.00  0.00     0.024 H 
ENDBRANCH  83  89
ENDBRANCH   8  83
BRANCH   6  93
ATOM     93  O   LIG d   1       8.758   9.425  -8.942  0.00  0.00    -0.503 OA
ATOM     94  H   LIG d   1       8.260   8.904  -9.587  0.00  0.00     0.292 HD
ENDBRANCH   6  93
BRANCH   7  95
ATOM     95  O   LIG d   1       9.499  10.726  -6.651  0.00  0.00    -0.503 OA
ATOM     96  H   LIG d   1       9.414  11.082  -5.756  0.00  0.00     0.292 HD
ENDBRANCH   7  95
TORSDOF 21
ENDMDL
MODEL 10
REMARK VINA RESULT:      -5.7      3.120      5.797
REMARK  21 active torsions:
REMARK  status: ('A' for Active; 'I' for Inactive)
REMARK    1  A    between atoms: C_1  and  C_2 
REMARK    2  A    between atoms: C_3  and  C_27 
REMARK    3  A    between atoms: C_4  and  O_26 
REMARK    4  A    between atoms: C_6  and  C_17 
REMARK    5  A    between atoms: C_7  and  O_16 
REMARK    6  A    between atoms: C_8  and  O_15 
REMARK    7  A    between atoms: C_9  and  C_12 
REMARK    8  A    between atoms: C_12  and  C_13 
REMARK    9  A    between atoms: C_12  and  C_14 
REMARK   10  A    between atoms: N_18  and  C_19 
REMARK   11  A    between atoms: C_19  and  C_20 
REMARK   12  A    between atoms: C_28  and  O_52 
REMARK   13  A    between atoms: C_30  and  C_43 
REMARK   14  A    between atoms: C_31  and  O_42 
REMARK   15  A    between atoms: C_32  and  O_41 
REMARK   16  A    between atoms: C_33  and  C_38 
REMARK   17  A    between atoms: C_36  and  C_37 
REMARK   18  A    between atoms: C_38  and  C_39 
REMARK   19  A    between atoms: C_38  and  C_40 
REMARK   20  A    between atoms: N_44  and  C_45 
REMARK   21  A    between atoms: C_45  and  C_46 
ROOT
ATOM      1  C   LIG d   1       7.287  -4.663  -7.811  0.00  0.00    -0.038 A 
ATOM      2  C   LIG d   1       6.522  -3.500  -7.980  0.00  0.00     0.031 A 
ATOM      3  C   LIG d   1       6.113  -3.105  -9.250  0.00  0.00     0.134 A 
ATOM      4  C   LIG d   1       6.474  -3.882 -10.360  0.00  0.00     0.041 A 
ATOM      5  C   LIG d   1       6.068  -3.506 -11.714  0.00  0.00     0.094 A 
ATOM      6  C   LIG d   1       6.458  -4.317 -12.778  0.00  0.00     0.172 A 
ATOM      7  C   LIG d   1       7.222  -5.467 -12.546  0.00  0.00     0.163 A 
ATOM      8  C   LIG d   1       7.608  -5.829 -11.291  0.00  0.00     0.008 A 
ATOM      9  C   LIG d   1       7.248  -5.053 -10.175  0.00  0.00    -0.006 A 
ATOM     10  C   LIG d   1       7.649  -5.423  -8.878  0.00  0.00    -0.050 A 
ATOM     11  H   LIG d   1       8.243  -6.312  -8.730  0.00  0.00     0.063 H 
ENDROOT
BRANCH   2  12
ATOM     12  C   LIG d   1       6.145  -2.687  -6.800  0.00  0.00     0.031 A 
ATOM     13  C   LIG d   1       5.006  -3.027  -6.055  0.00  0.00    -0.038 A 
ATOM     14  C   LIG d   1       4.643  -2.302  -4.965  0.00  0.00    -0.050 A 
ATOM     15  C   LIG d   1       5.405  -1.184  -4.575  0.00  0.00    -0.006 A 
ATOM     16  H   LIG d   1       3.765  -2.579  -4.400  0.00  0.00     0.063 H 
ATOM     17  C   LIG d   1       6.554  -0.828  -5.322  0.00  0.00     0.041 A 
ATOM     18  C   LIG d   1       5.041  -0.418  -3.454  0.00  0.00     0.008 A 
ATOM     19  C   LIG d   1       6.919  -1.590  -6.441  0.00  0.00     0.134 A 
ATOM     20  C   LIG d   1       7.337   0.336  -4.907  0.00  0.00     0.094 A 
ATOM     21  C   LIG d   1       6.924   1.054  -3.787  0.00  0.00     0.172 A 
ATOM     22  C   LIG d   1       5.780   0.665  -3.079  0.00  0.00     0.163 A 
BRANCH  13  23
ATOM     23  C   LIG d   1       4.176  -4.217  -6.465  0.00  0.00    -0.039 C 
ATOM     24  H   LIG d   1       3.895  -4.787  -5.578  0.00  0.00     0.028 H 
ATOM     25  H   LIG d   1       3.278  -3.874  -6.977  0.00  0.00     0.028 H 
ATOM     26  H   LIG d   1       4.757  -4.851  -7.135  0.00  0.00     0.028 H 
ENDBRANCH  13  23
BRANCH  19  27
ATOM     27  O   LIG d   1       8.020  -1.259  -7.165  0.00  0.00    -0.505 OA
ATOM     28  H   LIG d   1       7.909  -0.465  -7.706  0.00  0.00     0.292 HD
ENDBRANCH  19  27
BRANCH  20  29
ATOM     29  C   LIG d   1       8.536   0.738  -5.656  0.00  0.00     0.176 C 
ATOM     30  N   LIG d   1       8.484   1.750  -6.465  0.00  0.00    -0.242 N 
ATOM     31  H   LIG d   1       7.678   2.286  -6.521  0.00  0.00     0.445 HD
ATOM     32  H   LIG d   1       9.459   0.192  -5.531  0.00  0.00     0.138 H 
BRANCH  30  33
ATOM     33  C   LIG d   1       9.645   2.083  -7.294  0.00  0.00     0.168 C 
ATOM     34  H   LIG d   1      10.555   1.985  -6.703  0.00  0.00     0.108 H 
ATOM     35  H   LIG d   1       9.691   1.404  -8.146  0.00  0.00     0.108 H 
BRANCH  33  36
ATOM     36  C   LIG d   1       9.519   3.502  -7.789  0.00  0.00     0.019 A 
ATOM     37  C   LIG d   1      10.001   4.561  -7.036  0.00  0.00    -0.034 A 
ATOM     38  C   LIG d   1       9.873   5.847  -7.526  0.00  0.00     0.028 A 
ATOM     39  H   LIG d   1      10.475   4.383  -6.082  0.00  0.00     0.064 H 
ATOM     40  N   LIG d   1       9.290   6.072  -8.686  0.00  0.00    -0.263 NA
ATOM     41  H   LIG d   1      10.250   6.678  -6.947  0.00  0.00     0.083 H 
ATOM     42  C   LIG d   1       8.815   5.090  -9.426  0.00  0.00     0.028 A 
ATOM     43  C   LIG d   1       8.913   3.777  -9.005  0.00  0.00    -0.034 A 
ATOM     44  H   LIG d   1       8.345   5.314 -10.372  0.00  0.00     0.083 H 
ATOM     45  H   LIG d   1       8.523   2.976  -9.616  0.00  0.00     0.064 H 
ENDBRANCH  33  36
ENDBRANCH  30  33
ENDBRANCH  20  29
BRANCH  21  46
ATOM     46  O   LIG d   1       7.633   2.137  -3.380  0.00  0.00    -0.503 OA
ATOM     47  H   LIG d   1       8.105   2.589  -4.093  0.00  0.00     0.292 HD
ENDBRANCH  21  46
BRANCH  22  48
ATOM     48  O   LIG d   1       5.398   1.383  -1.989  0.00  0.00    -0.503 OA
ATOM     49  H   LIG d   1       5.893   2.205  -1.867  0.00  0.00     0.292 HD
ENDBRANCH  22  48
BRANCH  18  50
ATOM     50  C   LIG d   1       3.819  -0.795  -2.658  0.00  0.00    -0.017 C 
ATOM     51  H   LIG d   1       3.772  -0.187  -1.754  0.00  0.00     0.035 H 
BRANCH  50  52
ATOM     52  C   LIG d   1       2.565  -0.552  -3.501  0.00  0.00    -0.059 C 
ATOM     53  H   LIG d   1       2.112  -1.508  -3.760  0.00  0.00     0.024 H 
ATOM     54  H   LIG d   1       1.854   0.045  -2.929  0.00  0.00     0.024 H 
ATOM     55  H   LIG d   1       2.838  -0.019  -4.411  0.00  0.00     0.024 H 
ENDBRANCH  50  52
BRANCH  50  56
ATOM     56  C   LIG d   1       3.897  -2.274  -2.274  0.00  0.00    -0.059 C 
ATOM     57  H   LIG d   1       4.894  -2.655  -2.498  0.00  0.00     0.024 H 
ATOM     58  H   LIG d   1       3.696  -2.384  -1.208  0.00  0.00     0.024 H 
ATOM     59  H   LIG d   1       3.157  -2.836  -2.843  0.00  0.00     0.024 H 
ENDBRANCH  50  56
ENDBRANCH  18  50
ENDBRANCH   2  12
BRANCH   1  60
ATOM     60  C   LIG d   1       7.719  -5.073  -6.427  0.00  0.00    -0.039 C 
ATOM     61  H   LIG d   1       6.846  -5.129  -5.775  0.00  0.00     0.028 H 
ATOM     62  H   LIG d   1       8.201  -6.049  -6.470  0.00  0.00     0.028 H 
ATOM     63  H   LIG d   1       8.420  -4.339  -6.031  0.00  0.00     0.028 H 
ENDBRANCH   1  60
BRANCH   3  64
ATOM     64  O   LIG d   1       5.371  -1.980  -9.413  0.00  0.00    -0.505 OA
ATOM     65  H   LIG d   1       5.162  -1.523  -8.587  0.00  0.00     0.292 HD
ENDBRANCH   3  64
BRANCH   5  66
ATOM     66  C   LIG d   1       5.264  -2.297 -11.947  0.00  0.00     0.176 C 
ATOM     67  N   LIG d   1       4.002  -2.403 -12.225  0.00  0.00    -0.242 N 
ATOM     68  H   LIG d   1       3.572  -3.272 -12.206  0.00  0.00     0.445 HD
ATOM     69  H   LIG d   1       5.725  -1.322 -11.888  0.00  0.00     0.138 H 
BRANCH  67  70
ATOM     70  C   LIG d   1       3.226  -1.209 -12.568  0.00  0.00     0.168 C 
ATOM     71  H   LIG d   1       3.710  -0.684 -13.391  0.00  0.00     0.108 H 
ATOM     72  H   LIG d   1       2.219  -1.502 -12.865  0.00  0.00     0.108 H 
BRANCH  70  73
ATOM     73  C   LIG d   1       3.149  -0.298 -11.369  0.00  0.00     0.019 A 
ATOM     74  C   LIG d   1       3.909   0.860 -11.307  0.00  0.00    -0.034 A 
ATOM     75  C   LIG d   1       3.808   1.673 -10.195  0.00  0.00     0.028 A 
ATOM     76  H   LIG d   1       4.569   1.125 -12.121  0.00  0.00     0.064 H 
ATOM     77  N   LIG d   1       3.010   1.352  -9.195  0.00  0.00    -0.263 NA
ATOM     78  H   LIG d   1       4.393   2.579 -10.141  0.00  0.00     0.083 H 
ATOM     79  C   LIG d   1       2.277   0.256  -9.216  0.00  0.00     0.028 A 
ATOM     80  C   LIG d   1       2.321  -0.603 -10.299  0.00  0.00    -0.034 A 
ATOM     81  H   LIG d   1       1.635   0.026  -8.379  0.00  0.00     0.083 H 
ATOM     82  H   LIG d   1       1.718  -1.498 -10.311  0.00  0.00     0.064 H 
ENDBRANCH  70  73
ENDBRANCH  67  70
ENDBRANCH   5  66
BRANCH   8  83
ATOM     83  C   LIG d   1       8.431  -7.077 -11.096  0.00  0.00    -0.017 C 
ATOM     84  H   LIG d   1       8.646  -7.208 -10.036  0.00  0.00     0.035 H 
BRANCH  83  85
ATOM     85  C   LIG d   1       7.652  -8.287 -11.613  0.00  0.00    -0.059 C 
ATOM     86  H   LIG d   1       7.447  -8.161 -12.676  0.00  0.00     0.024 H 
ATOM     87  H   LIG d   1       8.242  -9.191 -11.461  0.00  0.00     0.024 H 
ATOM     88  H   LIG d   1       6.710  -8.372 -11.070  0.00  0.00     0.024 H 
ENDBRANCH  83  85
BRANCH  83  89
ATOM     89  C   LIG d   1       9.744  -6.947 -11.870  0.00  0.00    -0.059 C 
ATOM     90  H   LIG d   1       9.906  -5.904 -12.139  0.00  0.00     0.024 H 
ATOM     91  H   LIG d   1      10.568  -7.294 -11.247  0.00  0.00     0.024 H 
ATOM     92  H   LIG d   1       9.693  -7.553 -12.775  0.00  0.00     0.024 H 
ENDBRANCH  83  89
ENDBRANCH   8  83
BRANCH   6  93
ATOM     93  O   LIG d   1       6.094  -3.992 -14.044  0.00  0.00    -0.503 OA
ATOM     94  H   LIG d   1       6.816  -3.640 -14.582  0.00  0.00     0.292 HD
ENDBRANCH   6  93
BRANCH   7  95
ATOM     95  O   LIG d   1       7.589  -6.241 -13.602  0.00  0.00    -0.503 OA
ATOM     96  H   LIG d   1       7.417  -5.840 -14.464  0.00  0.00     0.292 HD
ENDBRANCH   7  95
TORSDOF 21
ENDMDL
