MODEL 1
REMARK VINA RESULT:      -7.1      0.000      0.000
REMARK  5 active torsions:
REMARK  status: ('A' for Active; 'I' for Inactive)
REMARK    1  A    between atoms: C_1  and  C_2 
REMARK    2  A    between atoms: C_3  and  C_20 
REMARK    3  A    between atoms: C_6  and  O_11 
REMARK    4  A    between atoms: O_11  and  C_12 
REMARK    5  A    between atoms: C_12  and  C_13 
ROOT
ATOM      1  C   LIG d   1       2.876  -1.168 -11.763  0.00  0.00     0.112 A 
ATOM      2  C   LIG d   1       2.523  -1.517 -10.493  0.00  0.00     0.046 A 
ATOM      3  C   LIG d   1       2.778  -0.320  -9.665  0.00  0.00     0.033 A 
ATOM      4  C   LIG d   1       2.629  -0.027  -8.314  0.00  0.00    -0.009 A 
ATOM      5  C   LIG d   1       2.971   1.229  -7.847  0.00  0.00     0.122 A 
ATOM      6  C   LIG d   1       3.460   2.191  -8.725  0.00  0.00    -0.016 A 
ATOM      7  C   LIG d   1       3.609   1.905 -10.065  0.00  0.00    -0.015 A 
ATOM      8  C   LIG d   1       3.271   0.648 -10.551  0.00  0.00     0.136 A 
ATOM      9  O   LIG d   1       3.315   0.094 -11.781  0.00  0.00    -0.459 OA
ATOM     10  H   LIG d   1       2.249  -0.775  -7.635  0.00  0.00     0.066 H 
ATOM     11  H   LIG d   1       3.724   3.170  -8.353  0.00  0.00     0.066 H 
ATOM     12  H   LIG d   1       3.991   2.660 -10.737  0.00  0.00     0.066 H 
ENDROOT
BRANCH   5  13
ATOM     13  O   LIG d   1       2.829   1.525  -6.527  0.00  0.00    -0.487 OA
BRANCH  13  14
ATOM     14  C   LIG d   1       2.107   0.587  -5.726  0.00  0.00     0.115 C 
ATOM     15  H   LIG d   1       1.092   0.953  -5.566  0.00  0.00     0.075 H 
ATOM     16  H   LIG d   1       2.070  -0.375  -6.236  0.00  0.00     0.075 H 
BRANCH  14  17
ATOM     17  C   LIG d   1       2.798   0.425  -4.397  0.00  0.00    -0.009 A 
ATOM     18  C   LIG d   1       2.973  -0.835  -3.858  0.00  0.00    -0.037 A 
ATOM     19  C   LIG d   1       3.612  -0.985  -2.640  0.00  0.00     0.041 A 
ATOM     20  H   LIG d   1       2.612  -1.705  -4.389  0.00  0.00     0.064 H 
ATOM     21  C   LIG d   1       4.066   0.129  -1.957  0.00  0.00    -0.043 A 
ATOM     22 CL   LIG d   1       3.838  -2.569  -1.967  0.00  0.00    -0.084 Cl
ATOM     23  C   LIG d   1       3.886   1.390  -2.494  0.00  0.00    -0.060 A 
ATOM     24  H   LIG d   1       4.563   0.014  -1.005  0.00  0.00     0.063 H 
ATOM     25  C   LIG d   1       3.253   1.538  -3.713  0.00  0.00    -0.055 A 
ATOM     26  H   LIG d   1       4.242   2.260  -1.961  0.00  0.00     0.062 H 
ATOM     27  H   LIG d   1       3.112   2.523  -4.133  0.00  0.00     0.062 H 
ENDBRANCH  14  17
ENDBRANCH  13  14
ENDBRANCH   5  13
BRANCH   2  28
ATOM     28  C   LIG d   1       1.999  -2.810 -10.043  0.00  0.00     0.075 C 
ATOM     29  O   LIG d   1       0.835  -3.111 -10.272  0.00  0.00    -0.544 OA
ATOM     30  O   LIG d   1       2.725  -3.588  -9.438  0.00  0.00    -0.544 OA
ENDBRANCH   2  28
BRANCH   1  31
ATOM     31  C   LIG d   1       2.790  -2.072 -12.966  0.00  0.00    -0.006 C 
ATOM     32  H   LIG d   1       3.659  -2.728 -12.991  0.00  0.00     0.031 H 
ATOM     33  H   LIG d   1       1.882  -2.672 -12.905  0.00  0.00     0.031 H 
ATOM     34  H   LIG d   1       2.765  -1.467 -13.873  0.00  0.00     0.031 H 
ENDBRANCH   1  31
TORSDOF 5
ENDMDL
MODEL 2
REMARK VINA RESULT:      -6.7      6.497      8.470
REMARK  5 active torsions:
REMARK  status: ('A' for Active; 'I' for Inactive)
REMARK    1  A    between atoms: C_1  and  C_2 
REMARK    2  A    between atoms: C_3  and  C_20 
REMARK    3  A    between atoms: C_6  and  O_11 
REMARK    4  A    between atoms: O_11  and  C_12 
REMARK    5  A    between atoms: C_12  and  C_13 
ROOT
ATOM      1  C   LIG d   1       5.065  -1.315  -3.114  0.00  0.00     0.112 A 
ATOM      2  C   LIG d   1       5.441  -0.007  -3.028  0.00  0.00     0.046 A 
ATOM      3  C   LIG d   1       6.750   0.077  -3.707  0.00  0.00     0.033 A 
ATOM      4  C   LIG d   1       7.647   1.110  -3.958  0.00  0.00    -0.009 A 
ATOM      5  C   LIG d   1       8.820   0.843  -4.641  0.00  0.00     0.122 A 
ATOM      6  C   LIG d   1       9.098  -0.450  -5.073  0.00  0.00    -0.016 A 
ATOM      7  C   LIG d   1       8.212  -1.476  -4.827  0.00  0.00    -0.015 A 
ATOM      8  C   LIG d   1       7.030  -1.226  -4.141  0.00  0.00     0.136 A 
ATOM      9  O   LIG d   1       6.002  -2.015  -3.760  0.00  0.00    -0.459 OA
ATOM     10  H   LIG d   1       7.429   2.112  -3.623  0.00  0.00     0.066 H 
ATOM     11  H   LIG d   1      10.015  -0.650  -5.607  0.00  0.00     0.066 H 
ATOM     12  H   LIG d   1       8.439  -2.477  -5.166  0.00  0.00     0.066 H 
ENDROOT
BRANCH   5  13
ATOM     13  O   LIG d   1       9.702   1.847  -4.892  0.00  0.00    -0.487 OA
BRANCH  13  14
ATOM     14  C   LIG d   1      10.364   2.426  -3.765  0.00  0.00     0.115 C 
ATOM     15  H   LIG d   1      10.034   1.926  -2.854  0.00  0.00     0.075 H 
ATOM     16  H   LIG d   1      11.442   2.305  -3.876  0.00  0.00     0.075 H 
BRANCH  14  17
ATOM     17  C   LIG d   1      10.029   3.892  -3.684  0.00  0.00    -0.009 A 
ATOM     18  C   LIG d   1      10.185   4.572  -2.491  0.00  0.00    -0.037 A 
ATOM     19  C   LIG d   1       9.883   5.921  -2.418  0.00  0.00     0.041 A 
ATOM     20  H   LIG d   1      10.547   4.051  -1.616  0.00  0.00     0.064 H 
ATOM     21  C   LIG d   1       9.413   6.584  -3.537  0.00  0.00    -0.043 A 
ATOM     22 CL   LIG d   1      10.086   6.776  -0.922  0.00  0.00    -0.084 Cl
ATOM     23  C   LIG d   1       9.251   5.902  -4.729  0.00  0.00    -0.060 A 
ATOM     24  H   LIG d   1       9.173   7.636  -3.481  0.00  0.00     0.063 H 
ATOM     25  C   LIG d   1       9.560   4.557  -4.802  0.00  0.00    -0.055 A 
ATOM     26  H   LIG d   1       8.885   6.421  -5.603  0.00  0.00     0.062 H 
ATOM     27  H   LIG d   1       9.434   4.024  -5.733  0.00  0.00     0.062 H 
ENDBRANCH  14  17
ENDBRANCH  13  14
ENDBRANCH   5  13
BRANCH   2  28
ATOM     28  C   LIG d   1       4.700   1.087  -2.394  0.00  0.00     0.075 C 
ATOM     29  O   LIG d   1       4.760   1.244  -1.181  0.00  0.00    -0.544 OA
ATOM     30  O   LIG d   1       4.023   1.845  -3.076  0.00  0.00    -0.544 OA
ENDBRANCH   2  28
BRANCH   1  31
ATOM     31  C   LIG d   1       3.786  -1.888  -2.558  0.00  0.00    -0.006 C 
ATOM     32  H   LIG d   1       3.106  -2.121  -3.376  0.00  0.00     0.031 H 
ATOM     33  H   LIG d   1       4.008  -2.797  -1.999  0.00  0.00     0.031 H 
ATOM     34  H   LIG d   1       3.320  -1.158  -1.895  0.00  0.00     0.031 H 
ENDBRANCH   1  31
TORSDOF 5
ENDMDL
MODEL 3
REMARK VINA RESULT:      -6.5      2.120      2.779
REMARK  5 active torsions:
REMARK  status: ('A' for Active; 'I' for Inactive)
REMARK    1  A    between atoms: C_1  and  C_2 
REMARK    2  A    between atoms: C_3  and  C_20 
REMARK    3  A    between atoms: C_6  and  O_11 
REMARK    4  A    between atoms: O_11  and  C_12 
REMARK    5  A    between atoms: C_12  and  C_13 
ROOT
ATOM      1  C   LIG d   1       1.597  -2.896 -10.267  0.00  0.00     0.112 A 
ATOM      2  C   LIG d   1       2.680  -3.209  -9.500  0.00  0.00     0.046 A 
ATOM      3  C   LIG d   1       3.096  -1.943  -8.861  0.00  0.00     0.033 A 
ATOM      4  C   LIG d   1       4.112  -1.589  -7.980  0.00  0.00    -0.009 A 
ATOM      5  C   LIG d   1       4.227  -0.275  -7.564  0.00  0.00     0.122 A 
ATOM      6  C   LIG d   1       3.330   0.684  -8.024  0.00  0.00    -0.016 A 
ATOM      7  C   LIG d   1       2.322   0.339  -8.897  0.00  0.00    -0.015 A 
ATOM      8  C   LIG d   1       2.192  -0.977  -9.326  0.00  0.00     0.136 A 
ATOM      9  O   LIG d   1       1.327  -1.592 -10.161  0.00  0.00    -0.459 OA
ATOM     10  H   LIG d   1       4.806  -2.336  -7.624  0.00  0.00     0.066 H 
ATOM     11  H   LIG d   1       3.427   1.708  -7.694  0.00  0.00     0.066 H 
ATOM     12  H   LIG d   1       1.632   1.092  -9.248  0.00  0.00     0.066 H 
ENDROOT
BRANCH   5  13
ATOM     13  O   LIG d   1       5.218   0.079  -6.703  0.00  0.00    -0.487 OA
BRANCH  13  14
ATOM     14  C   LIG d   1       5.879  -0.977  -6.003  0.00  0.00     0.115 C 
ATOM     15  H   LIG d   1       5.780  -1.904  -6.567  0.00  0.00     0.075 H 
ATOM     16  H   LIG d   1       6.936  -0.732  -5.891  0.00  0.00     0.075 H 
BRANCH  14  17
ATOM     17  C   LIG d   1       5.255  -1.146  -4.642  0.00  0.00    -0.009 A 
ATOM     18  C   LIG d   1       5.217  -0.081  -3.762  0.00  0.00    -0.037 A 
ATOM     19  C   LIG d   1       4.639  -0.235  -2.514  0.00  0.00     0.041 A 
ATOM     20  H   LIG d   1       5.636   0.873  -4.049  0.00  0.00     0.064 H 
ATOM     21  C   LIG d   1       4.109  -1.458  -2.145  0.00  0.00    -0.043 A 
ATOM     22 CL   LIG d   1       4.584   1.104  -1.412  0.00  0.00    -0.084 Cl
ATOM     23  C   LIG d   1       4.153  -2.524  -3.024  0.00  0.00    -0.060 A 
ATOM     24  H   LIG d   1       3.660  -1.580  -1.170  0.00  0.00     0.063 H 
ATOM     25  C   LIG d   1       4.725  -2.368  -4.272  0.00  0.00    -0.055 A 
ATOM     26  H   LIG d   1       3.738  -3.479  -2.735  0.00  0.00     0.062 H 
ATOM     27  H   LIG d   1       4.759  -3.201  -4.959  0.00  0.00     0.062 H 
ENDBRANCH  14  17
ENDBRANCH  13  14
ENDBRANCH   5  13
BRANCH   2  28
ATOM     28  C   LIG d   1       3.303  -4.526  -9.341  0.00  0.00     0.075 C 
ATOM     29  O   LIG d   1       4.064  -4.950 -10.201  0.00  0.00    -0.544 OA
ATOM     30  O   LIG d   1       3.062  -5.202  -8.349  0.00  0.00    -0.544 OA
ENDBRANCH   2  28
BRANCH   1  31
ATOM     31  C   LIG d   1       0.823  -3.874 -11.114  0.00  0.00    -0.006 C 
ATOM     32  H   LIG d   1      -0.244  -3.732 -10.950  0.00  0.00     0.031 H 
ATOM     33  H   LIG d   1       1.055  -3.707 -12.165  0.00  0.00     0.031 H 
ATOM     34  H   LIG d   1       1.101  -4.892 -10.838  0.00  0.00     0.031 H 
ENDBRANCH   1  31
TORSDOF 5
ENDMDL
MODEL 4
REMARK VINA RESULT:      -6.3      6.690     10.031
REMARK  5 active torsions:
REMARK  status: ('A' for Active; 'I' for Inactive)
REMARK    1  A    between atoms: C_1  and  C_2 
REMARK    2  A    between atoms: C_3  and  C_20 
REMARK    3  A    between atoms: C_6  and  O_11 
REMARK    4  A    between atoms: O_11  and  C_12 
REMARK    5  A    between atoms: C_12  and  C_13 
ROOT
ATOM      1  C   LIG d   1      12.271   5.157  -2.333  0.00  0.00     0.112 A 
ATOM      2  C   LIG d   1      10.922   5.336  -2.413  0.00  0.00     0.046 A 
ATOM      3  C   LIG d   1      10.395   4.117  -3.061  0.00  0.00     0.033 A 
ATOM      4  C   LIG d   1       9.124   3.684  -3.425  0.00  0.00    -0.009 A 
ATOM      5  C   LIG d   1       8.972   2.451  -4.033  0.00  0.00     0.122 A 
ATOM      6  C   LIG d   1      10.084   1.651  -4.278  0.00  0.00    -0.016 A 
ATOM      7  C   LIG d   1      11.344   2.076  -3.920  0.00  0.00    -0.015 A 
ATOM      8  C   LIG d   1      11.516   3.312  -3.308  0.00  0.00     0.136 A 
ATOM      9  O   LIG d   1      12.604   3.976  -2.863  0.00  0.00    -0.459 OA
ATOM     10  H   LIG d   1       8.263   4.306  -3.232  0.00  0.00     0.066 H 
ATOM     11  H   LIG d   1       9.956   0.690  -4.753  0.00  0.00     0.066 H 
ATOM     12  H   LIG d   1      12.201   1.446  -4.116  0.00  0.00     0.066 H 
ENDROOT
BRANCH   5  13
ATOM     13  O   LIG d   1       7.733   2.020  -4.392  0.00  0.00    -0.487 OA
BRANCH  13  14
ATOM     14  C   LIG d   1       7.482   0.616  -4.300  0.00  0.00     0.115 C 
ATOM     15  H   LIG d   1       7.336   0.208  -5.301  0.00  0.00     0.075 H 
ATOM     16  H   LIG d   1       8.333   0.125  -3.829  0.00  0.00     0.075 H 
BRANCH  14  17
ATOM     17  C   LIG d   1       6.245   0.379  -3.475  0.00  0.00    -0.009 A 
ATOM     18  C   LIG d   1       5.698  -0.887  -3.397  0.00  0.00    -0.037 A 
ATOM     19  C   LIG d   1       4.564  -1.106  -2.634  0.00  0.00     0.041 A 
ATOM     20  H   LIG d   1       6.157  -1.708  -3.930  0.00  0.00     0.064 H 
ATOM     21  C   LIG d   1       3.973  -0.054  -1.958  0.00  0.00    -0.043 A 
ATOM     22 CL   LIG d   1       3.881  -2.698  -2.531  0.00  0.00    -0.084 Cl
ATOM     23  C   LIG d   1       4.518   1.214  -2.041  0.00  0.00    -0.060 A 
ATOM     24  H   LIG d   1       3.087  -0.223  -1.365  0.00  0.00     0.063 H 
ATOM     25  C   LIG d   1       5.653   1.430  -2.798  0.00  0.00    -0.055 A 
ATOM     26  H   LIG d   1       4.056   2.036  -1.512  0.00  0.00     0.062 H 
ATOM     27  H   LIG d   1       6.079   2.421  -2.863  0.00  0.00     0.062 H 
ENDBRANCH  14  17
ENDBRANCH  13  14
ENDBRANCH   5  13
BRANCH   2  28
ATOM     28  C   LIG d   1      10.153   6.496  -1.953  0.00  0.00     0.075 C 
ATOM     29  O   LIG d   1       9.754   6.545  -0.796  0.00  0.00    -0.544 OA
ATOM     30  O   LIG d   1       9.909   7.415  -2.724  0.00  0.00    -0.544 OA
ENDBRANCH   2  28
BRANCH   1  31
ATOM     31  C   LIG d   1      13.243   6.145  -1.741  0.00  0.00    -0.006 C 
ATOM     32  H   LIG d   1      14.200   6.065  -2.255  0.00  0.00     0.031 H 
ATOM     33  H   LIG d   1      12.850   7.155  -1.857  0.00  0.00     0.031 H 
ATOM     34  H   LIG d   1      13.380   5.928  -0.681  0.00  0.00     0.031 H 
ENDBRANCH   1  31
TORSDOF 5
ENDMDL
MODEL 5
REMARK VINA RESULT:      -6.1      4.880      5.817
REMARK  5 active torsions:
REMARK  status: ('A' for Active; 'I' for Inactive)
REMARK    1  A    between atoms: C_1  and  C_2 
REMARK    2  A    between atoms: C_3  and  C_20 
REMARK    3  A    between atoms: C_6  and  O_11 
REMARK    4  A    between atoms: O_11  and  C_12 
REMARK    5  A    between atoms: C_12  and  C_13 
ROOT
ATOM      1  C   LIG d   1       6.269  -5.701  -7.850  0.00  0.00     0.112 A 
ATOM      2  C   LIG d   1       5.689  -5.414  -6.650  0.00  0.00     0.046 A 
ATOM      3  C   LIG d   1       6.557  -4.398  -6.020  0.00  0.00     0.033 A 
ATOM      4  C   LIG d   1       6.522  -3.705  -4.814  0.00  0.00    -0.009 A 
ATOM      5  C   LIG d   1       7.519  -2.794  -4.522  0.00  0.00     0.122 A 
ATOM      6  C   LIG d   1       8.551  -2.572  -5.430  0.00  0.00    -0.016 A 
ATOM      7  C   LIG d   1       8.590  -3.255  -6.625  0.00  0.00    -0.015 A 
ATOM      8  C   LIG d   1       7.595  -4.176  -6.935  0.00  0.00     0.136 A 
ATOM      9  O   LIG d   1       7.382  -4.977  -8.001  0.00  0.00    -0.459 OA
ATOM     10  H   LIG d   1       5.720  -3.878  -4.112  0.00  0.00     0.066 H 
ATOM     11  H   LIG d   1       9.326  -1.858  -5.194  0.00  0.00     0.066 H 
ATOM     12  H   LIG d   1       9.396  -3.076  -7.322  0.00  0.00     0.066 H 
ENDROOT
BRANCH   5  13
ATOM     13  O   LIG d   1       7.493  -2.112  -3.345  0.00  0.00    -0.487 OA
BRANCH  13  14
ATOM     14  C   LIG d   1       6.970  -0.783  -3.377  0.00  0.00     0.115 C 
ATOM     15  H   LIG d   1       7.362  -0.219  -2.529  0.00  0.00     0.075 H 
ATOM     16  H   LIG d   1       7.269  -0.296  -4.305  0.00  0.00     0.075 H 
BRANCH  14  17
ATOM     17  C   LIG d   1       5.467  -0.831  -3.297  0.00  0.00    -0.009 A 
ATOM     18  C   LIG d   1       4.703  -0.075  -4.166  0.00  0.00    -0.037 A 
ATOM     19  C   LIG d   1       3.322  -0.124  -4.096  0.00  0.00     0.041 A 
ATOM     20  H   LIG d   1       5.185   0.552  -4.902  0.00  0.00     0.064 H 
ATOM     21  C   LIG d   1       2.706  -0.922  -3.149  0.00  0.00    -0.043 A 
ATOM     22 CL   LIG d   1       2.363   0.820  -5.192  0.00  0.00    -0.084 Cl
ATOM     23  C   LIG d   1       3.471  -1.674  -2.276  0.00  0.00    -0.060 A 
ATOM     24  H   LIG d   1       1.629  -0.959  -3.091  0.00  0.00     0.063 H 
ATOM     25  C   LIG d   1       4.850  -1.629  -2.350  0.00  0.00    -0.055 A 
ATOM     26  H   LIG d   1       2.990  -2.298  -1.537  0.00  0.00     0.062 H 
ATOM     27  H   LIG d   1       5.447  -2.217  -1.669  0.00  0.00     0.062 H 
ENDBRANCH  14  17
ENDBRANCH  13  14
ENDBRANCH   5  13
BRANCH   2  28
ATOM     28  C   LIG d   1       4.460  -5.993  -6.099  0.00  0.00     0.075 C 
ATOM     29  O   LIG d   1       4.502  -7.061  -5.501  0.00  0.00    -0.544 OA
ATOM     30  O   LIG d   1       3.393  -5.410  -6.235  0.00  0.00    -0.544 OA
ENDBRANCH   2  28
BRANCH   1  31
ATOM     31  C   LIG d   1       5.739  -6.692  -8.854  0.00  0.00    -0.006 C 
ATOM     32  H   LIG d   1       5.049  -7.376  -8.361  0.00  0.00     0.031 H 
ATOM     33  H   LIG d   1       5.216  -6.160  -9.649  0.00  0.00     0.031 H 
ATOM     34  H   LIG d   1       6.569  -7.256  -9.280  0.00  0.00     0.031 H 
ENDBRANCH   1  31
TORSDOF 5
ENDMDL
MODEL 6
REMARK VINA RESULT:      -6.0      6.062      8.662
REMARK  5 active torsions:
REMARK  status: ('A' for Active; 'I' for Inactive)
REMARK    1  A    between atoms: C_1  and  C_2 
REMARK    2  A    between atoms: C_3  and  C_20 
REMARK    3  A    between atoms: C_6  and  O_11 
REMARK    4  A    between atoms: O_11  and  C_12 
REMARK    5  A    between atoms: C_12  and  C_13 
ROOT
ATOM      1  C   LIG d   1      11.096   5.273  -5.044  0.00  0.00     0.112 A 
ATOM      2  C   LIG d   1      10.336   4.688  -4.074  0.00  0.00     0.046 A 
ATOM      3  C   LIG d   1       9.547   3.644  -4.760  0.00  0.00     0.033 A 
ATOM      4  C   LIG d   1       8.602   2.713  -4.344  0.00  0.00    -0.009 A 
ATOM      5  C   LIG d   1       8.037   1.854  -5.269  0.00  0.00     0.122 A 
ATOM      6  C   LIG d   1       8.414   1.923  -6.606  0.00  0.00    -0.016 A 
ATOM      7  C   LIG d   1       9.350   2.844  -7.024  0.00  0.00    -0.015 A 
ATOM      8  C   LIG d   1       9.927   3.715  -6.107  0.00  0.00     0.136 A 
ATOM      9  O   LIG d   1      10.843   4.700  -6.224  0.00  0.00    -0.459 OA
ATOM     10  H   LIG d   1       8.312   2.661  -3.305  0.00  0.00     0.066 H 
ATOM     11  H   LIG d   1       7.969   1.249  -7.323  0.00  0.00     0.066 H 
ATOM     12  H   LIG d   1       9.634   2.889  -8.065  0.00  0.00     0.066 H 
ENDROOT
BRANCH   5  13
ATOM     13  O   LIG d   1       7.112   0.941  -4.871  0.00  0.00    -0.487 OA
BRANCH  13  14
ATOM     14  C   LIG d   1       6.681   1.003  -3.509  0.00  0.00     0.115 C 
ATOM     15  H   LIG d   1       7.549   0.946  -2.851  0.00  0.00     0.075 H 
ATOM     16  H   LIG d   1       6.157   1.943  -3.337  0.00  0.00     0.075 H 
BRANCH  14  17
ATOM     17  C   LIG d   1       5.755  -0.149  -3.222  0.00  0.00    -0.009 A 
ATOM     18  C   LIG d   1       5.783  -1.275  -4.023  0.00  0.00    -0.037 A 
ATOM     19  C   LIG d   1       4.936  -2.336  -3.756  0.00  0.00     0.041 A 
ATOM     20  H   LIG d   1       6.468  -1.328  -4.857  0.00  0.00     0.064 H 
ATOM     21  C   LIG d   1       4.054  -2.265  -2.693  0.00  0.00    -0.043 A 
ATOM     22 CL   LIG d   1       4.976  -3.753  -4.758  0.00  0.00    -0.084 Cl
ATOM     23  C   LIG d   1       4.022  -1.136  -1.895  0.00  0.00    -0.060 A 
ATOM     24  H   LIG d   1       3.390  -3.091  -2.485  0.00  0.00     0.063 H 
ATOM     25  C   LIG d   1       4.873  -0.079  -2.159  0.00  0.00    -0.055 A 
ATOM     26  H   LIG d   1       3.334  -1.081  -1.064  0.00  0.00     0.062 H 
ATOM     27  H   LIG d   1       4.848   0.802  -1.536  0.00  0.00     0.062 H 
ENDBRANCH  14  17
ENDBRANCH  13  14
ENDBRANCH   5  13
BRANCH   2  28
ATOM     28  C   LIG d   1      10.308   5.025  -2.648  0.00  0.00     0.075 C 
ATOM     29  O   LIG d   1       9.612   5.950  -2.251  0.00  0.00    -0.544 OA
ATOM     30  O   LIG d   1      10.981   4.381  -1.853  0.00  0.00    -0.544 OA
ENDBRANCH   2  28
BRANCH   1  31
ATOM     31  C   LIG d   1      12.069   6.401  -4.820  0.00  0.00    -0.006 C 
ATOM     32  H   LIG d   1      12.936   6.030  -4.275  0.00  0.00     0.031 H 
ATOM     33  H   LIG d   1      12.389   6.802  -5.782  0.00  0.00     0.031 H 
ATOM     34  H   LIG d   1      11.585   7.189  -4.241  0.00  0.00     0.031 H 
ENDBRANCH   1  31
TORSDOF 5
ENDMDL
MODEL 7
REMARK VINA RESULT:      -6.0      6.629      9.125
REMARK  5 active torsions:
REMARK  status: ('A' for Active; 'I' for Inactive)
REMARK    1  A    between atoms: C_1  and  C_2 
REMARK    2  A    between atoms: C_3  and  C_20 
REMARK    3  A    between atoms: C_6  and  O_11 
REMARK    4  A    between atoms: O_11  and  C_12 
REMARK    5  A    between atoms: C_12  and  C_13 
ROOT
ATOM      1  C   LIG d   1      10.876   6.492  -5.911  0.00  0.00     0.112 A 
ATOM      2  C   LIG d   1      10.493   6.167  -4.643  0.00  0.00     0.046 A 
ATOM      3  C   LIG d   1       9.844   4.843  -4.749  0.00  0.00     0.033 A 
ATOM      4  C   LIG d   1       9.251   3.979  -3.835  0.00  0.00    -0.009 A 
ATOM      5  C   LIG d   1       8.723   2.779  -4.276  0.00  0.00     0.122 A 
ATOM      6  C   LIG d   1       8.787   2.441  -5.624  0.00  0.00    -0.016 A 
ATOM      7  C   LIG d   1       9.373   3.295  -6.533  0.00  0.00    -0.015 A 
ATOM      8  C   LIG d   1       9.908   4.505  -6.108  0.00  0.00     0.136 A 
ATOM      9  O   LIG d   1      10.524   5.517  -6.755  0.00  0.00    -0.459 OA
ATOM     10  H   LIG d   1       9.204   4.243  -2.790  0.00  0.00     0.066 H 
ATOM     11  H   LIG d   1       8.372   1.503  -5.960  0.00  0.00     0.066 H 
ATOM     12  H   LIG d   1       9.416   3.022  -7.578  0.00  0.00     0.066 H 
ENDROOT
BRANCH   5  13
ATOM     13  O   LIG d   1       8.141   1.928  -3.390  0.00  0.00    -0.487 OA
BRANCH  13  14
ATOM     14  C   LIG d   1       7.591   0.718  -3.916  0.00  0.00     0.115 C 
ATOM     15  H   LIG d   1       7.478   0.811  -4.997  0.00  0.00     0.075 H 
ATOM     16  H   LIG d   1       8.260  -0.113  -3.692  0.00  0.00     0.075 H 
BRANCH  14  17
ATOM     17  C   LIG d   1       6.245   0.464  -3.290  0.00  0.00    -0.009 A 
ATOM     18  C   LIG d   1       5.756  -0.826  -3.203  0.00  0.00    -0.037 A 
ATOM     19  C   LIG d   1       4.522  -1.061  -2.623  0.00  0.00     0.041 A 
ATOM     20  H   LIG d   1       6.338  -1.652  -3.586  0.00  0.00     0.064 H 
ATOM     21  C   LIG d   1       3.774  -0.003  -2.139  0.00  0.00    -0.043 A 
ATOM     22 CL   LIG d   1       3.911  -2.681  -2.507  0.00  0.00    -0.084 Cl
ATOM     23  C   LIG d   1       4.261   1.288  -2.231  0.00  0.00    -0.060 A 
ATOM     24  H   LIG d   1       2.809  -0.184  -1.689  0.00  0.00     0.063 H 
ATOM     25  C   LIG d   1       5.496   1.521  -2.806  0.00  0.00    -0.055 A 
ATOM     26  H   LIG d   1       3.677   2.114  -1.853  0.00  0.00     0.062 H 
ATOM     27  H   LIG d   1       5.877   2.529  -2.877  0.00  0.00     0.062 H 
ENDBRANCH  14  17
ENDBRANCH  13  14
ENDBRANCH   5  13
BRANCH   2  28
ATOM     28  C   LIG d   1      10.685   6.964  -3.428  0.00  0.00     0.075 C 
ATOM     29  O   LIG d   1       9.947   7.913  -3.197  0.00  0.00    -0.544 OA
ATOM     30  O   LIG d   1      11.582   6.681  -2.645  0.00  0.00    -0.544 OA
ENDBRANCH   2  28
BRANCH   1  31
ATOM     31  C   LIG d   1      11.583   7.764  -6.304  0.00  0.00    -0.006 C 
ATOM     32  H   LIG d   1      12.224   7.572  -7.164  0.00  0.00     0.031 H 
ATOM     33  H   LIG d   1      10.847   8.525  -6.561  0.00  0.00     0.031 H 
ATOM     34  H   LIG d   1      12.191   8.113  -5.469  0.00  0.00     0.031 H 
ENDBRANCH   1  31
TORSDOF 5
ENDMDL
MODEL 8
REMARK VINA RESULT:      -5.9      6.393      7.935
REMARK  5 active torsions:
REMARK  status: ('A' for Active; 'I' for Inactive)
REMARK    1  A    between atoms: C_1  and  C_2 
REMARK    2  A    between atoms: C_3  and  C_20 
REMARK    3  A    between atoms: C_6  and  O_11 
REMARK    4  A    between atoms: O_11  and  C_12 
REMARK    5  A    between atoms: C_12  and  C_13 
ROOT
ATOM      1  C   LIG d   1       7.196  -9.399  -4.910  0.00  0.00     0.112 A 
ATOM      2  C   LIG d   1       6.069  -8.660  -5.122  0.00  0.00     0.046 A 
ATOM      3  C   LIG d   1       6.519  -7.254  -5.179  0.00  0.00     0.033 A 
ATOM      4  C   LIG d   1       5.873  -6.036  -5.366  0.00  0.00    -0.009 A 
ATOM      5  C   LIG d   1       6.610  -4.866  -5.365  0.00  0.00     0.122 A 
ATOM      6  C   LIG d   1       7.989  -4.910  -5.179  0.00  0.00    -0.016 A 
ATOM      7  C   LIG d   1       8.633  -6.113  -4.993  0.00  0.00    -0.015 A 
ATOM      8  C   LIG d   1       7.907  -7.298  -4.990  0.00  0.00     0.136 A 
ATOM      9  O   LIG d   1       8.258  -8.592  -4.830  0.00  0.00    -0.459 OA
ATOM     10  H   LIG d   1       4.804  -6.006  -5.511  0.00  0.00     0.066 H 
ATOM     11  H   LIG d   1       8.557  -3.992  -5.180  0.00  0.00     0.066 H 
ATOM     12  H   LIG d   1       9.704  -6.134  -4.848  0.00  0.00     0.066 H 
ENDROOT
BRANCH   5  13
ATOM     13  O   LIG d   1       5.987  -3.671  -5.547  0.00  0.00    -0.487 OA
BRANCH  13  14
ATOM     14  C   LIG d   1       4.740  -3.480  -4.877  0.00  0.00     0.115 C 
ATOM     15  H   LIG d   1       3.959  -3.284  -5.613  0.00  0.00     0.075 H 
ATOM     16  H   LIG d   1       4.489  -4.379  -4.313  0.00  0.00     0.075 H 
BRANCH  14  17
ATOM     17  C   LIG d   1       4.849  -2.310  -3.935  0.00  0.00    -0.009 A 
ATOM     18  C   LIG d   1       5.761  -1.303  -4.187  0.00  0.00    -0.037 A 
ATOM     19  C   LIG d   1       5.858  -0.225  -3.324  0.00  0.00     0.041 A 
ATOM     20  H   LIG d   1       6.397  -1.355  -5.059  0.00  0.00     0.064 H 
ATOM     21  C   LIG d   1       5.049  -0.162  -2.204  0.00  0.00    -0.043 A 
ATOM     22 CL   LIG d   1       6.999   1.044  -3.645  0.00  0.00    -0.084 Cl
ATOM     23  C   LIG d   1       4.141  -1.173  -1.950  0.00  0.00    -0.060 A 
ATOM     24  H   LIG d   1       5.125   0.677  -1.529  0.00  0.00     0.063 H 
ATOM     25  C   LIG d   1       4.040  -2.246  -2.815  0.00  0.00    -0.055 A 
ATOM     26  H   LIG d   1       3.508  -1.123  -1.075  0.00  0.00     0.062 H 
ATOM     27  H   LIG d   1       3.331  -3.035  -2.617  0.00  0.00     0.062 H 
ENDBRANCH  14  17
ENDBRANCH  13  14
ENDBRANCH   5  13
BRANCH   2  28
ATOM     28  C   LIG d   1       4.698  -9.157  -5.263  0.00  0.00     0.075 C 
ATOM     29  O   LIG d   1       3.959  -9.200  -4.288  0.00  0.00    -0.544 OA
ATOM     30  O   LIG d   1       4.290  -9.529  -6.356  0.00  0.00    -0.544 OA
ENDBRANCH   2  28
BRANCH   1  31
ATOM     31  C   LIG d   1       7.236 -10.900  -4.780  0.00  0.00    -0.006 C 
ATOM     32  H   LIG d   1       6.542 -11.216  -4.002  0.00  0.00     0.031 H 
ATOM     33  H   LIG d   1       6.952 -11.355  -5.728  0.00  0.00     0.031 H 
ATOM     34  H   LIG d   1       8.246 -11.214  -4.515  0.00  0.00     0.031 H 
ENDBRANCH   1  31
TORSDOF 5
ENDMDL
MODEL 9
REMARK VINA RESULT:      -5.9      7.422     10.828
REMARK  5 active torsions:
REMARK  status: ('A' for Active; 'I' for Inactive)
REMARK    1  A    between atoms: C_1  and  C_2 
REMARK    2  A    between atoms: C_3  and  C_20 
REMARK    3  A    between atoms: C_6  and  O_11 
REMARK    4  A    between atoms: O_11  and  C_12 
REMARK    5  A    between atoms: C_12  and  C_13 
ROOT
ATOM      1  C   LIG d   1      10.669   7.733  -1.968  0.00  0.00     0.112 A 
ATOM      2  C   LIG d   1      10.790   6.500  -1.399  0.00  0.00     0.046 A 
ATOM      3  C   LIG d   1      10.286   5.544  -2.407  0.00  0.00     0.033 A 
ATOM      4  C   LIG d   1      10.143   4.161  -2.445  0.00  0.00    -0.009 A 
ATOM      5  C   LIG d   1       9.621   3.561  -3.576  0.00  0.00     0.122 A 
ATOM      6  C   LIG d   1       9.244   4.337  -4.668  0.00  0.00    -0.016 A 
ATOM      7  C   LIG d   1       9.384   5.707  -4.635  0.00  0.00    -0.015 A 
ATOM      8  C   LIG d   1       9.906   6.327  -3.506  0.00  0.00     0.136 A 
ATOM      9  O   LIG d   1      10.148   7.618  -3.193  0.00  0.00    -0.459 OA
ATOM     10  H   LIG d   1      10.437   3.562  -1.597  0.00  0.00     0.066 H 
ATOM     11  H   LIG d   1       8.838   3.860  -5.548  0.00  0.00     0.066 H 
ATOM     12  H   LIG d   1       9.087   6.300  -5.488  0.00  0.00     0.066 H 
ENDROOT
BRANCH   5  13
ATOM     13  O   LIG d   1       9.477   2.210  -3.622  0.00  0.00    -0.487 OA
BRANCH  13  14
ATOM     14  C   LIG d   1       8.696   1.675  -4.693  0.00  0.00     0.115 C 
ATOM     15  H   LIG d   1       8.227   2.492  -5.242  0.00  0.00     0.075 H 
ATOM     16  H   LIG d   1       9.341   1.110  -5.366  0.00  0.00     0.075 H 
BRANCH  14  17
ATOM     17  C   LIG d   1       7.632   0.767  -4.135  0.00  0.00    -0.009 A 
ATOM     18  C   LIG d   1       7.665  -0.587  -4.410  0.00  0.00    -0.037 A 
ATOM     19  C   LIG d   1       6.691  -1.422  -3.893  0.00  0.00     0.041 A 
ATOM     20  H   LIG d   1       8.454  -0.994  -5.026  0.00  0.00     0.064 H 
ATOM     21  C   LIG d   1       5.677  -0.899  -3.110  0.00  0.00    -0.043 A 
ATOM     22 CL   LIG d   1       6.737  -3.124  -4.232  0.00  0.00    -0.084 Cl
ATOM     23  C   LIG d   1       5.642   0.456  -2.840  0.00  0.00    -0.060 A 
ATOM     24  H   LIG d   1       4.915  -1.550  -2.708  0.00  0.00     0.063 H 
ATOM     25  C   LIG d   1       6.619   1.289  -3.352  0.00  0.00    -0.055 A 
ATOM     26  H   LIG d   1       4.850   0.864  -2.228  0.00  0.00     0.062 H 
ATOM     27  H   LIG d   1       6.591   2.347  -3.141  0.00  0.00     0.062 H 
ENDBRANCH  14  17
ENDBRANCH  13  14
ENDBRANCH   5  13
BRANCH   2  28
ATOM     28  C   LIG d   1      11.310   6.187  -0.065  0.00  0.00     0.075 C 
ATOM     29  O   LIG d   1      12.519   6.111   0.118  0.00  0.00    -0.544 OA
ATOM     30  O   LIG d   1      10.538   6.001   0.866  0.00  0.00    -0.544 OA
ENDBRANCH   2  28
BRANCH   1  31
ATOM     31  C   LIG d   1      11.059   9.033  -1.312  0.00  0.00    -0.006 C 
ATOM     32  H   LIG d   1      12.047   9.334  -1.661  0.00  0.00     0.031 H 
ATOM     33  H   LIG d   1      10.332   9.803  -1.570  0.00  0.00     0.031 H 
ATOM     34  H   LIG d   1      11.081   8.901  -0.230  0.00  0.00     0.031 H 
ENDBRANCH   1  31
TORSDOF 5
ENDMDL
MODEL 10
REMARK VINA RESULT:      -5.8      4.234      6.482
REMARK  5 active torsions:
REMARK  status: ('A' for Active; 'I' for Inactive)
REMARK    1  A    between atoms: C_1  and  C_2 
REMARK    2  A    between atoms: C_3  and  C_20 
REMARK    3  A    between atoms: C_6  and  O_11 
REMARK    4  A    between atoms: O_11  and  C_12 
REMARK    5  A    between atoms: C_12  and  C_13 
ROOT
ATOM      1  C   LIG d   1       7.001  -4.569  -5.141  0.00  0.00     0.112 A 
ATOM      2  C   LIG d   1       5.712  -4.299  -5.493  0.00  0.00     0.046 A 
ATOM      3  C   LIG d   1       5.591  -2.827  -5.467  0.00  0.00     0.033 A 
ATOM      4  C   LIG d   1       4.555  -1.935  -5.722  0.00  0.00    -0.009 A 
ATOM      5  C   LIG d   1       4.781  -0.575  -5.602  0.00  0.00     0.122 A 
ATOM      6  C   LIG d   1       6.037  -0.107  -5.231  0.00  0.00    -0.016 A 
ATOM      7  C   LIG d   1       7.067  -0.987  -4.977  0.00  0.00    -0.015 A 
ATOM      8  C   LIG d   1       6.857  -2.356  -5.091  0.00  0.00     0.136 A 
ATOM      9  O   LIG d   1       7.655  -3.428  -4.904  0.00  0.00    -0.459 OA
ATOM     10  H   LIG d   1       3.582  -2.301  -6.011  0.00  0.00     0.066 H 
ATOM     11  H   LIG d   1       6.206   0.956  -5.140  0.00  0.00     0.066 H 
ATOM     12  H   LIG d   1       8.038  -0.611  -4.688  0.00  0.00     0.066 H 
ENDROOT
BRANCH   5  13
ATOM     13  O   LIG d   1       3.774   0.304  -5.850  0.00  0.00    -0.487 OA
BRANCH  13  14
ATOM     14  C   LIG d   1       2.793  -0.085  -6.813  0.00  0.00     0.115 C 
ATOM     15  H   LIG d   1       2.810  -1.169  -6.930  0.00  0.00     0.075 H 
ATOM     16  H   LIG d   1       1.806   0.227  -6.473  0.00  0.00     0.075 H 
BRANCH  14  17
ATOM     17  C   LIG d   1       3.099   0.568  -8.135  0.00  0.00    -0.009 A 
ATOM     18  C   LIG d   1       3.224  -0.203  -9.275  0.00  0.00    -0.037 A 
ATOM     19  C   LIG d   1       3.500   0.398 -10.491  0.00  0.00     0.041 A 
ATOM     20  H   LIG d   1       3.102  -1.275  -9.218  0.00  0.00     0.064 H 
ATOM     21  C   LIG d   1       3.662   1.770 -10.562  0.00  0.00    -0.043 A 
ATOM     22 CL   LIG d   1       3.649  -0.570 -11.924  0.00  0.00    -0.084 Cl
ATOM     23  C   LIG d   1       3.543   2.540  -9.420  0.00  0.00    -0.060 A 
ATOM     24  H   LIG d   1       3.880   2.240 -11.509  0.00  0.00     0.063 H 
ATOM     25  C   LIG d   1       3.261   1.940  -8.208  0.00  0.00    -0.055 A 
ATOM     26  H   LIG d   1       3.669   3.612  -9.476  0.00  0.00     0.062 H 
ATOM     27  H   LIG d   1       3.168   2.541  -7.316  0.00  0.00     0.062 H 
ENDBRANCH  14  17
ENDBRANCH  13  14
ENDBRANCH   5  13
BRANCH   2  28
ATOM     28  C   LIG d   1       4.664  -5.268  -5.828  0.00  0.00     0.075 C 
ATOM     29  O   LIG d   1       4.516  -5.633  -6.987  0.00  0.00    -0.544 OA
ATOM     30  O   LIG d   1       3.935  -5.710  -4.949  0.00  0.00    -0.544 OA
ENDBRANCH   2  28
BRANCH   1  31
ATOM     31  C   LIG d   1       7.599  -5.949  -5.029  0.00  0.00    -0.006 C 
ATOM     32  H   LIG d   1       8.677  -5.890  -5.171  0.00  0.00     0.031 H 
ATOM     33  H   LIG d   1       7.384  -6.359  -4.043  0.00  0.00     0.031 H 
ATOM     34  H   LIG d   1       7.166  -6.594  -5.793  0.00  0.00     0.031 H 
ENDBRANCH   1  31
TORSDOF 5
ENDMDL
