MODEL 1
REMARK VINA RESULT:      -7.5      0.000      0.000
REMARK  12 active torsions:
REMARK  status: ('A' for Active; 'I' for Inactive)
REMARK    1  A    between atoms: C_1  and  C_2 
REMARK    2  A    between atoms: C_2  and  C_4 
REMARK    3  A    between atoms: C_2  and  N_10 
REMARK    4  A    between atoms: C_4  and  C_5 
REMARK    5  A    between atoms: C_5  and  C_6 
REMARK    6  A    between atoms: C_6  and  C_7 
REMARK    7  A    between atoms: C_7  and  C_8 
REMARK    8  A    between atoms: C_7  and  C_9 
REMARK       I    between atoms: N_10  and  C_11 
REMARK    9  A    between atoms: C_11  and  C_13 
REMARK   10  A    between atoms: C_13  and  C_14 
REMARK   11  A    between atoms: C_14  and  C_15 
REMARK   12  A    between atoms: C_15  and  N_16 
REMARK       I    between atoms: N_16  and  C_17 
REMARK       I    between atoms: C_17  and  N_19 
ROOT
ATOM      1  C   LIG d   1       7.941  -0.863  -5.186  0.00  0.00    -0.029 C 
ATOM      2  H   LIG d   1       8.627  -1.588  -4.749  0.00  0.00     0.029 H 
ATOM      3  H   LIG d   1       8.452  -0.309  -5.974  0.00  0.00     0.029 H 
ENDROOT
BRANCH   1   4
ATOM      4  C   LIG d   1       6.734  -1.595  -5.777  0.00  0.00     0.025 C 
ATOM      5  H   LIG d   1       6.270  -2.211  -5.007  0.00  0.00     0.036 H 
ATOM      6  H   LIG d   1       7.061  -2.228  -6.601  0.00  0.00     0.036 H 
BRANCH   4   7
ATOM      7  C   LIG d   1       5.734  -0.587  -6.284  0.00  0.00     0.213 C 
ATOM      8  N   LIG d   1       4.428  -0.727  -5.985  0.00  0.00    -0.313 N 
ATOM      9  H   LIG d   1       4.130  -1.475  -5.445  0.00  0.00     0.149 HD
ATOM     10  O   LIG d   1       6.105   0.349  -6.960  0.00  0.00    -0.276 OA
BRANCH   8  11
ATOM     11  C   LIG d   1       3.455   0.253  -6.477  0.00  0.00     0.020 C 
ATOM     12  H   LIG d   1       3.970   1.179  -6.731  0.00  0.00     0.050 H 
BRANCH  11  13
ATOM     13  C   LIG d   1       2.758  -0.301  -7.722  0.00  0.00    -0.047 C 
ATOM     14  H   LIG d   1       3.507  -0.678  -8.419  0.00  0.00     0.025 H 
ATOM     15  H   LIG d   1       2.089  -1.110  -7.433  0.00  0.00     0.025 H 
ATOM     16  H   LIG d   1       2.185   0.493  -8.200  0.00  0.00     0.025 H 
ENDBRANCH  11  13
BRANCH  11  17
ATOM     17  C   LIG d   1       2.415   0.528  -5.389  0.00  0.00    -0.035 C 
ATOM     18  H   LIG d   1       1.991   1.522  -5.537  0.00  0.00     0.028 H 
ATOM     19  H   LIG d   1       1.623  -0.217  -5.447  0.00  0.00     0.028 H 
BRANCH  17  20
ATOM     20  C   LIG d   1       3.083   0.457  -4.015  0.00  0.00    -0.051 C 
ATOM     21  H   LIG d   1       4.157   0.322  -4.140  0.00  0.00     0.027 H 
ATOM     22  H   LIG d   1       2.894   1.383  -3.471  0.00  0.00     0.027 H 
BRANCH  20  23
ATOM     23  C   LIG d   1       2.508  -0.723  -3.229  0.00  0.00    -0.051 C 
ATOM     24  H   LIG d   1       1.642  -0.390  -2.656  0.00  0.00     0.027 H 
ATOM     25  H   LIG d   1       2.205  -1.508  -3.922  0.00  0.00     0.027 H 
BRANCH  23  26
ATOM     26  C   LIG d   1       3.573  -1.268  -2.275  0.00  0.00    -0.047 C 
ATOM     27  H   LIG d   1       3.092  -1.669  -1.384  0.00  0.00     0.029 H 
BRANCH  26  28
ATOM     28  C   LIG d   1       4.362  -2.378  -2.972  0.00  0.00    -0.063 C 
ATOM     29  H   LIG d   1       3.841  -2.677  -3.882  0.00  0.00     0.023 H 
ATOM     30  H   LIG d   1       5.357  -2.012  -3.227  0.00  0.00     0.023 H 
ATOM     31  H   LIG d   1       4.450  -3.235  -2.305  0.00  0.00     0.023 H 
ENDBRANCH  26  28
BRANCH  26  32
ATOM     32  C   LIG d   1       4.526  -0.139  -1.877  0.00  0.00    -0.063 C 
ATOM     33  H   LIG d   1       4.897  -0.316  -0.867  0.00  0.00     0.023 H 
ATOM     34  H   LIG d   1       5.364  -0.108  -2.573  0.00  0.00     0.023 H 
ATOM     35  H   LIG d   1       3.994   0.812  -1.906  0.00  0.00     0.023 H 
ENDBRANCH  26  32
ENDBRANCH  23  26
ENDBRANCH  20  23
ENDBRANCH  17  20
ENDBRANCH  11  17
ENDBRANCH   8  11
ENDBRANCH   4   7
ENDBRANCH   1   4
BRANCH   1  36
ATOM     36  C   LIG d   1       7.468   0.109  -4.104  0.00  0.00     0.013 C 
ATOM     37  H   LIG d   1       6.584   0.642  -4.455  0.00  0.00     0.046 H 
ATOM     38  H   LIG d   1       7.222  -0.447  -3.199  0.00  0.00     0.046 H 
BRANCH  36  39
ATOM     39  N   LIG d   1       8.534   1.071  -3.810  0.00  0.00    -0.299 N 
ATOM     40  C   LIG d   1       8.636   2.205  -4.532  0.00  0.00     0.302 C 
ATOM     41  O   LIG d   1       7.903   2.387  -5.484  0.00  0.00    -0.253 OA
ATOM     42  N   LIG d   1       9.551   3.136  -4.197  0.00  0.00    -0.280 N 
ATOM     43  C   LIG d   1      10.520   2.889  -3.115  0.00  0.00     0.057 C 
ATOM     44  C   LIG d   1       9.604   4.427  -4.898  0.00  0.00     0.021 C 
ATOM     45  C   LIG d   1      10.587   4.134  -2.267  0.00  0.00     0.038 A 
ATOM     46  H   LIG d   1      10.191   2.045  -2.509  0.00  0.00     0.053 H 
ATOM     47  H   LIG d   1      11.502   2.679  -3.539  0.00  0.00     0.053 H 
ATOM     48  C   LIG d   1      10.031   5.311  -2.626  0.00  0.00    -0.016 A 
ATOM     49  N   LIG d   1      11.199   4.259  -1.048  0.00  0.00    -0.356 N 
ATOM     50  C   LIG d   1       9.270   5.547  -3.906  0.00  0.00    -0.009 C 
ATOM     51  C   LIG d   1      10.312   6.253  -1.562  0.00  0.00     0.003 A 
ATOM     52  H   LIG d   1       9.557   6.509  -4.329  0.00  0.00     0.033 H 
ATOM     53  H   LIG d   1       8.199   5.545  -3.700  0.00  0.00     0.033 H 
ATOM     54  C   LIG d   1       9.993   7.603  -1.383  0.00  0.00    -0.052 A 
ATOM     55  C   LIG d   1      11.054   5.537  -0.589  0.00  0.00     0.047 A 
ATOM     56  C   LIG d   1      10.432   8.196  -0.224  0.00  0.00    -0.061 A 
ATOM     57  H   LIG d   1       9.428   8.154  -2.121  0.00  0.00     0.062 H 
ATOM     58  C   LIG d   1      11.157   7.501   0.729  0.00  0.00    -0.060 A 
ATOM     59  H   LIG d   1      10.204   9.237  -0.052  0.00  0.00     0.062 H 
ATOM     60  C   LIG d   1      11.487   6.165   0.577  0.00  0.00    -0.038 A 
ATOM     61  H   LIG d   1      11.477   8.019   1.621  0.00  0.00     0.062 H 
ATOM     62  H   LIG d   1      12.053   5.633   1.328  0.00  0.00     0.064 H 
ATOM     63  H   LIG d   1      11.667   3.548  -0.583  0.00  0.00     0.166 HD
ATOM     64  H   LIG d   1      10.604   4.583  -5.301  0.00  0.00     0.047 H 
ATOM     65  H   LIG d   1       8.877   4.432  -5.711  0.00  0.00     0.047 H 
ATOM     66  H   LIG d   1       9.166   0.890  -3.097  0.00  0.00     0.150 HD
ENDBRANCH  36  39
ENDBRANCH   1  36
TORSDOF 12
ENDMDL
MODEL 2
REMARK VINA RESULT:      -7.4      1.623      3.334
REMARK  12 active torsions:
REMARK  status: ('A' for Active; 'I' for Inactive)
REMARK    1  A    between atoms: C_1  and  C_2 
REMARK    2  A    between atoms: C_2  and  C_4 
REMARK    3  A    between atoms: C_2  and  N_10 
REMARK    4  A    between atoms: C_4  and  C_5 
REMARK    5  A    between atoms: C_5  and  C_6 
REMARK    6  A    between atoms: C_6  and  C_7 
REMARK    7  A    between atoms: C_7  and  C_8 
REMARK    8  A    between atoms: C_7  and  C_9 
REMARK       I    between atoms: N_10  and  C_11 
REMARK    9  A    between atoms: C_11  and  C_13 
REMARK   10  A    between atoms: C_13  and  C_14 
REMARK   11  A    between atoms: C_14  and  C_15 
REMARK   12  A    between atoms: C_15  and  N_16 
REMARK       I    between atoms: N_16  and  C_17 
REMARK       I    between atoms: C_17  and  N_19 
ROOT
ATOM      1  C   LIG d   1       6.466   0.111  -3.245  0.00  0.00    -0.029 C 
ATOM      2  H   LIG d   1       5.800   0.890  -3.616  0.00  0.00     0.029 H 
ATOM      3  H   LIG d   1       6.845   0.395  -2.263  0.00  0.00     0.029 H 
ENDROOT
BRANCH   1   4
ATOM      4  C   LIG d   1       5.697  -1.208  -3.133  0.00  0.00     0.025 C 
ATOM      5  H   LIG d   1       5.483  -1.415  -2.085  0.00  0.00     0.036 H 
ATOM      6  H   LIG d   1       6.298  -2.016  -3.548  0.00  0.00     0.036 H 
BRANCH   4   7
ATOM      7  C   LIG d   1       4.403  -1.100  -3.898  0.00  0.00     0.213 C 
ATOM      8  N   LIG d   1       4.220  -0.090  -4.772  0.00  0.00    -0.313 N 
ATOM      9  H   LIG d   1       4.920   0.567  -4.908  0.00  0.00     0.149 HD
ATOM     10  O   LIG d   1       3.527  -1.922  -3.729  0.00  0.00    -0.276 OA
BRANCH   8  11
ATOM     11  C   LIG d   1       2.962   0.015  -5.517  0.00  0.00     0.020 C 
ATOM     12  H   LIG d   1       2.292  -0.789  -5.213  0.00  0.00     0.050 H 
BRANCH  11  13
ATOM     13  C   LIG d   1       2.305   1.365  -5.220  0.00  0.00    -0.047 C 
ATOM     14  H   LIG d   1       3.003   2.168  -5.456  0.00  0.00     0.025 H 
ATOM     15  H   LIG d   1       1.408   1.473  -5.829  0.00  0.00     0.025 H 
ATOM     16  H   LIG d   1       2.038   1.415  -4.165  0.00  0.00     0.025 H 
ENDBRANCH  11  13
BRANCH  11  17
ATOM     17  C   LIG d   1       3.247  -0.096  -7.016  0.00  0.00    -0.035 C 
ATOM     18  H   LIG d   1       4.283  -0.399  -7.166  0.00  0.00     0.028 H 
ATOM     19  H   LIG d   1       2.584  -0.838  -7.458  0.00  0.00     0.028 H 
BRANCH  17  20
ATOM     20  C   LIG d   1       3.009   1.261  -7.681  0.00  0.00    -0.051 C 
ATOM     21  H   LIG d   1       2.241   1.805  -7.133  0.00  0.00     0.027 H 
ATOM     22  H   LIG d   1       3.936   1.836  -7.676  0.00  0.00     0.027 H 
BRANCH  20  23
ATOM     23  C   LIG d   1       2.551   1.047  -9.126  0.00  0.00    -0.051 C 
ATOM     24  H   LIG d   1       2.619  -0.012  -9.375  0.00  0.00     0.027 H 
ATOM     25  H   LIG d   1       1.519   1.381  -9.232  0.00  0.00     0.027 H 
BRANCH  23  26
ATOM     26  C   LIG d   1       3.447   1.853 -10.069  0.00  0.00    -0.047 C 
ATOM     27  H   LIG d   1       2.837   2.547 -10.646  0.00  0.00     0.029 H 
BRANCH  26  28
ATOM     28  C   LIG d   1       4.475   2.636  -9.251  0.00  0.00    -0.063 C 
ATOM     29  H   LIG d   1       5.431   2.113  -9.273  0.00  0.00     0.023 H 
ATOM     30  H   LIG d   1       4.596   3.632  -9.678  0.00  0.00     0.023 H 
ATOM     31  H   LIG d   1       4.131   2.722  -8.220  0.00  0.00     0.023 H 
ENDBRANCH  26  28
BRANCH  26  32
ATOM     32  C   LIG d   1       4.173   0.899 -11.021  0.00  0.00    -0.063 C 
ATOM     33  H   LIG d   1       5.105   0.567 -10.562  0.00  0.00     0.023 H 
ATOM     34  H   LIG d   1       3.539   0.036 -11.223  0.00  0.00     0.023 H 
ATOM     35  H   LIG d   1       4.392   1.415 -11.955  0.00  0.00     0.023 H 
ENDBRANCH  26  32
ENDBRANCH  23  26
ENDBRANCH  20  23
ENDBRANCH  17  20
ENDBRANCH  11  17
ENDBRANCH   8  11
ENDBRANCH   4   7
ENDBRANCH   1   4
BRANCH   1  36
ATOM     36  C   LIG d   1       7.637  -0.062  -4.213  0.00  0.00     0.013 C 
ATOM     37  H   LIG d   1       8.056  -1.063  -4.102  0.00  0.00     0.046 H 
ATOM     38  H   LIG d   1       7.286   0.073  -5.236  0.00  0.00     0.046 H 
BRANCH  36  39
ATOM     39  N   LIG d   1       8.669   0.935  -3.916  0.00  0.00    -0.299 N 
ATOM     40  C   LIG d   1       8.736   2.071  -4.638  0.00  0.00     0.302 C 
ATOM     41  O   LIG d   1       8.002   2.227  -5.594  0.00  0.00    -0.253 OA
ATOM     42  N   LIG d   1       9.618   3.033  -4.300  0.00  0.00    -0.280 N 
ATOM     43  C   LIG d   1      10.589   2.819  -3.214  0.00  0.00     0.057 C 
ATOM     44  C   LIG d   1       9.630   4.325  -5.002  0.00  0.00     0.021 C 
ATOM     45  C   LIG d   1      10.611   4.067  -2.366  0.00  0.00     0.038 A 
ATOM     46  H   LIG d   1      10.286   1.965  -2.608  0.00  0.00     0.053 H 
ATOM     47  H   LIG d   1      11.580   2.643  -3.633  0.00  0.00     0.053 H 
ATOM     48  C   LIG d   1      10.017   5.224  -2.729  0.00  0.00    -0.016 A 
ATOM     49  N   LIG d   1      11.213   4.213  -1.144  0.00  0.00    -0.356 N 
ATOM     50  C   LIG d   1       9.254   5.433  -4.012  0.00  0.00    -0.009 C 
ATOM     51  C   LIG d   1      10.261   6.176  -1.664  0.00  0.00     0.003 A 
ATOM     52  H   LIG d   1       9.511   6.404  -4.435  0.00  0.00     0.033 H 
ATOM     53  H   LIG d   1       8.183   5.395  -3.812  0.00  0.00     0.033 H 
ATOM     54  C   LIG d   1       9.896   7.515  -1.489  0.00  0.00    -0.052 A 
ATOM     55  C   LIG d   1      11.023   5.485  -0.687  0.00  0.00     0.047 A 
ATOM     56  C   LIG d   1      10.310   8.122  -0.328  0.00  0.00    -0.061 A 
ATOM     57  H   LIG d   1       9.317   8.045  -2.230  0.00  0.00     0.062 H 
ATOM     58  C   LIG d   1      11.053   7.453   0.629  0.00  0.00    -0.060 A 
ATOM     59  H   LIG d   1      10.046   9.156  -0.158  0.00  0.00     0.062 H 
ATOM     60  C   LIG d   1      11.428   6.129   0.480  0.00  0.00    -0.038 A 
ATOM     61  H   LIG d   1      11.351   7.982   1.522  0.00  0.00     0.062 H 
ATOM     62  H   LIG d   1      12.008   5.617   1.235  0.00  0.00     0.064 H 
ATOM     63  H   LIG d   1      11.701   3.519  -0.676  0.00  0.00     0.166 HD
ATOM     64  H   LIG d   1      10.627   4.514  -5.400  0.00  0.00     0.047 H 
ATOM     65  H   LIG d   1       8.907   4.304  -5.818  0.00  0.00     0.047 H 
ATOM     66  H   LIG d   1       9.304   0.776  -3.200  0.00  0.00     0.150 HD
ENDBRANCH  36  39
ENDBRANCH   1  36
TORSDOF 12
ENDMDL
MODEL 3
REMARK VINA RESULT:      -7.2      3.458      5.553
REMARK  12 active torsions:
REMARK  status: ('A' for Active; 'I' for Inactive)
REMARK    1  A    between atoms: C_1  and  C_2 
REMARK    2  A    between atoms: C_2  and  C_4 
REMARK    3  A    between atoms: C_2  and  N_10 
REMARK    4  A    between atoms: C_4  and  C_5 
REMARK    5  A    between atoms: C_5  and  C_6 
REMARK    6  A    between atoms: C_6  and  C_7 
REMARK    7  A    between atoms: C_7  and  C_8 
REMARK    8  A    between atoms: C_7  and  C_9 
REMARK       I    between atoms: N_10  and  C_11 
REMARK    9  A    between atoms: C_11  and  C_13 
REMARK   10  A    between atoms: C_13  and  C_14 
REMARK   11  A    between atoms: C_14  and  C_15 
REMARK   12  A    between atoms: C_15  and  N_16 
REMARK       I    between atoms: N_16  and  C_17 
REMARK       I    between atoms: C_17  and  N_19 
ROOT
ATOM      1  C   LIG d   1       8.783   1.557  -9.896  0.00  0.00    -0.029 C 
ATOM      2  H   LIG d   1       8.953   1.621 -10.971  0.00  0.00     0.029 H 
ATOM      3  H   LIG d   1       8.302   2.471  -9.550  0.00  0.00     0.029 H 
ENDROOT
BRANCH   1   4
ATOM      4  C   LIG d   1       7.880   0.359  -9.593  0.00  0.00     0.025 C 
ATOM      5  H   LIG d   1       8.401  -0.328  -8.926  0.00  0.00     0.036 H 
ATOM      6  H   LIG d   1       7.632  -0.154 -10.522  0.00  0.00     0.036 H 
BRANCH   4   7
ATOM      7  C   LIG d   1       6.614   0.839  -8.931  0.00  0.00     0.213 C 
ATOM      8  N   LIG d   1       5.482   0.960  -9.651  0.00  0.00    -0.313 N 
ATOM      9  H   LIG d   1       5.480   0.738 -10.595  0.00  0.00     0.149 HD
ATOM     10  O   LIG d   1       6.614   1.116  -7.750  0.00  0.00    -0.276 OA
BRANCH   8  11
ATOM     11  C   LIG d   1       4.250   1.427  -9.007  0.00  0.00     0.020 C 
ATOM     12  H   LIG d   1       4.405   1.489  -7.930  0.00  0.00     0.050 H 
BRANCH  11  13
ATOM     13  C   LIG d   1       3.884   2.809  -9.550  0.00  0.00    -0.047 C 
ATOM     14  H   LIG d   1       4.792   3.340  -9.837  0.00  0.00     0.025 H 
ATOM     15  H   LIG d   1       3.238   2.698 -10.420  0.00  0.00     0.025 H 
ATOM     16  H   LIG d   1       3.361   3.375  -8.779  0.00  0.00     0.025 H 
ENDBRANCH  11  13
BRANCH  11  17
ATOM     17  C   LIG d   1       3.116   0.444  -9.305  0.00  0.00    -0.035 C 
ATOM     18  H   LIG d   1       2.254   0.991  -9.688  0.00  0.00     0.028 H 
ATOM     19  H   LIG d   1       3.448  -0.279 -10.048  0.00  0.00     0.028 H 
BRANCH  17  20
ATOM     20  C   LIG d   1       2.726  -0.288  -8.019  0.00  0.00    -0.051 C 
ATOM     21  H   LIG d   1       1.800  -0.838  -8.182  0.00  0.00     0.027 H 
ATOM     22  H   LIG d   1       3.518  -0.984  -7.743  0.00  0.00     0.027 H 
BRANCH  20  23
ATOM     23  C   LIG d   1       2.526   0.729  -6.894  0.00  0.00    -0.051 C 
ATOM     24  H   LIG d   1       2.929   1.694  -7.200  0.00  0.00     0.027 H 
ATOM     25  H   LIG d   1       1.461   0.830  -6.681  0.00  0.00     0.027 H 
BRANCH  23  26
ATOM     26  C   LIG d   1       3.253   0.248  -5.636  0.00  0.00    -0.047 C 
ATOM     27  H   LIG d   1       3.912   1.036  -5.273  0.00  0.00     0.029 H 
BRANCH  26  28
ATOM     28  C   LIG d   1       2.227  -0.098  -4.555  0.00  0.00    -0.063 C 
ATOM     29  H   LIG d   1       2.736  -0.217  -3.598  0.00  0.00     0.023 H 
ATOM     30  H   LIG d   1       1.494   0.705  -4.479  0.00  0.00     0.023 H 
ATOM     31  H   LIG d   1       1.722  -1.028  -4.817  0.00  0.00     0.023 H 
ENDBRANCH  26  28
BRANCH  26  32
ATOM     32  C   LIG d   1       4.080  -0.995  -5.971  0.00  0.00    -0.063 C 
ATOM     33  H   LIG d   1       4.995  -0.993  -5.378  0.00  0.00     0.023 H 
ATOM     34  H   LIG d   1       3.501  -1.890  -5.742  0.00  0.00     0.023 H 
ATOM     35  H   LIG d   1       4.335  -0.988  -7.030  0.00  0.00     0.023 H 
ENDBRANCH  26  32
ENDBRANCH  23  26
ENDBRANCH  20  23
ENDBRANCH  17  20
ENDBRANCH  11  17
ENDBRANCH   8  11
ENDBRANCH   4   7
ENDBRANCH   1   4
BRANCH   1  36
ATOM     36  C   LIG d   1      10.122   1.380  -9.177  0.00  0.00     0.013 C 
ATOM     37  H   LIG d   1      10.713   0.623  -9.692  0.00  0.00     0.046 H 
ATOM     38  H   LIG d   1      10.662   2.327  -9.178  0.00  0.00     0.046 H 
BRANCH  36  39
ATOM     39  N   LIG d   1       9.882   0.958  -7.795  0.00  0.00    -0.299 N 
ATOM     40  C   LIG d   1       9.814   1.876  -6.811  0.00  0.00     0.302 C 
ATOM     41  O   LIG d   1      10.042   3.045  -7.054  0.00  0.00    -0.253 OA
ATOM     42  N   LIG d   1       9.492   1.498  -5.557  0.00  0.00    -0.280 N 
ATOM     43  C   LIG d   1       9.317   0.076  -5.218  0.00  0.00     0.057 C 
ATOM     44  C   LIG d   1       9.301   2.497  -4.495  0.00  0.00     0.021 C 
ATOM     45  C   LIG d   1       8.075  -0.044  -4.372  0.00  0.00     0.038 A 
ATOM     46  H   LIG d   1       9.203  -0.511  -6.130  0.00  0.00     0.053 H 
ATOM     47  H   LIG d   1      10.181  -0.279  -4.656  0.00  0.00     0.053 H 
ATOM     48  C   LIG d   1       7.426   1.017  -3.847  0.00  0.00    -0.016 A 
ATOM     49  N   LIG d   1       7.436  -1.204  -4.020  0.00  0.00    -0.356 N 
ATOM     50  C   LIG d   1       7.841   2.455  -4.029  0.00  0.00    -0.009 C 
ATOM     51  C   LIG d   1       6.296   0.496  -3.103  0.00  0.00     0.003 A 
ATOM     52  H   LIG d   1       7.744   2.985  -3.083  0.00  0.00     0.033 H 
ATOM     53  H   LIG d   1       7.205   2.926  -4.778  0.00  0.00     0.033 H 
ATOM     54  C   LIG d   1       5.287   1.113  -2.358  0.00  0.00    -0.052 A 
ATOM     55  C   LIG d   1       6.350  -0.914  -3.246  0.00  0.00     0.047 A 
ATOM     56  C   LIG d   1       4.354   0.289  -1.776  0.00  0.00    -0.061 A 
ATOM     57  H   LIG d   1       5.241   2.187  -2.247  0.00  0.00     0.062 H 
ATOM     58  C   LIG d   1       4.402  -1.087  -1.911  0.00  0.00    -0.060 A 
ATOM     59  H   LIG d   1       3.559   0.731  -1.193  0.00  0.00     0.062 H 
ATOM     60  C   LIG d   1       5.390  -1.724  -2.642  0.00  0.00    -0.038 A 
ATOM     61  H   LIG d   1       3.643  -1.685  -1.429  0.00  0.00     0.062 H 
ATOM     62  H   LIG d   1       5.416  -2.800  -2.740  0.00  0.00     0.064 H 
ATOM     63  H   LIG d   1       7.714  -2.095  -4.280  0.00  0.00     0.166 HD
ATOM     64  H   LIG d   1       9.958   2.268  -3.656  0.00  0.00     0.047 H 
ATOM     65  H   LIG d   1       9.531   3.490  -4.881  0.00  0.00     0.047 H 
ATOM     66  H   LIG d   1       9.774   0.016  -7.588  0.00  0.00     0.150 HD
ENDBRANCH  36  39
ENDBRANCH   1  36
TORSDOF 12
ENDMDL
MODEL 4
REMARK VINA RESULT:      -7.0      5.534      7.578
REMARK  12 active torsions:
REMARK  status: ('A' for Active; 'I' for Inactive)
REMARK    1  A    between atoms: C_1  and  C_2 
REMARK    2  A    between atoms: C_2  and  C_4 
REMARK    3  A    between atoms: C_2  and  N_10 
REMARK    4  A    between atoms: C_4  and  C_5 
REMARK    5  A    between atoms: C_5  and  C_6 
REMARK    6  A    between atoms: C_6  and  C_7 
REMARK    7  A    between atoms: C_7  and  C_8 
REMARK    8  A    between atoms: C_7  and  C_9 
REMARK       I    between atoms: N_10  and  C_11 
REMARK    9  A    between atoms: C_11  and  C_13 
REMARK   10  A    between atoms: C_13  and  C_14 
REMARK   11  A    between atoms: C_14  and  C_15 
REMARK   12  A    between atoms: C_15  and  N_16 
REMARK       I    between atoms: N_16  and  C_17 
REMARK       I    between atoms: C_17  and  N_19 
ROOT
ATOM      1  C   LIG d   1       6.004  -3.934 -10.112  0.00  0.00    -0.029 C 
ATOM      2  H   LIG d   1       5.026  -3.589  -9.775  0.00  0.00     0.029 H 
ATOM      3  H   LIG d   1       5.920  -4.330 -11.123  0.00  0.00     0.029 H 
ENDROOT
BRANCH   1   4
ATOM      4  C   LIG d   1       6.989  -2.763 -10.101  0.00  0.00     0.025 C 
ATOM      5  H   LIG d   1       7.236  -2.488 -11.127  0.00  0.00     0.036 H 
ATOM      6  H   LIG d   1       7.897  -3.056  -9.575  0.00  0.00     0.036 H 
BRANCH   4   7
ATOM      7  C   LIG d   1       6.361  -1.585  -9.403  0.00  0.00     0.213 C 
ATOM      8  N   LIG d   1       6.651  -0.332  -9.804  0.00  0.00    -0.313 N 
ATOM      9  H   LIG d   1       7.263  -0.187 -10.542  0.00  0.00     0.149 HD
ATOM     10  O   LIG d   1       5.594  -1.764  -8.480  0.00  0.00    -0.276 OA
BRANCH   8  11
ATOM     11  C   LIG d   1       6.040   0.815  -9.125  0.00  0.00     0.020 C 
ATOM     12  H   LIG d   1       5.625   0.492  -8.171  0.00  0.00     0.050 H 
BRANCH  11  13
ATOM     13  C   LIG d   1       7.101   1.890  -8.883  0.00  0.00    -0.047 C 
ATOM     14  H   LIG d   1       6.791   2.527  -8.055  0.00  0.00     0.025 H 
ATOM     15  H   LIG d   1       8.050   1.414  -8.639  0.00  0.00     0.025 H 
ATOM     16  H   LIG d   1       7.218   2.494  -9.783  0.00  0.00     0.025 H 
ENDBRANCH  11  13
BRANCH  11  17
ATOM     17  C   LIG d   1       4.923   1.388 -10.000  0.00  0.00    -0.035 C 
ATOM     18  H   LIG d   1       5.360   1.883 -10.867  0.00  0.00     0.028 H 
ATOM     19  H   LIG d   1       4.271   0.582 -10.332  0.00  0.00     0.028 H 
BRANCH  17  20
ATOM     20  C   LIG d   1       4.110   2.400  -9.190  0.00  0.00    -0.051 C 
ATOM     21  H   LIG d   1       4.621   2.607  -8.250  0.00  0.00     0.027 H 
ATOM     22  H   LIG d   1       4.009   3.324  -9.760  0.00  0.00     0.027 H 
BRANCH  20  23
ATOM     23  C   LIG d   1       2.721   1.825  -8.901  0.00  0.00    -0.051 C 
ATOM     24  H   LIG d   1       2.307   2.304  -8.014  0.00  0.00     0.027 H 
ATOM     25  H   LIG d   1       2.067   2.010  -9.753  0.00  0.00     0.027 H 
BRANCH  23  26
ATOM     26  C   LIG d   1       2.834   0.318  -8.663  0.00  0.00    -0.047 C 
ATOM     27  H   LIG d   1       3.786  -0.042  -9.052  0.00  0.00     0.029 H 
BRANCH  26  28
ATOM     28  C   LIG d   1       2.755   0.031  -7.162  0.00  0.00    -0.063 C 
ATOM     29  H   LIG d   1       3.639  -0.525  -6.852  0.00  0.00     0.023 H 
ATOM     30  H   LIG d   1       2.707   0.973  -6.615  0.00  0.00     0.023 H 
ATOM     31  H   LIG d   1       1.862  -0.557  -6.951  0.00  0.00     0.023 H 
ENDBRANCH  26  28
BRANCH  26  32
ATOM     32  C   LIG d   1       1.687  -0.398  -9.380  0.00  0.00    -0.063 C 
ATOM     33  H   LIG d   1       2.093  -1.178 -10.026  0.00  0.00     0.023 H 
ATOM     34  H   LIG d   1       1.021  -0.846  -8.643  0.00  0.00     0.023 H 
ATOM     35  H   LIG d   1       1.132   0.319  -9.984  0.00  0.00     0.023 H 
ENDBRANCH  26  32
ENDBRANCH  23  26
ENDBRANCH  20  23
ENDBRANCH  17  20
ENDBRANCH  11  17
ENDBRANCH   8  11
ENDBRANCH   4   7
ENDBRANCH   1   4
BRANCH   1  36
ATOM     36  C   LIG d   1       6.508  -5.033  -9.174  0.00  0.00     0.013 C 
ATOM     37  H   LIG d   1       6.109  -5.996  -9.494  0.00  0.00     0.046 H 
ATOM     38  H   LIG d   1       7.597  -5.063  -9.201  0.00  0.00     0.046 H 
BRANCH  36  39
ATOM     39  N   LIG d   1       6.062  -4.750  -7.807  0.00  0.00    -0.299 N 
ATOM     40  C   LIG d   1       6.969  -4.520  -6.836  0.00  0.00     0.302 C 
ATOM     41  O   LIG d   1       8.155  -4.638  -7.073  0.00  0.00    -0.253 OA
ATOM     42  N   LIG d   1       6.560  -4.159  -5.603  0.00  0.00    -0.280 N 
ATOM     43  C   LIG d   1       5.127  -4.116  -5.266  0.00  0.00     0.057 C 
ATOM     44  C   LIG d   1       7.533  -3.794  -4.563  0.00  0.00     0.021 C 
ATOM     45  C   LIG d   1       4.875  -2.840  -4.501  0.00  0.00     0.038 A 
ATOM     46  H   LIG d   1       4.531  -4.124  -6.178  0.00  0.00     0.053 H 
ATOM     47  H   LIG d   1       4.867  -4.973  -4.646  0.00  0.00     0.053 H 
ATOM     48  C   LIG d   1       5.861  -2.049  -4.027  0.00  0.00    -0.016 A 
ATOM     49  N   LIG d   1       3.654  -2.307  -4.182  0.00  0.00    -0.356 N 
ATOM     50  C   LIG d   1       7.335  -2.319  -4.193  0.00  0.00    -0.009 C 
ATOM     51  C   LIG d   1       5.223  -0.935  -3.354  0.00  0.00     0.003 A 
ATOM     52  H   LIG d   1       7.853  -2.105  -3.258  0.00  0.00     0.033 H 
ATOM     53  H   LIG d   1       7.735  -1.687  -4.985  0.00  0.00     0.033 H 
ATOM     54  C   LIG d   1       5.729   0.181  -2.681  0.00  0.00    -0.052 A 
ATOM     55  C   LIG d   1       3.826  -1.148  -3.482  0.00  0.00     0.047 A 
ATOM     56  C   LIG d   1       4.811   1.056  -2.154  0.00  0.00    -0.061 A 
ATOM     57  H   LIG d   1       6.792   0.347  -2.581  0.00  0.00     0.062 H 
ATOM     58  C   LIG d   1       3.447   0.853  -2.275  0.00  0.00    -0.060 A 
ATOM     59  H   LIG d   1       5.165   1.930  -1.627  0.00  0.00     0.062 H 
ATOM     60  C   LIG d   1       2.919  -0.243  -2.936  0.00  0.00    -0.038 A 
ATOM     61  H   LIG d   1       2.771   1.574  -1.839  0.00  0.00     0.062 H 
ATOM     62  H   LIG d   1       1.852  -0.390  -3.024  0.00  0.00     0.064 H 
ATOM     63  H   LIG d   1       2.797  -2.696  -4.417  0.00  0.00     0.166 HD
ATOM     64  H   LIG d   1       7.376  -4.416  -3.682  0.00  0.00     0.047 H 
ATOM     65  H   LIG d   1       8.544  -3.942  -4.941  0.00  0.00     0.047 H 
ATOM     66  H   LIG d   1       5.115  -4.729  -7.600  0.00  0.00     0.150 HD
ENDBRANCH  36  39
ENDBRANCH   1  36
TORSDOF 12
ENDMDL
MODEL 5
REMARK VINA RESULT:      -7.0      6.061      9.179
REMARK  12 active torsions:
REMARK  status: ('A' for Active; 'I' for Inactive)
REMARK    1  A    between atoms: C_1  and  C_2 
REMARK    2  A    between atoms: C_2  and  C_4 
REMARK    3  A    between atoms: C_2  and  N_10 
REMARK    4  A    between atoms: C_4  and  C_5 
REMARK    5  A    between atoms: C_5  and  C_6 
REMARK    6  A    between atoms: C_6  and  C_7 
REMARK    7  A    between atoms: C_7  and  C_8 
REMARK    8  A    between atoms: C_7  and  C_9 
REMARK       I    between atoms: N_10  and  C_11 
REMARK    9  A    between atoms: C_11  and  C_13 
REMARK   10  A    between atoms: C_13  and  C_14 
REMARK   11  A    between atoms: C_14  and  C_15 
REMARK   12  A    between atoms: C_15  and  N_16 
REMARK       I    between atoms: N_16  and  C_17 
REMARK       I    between atoms: C_17  and  N_19 
ROOT
ATOM      1  C   LIG d   1       5.081  -6.915  -6.522  0.00  0.00    -0.029 C 
ATOM      2  H   LIG d   1       6.092  -6.598  -6.777  0.00  0.00     0.029 H 
ATOM      3  H   LIG d   1       5.124  -7.846  -5.957  0.00  0.00     0.029 H 
ENDROOT
BRANCH   1   4
ATOM      4  C   LIG d   1       4.406  -5.834  -5.674  0.00  0.00     0.025 C 
ATOM      5  H   LIG d   1       4.339  -6.173  -4.640  0.00  0.00     0.036 H 
ATOM      6  H   LIG d   1       3.406  -5.641  -6.060  0.00  0.00     0.036 H 
BRANCH   4   7
ATOM      7  C   LIG d   1       5.221  -4.568  -5.735  0.00  0.00     0.213 C 
ATOM      8  N   LIG d   1       4.819  -3.475  -5.056  0.00  0.00    -0.313 N 
ATOM      9  H   LIG d   1       4.006  -3.503  -4.528  0.00  0.00     0.149 HD
ATOM     10  O   LIG d   1       6.239  -4.531  -6.395  0.00  0.00    -0.276 OA
BRANCH   8  11
ATOM     11  C   LIG d   1       5.612  -2.244  -5.115  0.00  0.00     0.020 C 
ATOM     12  H   LIG d   1       6.581  -2.457  -5.566  0.00  0.00     0.050 H 
BRANCH  11  13
ATOM     13  C   LIG d   1       4.874  -1.202  -5.959  0.00  0.00    -0.047 C 
ATOM     14  H   LIG d   1       4.716  -0.301  -5.367  0.00  0.00     0.025 H 
ATOM     15  H   LIG d   1       5.470  -0.960  -6.838  0.00  0.00     0.025 H 
ATOM     16  H   LIG d   1       3.911  -1.605  -6.271  0.00  0.00     0.025 H 
ENDBRANCH  11  13
BRANCH  11  17
ATOM     17  C   LIG d   1       5.816  -1.701  -3.698  0.00  0.00    -0.035 C 
ATOM     18  H   LIG d   1       6.659  -2.212  -3.233  0.00  0.00     0.028 H 
ATOM     19  H   LIG d   1       6.019  -0.632  -3.745  0.00  0.00     0.028 H 
BRANCH  17  20
ATOM     20  C   LIG d   1       4.551  -1.945  -2.873  0.00  0.00    -0.051 C 
ATOM     21  H   LIG d   1       3.684  -1.956  -3.532  0.00  0.00     0.027 H 
ATOM     22  H   LIG d   1       4.631  -2.904  -2.361  0.00  0.00     0.027 H 
BRANCH  20  23
ATOM     23  C   LIG d   1       4.394  -0.827  -1.839  0.00  0.00    -0.051 C 
ATOM     24  H   LIG d   1       4.107  -1.258  -0.880  0.00  0.00     0.027 H 
ATOM     25  H   LIG d   1       5.340  -0.296  -1.731  0.00  0.00     0.027 H 
BRANCH  23  26
ATOM     26  C   LIG d   1       3.312   0.149  -2.305  0.00  0.00    -0.047 C 
ATOM     27  H   LIG d   1       2.679   0.421  -1.460  0.00  0.00     0.029 H 
BRANCH  26  28
ATOM     28  C   LIG d   1       3.971   1.407  -2.875  0.00  0.00    -0.063 C 
ATOM     29  H   LIG d   1       4.164   1.265  -3.938  0.00  0.00     0.023 H 
ATOM     30  H   LIG d   1       3.306   2.260  -2.737  0.00  0.00     0.023 H 
ATOM     31  H   LIG d   1       4.911   1.592  -2.355  0.00  0.00     0.023 H 
ENDBRANCH  26  28
BRANCH  26  32
ATOM     32  C   LIG d   1       2.458  -0.515  -3.388  0.00  0.00    -0.063 C 
ATOM     33  H   LIG d   1       2.096  -1.477  -3.026  0.00  0.00     0.023 H 
ATOM     34  H   LIG d   1       1.610   0.127  -3.626  0.00  0.00     0.023 H 
ATOM     35  H   LIG d   1       3.061  -0.667  -4.283  0.00  0.00     0.023 H 
ENDBRANCH  26  32
ENDBRANCH  23  26
ENDBRANCH  20  23
ENDBRANCH  17  20
ENDBRANCH  11  17
ENDBRANCH   8  11
ENDBRANCH   4   7
ENDBRANCH   1   4
BRANCH   1  36
ATOM     36  C   LIG d   1       4.276  -7.133  -7.804  0.00  0.00     0.013 C 
ATOM     37  H   LIG d   1       4.675  -7.994  -8.342  0.00  0.00     0.046 H 
ATOM     38  H   LIG d   1       3.231  -7.315  -7.551  0.00  0.00     0.046 H 
BRANCH  36  39
ATOM     39  N   LIG d   1       4.372  -5.941  -8.650  0.00  0.00    -0.299 N 
ATOM     40  C   LIG d   1       3.268  -5.442  -9.241  0.00  0.00     0.302 C 
ATOM     41  O   LIG d   1       2.210  -6.033  -9.147  0.00  0.00    -0.253 OA
ATOM     42  N   LIG d   1       3.338  -4.288  -9.934  0.00  0.00    -0.280 N 
ATOM     43  C   LIG d   1       4.629  -3.613 -10.151  0.00  0.00     0.057 C 
ATOM     44  C   LIG d   1       2.126  -3.668 -10.489  0.00  0.00     0.021 C 
ATOM     45  C   LIG d   1       4.426  -2.141  -9.893  0.00  0.00     0.038 A 
ATOM     46  H   LIG d   1       5.375  -4.011  -9.462  0.00  0.00     0.053 H 
ATOM     47  H   LIG d   1       4.958  -3.765 -11.179  0.00  0.00     0.053 H 
ATOM     48  C   LIG d   1       3.210  -1.572  -9.742  0.00  0.00    -0.016 A 
ATOM     49  N   LIG d   1       5.405  -1.190  -9.777  0.00  0.00    -0.356 N 
ATOM     50  C   LIG d   1       1.900  -2.315  -9.804  0.00  0.00    -0.009 C 
ATOM     51  C   LIG d   1       3.431  -0.158  -9.518  0.00  0.00     0.003 A 
ATOM     52  H   LIG d   1       1.177  -1.733 -10.374  0.00  0.00     0.033 H 
ATOM     53  H   LIG d   1       1.523  -2.476  -8.794  0.00  0.00     0.033 H 
ATOM     54  C   LIG d   1       2.559   0.914  -9.301  0.00  0.00    -0.052 A 
ATOM     55  C   LIG d   1       4.836   0.030  -9.550  0.00  0.00     0.047 A 
ATOM     56  C   LIG d   1       3.130   2.150  -9.121  0.00  0.00    -0.061 A 
ATOM     57  H   LIG d   1       1.488   0.776  -9.275  0.00  0.00     0.062 H 
ATOM     58  C   LIG d   1       4.501   2.339  -9.151  0.00  0.00    -0.060 A 
ATOM     59  H   LIG d   1       2.488   3.002  -8.950  0.00  0.00     0.062 H 
ATOM     60  C   LIG d   1       5.386   1.297  -9.365  0.00  0.00    -0.038 A 
ATOM     61  H   LIG d   1       4.894   3.335  -9.005  0.00  0.00     0.062 H 
ATOM     62  H   LIG d   1       6.455   1.457  -9.386  0.00  0.00     0.064 H 
ATOM     63  H   LIG d   1       6.357  -1.358  -9.847  0.00  0.00     0.166 HD
ATOM     64  H   LIG d   1       2.251  -3.517 -11.561  0.00  0.00     0.047 H 
ATOM     65  H   LIG d   1       1.268  -4.316 -10.308  0.00  0.00     0.047 H 
ATOM     66  H   LIG d   1       5.232  -5.511  -8.786  0.00  0.00     0.150 HD
ENDBRANCH  36  39
ENDBRANCH   1  36
TORSDOF 12
ENDMDL
MODEL 6
REMARK VINA RESULT:      -6.9      6.336      9.469
REMARK  12 active torsions:
REMARK  status: ('A' for Active; 'I' for Inactive)
REMARK    1  A    between atoms: C_1  and  C_2 
REMARK    2  A    between atoms: C_2  and  C_4 
REMARK    3  A    between atoms: C_2  and  N_10 
REMARK    4  A    between atoms: C_4  and  C_5 
REMARK    5  A    between atoms: C_5  and  C_6 
REMARK    6  A    between atoms: C_6  and  C_7 
REMARK    7  A    between atoms: C_7  and  C_8 
REMARK    8  A    between atoms: C_7  and  C_9 
REMARK       I    between atoms: N_10  and  C_11 
REMARK    9  A    between atoms: C_11  and  C_13 
REMARK   10  A    between atoms: C_13  and  C_14 
REMARK   11  A    between atoms: C_14  and  C_15 
REMARK   12  A    between atoms: C_15  and  N_16 
REMARK       I    between atoms: N_16  and  C_17 
REMARK       I    between atoms: C_17  and  N_19 
ROOT
ATOM      1  C   LIG d   1       9.962  -6.204  -1.566  0.00  0.00    -0.029 C 
ATOM      2  H   LIG d   1       8.892  -6.411  -1.531  0.00  0.00     0.029 H 
ATOM      3  H   LIG d   1      10.182  -5.328  -0.955  0.00  0.00     0.029 H 
ENDROOT
BRANCH   1   4
ATOM      4  C   LIG d   1      10.733  -7.410  -1.024  0.00  0.00     0.025 C 
ATOM      5  H   LIG d   1      10.715  -7.392   0.066  0.00  0.00     0.036 H 
ATOM      6  H   LIG d   1      11.765  -7.368  -1.371  0.00  0.00     0.036 H 
BRANCH   4   7
ATOM      7  C   LIG d   1      10.088  -8.680  -1.516  0.00  0.00     0.213 C 
ATOM      8  N   LIG d   1       8.874  -9.040  -1.056  0.00  0.00    -0.313 N 
ATOM      9  H   LIG d   1       8.415  -8.483  -0.409  0.00  0.00     0.149 HD
ATOM     10  O   LIG d   1      10.661  -9.377  -2.327  0.00  0.00    -0.276 OA
BRANCH   8  11
ATOM     11  C   LIG d   1       8.246 -10.275  -1.536  0.00  0.00     0.020 C 
ATOM     12  H   LIG d   1       8.763 -10.621  -2.430  0.00  0.00     0.050 H 
BRANCH  11  13
ATOM     13  C   LIG d   1       8.335 -11.347  -0.448  0.00  0.00    -0.047 C 
ATOM     14  H   LIG d   1       7.336 -11.725  -0.227  0.00  0.00     0.025 H 
ATOM     15  H   LIG d   1       8.964 -12.166  -0.796  0.00  0.00     0.025 H 
ATOM     16  H   LIG d   1       8.767 -10.914   0.454  0.00  0.00     0.025 H 
ENDBRANCH  11  13
BRANCH  11  17
ATOM     17  C   LIG d   1       6.777 -10.004  -1.866  0.00  0.00    -0.035 C 
ATOM     18  H   LIG d   1       6.145 -10.679  -1.288  0.00  0.00     0.028 H 
ATOM     19  H   LIG d   1       6.532  -8.973  -1.615  0.00  0.00     0.028 H 
BRANCH  17  20
ATOM     20  C   LIG d   1       6.539 -10.237  -3.359  0.00  0.00    -0.051 C 
ATOM     21  H   LIG d   1       6.326  -9.285  -3.845  0.00  0.00     0.027 H 
ATOM     22  H   LIG d   1       7.430 -10.681  -3.804  0.00  0.00     0.027 H 
BRANCH  20  23
ATOM     23  C   LIG d   1       5.350 -11.183  -3.545  0.00  0.00    -0.051 C 
ATOM     24  H   LIG d   1       5.637 -12.001  -4.206  0.00  0.00     0.027 H 
ATOM     25  H   LIG d   1       5.051 -11.585  -2.577  0.00  0.00     0.027 H 
BRANCH  23  26
ATOM     26  C   LIG d   1       4.179 -10.415  -4.162  0.00  0.00    -0.047 C 
ATOM     27  H   LIG d   1       3.716 -11.022  -4.940  0.00  0.00     0.029 H 
BRANCH  26  28
ATOM     28  C   LIG d   1       3.147 -10.102  -3.077  0.00  0.00    -0.063 C 
ATOM     29  H   LIG d   1       3.660  -9.846  -2.151  0.00  0.00     0.023 H 
ATOM     30  H   LIG d   1       2.530  -9.261  -3.395  0.00  0.00     0.023 H 
ATOM     31  H   LIG d   1       2.514 -10.974  -2.915  0.00  0.00     0.023 H 
ENDBRANCH  26  28
BRANCH  26  32
ATOM     32  C   LIG d   1       4.691  -9.108  -4.771  0.00  0.00    -0.063 C 
ATOM     33  H   LIG d   1       3.889  -8.631  -5.334  0.00  0.00     0.023 H 
ATOM     34  H   LIG d   1       5.024  -8.442  -3.975  0.00  0.00     0.023 H 
ATOM     35  H   LIG d   1       5.526  -9.321  -5.439  0.00  0.00     0.023 H 
ENDBRANCH  26  32
ENDBRANCH  23  26
ENDBRANCH  20  23
ENDBRANCH  17  20
ENDBRANCH  11  17
ENDBRANCH   8  11
ENDBRANCH   4   7
ENDBRANCH   1   4
BRANCH   1  36
ATOM     36  C   LIG d   1      10.384  -5.937  -3.012  0.00  0.00     0.013 C 
ATOM     37  H   LIG d   1      11.454  -5.730  -3.046  0.00  0.00     0.046 H 
ATOM     38  H   LIG d   1      10.163  -6.812  -3.622  0.00  0.00     0.046 H 
BRANCH  36  39
ATOM     39  N   LIG d   1       9.646  -4.782  -3.530  0.00  0.00    -0.299 N 
ATOM     40  C   LIG d   1       8.542  -4.968  -4.280  0.00  0.00     0.302 C 
ATOM     41  O   LIG d   1       8.210  -6.092  -4.603  0.00  0.00    -0.253 OA
ATOM     42  N   LIG d   1       7.806  -3.908  -4.671  0.00  0.00    -0.280 N 
ATOM     43  C   LIG d   1       8.249  -2.534  -4.382  0.00  0.00     0.057 C 
ATOM     44  C   LIG d   1       6.538  -4.096  -5.392  0.00  0.00     0.021 C 
ATOM     45  C   LIG d   1       7.052  -1.761  -3.887  0.00  0.00     0.038 A 
ATOM     46  H   LIG d   1       9.024  -2.547  -3.616  0.00  0.00     0.053 H 
ATOM     47  H   LIG d   1       8.634  -2.071  -5.291  0.00  0.00     0.053 H 
ATOM     48  C   LIG d   1       5.785  -2.226  -3.956  0.00  0.00    -0.016 A 
ATOM     49  N   LIG d   1       7.063  -0.518  -3.313  0.00  0.00    -0.356 N 
ATOM     50  C   LIG d   1       5.390  -3.564  -4.525  0.00  0.00    -0.009 C 
ATOM     51  C   LIG d   1       4.929  -1.203  -3.389  0.00  0.00     0.003 A 
ATOM     52  H   LIG d   1       4.494  -3.451  -5.135  0.00  0.00     0.033 H 
ATOM     53  H   LIG d   1       5.192  -4.263  -3.713  0.00  0.00     0.033 H 
ATOM     54  C   LIG d   1       3.546  -1.125  -3.197  0.00  0.00    -0.052 A 
ATOM     55  C   LIG d   1       5.788  -0.144  -2.998  0.00  0.00     0.047 A 
ATOM     56  C   LIG d   1       3.065   0.022  -2.613  0.00  0.00    -0.061 A 
ATOM     57  H   LIG d   1       2.888  -1.929  -3.493  0.00  0.00     0.062 H 
ATOM     58  C   LIG d   1       3.899   1.058  -2.231  0.00  0.00    -0.060 A 
ATOM     59  H   LIG d   1       2.002   0.117  -2.450  0.00  0.00     0.062 H 
ATOM     60  C   LIG d   1       5.271   1.007  -2.410  0.00  0.00    -0.038 A 
ATOM     61  H   LIG d   1       3.464   1.937  -1.778  0.00  0.00     0.062 H 
ATOM     62  H   LIG d   1       5.911   1.823  -2.106  0.00  0.00     0.064 H 
ATOM     63  H   LIG d   1       7.856   0.017  -3.155  0.00  0.00     0.166 HD
ATOM     64  H   LIG d   1       6.569  -3.548  -6.333  0.00  0.00     0.047 H 
ATOM     65  H   LIG d   1       6.384  -5.157  -5.589  0.00  0.00     0.047 H 
ATOM     66  H   LIG d   1       9.954  -3.883  -3.335  0.00  0.00     0.150 HD
ENDBRANCH  36  39
ENDBRANCH   1  36
TORSDOF 12
ENDMDL
MODEL 7
REMARK VINA RESULT:      -6.9      6.421     11.504
REMARK  12 active torsions:
REMARK  status: ('A' for Active; 'I' for Inactive)
REMARK    1  A    between atoms: C_1  and  C_2 
REMARK    2  A    between atoms: C_2  and  C_4 
REMARK    3  A    between atoms: C_2  and  N_10 
REMARK    4  A    between atoms: C_4  and  C_5 
REMARK    5  A    between atoms: C_5  and  C_6 
REMARK    6  A    between atoms: C_6  and  C_7 
REMARK    7  A    between atoms: C_7  and  C_8 
REMARK    8  A    between atoms: C_7  and  C_9 
REMARK       I    between atoms: N_10  and  C_11 
REMARK    9  A    between atoms: C_11  and  C_13 
REMARK   10  A    between atoms: C_13  and  C_14 
REMARK   11  A    between atoms: C_14  and  C_15 
REMARK   12  A    between atoms: C_15  and  N_16 
REMARK       I    between atoms: N_16  and  C_17 
REMARK       I    between atoms: C_17  and  N_19 
ROOT
ATOM      1  C   LIG d   1       9.467  -3.885  -2.742  0.00  0.00    -0.029 C 
ATOM      2  H   LIG d   1       9.831  -2.892  -2.475  0.00  0.00     0.029 H 
ATOM      3  H   LIG d   1       8.818  -4.257  -1.950  0.00  0.00     0.029 H 
ENDROOT
BRANCH   1   4
ATOM      4  C   LIG d   1       8.682  -3.805  -4.053  0.00  0.00     0.025 C 
ATOM      5  H   LIG d   1       8.305  -4.796  -4.310  0.00  0.00     0.036 H 
ATOM      6  H   LIG d   1       9.335  -3.447  -4.847  0.00  0.00     0.036 H 
BRANCH   4   7
ATOM      7  C   LIG d   1       7.524  -2.855  -3.887  0.00  0.00     0.213 C 
ATOM      8  N   LIG d   1       6.378  -3.067  -4.564  0.00  0.00    -0.313 N 
ATOM      9  H   LIG d   1       6.298  -3.830  -5.158  0.00  0.00     0.149 HD
ATOM     10  O   LIG d   1       7.622  -1.901  -3.145  0.00  0.00    -0.276 OA
BRANCH   8  11
ATOM     11  C   LIG d   1       5.251  -2.143  -4.403  0.00  0.00     0.020 C 
ATOM     12  H   LIG d   1       5.610  -1.202  -3.987  0.00  0.00     0.050 H 
BRANCH  11  13
ATOM     13  C   LIG d   1       4.605  -1.885  -5.766  0.00  0.00    -0.047 C 
ATOM     14  H   LIG d   1       4.812  -2.724  -6.431  0.00  0.00     0.025 H 
ATOM     15  H   LIG d   1       3.528  -1.777  -5.642  0.00  0.00     0.025 H 
ATOM     16  H   LIG d   1       5.016  -0.971  -6.195  0.00  0.00     0.025 H 
ENDBRANCH  11  13
BRANCH  11  17
ATOM     17  C   LIG d   1       4.218  -2.760  -3.457  0.00  0.00    -0.035 C 
ATOM     18  H   LIG d   1       3.478  -3.310  -4.038  0.00  0.00     0.028 H 
ATOM     19  H   LIG d   1       4.717  -3.439  -2.768  0.00  0.00     0.028 H 
BRANCH  17  20
ATOM     20  C   LIG d   1       3.524  -1.649  -2.667  0.00  0.00    -0.051 C 
ATOM     21  H   LIG d   1       3.125  -0.907  -3.357  0.00  0.00     0.027 H 
ATOM     22  H   LIG d   1       2.711  -2.075  -2.079  0.00  0.00     0.027 H 
BRANCH  20  23
ATOM     23  C   LIG d   1       4.535  -0.982  -1.730  0.00  0.00    -0.051 C 
ATOM     24  H   LIG d   1       4.294  -1.236  -0.697  0.00  0.00     0.027 H 
ATOM     25  H   LIG d   1       5.538  -1.336  -1.967  0.00  0.00     0.027 H 
BRANCH  23  26
ATOM     26  C   LIG d   1       4.473   0.536  -1.910  0.00  0.00    -0.047 C 
ATOM     27  H   LIG d   1       4.467   1.018  -0.933  0.00  0.00     0.029 H 
BRANCH  26  28
ATOM     28  C   LIG d   1       5.695   1.005  -2.703  0.00  0.00    -0.063 C 
ATOM     29  H   LIG d   1       6.598   0.812  -2.125  0.00  0.00     0.023 H 
ATOM     30  H   LIG d   1       5.745   0.463  -3.647  0.00  0.00     0.023 H 
ATOM     31  H   LIG d   1       5.610   2.073  -2.902  0.00  0.00     0.023 H 
ENDBRANCH  26  28
BRANCH  26  32
ATOM     32  C   LIG d   1       3.198   0.907  -2.670  0.00  0.00    -0.063 C 
ATOM     33  H   LIG d   1       2.635   1.643  -2.097  0.00  0.00     0.023 H 
ATOM     34  H   LIG d   1       3.463   1.326  -3.641  0.00  0.00     0.023 H 
ATOM     35  H   LIG d   1       2.588   0.015  -2.814  0.00  0.00     0.023 H 
ENDBRANCH  26  32
ENDBRANCH  23  26
ENDBRANCH  20  23
ENDBRANCH  17  20
ENDBRANCH  11  17
ENDBRANCH   8  11
ENDBRANCH   4   7
ENDBRANCH   1   4
BRANCH   1  36
ATOM     36  C   LIG d   1      10.655  -4.833  -2.916  0.00  0.00     0.013 C 
ATOM     37  H   LIG d   1      11.302  -4.462  -3.712  0.00  0.00     0.046 H 
ATOM     38  H   LIG d   1      11.219  -4.884  -1.984  0.00  0.00     0.046 H 
BRANCH  36  39
ATOM     39  N   LIG d   1      10.167  -6.169  -3.265  0.00  0.00    -0.299 N 
ATOM     40  C   LIG d   1       9.969  -7.088  -2.299  0.00  0.00     0.302 C 
ATOM     41  O   LIG d   1      10.282  -6.840  -1.151  0.00  0.00    -0.253 OA
ATOM     42  N   LIG d   1       9.423  -8.282  -2.607  0.00  0.00    -0.280 N 
ATOM     43  C   LIG d   1       9.136  -8.644  -4.005  0.00  0.00     0.057 C 
ATOM     44  C   LIG d   1       9.094  -9.254  -1.553  0.00  0.00     0.021 C 
ATOM     45  C   LIG d   1       7.764  -9.267  -4.045  0.00  0.00     0.038 A 
ATOM     46  H   LIG d   1       9.155  -7.751  -4.630  0.00  0.00     0.053 H 
ATOM     47  H   LIG d   1       9.876  -9.361  -4.361  0.00  0.00     0.053 H 
ATOM     48  C   LIG d   1       7.078  -9.630  -2.939  0.00  0.00    -0.016 A 
ATOM     49  N   LIG d   1       7.028  -9.551  -5.165  0.00  0.00    -0.356 N 
ATOM     50  C   LIG d   1       7.576  -9.463  -1.526  0.00  0.00    -0.009 C 
ATOM     51  C   LIG d   1       5.818 -10.188  -3.387  0.00  0.00     0.003 A 
ATOM     52  H   LIG d   1       7.340 -10.356  -0.948  0.00  0.00     0.033 H 
ATOM     53  H   LIG d   1       7.096  -8.597  -1.070  0.00  0.00     0.033 H 
ATOM     54  C   LIG d   1       4.722 -10.722  -2.703  0.00  0.00    -0.052 A 
ATOM     55  C   LIG d   1       5.838 -10.115  -4.804  0.00  0.00     0.047 A 
ATOM     56  C   LIG d   1       3.671 -11.169  -3.468  0.00  0.00    -0.061 A 
ATOM     57  H   LIG d   1       4.702 -10.780  -1.624  0.00  0.00     0.062 H 
ATOM     58  C   LIG d   1       3.686 -11.100  -4.850  0.00  0.00    -0.060 A 
ATOM     59  H   LIG d   1       2.807 -11.588  -2.973  0.00  0.00     0.062 H 
ATOM     60  C   LIG d   1       4.758 -10.577  -5.552  0.00  0.00    -0.038 A 
ATOM     61  H   LIG d   1       2.832 -11.468  -5.399  0.00  0.00     0.062 H 
ATOM     62  H   LIG d   1       4.757 -10.529  -6.632  0.00  0.00     0.064 H 
ATOM     63  H   LIG d   1       7.311  -9.380  -6.076  0.00  0.00     0.166 HD
ATOM     64  H   LIG d   1       9.589 -10.202  -1.764  0.00  0.00     0.047 H 
ATOM     65  H   LIG d   1       9.427  -8.873  -0.588  0.00  0.00     0.047 H 
ATOM     66  H   LIG d   1       9.987  -6.392  -4.192  0.00  0.00     0.150 HD
ENDBRANCH  36  39
ENDBRANCH   1  36
TORSDOF 12
ENDMDL
MODEL 8
REMARK VINA RESULT:      -6.9      5.770      7.816
REMARK  12 active torsions:
REMARK  status: ('A' for Active; 'I' for Inactive)
REMARK    1  A    between atoms: C_1  and  C_2 
REMARK    2  A    between atoms: C_2  and  C_4 
REMARK    3  A    between atoms: C_2  and  N_10 
REMARK    4  A    between atoms: C_4  and  C_5 
REMARK    5  A    between atoms: C_5  and  C_6 
REMARK    6  A    between atoms: C_6  and  C_7 
REMARK    7  A    between atoms: C_7  and  C_8 
REMARK    8  A    between atoms: C_7  and  C_9 
REMARK       I    between atoms: N_10  and  C_11 
REMARK    9  A    between atoms: C_11  and  C_13 
REMARK   10  A    between atoms: C_13  and  C_14 
REMARK   11  A    between atoms: C_14  and  C_15 
REMARK   12  A    between atoms: C_15  and  N_16 
REMARK       I    between atoms: N_16  and  C_17 
REMARK       I    between atoms: C_17  and  N_19 
ROOT
ATOM      1  C   LIG d   1       5.970  -5.261  -9.800  0.00  0.00    -0.029 C 
ATOM      2  H   LIG d   1       6.135  -5.959 -10.620  0.00  0.00     0.029 H 
ATOM      3  H   LIG d   1       5.967  -4.242 -10.186  0.00  0.00     0.029 H 
ENDROOT
BRANCH   1   4
ATOM      4  C   LIG d   1       4.623  -5.560  -9.138  0.00  0.00     0.025 C 
ATOM      5  H   LIG d   1       4.785  -5.842  -8.097  0.00  0.00     0.036 H 
ATOM      6  H   LIG d   1       4.133  -6.378  -9.664  0.00  0.00     0.036 H 
BRANCH   4   7
ATOM      7  C   LIG d   1       3.752  -4.332  -9.195  0.00  0.00     0.213 C 
ATOM      8  N   LIG d   1       4.261  -3.129  -8.864  0.00  0.00    -0.313 N 
ATOM      9  H   LIG d   1       5.188  -3.053  -8.588  0.00  0.00     0.149 HD
ATOM     10  O   LIG d   1       2.592  -4.425  -9.540  0.00  0.00    -0.276 OA
BRANCH   8  11
ATOM     11  C   LIG d   1       3.414  -1.934  -8.920  0.00  0.00     0.020 C 
ATOM     12  H   LIG d   1       2.368  -2.234  -8.972  0.00  0.00     0.050 H 
BRANCH  11  13
ATOM     13  C   LIG d   1       3.640  -1.089  -7.664  0.00  0.00    -0.047 C 
ATOM     14  H   LIG d   1       2.746  -0.502  -7.456  0.00  0.00     0.025 H 
ATOM     15  H   LIG d   1       3.850  -1.744  -6.819  0.00  0.00     0.025 H 
ATOM     16  H   LIG d   1       4.485  -0.419  -7.825  0.00  0.00     0.025 H 
ENDBRANCH  11  13
BRANCH  11  17
ATOM     17  C   LIG d   1       3.774  -1.113 -10.160  0.00  0.00    -0.035 C 
ATOM     18  H   LIG d   1       4.828  -0.839 -10.119  0.00  0.00     0.028 H 
ATOM     19  H   LIG d   1       3.586  -1.705 -11.055  0.00  0.00     0.028 H 
BRANCH  17  20
ATOM     20  C   LIG d   1       2.918   0.155 -10.197  0.00  0.00    -0.051 C 
ATOM     21  H   LIG d   1       2.042  -0.017 -10.822  0.00  0.00     0.027 H 
ATOM     22  H   LIG d   1       2.599   0.408  -9.186  0.00  0.00     0.027 H 
BRANCH  20  23
ATOM     23  C   LIG d   1       3.741   1.308 -10.776  0.00  0.00    -0.051 C 
ATOM     24  H   LIG d   1       4.701   0.929 -11.126  0.00  0.00     0.027 H 
ATOM     25  H   LIG d   1       3.201   1.757 -11.610  0.00  0.00     0.027 H 
BRANCH  23  26
ATOM     26  C   LIG d   1       3.972   2.363  -9.692  0.00  0.00    -0.047 C 
ATOM     27  H   LIG d   1       3.918   3.357 -10.135  0.00  0.00     0.029 H 
BRANCH  26  28
ATOM     28  C   LIG d   1       2.899   2.227  -8.610  0.00  0.00    -0.063 C 
ATOM     29  H   LIG d   1       3.202   2.788  -7.726  0.00  0.00     0.023 H 
ATOM     30  H   LIG d   1       1.954   2.620  -8.984  0.00  0.00     0.023 H 
ATOM     31  H   LIG d   1       2.777   1.176  -8.349  0.00  0.00     0.023 H 
ENDBRANCH  26  28
BRANCH  26  32
ATOM     32  C   LIG d   1       5.355   2.158  -9.068  0.00  0.00    -0.063 C 
ATOM     33  H   LIG d   1       5.344   1.260  -8.450  0.00  0.00     0.023 H 
ATOM     34  H   LIG d   1       6.097   2.047  -9.859  0.00  0.00     0.023 H 
ATOM     35  H   LIG d   1       5.607   3.020  -8.452  0.00  0.00     0.023 H 
ENDBRANCH  26  32
ENDBRANCH  23  26
ENDBRANCH  20  23
ENDBRANCH  17  20
ENDBRANCH  11  17
ENDBRANCH   8  11
ENDBRANCH   4   7
ENDBRANCH   1   4
BRANCH   1  36
ATOM     36  C   LIG d   1       7.090  -5.412  -8.768  0.00  0.00     0.013 C 
ATOM     37  H   LIG d   1       7.441  -6.445  -8.762  0.00  0.00     0.046 H 
ATOM     38  H   LIG d   1       7.915  -4.749  -9.028  0.00  0.00     0.046 H 
BRANCH  36  39
ATOM     39  N   LIG d   1       6.581  -5.061  -7.440  0.00  0.00    -0.299 N 
ATOM     40  C   LIG d   1       7.436  -4.680  -6.470  0.00  0.00     0.302 C 
ATOM     41  O   LIG d   1       8.635  -4.716  -6.668  0.00  0.00    -0.253 OA
ATOM     42  N   LIG d   1       6.961  -4.258  -5.281  0.00  0.00    -0.280 N 
ATOM     43  C   LIG d   1       5.520  -4.308  -4.982  0.00  0.00     0.057 C 
ATOM     44  C   LIG d   1       7.868  -3.732  -4.251  0.00  0.00     0.021 C 
ATOM     45  C   LIG d   1       5.141  -3.002  -4.330  0.00  0.00     0.038 A 
ATOM     46  H   LIG d   1       4.954  -4.439  -5.905  0.00  0.00     0.053 H 
ATOM     47  H   LIG d   1       5.311  -5.133  -4.301  0.00  0.00     0.053 H 
ATOM     48  C   LIG d   1       6.045  -2.096  -3.898  0.00  0.00    -0.016 A 
ATOM     49  N   LIG d   1       3.872  -2.549  -4.085  0.00  0.00    -0.356 N 
ATOM     50  C   LIG d   1       7.540  -2.254  -4.006  0.00  0.00    -0.009 C 
ATOM     51  C   LIG d   1       5.297  -0.990  -3.334  0.00  0.00     0.003 A 
ATOM     52  H   LIG d   1       8.010  -1.924  -3.080  0.00  0.00     0.033 H 
ATOM     53  H   LIG d   1       7.912  -1.655  -4.837  0.00  0.00     0.033 H 
ATOM     54  C   LIG d   1       5.690   0.214  -2.741  0.00  0.00    -0.052 A 
ATOM     55  C   LIG d   1       3.928  -1.329  -3.477  0.00  0.00     0.047 A 
ATOM     56  C   LIG d   1       4.687   1.048  -2.309  0.00  0.00    -0.061 A 
ATOM     57  H   LIG d   1       6.732   0.476  -2.630  0.00  0.00     0.062 H 
ATOM     58  C   LIG d   1       3.349   0.723  -2.446  0.00  0.00    -0.060 A 
ATOM     59  H   LIG d   1       4.954   1.987  -1.846  0.00  0.00     0.062 H 
ATOM     60  C   LIG d   1       2.933  -0.462  -3.028  0.00  0.00    -0.038 A 
ATOM     61  H   LIG d   1       2.604   1.417  -2.087  0.00  0.00     0.062 H 
ATOM     62  H   LIG d   1       1.885  -0.705  -3.130  0.00  0.00     0.064 H 
ATOM     63  H   LIG d   1       3.057  -3.026  -4.308  0.00  0.00     0.166 HD
ATOM     64  H   LIG d   1       7.736  -4.293  -3.326  0.00  0.00     0.047 H 
ATOM     65  H   LIG d   1       8.900  -3.824  -4.591  0.00  0.00     0.047 H 
ATOM     66  H   LIG d   1       5.629  -5.103  -7.259  0.00  0.00     0.150 HD
ENDBRANCH  36  39
ENDBRANCH   1  36
TORSDOF 12
ENDMDL
MODEL 9
REMARK VINA RESULT:      -6.8      1.709      2.526
REMARK  12 active torsions:
REMARK  status: ('A' for Active; 'I' for Inactive)
REMARK    1  A    between atoms: C_1  and  C_2 
REMARK    2  A    between atoms: C_2  and  C_4 
REMARK    3  A    between atoms: C_2  and  N_10 
REMARK    4  A    between atoms: C_4  and  C_5 
REMARK    5  A    between atoms: C_5  and  C_6 
REMARK    6  A    between atoms: C_6  and  C_7 
REMARK    7  A    between atoms: C_7  and  C_8 
REMARK    8  A    between atoms: C_7  and  C_9 
REMARK       I    between atoms: N_10  and  C_11 
REMARK    9  A    between atoms: C_11  and  C_13 
REMARK   10  A    between atoms: C_13  and  C_14 
REMARK   11  A    between atoms: C_14  and  C_15 
REMARK   12  A    between atoms: C_15  and  N_16 
REMARK       I    between atoms: N_16  and  C_17 
REMARK       I    between atoms: C_17  and  N_19 
ROOT
ATOM      1  C   LIG d   1       7.324   0.672  -5.073  0.00  0.00    -0.029 C 
ATOM      2  H   LIG d   1       7.886  -0.260  -5.136  0.00  0.00     0.029 H 
ATOM      3  H   LIG d   1       6.330   0.525  -5.494  0.00  0.00     0.029 H 
ENDROOT
BRANCH   1   4
ATOM      4  C   LIG d   1       7.200   1.095  -3.607  0.00  0.00     0.025 C 
ATOM      5  H   LIG d   1       7.540   2.125  -3.497  0.00  0.00     0.036 H 
ATOM      6  H   LIG d   1       7.812   0.442  -2.987  0.00  0.00     0.036 H 
BRANCH   4   7
ATOM      7  C   LIG d   1       5.759   0.993  -3.176  0.00  0.00     0.213 C 
ATOM      8  N   LIG d   1       4.862   0.372  -3.967  0.00  0.00    -0.313 N 
ATOM      9  H   LIG d   1       5.143  -0.009  -4.813  0.00  0.00     0.149 HD
ATOM     10  O   LIG d   1       5.408   1.469  -2.117  0.00  0.00    -0.276 OA
BRANCH   8  11
ATOM     11  C   LIG d   1       3.462   0.272  -3.547  0.00  0.00     0.020 C 
ATOM     12  H   LIG d   1       3.281   0.956  -2.719  0.00  0.00     0.050 H 
BRANCH  11  13
ATOM     13  C   LIG d   1       2.550   0.639  -4.720  0.00  0.00    -0.047 C 
ATOM     14  H   LIG d   1       2.914   1.553  -5.190  0.00  0.00     0.025 H 
ATOM     15  H   LIG d   1       2.553  -0.170  -5.449  0.00  0.00     0.025 H 
ATOM     16  H   LIG d   1       1.535   0.797  -4.355  0.00  0.00     0.025 H 
ENDBRANCH  11  13
BRANCH  11  17
ATOM     17  C   LIG d   1       3.165  -1.161  -3.099  0.00  0.00    -0.035 C 
ATOM     18  H   LIG d   1       2.586  -1.140  -2.176  0.00  0.00     0.028 H 
ATOM     19  H   LIG d   1       2.595  -1.673  -3.874  0.00  0.00     0.028 H 
BRANCH  17  20
ATOM     20  C   LIG d   1       4.482  -1.903  -2.860  0.00  0.00    -0.051 C 
ATOM     21  H   LIG d   1       5.315  -1.211  -2.979  0.00  0.00     0.027 H 
ATOM     22  H   LIG d   1       4.490  -2.312  -1.849  0.00  0.00     0.027 H 
BRANCH  20  23
ATOM     23  C   LIG d   1       4.616  -3.043  -3.872  0.00  0.00    -0.051 C 
ATOM     24  H   LIG d   1       4.593  -3.999  -3.348  0.00  0.00     0.027 H 
ATOM     25  H   LIG d   1       3.790  -2.997  -4.583  0.00  0.00     0.027 H 
BRANCH  23  26
ATOM     26  C   LIG d   1       5.942  -2.904  -4.623  0.00  0.00    -0.047 C 
ATOM     27  H   LIG d   1       5.874  -2.080  -5.333  0.00  0.00     0.029 H 
BRANCH  26  28
ATOM     28  C   LIG d   1       7.067  -2.625  -3.624  0.00  0.00    -0.063 C 
ATOM     29  H   LIG d   1       6.870  -3.164  -2.697  0.00  0.00     0.023 H 
ATOM     30  H   LIG d   1       8.016  -2.959  -4.043  0.00  0.00     0.023 H 
ATOM     31  H   LIG d   1       7.115  -1.556  -3.421  0.00  0.00     0.023 H 
ENDBRANCH  26  28
BRANCH  26  32
ATOM     32  C   LIG d   1       6.239  -4.203  -5.376  0.00  0.00    -0.063 C 
ATOM     33  H   LIG d   1       5.551  -4.981  -5.046  0.00  0.00     0.023 H 
ATOM     34  H   LIG d   1       6.116  -4.038  -6.447  0.00  0.00     0.023 H 
ATOM     35  H   LIG d   1       7.263  -4.515  -5.172  0.00  0.00     0.023 H 
ENDBRANCH  26  32
ENDBRANCH  23  26
ENDBRANCH  20  23
ENDBRANCH  17  20
ENDBRANCH  11  17
ENDBRANCH   8  11
ENDBRANCH   4   7
ENDBRANCH   1   4
BRANCH   1  36
ATOM     36  C   LIG d   1       8.055   1.762  -5.858  0.00  0.00     0.013 C 
ATOM     37  H   LIG d   1       8.495   1.330  -6.757  0.00  0.00     0.046 H 
ATOM     38  H   LIG d   1       7.349   2.544  -6.139  0.00  0.00     0.046 H 
BRANCH  36  39
ATOM     39  N   LIG d   1       9.113   2.338  -5.024  0.00  0.00    -0.299 N 
ATOM     40  C   LIG d   1       9.769   3.442  -5.434  0.00  0.00     0.302 C 
ATOM     41  O   LIG d   1       9.547   3.907  -6.535  0.00  0.00    -0.253 OA
ATOM     42  N   LIG d   1      10.670   4.031  -4.622  0.00  0.00    -0.280 N 
ATOM     43  C   LIG d   1      11.032   3.425  -3.330  0.00  0.00     0.057 C 
ATOM     44  C   LIG d   1      11.312   5.298  -5.002  0.00  0.00     0.021 C 
ATOM     45  C   LIG d   1      11.055   4.524  -2.298  0.00  0.00     0.038 A 
ATOM     46  H   LIG d   1      10.293   2.673  -3.053  0.00  0.00     0.053 H 
ATOM     47  H   LIG d   1      12.018   2.966  -3.400  0.00  0.00     0.053 H 
ATOM     48  C   LIG d   1      10.994   5.838  -2.608  0.00  0.00    -0.016 A 
ATOM     49  N   LIG d   1      11.138   4.368  -0.940  0.00  0.00    -0.356 N 
ATOM     50  C   LIG d   1      10.892   6.386  -4.008  0.00  0.00    -0.009 C 
ATOM     51  C   LIG d   1      11.046   6.569  -1.357  0.00  0.00     0.003 A 
ATOM     52  H   LIG d   1      11.550   7.249  -4.110  0.00  0.00     0.033 H 
ATOM     53  H   LIG d   1       9.863   6.687  -4.208  0.00  0.00     0.033 H 
ATOM     54  C   LIG d   1      11.022   7.935  -1.058  0.00  0.00    -0.052 A 
ATOM     55  C   LIG d   1      11.137   5.591  -0.334  0.00  0.00     0.047 A 
ATOM     56  C   LIG d   1      11.089   8.279   0.271  0.00  0.00    -0.061 A 
ATOM     57  H   LIG d   1      10.952   8.683  -1.833  0.00  0.00     0.062 H 
ATOM     58  C   LIG d   1      11.178   7.329   1.273  0.00  0.00    -0.060 A 
ATOM     59  H   LIG d   1      11.073   9.325   0.540  0.00  0.00     0.062 H 
ATOM     60  C   LIG d   1      11.205   5.971   1.004  0.00  0.00    -0.038 A 
ATOM     61  H   LIG d   1      11.230   7.658   2.301  0.00  0.00     0.062 H 
ATOM     62  H   LIG d   1      11.275   5.239   1.797  0.00  0.00     0.064 H 
ATOM     63  H   LIG d   1      11.191   3.517  -0.479  0.00  0.00     0.166 HD
ATOM     64  H   LIG d   1      12.395   5.180  -4.978  0.00  0.00     0.047 H 
ATOM     65  H   LIG d   1      10.996   5.581  -6.007  0.00  0.00     0.047 H 
ATOM     66  H   LIG d   1       9.343   1.923  -4.178  0.00  0.00     0.150 HD
ENDBRANCH  36  39
ENDBRANCH   1  36
TORSDOF 12
ENDMDL
