MODEL 1
REMARK VINA RESULT:      -5.8      0.000      0.000
REMARK  4 active torsions:
REMARK  status: ('A' for Active; 'I' for Inactive)
REMARK    1  A    between atoms: C_1  and  C_2 
REMARK    2  A    between atoms: C_5  and  C_12 
REMARK    3  A    between atoms: C_6  and  C_7 
REMARK    4  A    between atoms: C_6  and  C_8 
REMARK       I    between atoms: C_12  and  N_14 
ROOT
ATOM      1  C   LIG d   1       4.654   0.343  -2.965  0.00  0.00     0.032 C 
ATOM      2  C   LIG d   1       3.366   0.748  -3.746  0.00  0.00    -0.039 C 
ATOM      3  C   LIG d   1       3.283  -0.263  -4.912  0.00  0.00    -0.037 C 
ATOM      4  C   LIG d   1       4.535  -1.176  -4.726  0.00  0.00     0.060 C 
ATOM      5  C   LIG d   1       4.633  -1.214  -3.159  0.00  0.00    -0.009 C 
ATOM      6  C   LIG d   1       5.742  -0.245  -5.058  0.00  0.00     0.021 C 
ATOM      7  C   LIG d   1       5.822   0.733  -3.882  0.00  0.00     0.141 C 
ATOM      8  O   LIG d   1       6.615   1.629  -3.716  0.00  0.00    -0.297 OA
ATOM      9  H   LIG d   1       2.489   0.662  -3.104  0.00  0.00     0.028 H 
ATOM     10  H   LIG d   1       3.459   1.765  -4.130  0.00  0.00     0.028 H 
ATOM     11  H   LIG d   1       2.369  -0.852  -4.840  0.00  0.00     0.028 H 
ATOM     12  H   LIG d   1       3.329   0.256  -5.870  0.00  0.00     0.028 H 
ATOM     13  H   LIG d   1       6.662  -0.827  -5.117  0.00  0.00     0.035 H 
ATOM     14  H   LIG d   1       5.566   0.285  -5.993  0.00  0.00     0.035 H 
ENDROOT
BRANCH   4  15
ATOM     15  C   LIG d   1       4.493  -2.508  -5.428  0.00  0.00     0.223 C 
ATOM     16  O   LIG d   1       4.585  -3.534  -4.788  0.00  0.00    -0.275 OA
ATOM     17  N   LIG d   1       4.351  -2.561  -6.768  0.00  0.00    -0.301 N 
ATOM     18  C   LIG d   1       4.295  -3.790  -7.578  0.00  0.00     0.015 C 
ATOM     19  C   LIG d   1       4.235  -1.400  -7.663  0.00  0.00     0.015 C 
ATOM     20  C   LIG d   1       3.531  -3.380  -8.865  0.00  0.00    -0.036 C 
ATOM     21  H   LIG d   1       5.302  -4.129  -7.824  0.00  0.00     0.046 H 
ATOM     22  H   LIG d   1       3.751  -4.570  -7.046  0.00  0.00     0.046 H 
ATOM     23  C   LIG d   1       4.068  -1.943  -9.098  0.00  0.00    -0.036 C 
ATOM     24  H   LIG d   1       2.454  -3.373  -8.698  0.00  0.00     0.028 H 
ATOM     25  H   LIG d   1       3.792  -4.034  -9.696  0.00  0.00     0.028 H 
ATOM     26  H   LIG d   1       3.343  -1.347  -9.653  0.00  0.00     0.028 H 
ATOM     27  H   LIG d   1       5.026  -1.969  -9.615  0.00  0.00     0.028 H 
ATOM     28  H   LIG d   1       3.364  -0.805  -7.387  0.00  0.00     0.046 H 
ATOM     29  H   LIG d   1       5.137  -0.791  -7.600  0.00  0.00     0.046 H 
ENDBRANCH   4  15
BRANCH   5  30
ATOM     30  C   LIG d   1       3.402  -1.858  -2.521  0.00  0.00    -0.058 C 
ATOM     31  H   LIG d   1       3.700  -2.759  -1.985  0.00  0.00     0.024 H 
ATOM     32  H   LIG d   1       2.942  -1.156  -1.826  0.00  0.00     0.024 H 
ATOM     33  H   LIG d   1       2.684  -2.120  -3.300  0.00  0.00     0.024 H 
ENDBRANCH   5  30
BRANCH   5  34
ATOM     34  C   LIG d   1       5.930  -1.870  -2.682  0.00  0.00    -0.058 C 
ATOM     35  H   LIG d   1       6.367  -1.272  -1.881  0.00  0.00     0.024 H 
ATOM     36  H   LIG d   1       5.716  -2.872  -2.312  0.00  0.00     0.024 H 
ATOM     37  H   LIG d   1       6.634  -1.932  -3.513  0.00  0.00     0.024 H 
ENDBRANCH   5  34
BRANCH   1  38
ATOM     38  C   LIG d   1       4.743   0.842  -1.521  0.00  0.00    -0.052 C 
ATOM     39  H   LIG d   1       5.693   0.528  -1.088  0.00  0.00     0.024 H 
ATOM     40  H   LIG d   1       4.678   1.930  -1.508  0.00  0.00     0.024 H 
ATOM     41  H   LIG d   1       3.922   0.421  -0.941  0.00  0.00     0.024 H 
ENDBRANCH   1  38
TORSDOF 4
ENDMDL
MODEL 2
REMARK VINA RESULT:      -5.6      1.135      1.917
REMARK  4 active torsions:
REMARK  status: ('A' for Active; 'I' for Inactive)
REMARK    1  A    between atoms: C_1  and  C_2 
REMARK    2  A    between atoms: C_5  and  C_12 
REMARK    3  A    between atoms: C_6  and  C_7 
REMARK    4  A    between atoms: C_6  and  C_8 
REMARK       I    between atoms: C_12  and  N_14 
ROOT
ATOM      1  C   LIG d   1       4.860   0.067  -3.050  0.00  0.00     0.032 C 
ATOM      2  C   LIG d   1       4.262  -0.885  -1.970  0.00  0.00    -0.039 C 
ATOM      3  C   LIG d   1       3.927  -2.184  -2.738  0.00  0.00    -0.037 C 
ATOM      4  C   LIG d   1       4.348  -1.885  -4.211  0.00  0.00     0.060 C 
ATOM      5  C   LIG d   1       5.598  -0.966  -3.972  0.00  0.00    -0.009 C 
ATOM      6  C   LIG d   1       3.313  -0.825  -4.699  0.00  0.00     0.021 C 
ATOM      7  C   LIG d   1       3.676   0.459  -3.945  0.00  0.00     0.141 C 
ATOM      8  O   LIG d   1       3.139   1.538  -4.018  0.00  0.00    -0.297 OA
ATOM      9  H   LIG d   1       4.997  -1.084  -1.189  0.00  0.00     0.028 H 
ATOM     10  H   LIG d   1       3.358  -0.453  -1.541  0.00  0.00     0.028 H 
ATOM     11  H   LIG d   1       4.501  -3.020  -2.341  0.00  0.00     0.028 H 
ATOM     12  H   LIG d   1       2.858  -2.393  -2.683  0.00  0.00     0.028 H 
ATOM     13  H   LIG d   1       3.415  -0.663  -5.773  0.00  0.00     0.035 H 
ATOM     14  H   LIG d   1       2.300  -1.144  -4.457  0.00  0.00     0.035 H 
ENDROOT
BRANCH   4  15
ATOM     15  C   LIG d   1       4.557  -3.085  -5.096  0.00  0.00     0.223 C 
ATOM     16  O   LIG d   1       4.836  -4.159  -4.607  0.00  0.00    -0.275 OA
ATOM     17  N   LIG d   1       4.433  -2.968  -6.434  0.00  0.00    -0.301 N 
ATOM     18  C   LIG d   1       4.610  -4.055  -7.412  0.00  0.00     0.015 C 
ATOM     19  C   LIG d   1       4.106  -1.730  -7.158  0.00  0.00     0.015 C 
ATOM     20  C   LIG d   1       3.787  -3.609  -8.650  0.00  0.00    -0.036 C 
ATOM     21  H   LIG d   1       5.663  -4.163  -7.673  0.00  0.00     0.046 H 
ATOM     22  H   LIG d   1       4.218  -4.991  -7.014  0.00  0.00     0.046 H 
ATOM     23  C   LIG d   1       4.047  -2.080  -8.659  0.00  0.00    -0.036 C 
ATOM     24  H   LIG d   1       2.727  -3.825  -8.517  0.00  0.00     0.028 H 
ATOM     25  H   LIG d   1       4.168  -4.076  -9.558  0.00  0.00     0.028 H 
ATOM     26  H   LIG d   1       3.226  -1.553  -9.146  0.00  0.00     0.028 H 
ATOM     27  H   LIG d   1       4.995  -1.853  -9.146  0.00  0.00     0.028 H 
ATOM     28  H   LIG d   1       3.138  -1.352  -6.827  0.00  0.00     0.046 H 
ATOM     29  H   LIG d   1       4.878  -0.982  -6.981  0.00  0.00     0.046 H 
ENDBRANCH   4  15
BRANCH   5  30
ATOM     30  C   LIG d   1       6.719  -1.700  -3.234  0.00  0.00    -0.058 C 
ATOM     31  H   LIG d   1       7.173  -2.434  -3.900  0.00  0.00     0.024 H 
ATOM     32  H   LIG d   1       7.474  -0.983  -2.913  0.00  0.00     0.024 H 
ATOM     33  H   LIG d   1       6.307  -2.208  -2.361  0.00  0.00     0.024 H 
ENDBRANCH   5  30
BRANCH   5  34
ATOM     34  C   LIG d   1       6.096  -0.326  -5.270  0.00  0.00    -0.058 C 
ATOM     35  H   LIG d   1       6.656   0.580  -5.036  0.00  0.00     0.024 H 
ATOM     36  H   LIG d   1       6.743  -1.027  -5.796  0.00  0.00     0.024 H 
ATOM     37  H   LIG d   1       5.244  -0.072  -5.900  0.00  0.00     0.024 H 
ENDBRANCH   5  34
BRANCH   1  38
ATOM     38  C   LIG d   1       5.708   1.226  -2.521  0.00  0.00    -0.052 C 
ATOM     39  H   LIG d   1       6.472   1.481  -3.256  0.00  0.00     0.024 H 
ATOM     40  H   LIG d   1       5.071   2.091  -2.343  0.00  0.00     0.024 H 
ATOM     41  H   LIG d   1       6.188   0.929  -1.589  0.00  0.00     0.024 H 
ENDBRANCH   1  38
TORSDOF 4
ENDMDL
MODEL 3
REMARK VINA RESULT:      -5.4      2.692      5.499
REMARK  4 active torsions:
REMARK  status: ('A' for Active; 'I' for Inactive)
REMARK    1  A    between atoms: C_1  and  C_2 
REMARK    2  A    between atoms: C_5  and  C_12 
REMARK    3  A    between atoms: C_6  and  C_7 
REMARK    4  A    between atoms: C_6  and  C_8 
REMARK       I    between atoms: C_12  and  N_14 
ROOT
ATOM      1  C   LIG d   1       4.426   0.191  -9.878  0.00  0.00     0.032 C 
ATOM      2  C   LIG d   1       4.641  -1.348  -9.754  0.00  0.00    -0.039 C 
ATOM      3  C   LIG d   1       4.487  -1.643  -8.244  0.00  0.00    -0.037 C 
ATOM      4  C   LIG d   1       4.202  -0.249  -7.603  0.00  0.00     0.060 C 
ATOM      5  C   LIG d   1       3.365   0.429  -8.746  0.00  0.00    -0.009 C 
ATOM      6  C   LIG d   1       5.548   0.524  -7.748  0.00  0.00     0.021 C 
ATOM      7  C   LIG d   1       5.672   0.827  -9.245  0.00  0.00     0.141 C 
ATOM      8  O   LIG d   1       6.561   1.417  -9.811  0.00  0.00    -0.297 OA
ATOM      9  H   LIG d   1       3.884  -1.886 -10.326  0.00  0.00     0.028 H 
ATOM     10  H   LIG d   1       5.640  -1.621 -10.095  0.00  0.00     0.028 H 
ATOM     11  H   LIG d   1       3.650  -2.319  -8.072  0.00  0.00     0.028 H 
ATOM     12  H   LIG d   1       5.409  -2.065  -7.843  0.00  0.00     0.028 H 
ATOM     13  H   LIG d   1       5.511   1.457  -7.185  0.00  0.00     0.035 H 
ATOM     14  H   LIG d   1       6.379  -0.093  -7.406  0.00  0.00     0.035 H 
ENDROOT
BRANCH   4  15
ATOM     15  C   LIG d   1       3.574  -0.267  -6.234  0.00  0.00     0.223 C 
ATOM     16  O   LIG d   1       2.529   0.317  -6.037  0.00  0.00    -0.275 OA
ATOM     17  N   LIG d   1       4.173  -0.932  -5.225  0.00  0.00    -0.301 N 
ATOM     18  C   LIG d   1       3.671  -1.031  -3.843  0.00  0.00     0.015 C 
ATOM     19  C   LIG d   1       5.439  -1.674  -5.321  0.00  0.00     0.015 C 
ATOM     20  C   LIG d   1       4.308  -2.330  -3.284  0.00  0.00    -0.036 C 
ATOM     21  H   LIG d   1       3.993  -0.167  -3.260  0.00  0.00     0.046 H 
ATOM     22  H   LIG d   1       2.584  -1.109  -3.839  0.00  0.00     0.046 H 
ATOM     23  C   LIG d   1       5.717  -2.288  -3.933  0.00  0.00    -0.036 C 
ATOM     24  H   LIG d   1       3.755  -3.212  -3.608  0.00  0.00     0.028 H 
ATOM     25  H   LIG d   1       4.377  -2.293  -2.197  0.00  0.00     0.028 H 
ATOM     26  H   LIG d   1       6.126  -3.294  -4.032  0.00  0.00     0.028 H 
ATOM     27  H   LIG d   1       6.388  -1.652  -3.357  0.00  0.00     0.028 H 
ATOM     28  H   LIG d   1       5.349  -2.465  -6.066  0.00  0.00     0.046 H 
ATOM     29  H   LIG d   1       6.247  -0.995  -5.595  0.00  0.00     0.046 H 
ENDBRANCH   4  15
BRANCH   5  30
ATOM     30  C   LIG d   1       2.056  -0.313  -9.018  0.00  0.00    -0.058 C 
ATOM     31  H   LIG d   1       1.222   0.386  -8.952  0.00  0.00     0.024 H 
ATOM     32  H   LIG d   1       2.086  -0.752 -10.015  0.00  0.00     0.024 H 
ATOM     33  H   LIG d   1       1.926  -1.104  -8.278  0.00  0.00     0.024 H 
ENDBRANCH   5  30
BRANCH   5  34
ATOM     34  C   LIG d   1       3.131   1.917  -8.481  0.00  0.00    -0.058 C 
ATOM     35  H   LIG d   1       2.203   2.045  -7.922  0.00  0.00     0.024 H 
ATOM     36  H   LIG d   1       3.962   2.318  -7.901  0.00  0.00     0.024 H 
ATOM     37  H   LIG d   1       3.059   2.449  -9.430  0.00  0.00     0.024 H 
ENDBRANCH   5  34
BRANCH   1  38
ATOM     38  C   LIG d   1       4.051   0.702 -11.271  0.00  0.00    -0.052 C 
ATOM     39  H   LIG d   1       4.065   1.792 -11.274  0.00  0.00     0.024 H 
ATOM     40  H   LIG d   1       4.769   0.327 -12.001  0.00  0.00     0.024 H 
ATOM     41  H   LIG d   1       3.052   0.351 -11.530  0.00  0.00     0.024 H 
ENDBRANCH   1  38
TORSDOF 4
ENDMDL
MODEL 4
REMARK VINA RESULT:      -5.3      2.125      2.912
REMARK  4 active torsions:
REMARK  status: ('A' for Active; 'I' for Inactive)
REMARK    1  A    between atoms: C_1  and  C_2 
REMARK    2  A    between atoms: C_5  and  C_12 
REMARK    3  A    between atoms: C_6  and  C_7 
REMARK    4  A    between atoms: C_6  and  C_8 
REMARK       I    between atoms: C_12  and  N_14 
ROOT
ATOM      1  C   LIG d   1       4.528  -0.304  -2.944  0.00  0.00     0.032 C 
ATOM      2  C   LIG d   1       3.892  -1.660  -2.513  0.00  0.00    -0.039 C 
ATOM      3  C   LIG d   1       4.299  -2.654  -3.626  0.00  0.00    -0.037 C 
ATOM      4  C   LIG d   1       5.136  -1.796  -4.625  0.00  0.00     0.060 C 
ATOM      5  C   LIG d   1       5.846  -0.807  -3.633  0.00  0.00    -0.009 C 
ATOM      6  C   LIG d   1       4.093  -0.835  -5.276  0.00  0.00     0.021 C 
ATOM      7  C   LIG d   1       3.720   0.153  -4.166  0.00  0.00     0.141 C 
ATOM      8  O   LIG d   1       2.945   1.078  -4.227  0.00  0.00    -0.297 OA
ATOM      9  H   LIG d   1       4.293  -1.981  -1.552  0.00  0.00     0.028 H 
ATOM     10  H   LIG d   1       2.806  -1.571  -2.462  0.00  0.00     0.028 H 
ATOM     11  H   LIG d   1       4.906  -3.458  -3.214  0.00  0.00     0.028 H 
ATOM     12  H   LIG d   1       3.414  -3.056  -4.119  0.00  0.00     0.028 H 
ATOM     13  H   LIG d   1       4.543  -0.299  -6.112  0.00  0.00     0.035 H 
ATOM     14  H   LIG d   1       3.219  -1.394  -5.609  0.00  0.00     0.035 H 
ENDROOT
BRANCH   4  15
ATOM     15  C   LIG d   1       6.032  -2.560  -5.565  0.00  0.00     0.223 C 
ATOM     16  O   LIG d   1       6.967  -2.004  -6.099  0.00  0.00    -0.275 OA
ATOM     17  N   LIG d   1       5.795  -3.865  -5.811  0.00  0.00    -0.301 N 
ATOM     18  C   LIG d   1       6.587  -4.728  -6.705  0.00  0.00     0.015 C 
ATOM     19  C   LIG d   1       4.697  -4.659  -5.240  0.00  0.00     0.015 C 
ATOM     20  C   LIG d   1       6.336  -6.168  -6.186  0.00  0.00    -0.036 C 
ATOM     21  H   LIG d   1       6.242  -4.628  -7.734  0.00  0.00     0.046 H 
ATOM     22  H   LIG d   1       7.646  -4.478  -6.632  0.00  0.00     0.046 H 
ATOM     23  C   LIG d   1       4.839  -6.095  -5.784  0.00  0.00    -0.036 C 
ATOM     24  H   LIG d   1       6.962  -6.391  -5.321  0.00  0.00     0.028 H 
ATOM     25  H   LIG d   1       6.493  -6.900  -6.978  0.00  0.00     0.028 H 
ATOM     26  H   LIG d   1       4.612  -6.826  -5.007  0.00  0.00     0.028 H 
ATOM     27  H   LIG d   1       4.199  -6.244  -6.653  0.00  0.00     0.028 H 
ATOM     28  H   LIG d   1       4.772  -4.665  -4.152  0.00  0.00     0.046 H 
ATOM     29  H   LIG d   1       3.738  -4.239  -5.544  0.00  0.00     0.046 H 
ENDBRANCH   4  15
BRANCH   5  30
ATOM     30  C   LIG d   1       6.766  -1.537  -2.653  0.00  0.00    -0.058 C 
ATOM     31  H   LIG d   1       6.939  -0.908  -1.780  0.00  0.00     0.024 H 
ATOM     32  H   LIG d   1       6.299  -2.471  -2.342  0.00  0.00     0.024 H 
ATOM     33  H   LIG d   1       7.718  -1.752  -3.141  0.00  0.00     0.024 H 
ENDBRANCH   5  30
BRANCH   5  34
ATOM     34  C   LIG d   1       6.577   0.318  -4.368  0.00  0.00    -0.058 C 
ATOM     35  H   LIG d   1       7.498  -0.070  -4.804  0.00  0.00     0.024 H 
ATOM     36  H   LIG d   1       5.938   0.710  -5.159  0.00  0.00     0.024 H 
ATOM     37  H   LIG d   1       6.816   1.116  -3.665  0.00  0.00     0.024 H 
ENDBRANCH   5  34
BRANCH   1  38
ATOM     38  C   LIG d   1       4.702   0.734  -1.833  0.00  0.00    -0.052 C 
ATOM     39  H   LIG d   1       5.668   1.228  -1.946  0.00  0.00     0.024 H 
ATOM     40  H   LIG d   1       3.905   1.474  -1.899  0.00  0.00     0.024 H 
ATOM     41  H   LIG d   1       4.660   0.238  -0.864  0.00  0.00     0.024 H 
ENDBRANCH   1  38
TORSDOF 4
ENDMDL
MODEL 5
REMARK VINA RESULT:      -5.3      2.645      5.680
REMARK  4 active torsions:
REMARK  status: ('A' for Active; 'I' for Inactive)
REMARK    1  A    between atoms: C_1  and  C_2 
REMARK    2  A    between atoms: C_5  and  C_12 
REMARK    3  A    between atoms: C_6  and  C_7 
REMARK    4  A    between atoms: C_6  and  C_8 
REMARK       I    between atoms: C_12  and  N_14 
ROOT
ATOM      1  C   LIG d   1       3.807  -0.003 -10.013  0.00  0.00     0.032 C 
ATOM      2  C   LIG d   1       2.278  -0.293  -9.933  0.00  0.00    -0.039 C 
ATOM      3  C   LIG d   1       1.991  -0.460  -8.422  0.00  0.00    -0.037 C 
ATOM      4  C   LIG d   1       3.380  -0.263  -7.739  0.00  0.00     0.060 C 
ATOM      5  C   LIG d   1       4.019   0.812  -8.689  0.00  0.00    -0.009 C 
ATOM      6  C   LIG d   1       4.198  -1.524  -8.157  0.00  0.00     0.021 C 
ATOM      7  C   LIG d   1       4.491  -1.329  -9.648  0.00  0.00     0.141 C 
ATOM      8  O   LIG d   1       5.106  -2.062 -10.384  0.00  0.00    -0.297 OA
ATOM      9  H   LIG d   1       1.709   0.545 -10.337  0.00  0.00     0.028 H 
ATOM     10  H   LIG d   1       2.036  -1.211 -10.469  0.00  0.00     0.028 H 
ATOM     11  H   LIG d   1       1.289   0.300  -8.083  0.00  0.00     0.028 H 
ATOM     12  H   LIG d   1       1.605  -1.459  -8.217  0.00  0.00     0.028 H 
ATOM     13  H   LIG d   1       5.134  -1.569  -7.600  0.00  0.00     0.035 H 
ATOM     14  H   LIG d   1       3.612  -2.427  -7.991  0.00  0.00     0.035 H 
ENDROOT
BRANCH   4  15
ATOM     15  C   LIG d   1       3.353   0.072  -6.270  0.00  0.00     0.223 C 
ATOM     16  O   LIG d   1       2.793   1.077  -5.887  0.00  0.00    -0.275 OA
ATOM     17  N   LIG d   1       3.951  -0.747  -5.381  0.00  0.00    -0.301 N 
ATOM     18  C   LIG d   1       4.000  -0.541  -3.922  0.00  0.00     0.015 C 
ATOM     19  C   LIG d   1       4.668  -1.988  -5.707  0.00  0.00     0.015 C 
ATOM     20  C   LIG d   1       4.205  -1.960  -3.331  0.00  0.00    -0.036 C 
ATOM     21  H   LIG d   1       4.837   0.106  -3.659  0.00  0.00     0.046 H 
ATOM     22  H   LIG d   1       3.062  -0.114  -3.568  0.00  0.00     0.046 H 
ATOM     23  C   LIG d   1       5.158  -2.597  -4.376  0.00  0.00    -0.036 C 
ATOM     24  H   LIG d   1       3.262  -2.506  -3.279  0.00  0.00     0.028 H 
ATOM     25  H   LIG d   1       4.678  -1.909  -2.351  0.00  0.00     0.028 H 
ATOM     26  H   LIG d   1       5.051  -3.681  -4.386  0.00  0.00     0.028 H 
ATOM     27  H   LIG d   1       6.191  -2.312  -4.179  0.00  0.00     0.028 H 
ATOM     28  H   LIG d   1       3.994  -2.684  -6.207  0.00  0.00     0.046 H 
ATOM     29  H   LIG d   1       5.520  -1.767  -6.350  0.00  0.00     0.046 H 
ENDBRANCH   4  15
BRANCH   5  30
ATOM     30  C   LIG d   1       3.230   2.123  -8.687  0.00  0.00    -0.058 C 
ATOM     31  H   LIG d   1       3.029   2.424  -7.659  0.00  0.00     0.024 H 
ATOM     32  H   LIG d   1       3.810   2.897  -9.187  0.00  0.00     0.024 H 
ATOM     33  H   LIG d   1       2.286   1.979  -9.214  0.00  0.00     0.024 H 
ENDBRANCH   5  30
BRANCH   5  34
ATOM     34  C   LIG d   1       5.501   1.040  -8.384  0.00  0.00    -0.058 C 
ATOM     35  H   LIG d   1       5.954   1.617  -9.191  0.00  0.00     0.024 H 
ATOM     36  H   LIG d   1       5.599   1.587  -7.447  0.00  0.00     0.024 H 
ATOM     37  H   LIG d   1       6.006   0.078  -8.298  0.00  0.00     0.024 H 
ENDBRANCH   5  34
BRANCH   1  38
ATOM     38  C   LIG d   1       4.293   0.665 -11.301  0.00  0.00    -0.052 C 
ATOM     39  H   LIG d   1       5.010   0.013 -11.800  0.00  0.00     0.024 H 
ATOM     40  H   LIG d   1       3.444   0.843 -11.960  0.00  0.00     0.024 H 
ATOM     41  H   LIG d   1       4.772   1.614 -11.059  0.00  0.00     0.024 H 
ENDBRANCH   1  38
TORSDOF 4
ENDMDL
MODEL 6
REMARK VINA RESULT:      -5.2      1.652      3.541
REMARK  4 active torsions:
REMARK  status: ('A' for Active; 'I' for Inactive)
REMARK    1  A    between atoms: C_1  and  C_2 
REMARK    2  A    between atoms: C_5  and  C_12 
REMARK    3  A    between atoms: C_6  and  C_7 
REMARK    4  A    between atoms: C_6  and  C_8 
REMARK       I    between atoms: C_12  and  N_14 
ROOT
ATOM      1  C   LIG d   1       5.203  -1.634  -3.222  0.00  0.00     0.032 C 
ATOM      2  C   LIG d   1       6.742  -1.739  -3.000  0.00  0.00    -0.039 C 
ATOM      3  C   LIG d   1       7.363  -1.153  -4.289  0.00  0.00    -0.037 C 
ATOM      4  C   LIG d   1       6.136  -0.760  -5.168  0.00  0.00     0.060 C 
ATOM      5  C   LIG d   1       5.119  -0.309  -4.059  0.00  0.00    -0.009 C 
ATOM      6  C   LIG d   1       5.506  -2.125  -5.584  0.00  0.00     0.021 C 
ATOM      7  C   LIG d   1       4.877  -2.678  -4.300  0.00  0.00     0.141 C 
ATOM      8  O   LIG d   1       4.275  -3.715  -4.157  0.00  0.00    -0.297 OA
ATOM      9  H   LIG d   1       7.043  -1.151  -2.132  0.00  0.00     0.028 H 
ATOM     10  H   LIG d   1       7.038  -2.781  -2.875  0.00  0.00     0.028 H 
ATOM     11  H   LIG d   1       7.962  -0.274  -4.057  0.00  0.00     0.028 H 
ATOM     12  H   LIG d   1       7.968  -1.906  -4.795  0.00  0.00     0.028 H 
ATOM     13  H   LIG d   1       4.733  -1.972  -6.337  0.00  0.00     0.035 H 
ATOM     14  H   LIG d   1       6.276  -2.798  -5.961  0.00  0.00     0.035 H 
ENDROOT
BRANCH   4  15
ATOM     15  C   LIG d   1       6.403   0.228  -6.274  0.00  0.00     0.223 C 
ATOM     16  O   LIG d   1       7.210   1.118  -6.110  0.00  0.00    -0.275 OA
ATOM     17  N   LIG d   1       5.745   0.123  -7.446  0.00  0.00    -0.301 N 
ATOM     18  C   LIG d   1       5.909   1.017  -8.606  0.00  0.00     0.015 C 
ATOM     19  C   LIG d   1       4.740  -0.898  -7.776  0.00  0.00     0.015 C 
ATOM     20  C   LIG d   1       5.466   0.165  -9.825  0.00  0.00    -0.036 C 
ATOM     21  H   LIG d   1       5.271   1.895  -8.502  0.00  0.00     0.046 H 
ATOM     22  H   LIG d   1       6.952   1.315  -8.711  0.00  0.00     0.046 H 
ATOM     23  C   LIG d   1       4.283  -0.640  -9.226  0.00  0.00    -0.036 C 
ATOM     24  H   LIG d   1       6.265  -0.500 -10.153  0.00  0.00     0.028 H 
ATOM     25  H   LIG d   1       5.131   0.802 -10.643  0.00  0.00     0.028 H 
ATOM     26  H   LIG d   1       4.147  -1.580  -9.761  0.00  0.00     0.028 H 
ATOM     27  H   LIG d   1       3.367  -0.050  -9.243  0.00  0.00     0.028 H 
ATOM     28  H   LIG d   1       5.182  -1.892  -7.698  0.00  0.00     0.046 H 
ATOM     29  H   LIG d   1       3.890  -0.815  -7.098  0.00  0.00     0.046 H 
ENDBRANCH   4  15
BRANCH   5  30
ATOM     30  C   LIG d   1       5.625   0.901  -3.273  0.00  0.00    -0.058 C 
ATOM     31  H   LIG d   1       5.269   1.817  -3.747  0.00  0.00     0.024 H 
ATOM     32  H   LIG d   1       5.253   0.853  -2.250  0.00  0.00     0.024 H 
ATOM     33  H   LIG d   1       6.715   0.899  -3.264  0.00  0.00     0.024 H 
ENDBRANCH   5  30
BRANCH   5  34
ATOM     34  C   LIG d   1       3.718  -0.074  -4.626  0.00  0.00    -0.058 C 
ATOM     35  H   LIG d   1       3.504   0.995  -4.636  0.00  0.00     0.024 H 
ATOM     36  H   LIG d   1       3.667  -0.464  -5.643  0.00  0.00     0.024 H 
ATOM     37  H   LIG d   1       2.983  -0.586  -4.003  0.00  0.00     0.024 H 
ENDBRANCH   5  34
BRANCH   1  38
ATOM     38  C   LIG d   1       4.341  -1.690  -1.959  0.00  0.00    -0.052 C 
ATOM     39  H   LIG d   1       3.338  -2.030  -2.219  0.00  0.00     0.024 H 
ATOM     40  H   LIG d   1       4.787  -2.382  -1.245  0.00  0.00     0.024 H 
ATOM     41  H   LIG d   1       4.283  -0.696  -1.516  0.00  0.00     0.024 H 
ENDBRANCH   1  38
TORSDOF 4
ENDMDL
MODEL 7
REMARK VINA RESULT:      -5.2      2.110      3.224
REMARK  4 active torsions:
REMARK  status: ('A' for Active; 'I' for Inactive)
REMARK    1  A    between atoms: C_1  and  C_2 
REMARK    2  A    between atoms: C_5  and  C_12 
REMARK    3  A    between atoms: C_6  and  C_7 
REMARK    4  A    between atoms: C_6  and  C_8 
REMARK       I    between atoms: C_12  and  N_14 
ROOT
ATOM      1  C   LIG d   1       4.382  -1.444  -3.061  0.00  0.00     0.032 C 
ATOM      2  C   LIG d   1       4.478  -2.765  -3.883  0.00  0.00    -0.039 C 
ATOM      3  C   LIG d   1       4.667  -2.301  -5.346  0.00  0.00    -0.037 C 
ATOM      4  C   LIG d   1       4.659  -0.743  -5.264  0.00  0.00     0.060 C 
ATOM      5  C   LIG d   1       5.358  -0.523  -3.875  0.00  0.00    -0.009 C 
ATOM      6  C   LIG d   1       3.187  -0.385  -4.894  0.00  0.00     0.021 C 
ATOM      7  C   LIG d   1       3.025  -0.830  -3.437  0.00  0.00     0.141 C 
ATOM      8  O   LIG d   1       2.044  -0.740  -2.738  0.00  0.00    -0.297 OA
ATOM      9  H   LIG d   1       5.334  -3.355  -3.557  0.00  0.00     0.028 H 
ATOM     10  H   LIG d   1       3.558  -3.342  -3.783  0.00  0.00     0.028 H 
ATOM     11  H   LIG d   1       5.620  -2.656  -5.737  0.00  0.00     0.028 H 
ATOM     12  H   LIG d   1       3.843  -2.654  -5.966  0.00  0.00     0.028 H 
ATOM     13  H   LIG d   1       3.028   0.692  -4.970  0.00  0.00     0.035 H 
ATOM     14  H   LIG d   1       2.492  -0.918  -5.542  0.00  0.00     0.035 H 
ENDROOT
BRANCH   4  15
ATOM     15  C   LIG d   1       5.259  -0.015  -6.439  0.00  0.00     0.223 C 
ATOM     16  O   LIG d   1       6.426   0.314  -6.417  0.00  0.00    -0.275 OA
ATOM     17  N   LIG d   1       4.499   0.270  -7.516  0.00  0.00    -0.301 N 
ATOM     18  C   LIG d   1       4.955   0.973  -8.727  0.00  0.00     0.015 C 
ATOM     19  C   LIG d   1       3.075  -0.063  -7.672  0.00  0.00     0.015 C 
ATOM     20  C   LIG d   1       3.980   0.512  -9.842  0.00  0.00    -0.036 C 
ATOM     21  H   LIG d   1       4.890   2.053  -8.587  0.00  0.00     0.046 H 
ATOM     22  H   LIG d   1       5.976   0.682  -8.973  0.00  0.00     0.046 H 
ATOM     23  C   LIG d   1       2.638   0.433  -9.066  0.00  0.00    -0.036 C 
ATOM     24  H   LIG d   1       4.262  -0.466 -10.234  0.00  0.00     0.028 H 
ATOM     25  H   LIG d   1       3.925   1.250 -10.641  0.00  0.00     0.028 H 
ATOM     26  H   LIG d   1       1.963  -0.283  -9.535  0.00  0.00     0.028 H 
ATOM     27  H   LIG d   1       2.174   1.416  -8.998  0.00  0.00     0.028 H 
ATOM     28  H   LIG d   1       2.938  -1.143  -7.602  0.00  0.00     0.046 H 
ATOM     29  H   LIG d   1       2.490   0.437  -6.900  0.00  0.00     0.046 H 
ENDBRANCH   4  15
BRANCH   5  30
ATOM     30  C   LIG d   1       6.793  -1.052  -3.863  0.00  0.00    -0.058 C 
ATOM     31  H   LIG d   1       7.148  -1.162  -4.888  0.00  0.00     0.024 H 
ATOM     32  H   LIG d   1       7.434  -0.352  -3.329  0.00  0.00     0.024 H 
ATOM     33  H   LIG d   1       6.819  -2.021  -3.364  0.00  0.00     0.024 H 
ENDBRANCH   5  30
BRANCH   5  34
ATOM     34  C   LIG d   1       5.286   0.936  -3.421  0.00  0.00    -0.058 C 
ATOM     35  H   LIG d   1       4.482   1.444  -3.955  0.00  0.00     0.024 H 
ATOM     36  H   LIG d   1       5.090   0.974  -2.350  0.00  0.00     0.024 H 
ATOM     37  H   LIG d   1       6.233   1.431  -3.636  0.00  0.00     0.024 H 
ENDBRANCH   5  34
BRANCH   1  38
ATOM     38  C   LIG d   1       4.665  -1.568  -1.562  0.00  0.00    -0.052 C 
ATOM     39  H   LIG d   1       5.694  -1.898  -1.414  0.00  0.00     0.024 H 
ATOM     40  H   LIG d   1       4.520  -0.600  -1.083  0.00  0.00     0.024 H 
ATOM     41  H   LIG d   1       3.984  -2.297  -1.124  0.00  0.00     0.024 H 
ENDBRANCH   1  38
TORSDOF 4
ENDMDL
MODEL 8
REMARK VINA RESULT:      -5.2      2.484      4.852
REMARK  4 active torsions:
REMARK  status: ('A' for Active; 'I' for Inactive)
REMARK    1  A    between atoms: C_1  and  C_2 
REMARK    2  A    between atoms: C_5  and  C_12 
REMARK    3  A    between atoms: C_6  and  C_7 
REMARK    4  A    between atoms: C_6  and  C_8 
REMARK       I    between atoms: C_12  and  N_14 
ROOT
ATOM      1  C   LIG d   1       5.015  -1.854  -3.379  0.00  0.00     0.032 C 
ATOM      2  C   LIG d   1       6.503  -2.008  -2.942  0.00  0.00    -0.039 C 
ATOM      3  C   LIG d   1       7.314  -1.340  -4.077  0.00  0.00    -0.037 C 
ATOM      4  C   LIG d   1       6.234  -0.854  -5.093  0.00  0.00     0.060 C 
ATOM      5  C   LIG d   1       5.069  -0.467  -4.113  0.00  0.00    -0.009 C 
ATOM      6  C   LIG d   1       5.659  -2.169  -5.702  0.00  0.00     0.021 C 
ATOM      7  C   LIG d   1       4.842  -2.805  -4.572  0.00  0.00     0.141 C 
ATOM      8  O   LIG d   1       4.214  -3.836  -4.601  0.00  0.00    -0.297 OA
ATOM      9  H   LIG d   1       6.678  -1.495  -1.997  0.00  0.00     0.028 H 
ATOM     10  H   LIG d   1       6.767  -3.063  -2.858  0.00  0.00     0.028 H 
ATOM     11  H   LIG d   1       7.881  -0.493  -3.691  0.00  0.00     0.028 H 
ATOM     12  H   LIG d   1       7.980  -2.064  -4.547  0.00  0.00     0.028 H 
ATOM     13  H   LIG d   1       5.007  -1.942  -6.546  0.00  0.00     0.035 H 
ATOM     14  H   LIG d   1       6.469  -2.828  -6.014  0.00  0.00     0.035 H 
ENDROOT
BRANCH   4  15
ATOM     15  C   LIG d   1       6.672   0.209  -6.066  0.00  0.00     0.223 C 
ATOM     16  O   LIG d   1       6.023   0.417  -7.069  0.00  0.00    -0.275 OA
ATOM     17  N   LIG d   1       7.784   0.931  -5.822  0.00  0.00    -0.301 N 
ATOM     18  C   LIG d   1       8.324   1.996  -6.686  0.00  0.00     0.015 C 
ATOM     19  C   LIG d   1       8.664   0.780  -4.654  0.00  0.00     0.015 C 
ATOM     20  C   LIG d   1       9.163   2.888  -5.734  0.00  0.00    -0.036 C 
ATOM     21  H   LIG d   1       8.956   1.569  -7.465  0.00  0.00     0.046 H 
ATOM     22  H   LIG d   1       7.512   2.573  -7.128  0.00  0.00     0.046 H 
ATOM     23  C   LIG d   1       9.788   1.829  -4.788  0.00  0.00    -0.036 C 
ATOM     24  H   LIG d   1       8.529   3.580  -5.180  0.00  0.00     0.028 H 
ATOM     25  H   LIG d   1       9.936   3.425  -6.284  0.00  0.00     0.028 H 
ATOM     26  H   LIG d   1      10.023   2.268  -3.819  0.00  0.00     0.028 H 
ATOM     27  H   LIG d   1      10.676   1.387  -5.238  0.00  0.00     0.028 H 
ATOM     28  H   LIG d   1       8.098   0.958  -3.739  0.00  0.00     0.046 H 
ATOM     29  H   LIG d   1       9.091  -0.223  -4.639  0.00  0.00     0.046 H 
ENDBRANCH   4  15
BRANCH   5  30
ATOM     30  C   LIG d   1       5.466   0.669  -3.169  0.00  0.00    -0.058 C 
ATOM     31  H   LIG d   1       5.310   0.355  -2.136  0.00  0.00     0.024 H 
ATOM     32  H   LIG d   1       6.515   0.918  -3.319  0.00  0.00     0.024 H 
ATOM     33  H   LIG d   1       4.851   1.546  -3.378  0.00  0.00     0.024 H 
ENDBRANCH   5  30
BRANCH   5  34
ATOM     34  C   LIG d   1       3.770  -0.159  -4.859  0.00  0.00    -0.058 C 
ATOM     35  H   LIG d   1       3.028  -0.925  -4.629  0.00  0.00     0.024 H 
ATOM     36  H   LIG d   1       3.394   0.815  -4.548  0.00  0.00     0.024 H 
ATOM     37  H   LIG d   1       3.960  -0.151  -5.932  0.00  0.00     0.024 H 
ENDBRANCH   5  34
BRANCH   1  38
ATOM     38  C   LIG d   1       3.975  -1.986  -2.264  0.00  0.00    -0.052 C 
ATOM     39  H   LIG d   1       3.110  -2.533  -2.639  0.00  0.00     0.024 H 
ATOM     40  H   LIG d   1       4.411  -2.525  -1.423  0.00  0.00     0.024 H 
ATOM     41  H   LIG d   1       3.664  -0.994  -1.939  0.00  0.00     0.024 H 
ENDBRANCH   1  38
TORSDOF 4
ENDMDL
MODEL 9
REMARK VINA RESULT:      -5.0      2.605      3.739
REMARK  4 active torsions:
REMARK  status: ('A' for Active; 'I' for Inactive)
REMARK    1  A    between atoms: C_1  and  C_2 
REMARK    2  A    between atoms: C_5  and  C_12 
REMARK    3  A    between atoms: C_6  and  C_7 
REMARK    4  A    between atoms: C_6  and  C_8 
REMARK       I    between atoms: C_12  and  N_14 
ROOT
ATOM      1  C   LIG d   1       4.520  -1.548  -3.311  0.00  0.00     0.032 C 
ATOM      2  C   LIG d   1       4.630  -2.894  -4.089  0.00  0.00    -0.039 C 
ATOM      3  C   LIG d   1       5.322  -2.520  -5.420  0.00  0.00    -0.037 C 
ATOM      4  C   LIG d   1       5.555  -0.980  -5.318  0.00  0.00     0.060 C 
ATOM      5  C   LIG d   1       5.835  -0.832  -3.780  0.00  0.00    -0.009 C 
ATOM      6  C   LIG d   1       4.122  -0.368  -5.399  0.00  0.00     0.021 C 
ATOM      7  C   LIG d   1       3.461  -0.730  -4.065  0.00  0.00     0.141 C 
ATOM      8  O   LIG d   1       2.347  -0.452  -3.691  0.00  0.00    -0.297 OA
ATOM      9  H   LIG d   1       5.237  -3.607  -3.532  0.00  0.00     0.028 H 
ATOM     10  H   LIG d   1       3.638  -3.305  -4.279  0.00  0.00     0.028 H 
ATOM     11  H   LIG d   1       6.273  -3.043  -5.514  0.00  0.00     0.028 H 
ATOM     12  H   LIG d   1       4.673  -2.751  -6.264  0.00  0.00     0.028 H 
ATOM     13  H   LIG d   1       4.179   0.716  -5.501  0.00  0.00     0.035 H 
ATOM     14  H   LIG d   1       3.572  -0.800  -6.235  0.00  0.00     0.035 H 
ENDROOT
BRANCH   4  15
ATOM     15  C   LIG d   1       6.592  -0.404  -6.247  0.00  0.00     0.223 C 
ATOM     16  O   LIG d   1       6.580   0.779  -6.509  0.00  0.00    -0.275 OA
ATOM     17  N   LIG d   1       7.534  -1.204  -6.786  0.00  0.00    -0.301 N 
ATOM     18  C   LIG d   1       8.602  -0.775  -7.706  0.00  0.00     0.015 C 
ATOM     19  C   LIG d   1       7.660  -2.652  -6.559  0.00  0.00     0.015 C 
ATOM     20  C   LIG d   1       9.720  -1.836  -7.534  0.00  0.00    -0.036 C 
ATOM     21  H   LIG d   1       8.238  -0.768  -8.733  0.00  0.00     0.046 H 
ATOM     22  H   LIG d   1       8.970   0.212  -7.425  0.00  0.00     0.046 H 
ATOM     23  C   LIG d   1       8.890  -3.135  -7.356  0.00  0.00    -0.036 C 
ATOM     24  H   LIG d   1      10.323  -1.634  -6.648  0.00  0.00     0.028 H 
ATOM     25  H   LIG d   1      10.345  -1.891  -8.425  0.00  0.00     0.028 H 
ATOM     26  H   LIG d   1       9.451  -3.876  -6.787  0.00  0.00     0.028 H 
ATOM     27  H   LIG d   1       8.590  -3.535  -8.324  0.00  0.00     0.028 H 
ATOM     28  H   LIG d   1       7.806  -2.849  -5.497  0.00  0.00     0.046 H 
ATOM     29  H   LIG d   1       6.764  -3.162  -6.913  0.00  0.00     0.046 H 
ENDBRANCH   4  15
BRANCH   5  30
ATOM     30  C   LIG d   1       7.090  -1.593  -3.348  0.00  0.00    -0.058 C 
ATOM     31  H   LIG d   1       6.975  -2.650  -3.589  0.00  0.00     0.024 H 
ATOM     32  H   LIG d   1       7.957  -1.192  -3.872  0.00  0.00     0.024 H 
ATOM     33  H   LIG d   1       7.231  -1.479  -2.272  0.00  0.00     0.024 H 
ENDBRANCH   5  30
BRANCH   5  34
ATOM     34  C   LIG d   1       5.880   0.634  -3.343  0.00  0.00    -0.058 C 
ATOM     35  H   LIG d   1       6.820   1.081  -3.668  0.00  0.00     0.024 H 
ATOM     36  H   LIG d   1       5.047   1.173  -3.793  0.00  0.00     0.024 H 
ATOM     37  H   LIG d   1       5.808   0.692  -2.257  0.00  0.00     0.024 H 
ENDBRANCH   5  34
BRANCH   1  38
ATOM     38  C   LIG d   1       4.318  -1.666  -1.799  0.00  0.00    -0.052 C 
ATOM     39  H   LIG d   1       5.099  -2.300  -1.377  0.00  0.00     0.024 H 
ATOM     40  H   LIG d   1       4.371  -0.675  -1.346  0.00  0.00     0.024 H 
ATOM     41  H   LIG d   1       3.343  -2.107  -1.596  0.00  0.00     0.024 H 
ENDBRANCH   1  38
TORSDOF 4
ENDMDL
MODEL 10
REMARK VINA RESULT:      -4.9      2.145      5.441
REMARK  4 active torsions:
REMARK  status: ('A' for Active; 'I' for Inactive)
REMARK    1  A    between atoms: C_1  and  C_2 
REMARK    2  A    between atoms: C_5  and  C_12 
REMARK    3  A    between atoms: C_6  and  C_7 
REMARK    4  A    between atoms: C_6  and  C_8 
REMARK       I    between atoms: C_12  and  N_14 
ROOT
ATOM      1  C   LIG d   1       5.589  -4.323  -6.545  0.00  0.00     0.032 C 
ATOM      2  C   LIG d   1       4.725  -3.292  -7.334  0.00  0.00    -0.039 C 
ATOM      3  C   LIG d   1       4.714  -2.029  -6.443  0.00  0.00    -0.037 C 
ATOM      4  C   LIG d   1       5.566  -2.425  -5.197  0.00  0.00     0.060 C 
ATOM      5  C   LIG d   1       6.630  -3.368  -5.863  0.00  0.00    -0.009 C 
ATOM      6  C   LIG d   1       4.690  -3.478  -4.450  0.00  0.00     0.021 C 
ATOM      7  C   LIG d   1       4.732  -4.727  -5.337  0.00  0.00     0.141 C 
ATOM      8  O   LIG d   1       4.196  -5.792  -5.143  0.00  0.00    -0.297 OA
ATOM      9  H   LIG d   1       5.182  -3.072  -8.299  0.00  0.00     0.028 H 
ATOM     10  H   LIG d   1       3.712  -3.670  -7.471  0.00  0.00     0.028 H 
ATOM     11  H   LIG d   1       5.171  -1.190  -6.965  0.00  0.00     0.028 H 
ATOM     12  H   LIG d   1       3.694  -1.784  -6.144  0.00  0.00     0.028 H 
ATOM     13  H   LIG d   1       5.120  -3.704  -3.474  0.00  0.00     0.035 H 
ATOM     14  H   LIG d   1       3.669  -3.114  -4.341  0.00  0.00     0.035 H 
ENDROOT
BRANCH   4  15
ATOM     15  C   LIG d   1       6.103  -1.284  -4.372  0.00  0.00     0.223 C 
ATOM     16  O   LIG d   1       7.288  -1.028  -4.390  0.00  0.00    -0.275 OA
ATOM     17  N   LIG d   1       5.266  -0.546  -3.616  0.00  0.00    -0.301 N 
ATOM     18  C   LIG d   1       5.656   0.593  -2.765  0.00  0.00     0.015 C 
ATOM     19  C   LIG d   1       3.815  -0.749  -3.496  0.00  0.00     0.015 C 
ATOM     20  C   LIG d   1       4.365   1.443  -2.630  0.00  0.00    -0.036 C 
ATOM     21  H   LIG d   1       5.985   0.241  -1.787  0.00  0.00     0.046 H 
ATOM     22  H   LIG d   1       6.443   1.173  -3.246  0.00  0.00     0.046 H 
ATOM     23  C   LIG d   1       3.276   0.342  -2.547  0.00  0.00    -0.036 C 
ATOM     24  H   LIG d   1       4.216   2.075  -3.506  0.00  0.00     0.028 H 
ATOM     25  H   LIG d   1       4.387   2.041  -1.719  0.00  0.00     0.028 H 
ATOM     26  H   LIG d   1       2.317   0.721  -2.900  0.00  0.00     0.028 H 
ATOM     27  H   LIG d   1       3.191  -0.039  -1.530  0.00  0.00     0.028 H 
ATOM     28  H   LIG d   1       3.346  -0.653  -4.476  0.00  0.00     0.046 H 
ATOM     29  H   LIG d   1       3.611  -1.736  -3.081  0.00  0.00     0.046 H 
ENDBRANCH   4  15
BRANCH   5  30
ATOM     30  C   LIG d   1       7.492  -2.628  -6.887  0.00  0.00    -0.058 C 
ATOM     31  H   LIG d   1       7.884  -3.341  -7.614  0.00  0.00     0.024 H 
ATOM     32  H   LIG d   1       6.888  -1.881  -7.400  0.00  0.00     0.024 H 
ATOM     33  H   LIG d   1       8.321  -2.137  -6.377  0.00  0.00     0.024 H 
ENDBRANCH   5  30
BRANCH   5  34
ATOM     34  C   LIG d   1       7.483  -4.096  -4.822  0.00  0.00    -0.058 C 
ATOM     35  H   LIG d   1       7.068  -3.926  -3.828  0.00  0.00     0.024 H 
ATOM     36  H   LIG d   1       7.485  -5.164  -5.037  0.00  0.00     0.024 H 
ATOM     37  H   LIG d   1       8.504  -3.716  -4.858  0.00  0.00     0.024 H 
ENDBRANCH   5  34
BRANCH   1  38
ATOM     38  C   LIG d   1       6.168  -5.475  -7.368  0.00  0.00    -0.052 C 
ATOM     39  H   LIG d   1       5.404  -5.859  -8.044  0.00  0.00     0.024 H 
ATOM     40  H   LIG d   1       7.019  -5.117  -7.947  0.00  0.00     0.024 H 
ATOM     41  H   LIG d   1       6.493  -6.271  -6.698  0.00  0.00     0.024 H 
ENDBRANCH   1  38
TORSDOF 4
ENDMDL
