MODEL 1
REMARK VINA RESULT:      -6.4      0.000      0.000
REMARK  3 active torsions:
REMARK  status: ('A' for Active; 'I' for Inactive)
REMARK    1  A    between atoms: C_1  and  O_2 
REMARK    2  A    between atoms: O_2  and  C_3 
REMARK    3  A    between atoms: C_11  and  C_14 
ROOT
ATOM      1  C   LIG d   1       3.138  -1.530 -12.450  0.00  0.00     0.124 A 
ATOM      2  C   LIG d   1       2.052  -0.864 -11.885  0.00  0.00    -0.019 A 
ATOM      3  C   LIG d   1       2.015  -0.623 -10.542  0.00  0.00    -0.044 A 
ATOM      4  C   LIG d   1       3.075  -1.036  -9.734  0.00  0.00     0.065 A 
ATOM      5  C   LIG d   1       4.179  -1.703 -10.295  0.00  0.00     0.142 A 
ATOM      6  C   LIG d   1       4.198  -1.945 -11.662  0.00  0.00     0.023 A 
ATOM      7  O   LIG d   1       5.202  -2.101  -9.514  0.00  0.00    -0.462 OA
ATOM      8  C   LIG d   1       5.241  -1.898  -8.194  0.00  0.00     0.107 A 
ATOM      9  C   LIG d   1       4.241  -1.265  -7.523  0.00  0.00     0.099 A 
ATOM     10  C   LIG d   1       3.071  -0.787  -8.281  0.00  0.00     0.203 A 
ATOM     11  O   LIG d   1       2.145  -0.214  -7.734  0.00  0.00    -0.286 OA
ATOM     12  H   LIG d   1       1.235  -0.542 -12.513  0.00  0.00     0.065 H 
ATOM     13  H   LIG d   1       1.169  -0.111 -10.107  0.00  0.00     0.063 H 
ATOM     14  H   LIG d   1       5.038  -2.455 -12.109  0.00  0.00     0.069 H 
ATOM     15  H   LIG d   1       6.099  -2.249  -7.641  0.00  0.00     0.104 H 
ENDROOT
BRANCH   9  16
ATOM     16  C   LIG d   1       4.326  -1.062  -6.062  0.00  0.00     0.143 A 
ATOM     17  O   LIG d   1       4.376   0.136  -5.448  0.00  0.00    -0.455 OA
ATOM     18  C   LIG d   1       4.446  -0.012  -4.109  0.00  0.00     0.136 A 
ATOM     19  C   LIG d   1       4.450  -1.392  -3.835  0.00  0.00     0.021 A 
ATOM     20  C   LIG d   1       4.512   0.888  -3.054  0.00  0.00    -0.019 A 
ATOM     21  C   LIG d   1       4.371  -2.054  -5.139  0.00  0.00    -0.008 A 
ATOM     22  C   LIG d   1       4.522  -1.843  -2.516  0.00  0.00    -0.051 A 
ATOM     23  H   LIG d   1       4.352  -3.117  -5.327  0.00  0.00     0.066 H 
ATOM     24  C   LIG d   1       4.587  -0.938  -1.493  0.00  0.00    -0.061 A 
ATOM     25  H   LIG d   1       4.525  -2.902  -2.306  0.00  0.00     0.062 H 
ATOM     26  C   LIG d   1       4.582   0.423  -1.758  0.00  0.00    -0.058 A 
ATOM     27  H   LIG d   1       4.643  -1.287  -0.472  0.00  0.00     0.062 H 
ATOM     28  H   LIG d   1       4.635   1.127  -0.940  0.00  0.00     0.062 H 
ATOM     29  H   LIG d   1       4.509   1.951  -3.248  0.00  0.00     0.065 H 
ENDBRANCH   9  16
BRANCH   1  30
ATOM     30  O   LIG d   1       3.162  -1.767 -13.787  0.00  0.00    -0.495 OA
BRANCH  30  31
ATOM     31  C   LIG d   1       4.123  -1.043 -14.557  0.00  0.00     0.079 C 
ATOM     32  H   LIG d   1       4.158  -0.008 -14.215  0.00  0.00     0.066 H 
ATOM     33  H   LIG d   1       3.839  -1.067 -15.609  0.00  0.00     0.066 H 
ATOM     34  H   LIG d   1       5.105  -1.499 -14.435  0.00  0.00     0.066 H 
ENDBRANCH  30  31
ENDBRANCH   1  30
TORSDOF 3
ENDMDL
MODEL 2
REMARK VINA RESULT:      -6.4      1.026      1.869
REMARK  3 active torsions:
REMARK  status: ('A' for Active; 'I' for Inactive)
REMARK    1  A    between atoms: C_1  and  O_2 
REMARK    2  A    between atoms: O_2  and  C_3 
REMARK    3  A    between atoms: C_11  and  C_14 
ROOT
ATOM      1  C   LIG d   1       3.893  -0.776 -12.640  0.00  0.00     0.124 A 
ATOM      2  C   LIG d   1       5.214  -0.935 -12.223  0.00  0.00    -0.019 A 
ATOM      3  C   LIG d   1       5.523  -0.917 -10.894  0.00  0.00    -0.044 A 
ATOM      4  C   LIG d   1       4.510  -0.746  -9.949  0.00  0.00     0.065 A 
ATOM      5  C   LIG d   1       3.174  -0.591 -10.358  0.00  0.00     0.142 A 
ATOM      6  C   LIG d   1       2.878  -0.607 -11.715  0.00  0.00     0.023 A 
ATOM      7  O   LIG d   1       2.196  -0.427  -9.445  0.00  0.00    -0.462 OA
ATOM      8  C   LIG d   1       2.419  -0.401  -8.129  0.00  0.00     0.107 A 
ATOM      9  C   LIG d   1       3.662  -0.541  -7.595  0.00  0.00     0.099 A 
ATOM     10  C   LIG d   1       4.807  -0.726  -8.505  0.00  0.00     0.203 A 
ATOM     11  O   LIG d   1       5.944  -0.857  -8.085  0.00  0.00    -0.286 OA
ATOM     12  H   LIG d   1       5.995  -1.071 -12.955  0.00  0.00     0.065 H 
ATOM     13  H   LIG d   1       6.548  -1.036 -10.574  0.00  0.00     0.063 H 
ATOM     14  H   LIG d   1       1.857  -0.489 -12.047  0.00  0.00     0.069 H 
ATOM     15  H   LIG d   1       1.580  -0.266  -7.464  0.00  0.00     0.104 H 
ENDROOT
BRANCH   9  16
ATOM     16  C   LIG d   1       3.863  -0.507  -6.131  0.00  0.00     0.143 A 
ATOM     17  O   LIG d   1       3.787   0.599  -5.365  0.00  0.00    -0.455 OA
ATOM     18  C   LIG d   1       4.014   0.302  -4.069  0.00  0.00     0.136 A 
ATOM     19  C   LIG d   1       4.264  -1.080  -3.988  0.00  0.00     0.021 A 
ATOM     20  C   LIG d   1       4.046   1.064  -2.908  0.00  0.00    -0.019 A 
ATOM     21  C   LIG d   1       4.157  -1.582  -5.360  0.00  0.00    -0.008 A 
ATOM     22  C   LIG d   1       4.540  -1.670  -2.754  0.00  0.00    -0.051 A 
ATOM     23  H   LIG d   1       4.287  -2.602  -5.691  0.00  0.00     0.066 H 
ATOM     24  C   LIG d   1       4.567  -0.900  -1.625  0.00  0.00    -0.061 A 
ATOM     25  H   LIG d   1       4.732  -2.732  -2.692  0.00  0.00     0.062 H 
ATOM     26  C   LIG d   1       4.321   0.463  -1.699  0.00  0.00    -0.058 A 
ATOM     27  H   LIG d   1       4.781  -1.357  -0.669  0.00  0.00     0.062 H 
ATOM     28  H   LIG d   1       4.345   1.059  -0.799  0.00  0.00     0.062 H 
ATOM     29  H   LIG d   1       3.856   2.126  -2.954  0.00  0.00     0.065 H 
ENDBRANCH   9  16
BRANCH   1  30
ATOM     30  O   LIG d   1       3.599  -0.793 -13.965  0.00  0.00    -0.495 OA
BRANCH  30  31
ATOM     31  C   LIG d   1       4.669  -0.512 -14.870  0.00  0.00     0.079 C 
ATOM     32  H   LIG d   1       4.434  -0.926 -15.851  0.00  0.00     0.066 H 
ATOM     33  H   LIG d   1       5.589  -0.962 -14.497  0.00  0.00     0.066 H 
ATOM     34  H   LIG d   1       4.801   0.567 -14.954  0.00  0.00     0.066 H 
ENDBRANCH  30  31
ENDBRANCH   1  30
TORSDOF 3
ENDMDL
MODEL 3
REMARK VINA RESULT:      -6.3      5.958      7.776
REMARK  3 active torsions:
REMARK  status: ('A' for Active; 'I' for Inactive)
REMARK    1  A    between atoms: C_1  and  O_2 
REMARK    2  A    between atoms: O_2  and  C_3 
REMARK    3  A    between atoms: C_11  and  C_14 
ROOT
ATOM      1  C   LIG d   1      11.681   4.808  -6.763  0.00  0.00     0.124 A 
ATOM      2  C   LIG d   1      10.851   4.323  -7.772  0.00  0.00    -0.019 A 
ATOM      3  C   LIG d   1       9.802   3.504  -7.467  0.00  0.00    -0.044 A 
ATOM      4  C   LIG d   1       9.555   3.160  -6.137  0.00  0.00     0.065 A 
ATOM      5  C   LIG d   1      10.382   3.649  -5.110  0.00  0.00     0.142 A 
ATOM      6  C   LIG d   1      11.448   4.477  -5.439  0.00  0.00     0.023 A 
ATOM      7  O   LIG d   1      10.143   3.318  -3.826  0.00  0.00    -0.462 OA
ATOM      8  C   LIG d   1       9.136   2.526  -3.449  0.00  0.00     0.107 A 
ATOM      9  C   LIG d   1       8.259   1.985  -4.337  0.00  0.00     0.099 A 
ATOM     10  C   LIG d   1       8.429   2.283  -5.770  0.00  0.00     0.203 A 
ATOM     11  O   LIG d   1       7.675   1.826  -6.612  0.00  0.00    -0.286 OA
ATOM     12  H   LIG d   1      11.041   4.593  -8.799  0.00  0.00     0.065 H 
ATOM     13  H   LIG d   1       9.164   3.125  -8.251  0.00  0.00     0.063 H 
ATOM     14  H   LIG d   1      12.093   4.862  -4.663  0.00  0.00     0.069 H 
ATOM     15  H   LIG d   1       9.013   2.309  -2.398  0.00  0.00     0.104 H 
ENDROOT
BRANCH   9  16
ATOM     16  C   LIG d   1       7.159   1.113  -3.874  0.00  0.00     0.143 A 
ATOM     17  O   LIG d   1       5.953   1.545  -3.456  0.00  0.00    -0.455 OA
ATOM     18  C   LIG d   1       5.167   0.507  -3.103  0.00  0.00     0.136 A 
ATOM     19  C   LIG d   1       5.911  -0.672  -3.293  0.00  0.00     0.021 A 
ATOM     20  C   LIG d   1       3.867   0.417  -2.622  0.00  0.00    -0.019 A 
ATOM     21  C   LIG d   1       7.215  -0.239  -3.800  0.00  0.00    -0.008 A 
ATOM     22  C   LIG d   1       5.343  -1.912  -2.999  0.00  0.00    -0.051 A 
ATOM     23  H   LIG d   1       8.052  -0.869  -4.062  0.00  0.00     0.066 H 
ATOM     24  C   LIG d   1       4.062  -1.977  -2.526  0.00  0.00    -0.061 A 
ATOM     25  H   LIG d   1       5.914  -2.818  -3.145  0.00  0.00     0.062 H 
ATOM     26  C   LIG d   1       3.324  -0.817  -2.337  0.00  0.00    -0.058 A 
ATOM     27  H   LIG d   1       3.622  -2.937  -2.298  0.00  0.00     0.062 H 
ATOM     28  H   LIG d   1       2.313  -0.883  -1.963  0.00  0.00     0.062 H 
ATOM     29  H   LIG d   1       3.283   1.313  -2.472  0.00  0.00     0.065 H 
ENDBRANCH   9  16
BRANCH   1  30
ATOM     30  O   LIG d   1      12.722   5.619  -7.079  0.00  0.00    -0.495 OA
BRANCH  30  31
ATOM     31  C   LIG d   1      12.435   6.752  -7.902  0.00  0.00     0.079 C 
ATOM     32  H   LIG d   1      11.463   6.619  -8.377  0.00  0.00     0.066 H 
ATOM     33  H   LIG d   1      13.204   6.848  -8.669  0.00  0.00     0.066 H 
ATOM     34  H   LIG d   1      12.420   7.652  -7.288  0.00  0.00     0.066 H 
ENDBRANCH  30  31
ENDBRANCH   1  30
TORSDOF 3
ENDMDL
MODEL 4
REMARK VINA RESULT:      -5.8      4.727      6.162
REMARK  3 active torsions:
REMARK  status: ('A' for Active; 'I' for Inactive)
REMARK    1  A    between atoms: C_1  and  O_2 
REMARK    2  A    between atoms: O_2  and  C_3 
REMARK    3  A    between atoms: C_11  and  C_14 
ROOT
ATOM      1  C   LIG d   1       6.472  -8.891  -7.612  0.00  0.00     0.124 A 
ATOM      2  C   LIG d   1       5.086  -8.765  -7.694  0.00  0.00    -0.019 A 
ATOM      3  C   LIG d   1       4.462  -7.667  -7.177  0.00  0.00    -0.044 A 
ATOM      4  C   LIG d   1       5.218  -6.662  -6.571  0.00  0.00     0.065 A 
ATOM      5  C   LIG d   1       6.617  -6.775  -6.489  0.00  0.00     0.142 A 
ATOM      6  C   LIG d   1       7.234  -7.901  -7.016  0.00  0.00     0.023 A 
ATOM      7  O   LIG d   1       7.346  -5.804  -5.904  0.00  0.00    -0.462 OA
ATOM      8  C   LIG d   1       6.809  -4.699  -5.379  0.00  0.00     0.107 A 
ATOM      9  C   LIG d   1       5.470  -4.460  -5.391  0.00  0.00     0.099 A 
ATOM     10  C   LIG d   1       4.578  -5.459  -6.006  0.00  0.00     0.203 A 
ATOM     11  O   LIG d   1       3.370  -5.300  -6.046  0.00  0.00    -0.286 OA
ATOM     12  H   LIG d   1       4.504  -9.542  -8.167  0.00  0.00     0.065 H 
ATOM     13  H   LIG d   1       3.388  -7.575  -7.237  0.00  0.00     0.063 H 
ATOM     14  H   LIG d   1       8.308  -8.005  -6.962  0.00  0.00     0.069 H 
ATOM     15  H   LIG d   1       7.464  -3.969  -4.929  0.00  0.00     0.104 H 
ENDROOT
BRANCH   9  16
ATOM     16  C   LIG d   1       4.920  -3.224  -4.798  0.00  0.00     0.143 A 
ATOM     17  O   LIG d   1       4.456  -2.169  -5.496  0.00  0.00    -0.455 OA
ATOM     18  C   LIG d   1       4.019  -1.199  -4.668  0.00  0.00     0.136 A 
ATOM     19  C   LIG d   1       4.219  -1.645  -3.349  0.00  0.00     0.021 A 
ATOM     20  C   LIG d   1       3.459   0.055  -4.881  0.00  0.00    -0.019 A 
ATOM     21  C   LIG d   1       4.812  -2.979  -3.469  0.00  0.00    -0.008 A 
ATOM     22  C   LIG d   1       3.858  -0.832  -2.273  0.00  0.00    -0.051 A 
ATOM     23  H   LIG d   1       5.106  -3.634  -2.662  0.00  0.00     0.066 H 
ATOM     24  C   LIG d   1       3.310   0.398  -2.507  0.00  0.00    -0.061 A 
ATOM     25  H   LIG d   1       4.012  -1.175  -1.260  0.00  0.00     0.062 H 
ATOM     26  C   LIG d   1       3.110   0.842  -3.805  0.00  0.00    -0.058 A 
ATOM     27  H   LIG d   1       3.031   1.028  -1.674  0.00  0.00     0.062 H 
ATOM     28  H   LIG d   1       2.676   1.817  -3.975  0.00  0.00     0.062 H 
ATOM     29  H   LIG d   1       3.299   0.411  -5.888  0.00  0.00     0.065 H 
ENDBRANCH   9  16
BRANCH   1  30
ATOM     30  O   LIG d   1       7.080  -9.989  -8.128  0.00  0.00    -0.495 OA
BRANCH  30  31
ATOM     31  C   LIG d   1       8.262 -10.445  -7.467  0.00  0.00     0.079 C 
ATOM     32  H   LIG d   1       9.076  -9.744  -7.652  0.00  0.00     0.066 H 
ATOM     33  H   LIG d   1       8.537 -11.429  -7.850  0.00  0.00     0.066 H 
ATOM     34  H   LIG d   1       8.077 -10.512  -6.395  0.00  0.00     0.066 H 
ENDBRANCH  30  31
ENDBRANCH   1  30
TORSDOF 3
ENDMDL
MODEL 5
REMARK VINA RESULT:      -5.7      5.709      7.910
REMARK  3 active torsions:
REMARK  status: ('A' for Active; 'I' for Inactive)
REMARK    1  A    between atoms: C_1  and  O_2 
REMARK    2  A    between atoms: O_2  and  C_3 
REMARK    3  A    between atoms: C_11  and  C_14 
ROOT
ATOM      1  C   LIG d   1      12.615   3.130  -6.090  0.00  0.00     0.124 A 
ATOM      2  C   LIG d   1      12.107   3.833  -4.999  0.00  0.00    -0.019 A 
ATOM      3  C   LIG d   1      10.933   3.450  -4.418  0.00  0.00    -0.044 A 
ATOM      4  C   LIG d   1      10.244   2.342  -4.914  0.00  0.00     0.065 A 
ATOM      5  C   LIG d   1      10.750   1.621  -6.010  0.00  0.00     0.142 A 
ATOM      6  C   LIG d   1      11.943   2.028  -6.592  0.00  0.00     0.023 A 
ATOM      7  O   LIG d   1      10.084   0.551  -6.488  0.00  0.00    -0.462 OA
ATOM      8  C   LIG d   1       8.933   0.113  -5.971  0.00  0.00     0.107 A 
ATOM      9  C   LIG d   1       8.332   0.715  -4.910  0.00  0.00     0.099 A 
ATOM     10  C   LIG d   1       8.976   1.896  -4.308  0.00  0.00     0.203 A 
ATOM     11  O   LIG d   1       8.484   2.477  -3.356  0.00  0.00    -0.286 OA
ATOM     12  H   LIG d   1      12.644   4.687  -4.615  0.00  0.00     0.065 H 
ATOM     13  H   LIG d   1      10.540   4.000  -3.576  0.00  0.00     0.063 H 
ATOM     14  H   LIG d   1      12.346   1.486  -7.434  0.00  0.00     0.069 H 
ATOM     15  H   LIG d   1       8.463  -0.753  -6.413  0.00  0.00     0.104 H 
ENDROOT
BRANCH   9  16
ATOM     16  C   LIG d   1       7.058   0.195  -4.371  0.00  0.00     0.143 A 
ATOM     17  O   LIG d   1       5.834   0.661  -4.690  0.00  0.00    -0.455 OA
ATOM     18  C   LIG d   1       4.874  -0.022  -4.035  0.00  0.00     0.136 A 
ATOM     19  C   LIG d   1       5.512  -0.986  -3.232  0.00  0.00     0.021 A 
ATOM     20  C   LIG d   1       3.488   0.062  -4.018  0.00  0.00    -0.019 A 
ATOM     21  C   LIG d   1       6.946  -0.816  -3.476  0.00  0.00    -0.008 A 
ATOM     22  C   LIG d   1       4.754  -1.842  -2.431  0.00  0.00    -0.051 A 
ATOM     23  H   LIG d   1       7.752  -1.383  -3.032  0.00  0.00     0.066 H 
ATOM     24  C   LIG d   1       3.391  -1.740  -2.430  0.00  0.00    -0.061 A 
ATOM     25  H   LIG d   1       5.244  -2.582  -1.815  0.00  0.00     0.062 H 
ATOM     26  C   LIG d   1       2.757  -0.792  -3.220  0.00  0.00    -0.058 A 
ATOM     27  H   LIG d   1       2.804  -2.402  -1.810  0.00  0.00     0.062 H 
ATOM     28  H   LIG d   1       1.679  -0.723  -3.210  0.00  0.00     0.062 H 
ATOM     29  H   LIG d   1       2.983   0.796  -4.629  0.00  0.00     0.065 H 
ENDBRANCH   9  16
BRANCH   1  30
ATOM     30  O   LIG d   1      13.781   3.523  -6.661  0.00  0.00    -0.495 OA
BRANCH  30  31
ATOM     31  C   LIG d   1      14.576   4.461  -5.932  0.00  0.00     0.079 C 
ATOM     32  H   LIG d   1      14.702   4.112  -4.907  0.00  0.00     0.066 H 
ATOM     33  H   LIG d   1      14.079   5.432  -5.926  0.00  0.00     0.066 H 
ATOM     34  H   LIG d   1      15.552   4.557  -6.407  0.00  0.00     0.066 H 
ENDBRANCH  30  31
ENDBRANCH   1  30
TORSDOF 3
ENDMDL
MODEL 6
REMARK VINA RESULT:      -5.7     10.226     14.356
REMARK  3 active torsions:
REMARK  status: ('A' for Active; 'I' for Inactive)
REMARK    1  A    between atoms: C_1  and  O_2 
REMARK    2  A    between atoms: O_2  and  C_3 
REMARK    3  A    between atoms: C_11  and  C_14 
ROOT
ATOM      1  C   LIG d   1      11.486   7.904   2.349  0.00  0.00     0.124 A 
ATOM      2  C   LIG d   1      11.765   9.117   1.721  0.00  0.00    -0.019 A 
ATOM      3  C   LIG d   1      11.575   9.257   0.377  0.00  0.00    -0.044 A 
ATOM      4  C   LIG d   1      11.092   8.182  -0.370  0.00  0.00     0.065 A 
ATOM      5  C   LIG d   1      10.802   6.956   0.253  0.00  0.00     0.142 A 
ATOM      6  C   LIG d   1      11.005   6.830   1.621  0.00  0.00     0.023 A 
ATOM      7  O   LIG d   1      10.334   5.918  -0.469  0.00  0.00    -0.462 OA
ATOM      8  C   LIG d   1      10.120   5.979  -1.786  0.00  0.00     0.107 A 
ATOM      9  C   LIG d   1      10.357   7.103  -2.514  0.00  0.00     0.099 A 
ATOM     10  C   LIG d   1      10.870   8.299  -1.823  0.00  0.00     0.203 A 
ATOM     11  O   LIG d   1      11.101   9.335  -2.423  0.00  0.00    -0.286 OA
ATOM     12  H   LIG d   1      12.135   9.949   2.302  0.00  0.00     0.065 H 
ATOM     13  H   LIG d   1      11.797  10.197  -0.107  0.00  0.00     0.063 H 
ATOM     14  H   LIG d   1      10.787   5.895   2.116  0.00  0.00     0.069 H 
ATOM     15  H   LIG d   1       9.743   5.101  -2.290  0.00  0.00     0.104 H 
ENDROOT
BRANCH   9  16
ATOM     16  C   LIG d   1      10.105   7.124  -3.970  0.00  0.00     0.143 A 
ATOM     17  O   LIG d   1       9.653   8.189  -4.662  0.00  0.00    -0.455 OA
ATOM     18  C   LIG d   1       9.530   7.893  -5.972  0.00  0.00     0.136 A 
ATOM     19  C   LIG d   1       9.915   6.550  -6.142  0.00  0.00     0.021 A 
ATOM     20  C   LIG d   1       9.119   8.624  -7.079  0.00  0.00    -0.019 A 
ATOM     21  C   LIG d   1      10.287   6.074  -4.808  0.00  0.00    -0.008 A 
ATOM     22  C   LIG d   1       9.881   5.967  -7.410  0.00  0.00    -0.051 A 
ATOM     23  H   LIG d   1      10.635   5.086  -4.544  0.00  0.00     0.066 H 
ATOM     24  C   LIG d   1       9.472   6.706  -8.485  0.00  0.00    -0.061 A 
ATOM     25  H   LIG d   1      10.177   4.936  -7.540  0.00  0.00     0.062 H 
ATOM     26  C   LIG d   1       9.091   8.030  -8.323  0.00  0.00    -0.058 A 
ATOM     27  H   LIG d   1       9.445   6.255  -9.466  0.00  0.00     0.062 H 
ATOM     28  H   LIG d   1       8.770   8.602  -9.181  0.00  0.00     0.062 H 
ATOM     29  H   LIG d   1       8.820   9.656  -6.966  0.00  0.00     0.065 H 
ENDBRANCH   9  16
BRANCH   1  30
ATOM     30  O   LIG d   1      11.682   7.777   3.686  0.00  0.00    -0.495 OA
BRANCH  30  31
ATOM     31  C   LIG d   1      11.060   6.662   4.328  0.00  0.00     0.079 C 
ATOM     32  H   LIG d   1       9.982   6.816   4.361  0.00  0.00     0.066 H 
ATOM     33  H   LIG d   1      11.444   6.567   5.344  0.00  0.00     0.066 H 
ATOM     34  H   LIG d   1      11.280   5.752   3.771  0.00  0.00     0.066 H 
ENDBRANCH  30  31
ENDBRANCH   1  30
TORSDOF 3
ENDMDL
MODEL 7
REMARK VINA RESULT:      -5.6      4.722      5.959
REMARK  3 active torsions:
REMARK  status: ('A' for Active; 'I' for Inactive)
REMARK    1  A    between atoms: C_1  and  O_2 
REMARK    2  A    between atoms: O_2  and  C_3 
REMARK    3  A    between atoms: C_11  and  C_14 
ROOT
ATOM      1  C   LIG d   1       5.937  -8.590  -8.019  0.00  0.00     0.124 A 
ATOM      2  C   LIG d   1       7.139  -8.302  -7.376  0.00  0.00    -0.019 A 
ATOM      3  C   LIG d   1       7.251  -7.192  -6.590  0.00  0.00    -0.044 A 
ATOM      4  C   LIG d   1       6.152  -6.347  -6.423  0.00  0.00     0.065 A 
ATOM      5  C   LIG d   1       4.932  -6.631  -7.062  0.00  0.00     0.142 A 
ATOM      6  C   LIG d   1       4.838  -7.763  -7.862  0.00  0.00     0.023 A 
ATOM      7  O   LIG d   1       3.872  -5.816  -6.901  0.00  0.00    -0.462 OA
ATOM      8  C   LIG d   1       3.902  -4.715  -6.145  0.00  0.00     0.107 A 
ATOM      9  C   LIG d   1       5.015  -4.322  -5.470  0.00  0.00     0.099 A 
ATOM     10  C   LIG d   1       6.234  -5.143  -5.577  0.00  0.00     0.203 A 
ATOM     11  O   LIG d   1       7.262  -4.840  -4.995  0.00  0.00    -0.286 OA
ATOM     12  H   LIG d   1       7.986  -8.958  -7.503  0.00  0.00     0.065 H 
ATOM     13  H   LIG d   1       8.185  -6.968  -6.096  0.00  0.00     0.063 H 
ATOM     14  H   LIG d   1       3.909  -7.996  -8.361  0.00  0.00     0.069 H 
ATOM     15  H   LIG d   1       3.007  -4.115  -6.068  0.00  0.00     0.104 H 
ENDROOT
BRANCH   9  16
ATOM     16  C   LIG d   1       5.003  -3.095  -4.646  0.00  0.00     0.143 A 
ATOM     17  O   LIG d   1       5.669  -1.961  -4.935  0.00  0.00    -0.455 OA
ATOM     18  C   LIG d   1       5.454  -1.022  -3.991  0.00  0.00     0.136 A 
ATOM     19  C   LIG d   1       4.603  -1.584  -3.022  0.00  0.00     0.021 A 
ATOM     20  C   LIG d   1       5.895   0.284  -3.828  0.00  0.00    -0.019 A 
ATOM     21  C   LIG d   1       4.325  -2.947  -3.481  0.00  0.00    -0.008 A 
ATOM     22  C   LIG d   1       4.212  -0.831  -1.913  0.00  0.00    -0.051 A 
ATOM     23  H   LIG d   1       3.706  -3.684  -2.991  0.00  0.00     0.066 H 
ATOM     24  C   LIG d   1       4.660   0.452  -1.773  0.00  0.00    -0.061 A 
ATOM     25  H   LIG d   1       3.559  -1.263  -1.168  0.00  0.00     0.062 H 
ATOM     26  C   LIG d   1       5.499   1.011  -2.726  0.00  0.00    -0.058 A 
ATOM     27  H   LIG d   1       4.358   1.035  -0.915  0.00  0.00     0.062 H 
ATOM     28  H   LIG d   1       5.845   2.027  -2.603  0.00  0.00     0.062 H 
ATOM     29  H   LIG d   1       6.549   0.730  -4.564  0.00  0.00     0.065 H 
ENDBRANCH   9  16
BRANCH   1  30
ATOM     30  O   LIG d   1       5.840  -9.695  -8.801  0.00  0.00    -0.495 OA
BRANCH  30  31
ATOM     31  C   LIG d   1       7.051 -10.193  -9.374  0.00  0.00     0.079 C 
ATOM     32  H   LIG d   1       6.937 -11.253  -9.601  0.00  0.00     0.066 H 
ATOM     33  H   LIG d   1       7.870 -10.059  -8.666  0.00  0.00     0.066 H 
ATOM     34  H   LIG d   1       7.271  -9.646 -10.291  0.00  0.00     0.066 H 
ENDBRANCH  30  31
ENDBRANCH   1  30
TORSDOF 3
ENDMDL
MODEL 8
REMARK VINA RESULT:      -5.6      5.764      8.120
REMARK  3 active torsions:
REMARK  status: ('A' for Active; 'I' for Inactive)
REMARK    1  A    between atoms: C_1  and  O_2 
REMARK    2  A    between atoms: O_2  and  C_3 
REMARK    3  A    between atoms: C_11  and  C_14 
ROOT
ATOM      1  C   LIG d   1      11.965  -6.099  -5.002  0.00  0.00     0.124 A 
ATOM      2  C   LIG d   1      11.866  -5.974  -3.617  0.00  0.00    -0.019 A 
ATOM      3  C   LIG d   1      10.888  -5.200  -3.063  0.00  0.00    -0.044 A 
ATOM      4  C   LIG d   1       9.977  -4.538  -3.889  0.00  0.00     0.065 A 
ATOM      5  C   LIG d   1      10.064  -4.662  -5.287  0.00  0.00     0.142 A 
ATOM      6  C   LIG d   1      11.069  -5.450  -5.833  0.00  0.00     0.023 A 
ATOM      7  O   LIG d   1       9.185  -4.023  -6.083  0.00  0.00    -0.462 OA
ATOM      8  C   LIG d   1       8.199  -3.252  -5.617  0.00  0.00     0.107 A 
ATOM      9  C   LIG d   1       7.998  -3.046  -4.288  0.00  0.00     0.099 A 
ATOM     10  C   LIG d   1       8.905  -3.698  -3.326  0.00  0.00     0.203 A 
ATOM     11  O   LIG d   1       8.775  -3.550  -2.122  0.00  0.00    -0.286 OA
ATOM     12  H   LIG d   1      12.569  -6.490  -2.980  0.00  0.00     0.065 H 
ATOM     13  H   LIG d   1      10.817  -5.101  -1.990  0.00  0.00     0.063 H 
ATOM     14  H   LIG d   1      11.150  -5.556  -6.905  0.00  0.00     0.069 H 
ATOM     15  H   LIG d   1       7.536  -2.775  -6.323  0.00  0.00     0.104 H 
ENDROOT
BRANCH   9  16
ATOM     16  C   LIG d   1       6.894  -2.184  -3.816  0.00  0.00     0.143 A 
ATOM     17  O   LIG d   1       7.033  -0.915  -3.384  0.00  0.00    -0.455 OA
ATOM     18  C   LIG d   1       5.840  -0.397  -3.026  0.00  0.00     0.136 A 
ATOM     19  C   LIG d   1       4.867  -1.393  -3.228  0.00  0.00     0.021 A 
ATOM     20  C   LIG d   1       5.449   0.841  -2.531  0.00  0.00    -0.019 A 
ATOM     21  C   LIG d   1       5.592  -2.554  -3.748  0.00  0.00    -0.008 A 
ATOM     22  C   LIG d   1       3.528  -1.133  -2.933  0.00  0.00    -0.051 A 
ATOM     23  H   LIG d   1       5.174  -3.512  -4.021  0.00  0.00     0.066 H 
ATOM     24  C   LIG d   1       3.166   0.092  -2.446  0.00  0.00    -0.061 A 
ATOM     25  H   LIG d   1       2.781  -1.898  -3.088  0.00  0.00     0.062 H 
ATOM     26  C   LIG d   1       4.122   1.078  -2.245  0.00  0.00    -0.058 A 
ATOM     27  H   LIG d   1       2.130   0.294  -2.217  0.00  0.00     0.062 H 
ATOM     28  H   LIG d   1       3.822   2.041  -1.860  0.00  0.00     0.062 H 
ATOM     29  H   LIG d   1       6.184   1.615  -2.371  0.00  0.00     0.065 H 
ENDBRANCH   9  16
BRANCH   1  30
ATOM     30  O   LIG d   1      12.945  -6.869  -5.540  0.00  0.00    -0.495 OA
BRANCH  30  31
ATOM     31  C   LIG d   1      13.652  -7.734  -4.649  0.00  0.00     0.079 C 
ATOM     32  H   LIG d   1      12.948  -8.410  -4.163  0.00  0.00     0.066 H 
ATOM     33  H   LIG d   1      14.164  -7.138  -3.893  0.00  0.00     0.066 H 
ATOM     34  H   LIG d   1      14.384  -8.314  -5.211  0.00  0.00     0.066 H 
ENDBRANCH  30  31
ENDBRANCH   1  30
TORSDOF 3
ENDMDL
MODEL 9
REMARK VINA RESULT:      -5.6      3.720      4.717
REMARK  3 active torsions:
REMARK  status: ('A' for Active; 'I' for Inactive)
REMARK    1  A    between atoms: C_1  and  O_2 
REMARK    2  A    between atoms: O_2  and  C_3 
REMARK    3  A    between atoms: C_11  and  C_14 
ROOT
ATOM      1  C   LIG d   1       5.226  -7.536  -9.381  0.00  0.00     0.124 A 
ATOM      2  C   LIG d   1       4.633  -8.034  -8.222  0.00  0.00    -0.019 A 
ATOM      3  C   LIG d   1       4.394  -7.208  -7.161  0.00  0.00    -0.044 A 
ATOM      4  C   LIG d   1       4.739  -5.858  -7.242  0.00  0.00     0.065 A 
ATOM      5  C   LIG d   1       5.332  -5.344  -8.409  0.00  0.00     0.142 A 
ATOM      6  C   LIG d   1       5.572  -6.199  -9.476  0.00  0.00     0.023 A 
ATOM      7  O   LIG d   1       5.664  -4.041  -8.487  0.00  0.00    -0.462 OA
ATOM      8  C   LIG d   1       5.459  -3.171  -7.494  0.00  0.00     0.107 A 
ATOM      9  C   LIG d   1       4.893  -3.532  -6.311  0.00  0.00     0.099 A 
ATOM     10  C   LIG d   1       4.491  -4.937  -6.119  0.00  0.00     0.203 A 
ATOM     11  O   LIG d   1       3.978  -5.319  -5.080  0.00  0.00    -0.286 OA
ATOM     12  H   LIG d   1       4.363  -9.077  -8.163  0.00  0.00     0.065 H 
ATOM     13  H   LIG d   1       3.938  -7.598  -6.263  0.00  0.00     0.063 H 
ATOM     14  H   LIG d   1       6.028  -5.822 -10.380  0.00  0.00     0.069 H 
ATOM     15  H   LIG d   1       5.754  -2.142  -7.637  0.00  0.00     0.104 H 
ENDROOT
BRANCH   9  16
ATOM     16  C   LIG d   1       4.685  -2.536  -5.240  0.00  0.00     0.143 A 
ATOM     17  O   LIG d   1       3.955  -1.409  -5.360  0.00  0.00    -0.455 OA
ATOM     18  C   LIG d   1       3.955  -0.711  -4.206  0.00  0.00     0.136 A 
ATOM     19  C   LIG d   1       4.740  -1.422  -3.281  0.00  0.00     0.021 A 
ATOM     20  C   LIG d   1       3.366   0.485  -3.817  0.00  0.00    -0.019 A 
ATOM     21  C   LIG d   1       5.205  -2.616  -3.991  0.00  0.00    -0.008 A 
ATOM     22  C   LIG d   1       4.922  -0.924  -1.989  0.00  0.00    -0.051 A 
ATOM     23  H   LIG d   1       5.836  -3.400  -3.599  0.00  0.00     0.066 H 
ATOM     24  C   LIG d   1       4.334   0.256  -1.629  0.00  0.00    -0.061 A 
ATOM     25  H   LIG d   1       5.526  -1.470  -1.278  0.00  0.00     0.062 H 
ATOM     26  C   LIG d   1       3.558   0.960  -2.537  0.00  0.00    -0.058 A 
ATOM     27  H   LIG d   1       4.475   0.642  -0.629  0.00  0.00     0.062 H 
ATOM     28  H   LIG d   1       3.099   1.891  -2.239  0.00  0.00     0.062 H 
ATOM     29  H   LIG d   1       2.760   1.042  -4.516  0.00  0.00     0.065 H 
ENDBRANCH   9  16
BRANCH   1  30
ATOM     30  O   LIG d   1       5.462  -8.368 -10.427  0.00  0.00    -0.495 OA
BRANCH  30  31
ATOM     31  C   LIG d   1       4.412  -9.270 -10.787  0.00  0.00     0.079 C 
ATOM     32  H   LIG d   1       3.479  -8.717 -10.896  0.00  0.00     0.066 H 
ATOM     33  H   LIG d   1       4.299 -10.025 -10.008  0.00  0.00     0.066 H 
ATOM     34  H   LIG d   1       4.659  -9.756 -11.731  0.00  0.00     0.066 H 
ENDBRANCH  30  31
ENDBRANCH   1  30
TORSDOF 3
ENDMDL
MODEL 10
REMARK VINA RESULT:      -5.5     12.128     14.707
REMARK  3 active torsions:
REMARK  status: ('A' for Active; 'I' for Inactive)
REMARK    1  A    between atoms: C_1  and  O_2 
REMARK    2  A    between atoms: O_2  and  C_3 
REMARK    3  A    between atoms: C_11  and  C_14 
ROOT
ATOM      1  C   LIG d   1       1.316  12.120 -16.804  0.00  0.00     0.124 A 
ATOM      2  C   LIG d   1       2.011  11.090 -16.172  0.00  0.00    -0.019 A 
ATOM      3  C   LIG d   1       1.343  10.004 -15.687  0.00  0.00    -0.044 A 
ATOM      4  C   LIG d   1      -0.043   9.921 -15.834  0.00  0.00     0.065 A 
ATOM      5  C   LIG d   1      -0.754  10.951 -16.475  0.00  0.00     0.142 A 
ATOM      6  C   LIG d   1      -0.058  12.051 -16.958  0.00  0.00     0.023 A 
ATOM      7  O   LIG d   1      -2.091  10.870 -16.617  0.00  0.00    -0.462 OA
ATOM      8  C   LIG d   1      -2.815   9.838 -16.173  0.00  0.00     0.107 A 
ATOM      9  C   LIG d   1      -2.257   8.774 -15.536  0.00  0.00     0.099 A 
ATOM     10  C   LIG d   1      -0.798   8.760 -15.327  0.00  0.00     0.203 A 
ATOM     11  O   LIG d   1      -0.241   7.834 -14.763  0.00  0.00    -0.286 OA
ATOM     12  H   LIG d   1       3.083  11.154 -16.064  0.00  0.00     0.065 H 
ATOM     13  H   LIG d   1       1.883   9.210 -15.194  0.00  0.00     0.063 H 
ATOM     14  H   LIG d   1      -0.588  12.851 -17.454  0.00  0.00     0.069 H 
ATOM     15  H   LIG d   1      -3.883   9.851 -16.327  0.00  0.00     0.104 H 
ENDROOT
BRANCH   9  16
ATOM     16  C   LIG d   1      -3.096   7.654 -15.061  0.00  0.00     0.143 A 
ATOM     17  O   LIG d   1      -2.674   6.386 -14.896  0.00  0.00    -0.455 OA
ATOM     18  C   LIG d   1      -3.675   5.601 -14.448  0.00  0.00     0.136 A 
ATOM     19  C   LIG d   1      -4.821   6.406 -14.323  0.00  0.00     0.021 A 
ATOM     20  C   LIG d   1      -3.755   4.253 -14.123  0.00  0.00    -0.019 A 
ATOM     21  C   LIG d   1      -4.408   7.749 -14.734  0.00  0.00    -0.008 A 
ATOM     22  C   LIG d   1      -6.022   5.849 -13.879  0.00  0.00    -0.051 A 
ATOM     23  H   LIG d   1      -5.024   8.636 -14.770  0.00  0.00     0.066 H 
ATOM     24  C   LIG d   1      -6.078   4.520 -13.566  0.00  0.00    -0.061 A 
ATOM     25  H   LIG d   1      -6.903   6.467 -13.783  0.00  0.00     0.062 H 
ATOM     26  C   LIG d   1      -4.950   3.722 -13.687  0.00  0.00    -0.058 A 
ATOM     27  H   LIG d   1      -7.007   4.088 -13.223  0.00  0.00     0.062 H 
ATOM     28  H   LIG d   1      -5.009   2.673 -13.436  0.00  0.00     0.062 H 
ATOM     29  H   LIG d   1      -2.883   3.622 -14.213  0.00  0.00     0.065 H 
ENDBRANCH   9  16
BRANCH   1  30
ATOM     30  O   LIG d   1       1.993  13.196 -17.279  0.00  0.00    -0.495 OA
BRANCH  30  31
ATOM     31  C   LIG d   1       3.399  13.040 -17.483  0.00  0.00     0.079 C 
ATOM     32  H   LIG d   1       3.863  12.687 -16.562  0.00  0.00     0.066 H 
ATOM     33  H   LIG d   1       3.834  13.999 -17.764  0.00  0.00     0.066 H 
ATOM     34  H   LIG d   1       3.572  12.315 -18.278  0.00  0.00     0.066 H 
ENDBRANCH  30  31
ENDBRANCH   1  30
TORSDOF 3
ENDMDL
