MODEL 1
REMARK VINA RESULT:      -7.0      0.000      0.000
REMARK  12 active torsions:
REMARK  status: ('A' for Active; 'I' for Inactive)
REMARK    1  A    between atoms: C_3  and  O_35 
REMARK    2  A    between atoms: C_6  and  C_7 
REMARK    3  A    between atoms: C_8  and  C_9 
REMARK    4  A    between atoms: C_9  and  O_11 
REMARK    5  A    between atoms: O_11  and  C_12 
REMARK    6  A    between atoms: C_12  and  C_13 
REMARK    7  A    between atoms: C_15  and  O_34 
REMARK    8  A    between atoms: C_17  and  O_33 
REMARK    9  A    between atoms: C_19  and  O_32 
REMARK   10  A    between atoms: C_21  and  O_24 
REMARK   11  A    between atoms: O_24  and  C_25 
REMARK   12  A    between atoms: C_28  and  O_31 
ROOT
ATOM      1  C   LIG d   1       3.332  -4.043  -8.966  0.00  0.00     0.125 C 
ATOM      2  H   LIG d   1       2.779  -3.980  -8.029  0.00  0.00     0.066 H 
ATOM      3  C   LIG d   1       2.883  -5.284  -9.743  0.00  0.00     0.113 C 
ATOM      4  H   LIG d   1       3.465  -5.370 -10.660  0.00  0.00     0.065 H 
ATOM      5  C   LIG d   1       1.397  -5.150 -10.088  0.00  0.00     0.115 C 
ATOM      6  H   LIG d   1       0.809  -5.115  -9.172  0.00  0.00     0.065 H 
ATOM      7  C   LIG d   1       1.184  -3.859 -10.884  0.00  0.00     0.145 C 
ATOM      8  H   LIG d   1       1.731  -3.916 -11.826  0.00  0.00     0.068 H 
ATOM      9  C   LIG d   1       1.699  -2.672 -10.064  0.00  0.00     0.231 C 
ATOM     10  H   LIG d   1       1.124  -2.592  -9.142  0.00  0.00     0.108 H 
ATOM     11  O   LIG d   1       3.078  -2.875  -9.750  0.00  0.00    -0.330 OA
ENDROOT
BRANCH   1  12
ATOM     12  C   LIG d   1       4.829  -4.142  -8.668  0.00  0.00     0.121 C 
ATOM     13  H   LIG d   1       5.214  -3.155  -8.410  0.00  0.00     0.072 H 
ATOM     14  H   LIG d   1       5.351  -4.516  -9.548  0.00  0.00     0.072 H 
BRANCH  12  15
ATOM     15  O   LIG d   1       5.040  -5.036  -7.574  0.00  0.00    -0.459 OA
BRANCH  15  16
ATOM     16  C   LIG d   1       4.348  -4.791  -6.441  0.00  0.00     0.332 C 
ATOM     17  O   LIG d   1       3.591  -5.633  -5.996  0.00  0.00    -0.246 OA
BRANCH  16  18
ATOM     18  C   LIG d   1       4.504  -3.552  -5.768  0.00  0.00     0.023 C 
ATOM     19  C   LIG d   1       4.653  -3.527  -4.425  0.00  0.00    -0.048 C 
ATOM     20  H   LIG d   1       4.653  -4.450  -3.865  0.00  0.00     0.063 H 
ATOM     21  H   LIG d   1       4.503  -2.630  -6.329  0.00  0.00     0.069 H 
BRANCH  19  22
ATOM     22  C   LIG d   1       4.815  -2.243  -3.729  0.00  0.00    -0.025 A 
ATOM     23  C   LIG d   1       5.690  -1.275  -4.236  0.00  0.00    -0.051 A 
ATOM     24  C   LIG d   1       5.838  -0.075  -3.580  0.00  0.00    -0.020 A 
ATOM     25  H   LIG d   1       6.246  -1.470  -5.141  0.00  0.00     0.062 H 
ATOM     26  C   LIG d   1       5.122   0.178  -2.415  0.00  0.00     0.117 A 
ATOM     27  H   LIG d   1       6.512   0.674  -3.970  0.00  0.00     0.065 H 
ATOM     28  C   LIG d   1       4.256  -0.783  -1.904  0.00  0.00    -0.020 A 
ATOM     29  C   LIG d   1       4.096  -1.984  -2.556  0.00  0.00    -0.051 A 
ATOM     30  H   LIG d   1       3.705  -0.583  -0.996  0.00  0.00     0.065 H 
ATOM     31  H   LIG d   1       3.420  -2.728  -2.161  0.00  0.00     0.062 H 
BRANCH  26  32
ATOM     32  O   LIG d   1       5.273   1.363  -1.772  0.00  0.00    -0.507 OA
ATOM     33  H   LIG d   1       5.851   1.988  -2.230  0.00  0.00     0.292 HD
ENDBRANCH  26  32
ENDBRANCH  19  22
ENDBRANCH  16  18
ENDBRANCH  15  16
ENDBRANCH  12  15
ENDBRANCH   1  12
BRANCH   3  34
ATOM     34  O   LIG d   1       3.083  -6.448  -8.938  0.00  0.00    -0.386 OA
ATOM     35  H   LIG d   1       3.054  -6.277  -7.986  0.00  0.00     0.210 HD
ENDBRANCH   3  34
BRANCH   9  36
ATOM     36  O   LIG d   1       1.554  -1.470 -10.823  0.00  0.00    -0.461 OA
BRANCH  36  37
ATOM     37  C   LIG d   1       2.343  -0.420 -10.471  0.00  0.00     0.124 A 
ATOM     38  C   LIG d   1       2.139   0.225  -9.260  0.00  0.00    -0.016 A 
ATOM     39  C   LIG d   1       2.941   1.291  -8.902  0.00  0.00    -0.017 A 
ATOM     40  H   LIG d   1       1.354  -0.107  -8.596  0.00  0.00     0.066 H 
ATOM     41  C   LIG d   1       3.949   1.718  -9.753  0.00  0.00     0.117 A 
ATOM     42  H   LIG d   1       2.782   1.794  -7.959  0.00  0.00     0.066 H 
ATOM     43  C   LIG d   1       4.153   1.073 -10.965  0.00  0.00    -0.017 A 
ATOM     44  C   LIG d   1       3.355   0.002 -11.320  0.00  0.00    -0.016 A 
ATOM     45  H   LIG d   1       4.939   1.404 -11.628  0.00  0.00     0.066 H 
ATOM     46  H   LIG d   1       3.516  -0.502 -12.261  0.00  0.00     0.066 H 
BRANCH  41  47
ATOM     47  O   LIG d   1       4.738   2.768  -9.402  0.00  0.00    -0.507 OA
ATOM     48  H   LIG d   1       4.361   3.327  -8.707  0.00  0.00     0.292 HD
ENDBRANCH  41  47
ENDBRANCH  36  37
ENDBRANCH   9  36
BRANCH   5  49
ATOM     49  O   LIG d   1       0.987  -6.270 -10.876  0.00  0.00    -0.386 OA
ATOM     50  H   LIG d   1       1.630  -6.533 -11.549  0.00  0.00     0.210 HD
ENDBRANCH   5  49
BRANCH   7  51
ATOM     51  O   LIG d   1      -0.209  -3.686 -11.151  0.00  0.00    -0.383 OA
ATOM     52  H   LIG d   1      -0.728  -3.419 -10.380  0.00  0.00     0.210 HD
ENDBRANCH   7  51
TORSDOF 12
ENDMDL
MODEL 2
REMARK VINA RESULT:      -7.0      6.352      9.668
REMARK  12 active torsions:
REMARK  status: ('A' for Active; 'I' for Inactive)
REMARK    1  A    between atoms: C_3  and  O_35 
REMARK    2  A    between atoms: C_6  and  C_7 
REMARK    3  A    between atoms: C_8  and  C_9 
REMARK    4  A    between atoms: C_9  and  O_11 
REMARK    5  A    between atoms: O_11  and  C_12 
REMARK    6  A    between atoms: C_12  and  C_13 
REMARK    7  A    between atoms: C_15  and  O_34 
REMARK    8  A    between atoms: C_17  and  O_33 
REMARK    9  A    between atoms: C_19  and  O_32 
REMARK   10  A    between atoms: C_21  and  O_24 
REMARK   11  A    between atoms: O_24  and  C_25 
REMARK   12  A    between atoms: C_28  and  O_31 
ROOT
ATOM      1  C   LIG d   1       9.255  -6.107  -3.712  0.00  0.00     0.125 C 
ATOM      2  H   LIG d   1       8.477  -5.579  -3.162  0.00  0.00     0.066 H 
ATOM      3  C   LIG d   1      10.515  -6.208  -2.847  0.00  0.00     0.113 C 
ATOM      4  H   LIG d   1      11.307  -6.699  -3.412  0.00  0.00     0.065 H 
ATOM      5  C   LIG d   1      10.197  -7.024  -1.590  0.00  0.00     0.115 C 
ATOM      6  H   LIG d   1       9.442  -6.508  -0.999  0.00  0.00     0.065 H 
ATOM      7  C   LIG d   1       9.670  -8.399  -2.009  0.00  0.00     0.145 C 
ATOM      8  H   LIG d   1      10.445  -8.937  -2.556  0.00  0.00     0.068 H 
ATOM      9  C   LIG d   1       8.443  -8.215  -2.907  0.00  0.00     0.231 C 
ATOM     10  H   LIG d   1       7.654  -7.715  -2.346  0.00  0.00     0.108 H 
ATOM     11  O   LIG d   1       8.800  -7.422  -4.041  0.00  0.00    -0.330 OA
ENDROOT
BRANCH   1  12
ATOM     12  C   LIG d   1       9.579  -5.344  -4.998  0.00  0.00     0.121 C 
ATOM     13  H   LIG d   1       9.460  -6.008  -5.854  0.00  0.00     0.072 H 
ATOM     14  H   LIG d   1      10.607  -4.984  -4.958  0.00  0.00     0.072 H 
BRANCH  12  15
ATOM     15  O   LIG d   1       8.690  -4.234  -5.130  0.00  0.00    -0.459 OA
BRANCH  15  16
ATOM     16  C   LIG d   1       9.145  -3.032  -4.719  0.00  0.00     0.332 C 
ATOM     17  O   LIG d   1      10.338  -2.792  -4.745  0.00  0.00    -0.246 OA
BRANCH  16  18
ATOM     18  C   LIG d   1       8.235  -2.048  -4.257  0.00  0.00     0.023 C 
ATOM     19  C   LIG d   1       7.063  -2.422  -3.698  0.00  0.00    -0.048 C 
ATOM     20  H   LIG d   1       6.820  -3.469  -3.604  0.00  0.00     0.063 H 
ATOM     21  H   LIG d   1       8.478  -1.000  -4.353  0.00  0.00     0.069 H 
BRANCH  19  22
ATOM     22  C   LIG d   1       6.119  -1.402  -3.219  0.00  0.00    -0.025 A 
ATOM     23  C   LIG d   1       6.423  -0.042  -3.363  0.00  0.00    -0.051 A 
ATOM     24  C   LIG d   1       5.537   0.909  -2.912  0.00  0.00    -0.020 A 
ATOM     25  H   LIG d   1       7.351   0.258  -3.826  0.00  0.00     0.062 H 
ATOM     26  C   LIG d   1       4.342   0.522  -2.315  0.00  0.00     0.117 A 
ATOM     27  H   LIG d   1       5.770   1.958  -3.022  0.00  0.00     0.065 H 
ATOM     28  C   LIG d   1       4.038  -0.826  -2.165  0.00  0.00    -0.020 A 
ATOM     29  C   LIG d   1       4.915  -1.785  -2.618  0.00  0.00    -0.051 A 
ATOM     30  H   LIG d   1       3.110  -1.121  -1.697  0.00  0.00     0.065 H 
ATOM     31  H   LIG d   1       4.676  -2.833  -2.505  0.00  0.00     0.062 H 
BRANCH  26  32
ATOM     32  O   LIG d   1       3.472   1.465  -1.872  0.00  0.00    -0.507 OA
ATOM     33  H   LIG d   1       2.734   1.633  -2.474  0.00  0.00     0.292 HD
ENDBRANCH  26  32
ENDBRANCH  19  22
ENDBRANCH  16  18
ENDBRANCH  15  16
ENDBRANCH  12  15
ENDBRANCH   1  12
BRANCH   3  34
ATOM     34  O   LIG d   1      10.939  -4.896  -2.470  0.00  0.00    -0.386 OA
ATOM     35  H   LIG d   1      10.703  -4.652  -1.564  0.00  0.00     0.210 HD
ENDBRANCH   3  34
BRANCH   9  36
ATOM     36  O   LIG d   1       7.978  -9.493  -3.346  0.00  0.00    -0.461 OA
BRANCH  36  37
ATOM     37  C   LIG d   1       6.632  -9.682  -3.378  0.00  0.00     0.124 A 
ATOM     38  C   LIG d   1       5.884  -9.169  -4.427  0.00  0.00    -0.016 A 
ATOM     39  C   LIG d   1       4.517  -9.363  -4.460  0.00  0.00    -0.017 A 
ATOM     40  H   LIG d   1       6.371  -8.620  -5.220  0.00  0.00     0.066 H 
ATOM     41  C   LIG d   1       3.891 -10.068  -3.443  0.00  0.00     0.117 A 
ATOM     42  H   LIG d   1       3.934  -8.963  -5.277  0.00  0.00     0.066 H 
ATOM     43  C   LIG d   1       4.639 -10.581  -2.393  0.00  0.00    -0.017 A 
ATOM     44  C   LIG d   1       6.008 -10.393  -2.364  0.00  0.00    -0.016 A 
ATOM     45  H   LIG d   1       4.152 -11.131  -1.601  0.00  0.00     0.066 H 
ATOM     46  H   LIG d   1       6.591 -10.796  -1.548  0.00  0.00     0.066 H 
BRANCH  41  47
ATOM     47  O   LIG d   1       2.545 -10.257  -3.474  0.00  0.00    -0.507 OA
ATOM     48  H   LIG d   1       2.249 -10.860  -4.170  0.00  0.00     0.292 HD
ENDBRANCH  41  47
ENDBRANCH  36  37
ENDBRANCH   9  36
BRANCH   5  49
ATOM     49  O   LIG d   1      11.385  -7.184  -0.812  0.00  0.00    -0.386 OA
ATOM     50  H   LIG d   1      11.754  -8.078  -0.837  0.00  0.00     0.210 HD
ENDBRANCH   5  49
BRANCH   7  51
ATOM     51  O   LIG d   1       9.302  -9.144  -0.846  0.00  0.00    -0.383 OA
ATOM     52  H   LIG d   1       9.557  -8.725  -0.013  0.00  0.00     0.210 HD
ENDBRANCH   7  51
TORSDOF 12
ENDMDL
MODEL 3
REMARK VINA RESULT:      -6.9      6.880     11.304
REMARK  12 active torsions:
REMARK  status: ('A' for Active; 'I' for Inactive)
REMARK    1  A    between atoms: C_3  and  O_35 
REMARK    2  A    between atoms: C_6  and  C_7 
REMARK    3  A    between atoms: C_8  and  C_9 
REMARK    4  A    between atoms: C_9  and  O_11 
REMARK    5  A    between atoms: O_11  and  C_12 
REMARK    6  A    between atoms: C_12  and  C_13 
REMARK    7  A    between atoms: C_15  and  O_34 
REMARK    8  A    between atoms: C_17  and  O_33 
REMARK    9  A    between atoms: C_19  and  O_32 
REMARK   10  A    between atoms: C_21  and  O_24 
REMARK   11  A    between atoms: O_24  and  C_25 
REMARK   12  A    between atoms: C_28  and  O_31 
ROOT
ATOM      1  C   LIG d   1      11.093   4.872  -3.230  0.00  0.00     0.125 C 
ATOM      2  H   LIG d   1      12.049   5.376  -3.370  0.00  0.00     0.066 H 
ATOM      3  C   LIG d   1      10.660   4.991  -1.766  0.00  0.00     0.113 C 
ATOM      4  H   LIG d   1       9.725   4.452  -1.617  0.00  0.00     0.065 H 
ATOM      5  C   LIG d   1      10.461   6.470  -1.420  0.00  0.00     0.115 C 
ATOM      6  H   LIG d   1      11.407   7.000  -1.519  0.00  0.00     0.065 H 
ATOM      7  C   LIG d   1       9.432   7.073  -2.380  0.00  0.00     0.145 C 
ATOM      8  H   LIG d   1       8.471   6.576  -2.243  0.00  0.00     0.068 H 
ATOM      9  C   LIG d   1       9.911   6.874  -3.821  0.00  0.00     0.231 C 
ATOM     10  H   LIG d   1      10.851   7.404  -3.967  0.00  0.00     0.108 H 
ATOM     11  O   LIG d   1      10.106   5.479  -4.067  0.00  0.00    -0.330 OA
ENDROOT
BRANCH   1  12
ATOM     12  C   LIG d   1      11.236   3.395  -3.601  0.00  0.00     0.121 C 
ATOM     13  H   LIG d   1      12.114   2.979  -3.107  0.00  0.00     0.072 H 
ATOM     14  H   LIG d   1      11.349   3.301  -4.681  0.00  0.00     0.072 H 
BRANCH  12  15
ATOM     15  O   LIG d   1      10.071   2.683  -3.180  0.00  0.00    -0.459 OA
BRANCH  15  16
ATOM     16  C   LIG d   1       9.295   2.151  -4.147  0.00  0.00     0.332 C 
ATOM     17  O   LIG d   1       9.387   2.554  -5.292  0.00  0.00    -0.246 OA
BRANCH  16  18
ATOM     18  C   LIG d   1       8.371   1.123  -3.830  0.00  0.00     0.023 C 
ATOM     19  C   LIG d   1       7.100   1.438  -3.494  0.00  0.00    -0.048 C 
ATOM     20  H   LIG d   1       6.789   2.471  -3.466  0.00  0.00     0.063 H 
ATOM     21  H   LIG d   1       8.683   0.090  -3.857  0.00  0.00     0.069 H 
BRANCH  19  22
ATOM     22  C   LIG d   1       6.143   0.372  -3.165  0.00  0.00    -0.025 A 
ATOM     23  C   LIG d   1       5.040   0.647  -2.348  0.00  0.00    -0.051 A 
ATOM     24  C   LIG d   1       4.147  -0.354  -2.043  0.00  0.00    -0.020 A 
ATOM     25  H   LIG d   1       4.890   1.643  -1.958  0.00  0.00     0.062 H 
ATOM     26  C   LIG d   1       4.338  -1.637  -2.544  0.00  0.00     0.117 A 
ATOM     27  H   LIG d   1       3.295  -0.143  -1.413  0.00  0.00     0.065 H 
ATOM     28  C   LIG d   1       5.434  -1.917  -3.352  0.00  0.00    -0.020 A 
ATOM     29  C   LIG d   1       6.330  -0.921  -3.668  0.00  0.00    -0.051 A 
ATOM     30  H   LIG d   1       5.580  -2.916  -3.736  0.00  0.00     0.065 H 
ATOM     31  H   LIG d   1       7.180  -1.138  -4.299  0.00  0.00     0.062 H 
BRANCH  26  32
ATOM     32  O   LIG d   1       3.453  -2.620  -2.240  0.00  0.00    -0.507 OA
ATOM     33  H   LIG d   1       3.864  -3.431  -1.910  0.00  0.00     0.292 HD
ENDBRANCH  26  32
ENDBRANCH  19  22
ENDBRANCH  16  18
ENDBRANCH  15  16
ENDBRANCH  12  15
ENDBRANCH   1  12
BRANCH   3  34
ATOM     34  O   LIG d   1      11.673   4.436  -0.924  0.00  0.00    -0.386 OA
ATOM     35  H   LIG d   1      12.515   4.277  -1.374  0.00  0.00     0.210 HD
ENDBRANCH   3  34
BRANCH   9  36
ATOM     36  O   LIG d   1       8.929   7.385  -4.725  0.00  0.00    -0.461 OA
BRANCH  36  37
ATOM     37  C   LIG d   1       9.368   8.214  -5.708  0.00  0.00     0.124 A 
ATOM     38  C   LIG d   1       9.613   7.714  -6.979  0.00  0.00    -0.016 A 
ATOM     39  C   LIG d   1      10.058   8.557  -7.978  0.00  0.00    -0.017 A 
ATOM     40  H   LIG d   1       9.453   6.667  -7.187  0.00  0.00     0.066 H 
ATOM     41  C   LIG d   1      10.262   9.903  -7.711  0.00  0.00     0.117 A 
ATOM     42  H   LIG d   1      10.249   8.169  -8.968  0.00  0.00     0.066 H 
ATOM     43  C   LIG d   1      10.017  10.403  -6.441  0.00  0.00    -0.017 A 
ATOM     44  C   LIG d   1       9.566   9.561  -5.442  0.00  0.00    -0.016 A 
ATOM     45  H   LIG d   1      10.175  11.451  -6.232  0.00  0.00     0.066 H 
ATOM     46  H   LIG d   1       9.372   9.951  -4.454  0.00  0.00     0.066 H 
BRANCH  41  47
ATOM     47  O   LIG d   1      10.701  10.733  -8.695  0.00  0.00    -0.507 OA
ATOM     48  H   LIG d   1      11.187  10.283  -9.401  0.00  0.00     0.292 HD
ENDBRANCH  41  47
ENDBRANCH  36  37
ENDBRANCH   9  36
BRANCH   5  49
ATOM     49  O   LIG d   1       9.988   6.586  -0.076  0.00  0.00    -0.386 OA
ATOM     50  H   LIG d   1       9.606   5.771   0.277  0.00  0.00     0.210 HD
ENDBRANCH   5  49
BRANCH   7  51
ATOM     51  O   LIG d   1       9.290   8.469  -2.113  0.00  0.00    -0.383 OA
ATOM     52  H   LIG d   1       8.745   8.941  -2.758  0.00  0.00     0.210 HD
ENDBRANCH   7  51
TORSDOF 12
ENDMDL
MODEL 4
REMARK VINA RESULT:      -6.8      6.263     10.626
REMARK  12 active torsions:
REMARK  status: ('A' for Active; 'I' for Inactive)
REMARK    1  A    between atoms: C_3  and  O_35 
REMARK    2  A    between atoms: C_6  and  C_7 
REMARK    3  A    between atoms: C_8  and  C_9 
REMARK    4  A    between atoms: C_9  and  O_11 
REMARK    5  A    between atoms: O_11  and  C_12 
REMARK    6  A    between atoms: C_12  and  C_13 
REMARK    7  A    between atoms: C_15  and  O_34 
REMARK    8  A    between atoms: C_17  and  O_33 
REMARK    9  A    between atoms: C_19  and  O_32 
REMARK   10  A    between atoms: C_21  and  O_24 
REMARK   11  A    between atoms: O_24  and  C_25 
REMARK   12  A    between atoms: C_28  and  O_31 
ROOT
ATOM      1  C   LIG d   1      10.140   2.364  -3.486  0.00  0.00     0.125 C 
ATOM      2  H   LIG d   1      10.437   1.336  -3.278  0.00  0.00     0.066 H 
ATOM      3  C   LIG d   1      10.376   2.675  -4.967  0.00  0.00     0.113 C 
ATOM      4  H   LIG d   1      10.120   3.715  -5.167  0.00  0.00     0.065 H 
ATOM      5  C   LIG d   1       9.497   1.756  -5.820  0.00  0.00     0.115 C 
ATOM      6  H   LIG d   1       9.787   0.719  -5.659  0.00  0.00     0.065 H 
ATOM      7  C   LIG d   1       8.033   1.948  -5.412  0.00  0.00     0.145 C 
ATOM      8  H   LIG d   1       7.727   2.974  -5.622  0.00  0.00     0.068 H 
ATOM      9  C   LIG d   1       7.886   1.666  -3.915  0.00  0.00     0.231 C 
ATOM     10  H   LIG d   1       8.153   0.629  -3.713  0.00  0.00     0.108 H 
ATOM     11  O   LIG d   1       8.754   2.533  -3.181  0.00  0.00    -0.330 OA
ENDROOT
BRANCH   1  12
ATOM     12  C   LIG d   1      10.971   3.319  -2.626  0.00  0.00     0.121 C 
ATOM     13  H   LIG d   1      11.838   3.658  -3.193  0.00  0.00     0.072 H 
ATOM     14  H   LIG d   1      11.305   2.801  -1.728  0.00  0.00     0.072 H 
BRANCH  12  15
ATOM     15  O   LIG d   1      10.173   4.445  -2.258  0.00  0.00    -0.459 OA
BRANCH  15  16
ATOM     16  C   LIG d   1      10.731   5.665  -2.399  0.00  0.00     0.332 C 
ATOM     17  O   LIG d   1      11.336   6.169  -1.471  0.00  0.00    -0.246 OA
BRANCH  16  18
ATOM     18  C   LIG d   1      10.614   6.361  -3.629  0.00  0.00     0.023 C 
ATOM     19  C   LIG d   1       9.699   5.969  -4.542  0.00  0.00    -0.048 C 
ATOM     20  H   LIG d   1       9.057   5.125  -4.336  0.00  0.00     0.063 H 
ATOM     21  H   LIG d   1      11.257   7.204  -3.835  0.00  0.00     0.069 H 
BRANCH  19  22
ATOM     22  C   LIG d   1       9.578   6.690  -5.817  0.00  0.00    -0.025 A 
ATOM     23  C   LIG d   1       9.746   6.008  -7.028  0.00  0.00    -0.051 A 
ATOM     24  C   LIG d   1       9.632   6.689  -8.219  0.00  0.00    -0.020 A 
ATOM     25  H   LIG d   1       9.964   4.951  -7.028  0.00  0.00     0.062 H 
ATOM     26  C   LIG d   1       9.351   8.051  -8.221  0.00  0.00     0.117 A 
ATOM     27  H   LIG d   1       9.762   6.164  -9.154  0.00  0.00     0.065 H 
ATOM     28  C   LIG d   1       9.189   8.734  -7.021  0.00  0.00    -0.020 A 
ATOM     29  C   LIG d   1       9.295   8.061  -5.824  0.00  0.00    -0.051 A 
ATOM     30  H   LIG d   1       8.975   9.792  -7.028  0.00  0.00     0.065 H 
ATOM     31  H   LIG d   1       9.164   8.592  -4.892  0.00  0.00     0.062 H 
BRANCH  26  32
ATOM     32  O   LIG d   1       9.241   8.716  -9.398  0.00  0.00    -0.507 OA
ATOM     33  H   LIG d   1       9.039   8.148 -10.154  0.00  0.00     0.292 HD
ENDBRANCH  26  32
ENDBRANCH  19  22
ENDBRANCH  16  18
ENDBRANCH  15  16
ENDBRANCH  12  15
ENDBRANCH   1  12
BRANCH   3  34
ATOM     34  O   LIG d   1      11.751   2.452  -5.287  0.00  0.00    -0.386 OA
ATOM     35  H   LIG d   1      12.010   2.779  -6.160  0.00  0.00     0.210 HD
ENDBRANCH   3  34
BRANCH   9  36
ATOM     36  O   LIG d   1       6.534   1.896  -3.516  0.00  0.00    -0.461 OA
BRANCH  36  37
ATOM     37  C   LIG d   1       5.793   0.805  -3.187  0.00  0.00     0.124 A 
ATOM     38  C   LIG d   1       6.364  -0.458  -3.226  0.00  0.00    -0.016 A 
ATOM     39  C   LIG d   1       5.612  -1.567  -2.891  0.00  0.00    -0.017 A 
ATOM     40  H   LIG d   1       7.398  -0.575  -3.517  0.00  0.00     0.066 H 
ATOM     41  C   LIG d   1       4.285  -1.418  -2.517  0.00  0.00     0.117 A 
ATOM     42  H   LIG d   1       6.057  -2.551  -2.922  0.00  0.00     0.066 H 
ATOM     43  C   LIG d   1       3.713  -0.155  -2.478  0.00  0.00    -0.017 A 
ATOM     44  C   LIG d   1       4.467   0.955  -2.807  0.00  0.00    -0.016 A 
ATOM     45  H   LIG d   1       2.680  -0.038  -2.186  0.00  0.00     0.066 H 
ATOM     46  H   LIG d   1       4.024   1.939  -2.773  0.00  0.00     0.066 H 
BRANCH  41  47
ATOM     47  O   LIG d   1       3.544  -2.510  -2.188  0.00  0.00    -0.507 OA
ATOM     48  H   LIG d   1       2.600  -2.326  -2.079  0.00  0.00     0.292 HD
ENDBRANCH  41  47
ENDBRANCH  36  37
ENDBRANCH   9  36
BRANCH   5  49
ATOM     49  O   LIG d   1       9.656   2.089  -7.200  0.00  0.00    -0.386 OA
ATOM     50  H   LIG d   1       8.924   1.800  -7.762  0.00  0.00     0.210 HD
ENDBRANCH   5  49
BRANCH   7  51
ATOM     51  O   LIG d   1       7.209   1.044  -6.151  0.00  0.00    -0.383 OA
ATOM     52  H   LIG d   1       6.386   0.806  -5.704  0.00  0.00     0.210 HD
ENDBRANCH   7  51
TORSDOF 12
ENDMDL
MODEL 5
REMARK VINA RESULT:      -6.8      2.598      4.063
REMARK  12 active torsions:
REMARK  status: ('A' for Active; 'I' for Inactive)
REMARK    1  A    between atoms: C_3  and  O_35 
REMARK    2  A    between atoms: C_6  and  C_7 
REMARK    3  A    between atoms: C_8  and  C_9 
REMARK    4  A    between atoms: C_9  and  O_11 
REMARK    5  A    between atoms: O_11  and  C_12 
REMARK    6  A    between atoms: C_12  and  C_13 
REMARK    7  A    between atoms: C_15  and  O_34 
REMARK    8  A    between atoms: C_17  and  O_33 
REMARK    9  A    between atoms: C_19  and  O_32 
REMARK   10  A    between atoms: C_21  and  O_24 
REMARK   11  A    between atoms: O_24  and  C_25 
REMARK   12  A    between atoms: C_28  and  O_31 
ROOT
ATOM      1  C   LIG d   1       6.699  -5.245  -5.767  0.00  0.00     0.125 C 
ATOM      2  H   LIG d   1       6.264  -4.862  -4.844  0.00  0.00     0.066 H 
ATOM      3  C   LIG d   1       6.142  -6.642  -6.054  0.00  0.00     0.113 C 
ATOM      4  H   LIG d   1       6.608  -7.043  -6.954  0.00  0.00     0.065 H 
ATOM      5  C   LIG d   1       4.627  -6.547  -6.258  0.00  0.00     0.115 C 
ATOM      6  H   LIG d   1       4.155  -6.195  -5.342  0.00  0.00     0.065 H 
ATOM      7  C   LIG d   1       4.339  -5.563  -7.396  0.00  0.00     0.145 C 
ATOM      8  H   LIG d   1       4.767  -5.942  -8.324  0.00  0.00     0.068 H 
ATOM      9  C   LIG d   1       4.965  -4.207  -7.058  0.00  0.00     0.231 C 
ATOM     10  H   LIG d   1       4.507  -3.811  -6.153  0.00  0.00     0.108 H 
ATOM     11  O   LIG d   1       6.369  -4.372  -6.850  0.00  0.00    -0.330 OA
ENDROOT
BRANCH   1  12
ATOM     12  C   LIG d   1       8.220  -5.323  -5.620  0.00  0.00     0.121 C 
ATOM     13  H   LIG d   1       8.685  -4.566  -6.252  0.00  0.00     0.072 H 
ATOM     14  H   LIG d   1       8.564  -6.311  -5.923  0.00  0.00     0.072 H 
BRANCH  12  15
ATOM     15  O   LIG d   1       8.579  -5.090  -4.257  0.00  0.00    -0.459 OA
BRANCH  15  16
ATOM     16  C   LIG d   1       8.842  -3.815  -3.901  0.00  0.00     0.332 C 
ATOM     17  O   LIG d   1       9.961  -3.360  -4.051  0.00  0.00    -0.246 OA
BRANCH  16  18
ATOM     18  C   LIG d   1       7.816  -3.006  -3.353  0.00  0.00     0.023 C 
ATOM     19  C   LIG d   1       7.419  -1.887  -3.999  0.00  0.00    -0.048 C 
ATOM     20  H   LIG d   1       7.885  -1.610  -4.933  0.00  0.00     0.063 H 
ATOM     21  H   LIG d   1       7.351  -3.283  -2.418  0.00  0.00     0.069 H 
BRANCH  19  22
ATOM     22  C   LIG d   1       6.355  -1.049  -3.430  0.00  0.00    -0.025 A 
ATOM     23  C   LIG d   1       6.459   0.347  -3.481  0.00  0.00    -0.051 A 
ATOM     24  C   LIG d   1       5.460   1.128  -2.946  0.00  0.00    -0.020 A 
ATOM     25  H   LIG d   1       7.320   0.809  -3.940  0.00  0.00     0.062 H 
ATOM     26  C   LIG d   1       4.349   0.534  -2.356  0.00  0.00     0.117 A 
ATOM     27  H   LIG d   1       5.538   2.204  -2.985  0.00  0.00     0.065 H 
ATOM     28  C   LIG d   1       4.244  -0.851  -2.298  0.00  0.00    -0.020 A 
ATOM     29  C   LIG d   1       5.236  -1.641  -2.835  0.00  0.00    -0.051 A 
ATOM     30  H   LIG d   1       3.382  -1.308  -1.835  0.00  0.00     0.065 H 
ATOM     31  H   LIG d   1       5.151  -2.718  -2.794  0.00  0.00     0.062 H 
BRANCH  26  32
ATOM     32  O   LIG d   1       3.368   1.309  -1.830  0.00  0.00    -0.507 OA
ATOM     33  H   LIG d   1       2.947   0.933  -1.045  0.00  0.00     0.292 HD
ENDBRANCH  26  32
ENDBRANCH  19  22
ENDBRANCH  16  18
ENDBRANCH  15  16
ENDBRANCH  12  15
ENDBRANCH   1  12
BRANCH   3  34
ATOM     34  O   LIG d   1       6.421  -7.503  -4.947  0.00  0.00    -0.386 OA
ATOM     35  H   LIG d   1       7.334  -7.820  -4.917  0.00  0.00     0.210 HD
ENDBRANCH   3  34
BRANCH   9  36
ATOM     36  O   LIG d   1       4.747  -3.298  -8.139  0.00  0.00    -0.461 OA
BRANCH  36  37
ATOM     37  C   LIG d   1       4.214  -2.087  -7.829  0.00  0.00     0.124 A 
ATOM     38  C   LIG d   1       4.518  -1.486  -6.616  0.00  0.00    -0.016 A 
ATOM     39  C   LIG d   1       3.978  -0.254  -6.302  0.00  0.00    -0.017 A 
ATOM     40  H   LIG d   1       5.178  -1.980  -5.919  0.00  0.00     0.066 H 
ATOM     41  C   LIG d   1       3.130   0.381  -7.197  0.00  0.00     0.117 A 
ATOM     42  H   LIG d   1       4.213   0.214  -5.357  0.00  0.00     0.066 H 
ATOM     43  C   LIG d   1       2.827  -0.220  -8.410  0.00  0.00    -0.017 A 
ATOM     44  C   LIG d   1       3.373  -1.449  -8.728  0.00  0.00    -0.016 A 
ATOM     45  H   LIG d   1       2.168   0.275  -9.109  0.00  0.00     0.066 H 
ATOM     46  H   LIG d   1       3.139  -1.915  -9.674  0.00  0.00     0.066 H 
BRANCH  41  47
ATOM     47  O   LIG d   1       2.598   1.593  -6.887  0.00  0.00    -0.507 OA
ATOM     48  H   LIG d   1       2.497   1.747  -5.937  0.00  0.00     0.292 HD
ENDBRANCH  41  47
ENDBRANCH  36  37
ENDBRANCH   9  36
BRANCH   5  49
ATOM     49  O   LIG d   1       4.109  -7.835  -6.598  0.00  0.00    -0.386 OA
ATOM     50  H   LIG d   1       4.494  -8.215  -7.400  0.00  0.00     0.210 HD
ENDBRANCH   5  49
BRANCH   7  51
ATOM     51  O   LIG d   1       2.926  -5.411  -7.549  0.00  0.00    -0.383 OA
ATOM     52  H   LIG d   1       2.547  -4.694  -7.021  0.00  0.00     0.210 HD
ENDBRANCH   7  51
TORSDOF 12
ENDMDL
MODEL 6
REMARK VINA RESULT:      -6.6      7.895     13.146
REMARK  12 active torsions:
REMARK  status: ('A' for Active; 'I' for Inactive)
REMARK    1  A    between atoms: C_3  and  O_35 
REMARK    2  A    between atoms: C_6  and  C_7 
REMARK    3  A    between atoms: C_8  and  C_9 
REMARK    4  A    between atoms: C_9  and  O_11 
REMARK    5  A    between atoms: O_11  and  C_12 
REMARK    6  A    between atoms: C_12  and  C_13 
REMARK    7  A    between atoms: C_15  and  O_34 
REMARK    8  A    between atoms: C_17  and  O_33 
REMARK    9  A    between atoms: C_19  and  O_32 
REMARK   10  A    between atoms: C_21  and  O_24 
REMARK   11  A    between atoms: O_24  and  C_25 
REMARK   12  A    between atoms: C_28  and  O_31 
ROOT
ATOM      1  C   LIG d   1      10.732   5.421  -2.831  0.00  0.00     0.125 C 
ATOM      2  H   LIG d   1      11.039   6.259  -3.456  0.00  0.00     0.066 H 
ATOM      3  C   LIG d   1      11.880   4.414  -2.724  0.00  0.00     0.113 C 
ATOM      4  H   LIG d   1      11.559   3.556  -2.134  0.00  0.00     0.065 H 
ATOM      5  C   LIG d   1      13.077   5.086  -2.045  0.00  0.00     0.115 C 
ATOM      6  H   LIG d   1      13.431   5.912  -2.660  0.00  0.00     0.065 H 
ATOM      7  C   LIG d   1      12.640   5.616  -0.676  0.00  0.00     0.145 C 
ATOM      8  H   LIG d   1      12.335   4.782  -0.043  0.00  0.00     0.068 H 
ATOM      9  C   LIG d   1      11.462   6.576  -0.861  0.00  0.00     0.231 C 
ATOM     10  H   LIG d   1      11.780   7.429  -1.459  0.00  0.00     0.108 H 
ATOM     11  O   LIG d   1      10.395   5.897  -1.526  0.00  0.00    -0.330 OA
ENDROOT
BRANCH   1  12
ATOM     12  C   LIG d   1       9.512   4.739  -3.455  0.00  0.00     0.121 C 
ATOM     13  H   LIG d   1       9.545   4.856  -4.538  0.00  0.00     0.072 H 
ATOM     14  H   LIG d   1       8.603   5.197  -3.068  0.00  0.00     0.072 H 
BRANCH  12  15
ATOM     15  O   LIG d   1       9.523   3.349  -3.126  0.00  0.00    -0.459 OA
BRANCH  15  16
ATOM     16  C   LIG d   1       9.169   2.486  -4.101  0.00  0.00     0.332 C 
ATOM     17  O   LIG d   1       9.603   2.629  -5.229  0.00  0.00    -0.246 OA
BRANCH  16  18
ATOM     18  C   LIG d   1       8.290   1.411  -3.812  0.00  0.00     0.023 C 
ATOM     19  C   LIG d   1       7.012   1.663  -3.449  0.00  0.00    -0.048 C 
ATOM     20  H   LIG d   1       6.662   2.681  -3.379  0.00  0.00     0.063 H 
ATOM     21  H   LIG d   1       8.641   0.393  -3.881  0.00  0.00     0.069 H 
BRANCH  19  22
ATOM     22  C   LIG d   1       6.102   0.549  -3.150  0.00  0.00    -0.025 A 
ATOM     23  C   LIG d   1       6.291  -0.696  -3.763  0.00  0.00    -0.051 A 
ATOM     24  C   LIG d   1       5.435  -1.736  -3.479  0.00  0.00    -0.020 A 
ATOM     25  H   LIG d   1       7.106  -0.840  -4.455  0.00  0.00     0.062 H 
ATOM     26  C   LIG d   1       4.384  -1.552  -2.587  0.00  0.00     0.117 A 
ATOM     27  H   LIG d   1       5.579  -2.697  -3.951  0.00  0.00     0.065 H 
ATOM     28  C   LIG d   1       4.189  -0.316  -1.980  0.00  0.00    -0.020 A 
ATOM     29  C   LIG d   1       5.043   0.728  -2.252  0.00  0.00    -0.051 A 
ATOM     30  H   LIG d   1       3.369  -0.178  -1.291  0.00  0.00     0.065 H 
ATOM     31  H   LIG d   1       4.893   1.687  -1.777  0.00  0.00     0.062 H 
BRANCH  26  32
ATOM     32  O   LIG d   1       3.543  -2.581  -2.312  0.00  0.00    -0.507 OA
ATOM     33  H   LIG d   1       3.261  -2.623  -1.388  0.00  0.00     0.292 HD
ENDBRANCH  26  32
ENDBRANCH  19  22
ENDBRANCH  16  18
ENDBRANCH  15  16
ENDBRANCH  12  15
ENDBRANCH   1  12
BRANCH   3  34
ATOM     34  O   LIG d   1      12.256   3.980  -4.033  0.00  0.00    -0.386 OA
ATOM     35  H   LIG d   1      11.512   3.696  -4.582  0.00  0.00     0.210 HD
ENDBRANCH   3  34
BRANCH   9  36
ATOM     36  O   LIG d   1      11.013   7.032   0.417  0.00  0.00    -0.461 OA
BRANCH  36  37
ATOM     37  C   LIG d   1      11.018   8.375   0.630  0.00  0.00     0.124 A 
ATOM     38  C   LIG d   1      10.244   9.206  -0.166  0.00  0.00    -0.016 A 
ATOM     39  C   LIG d   1      10.248  10.570   0.051  0.00  0.00    -0.017 A 
ATOM     40  H   LIG d   1       9.637   8.786  -0.954  0.00  0.00     0.066 H 
ATOM     41  C   LIG d   1      11.028  11.109   1.063  0.00  0.00     0.117 A 
ATOM     42  H   LIG d   1       9.646  11.218  -0.569  0.00  0.00     0.066 H 
ATOM     43  C   LIG d   1      11.802  10.278   1.860  0.00  0.00    -0.017 A 
ATOM     44  C   LIG d   1      11.793   8.913   1.647  0.00  0.00    -0.016 A 
ATOM     45  H   LIG d   1      12.408  10.697   2.649  0.00  0.00     0.066 H 
ATOM     46  H   LIG d   1      12.393   8.265   2.269  0.00  0.00     0.066 H 
BRANCH  41  47
ATOM     47  O   LIG d   1      11.033  12.452   1.276  0.00  0.00    -0.507 OA
ATOM     48  H   LIG d   1      11.915  12.848   1.268  0.00  0.00     0.292 HD
ENDBRANCH  41  47
ENDBRANCH  36  37
ENDBRANCH   9  36
BRANCH   5  49
ATOM     49  O   LIG d   1      14.128   4.133  -1.876  0.00  0.00    -0.386 OA
ATOM     50  H   LIG d   1      14.026   3.569  -1.096  0.00  0.00     0.210 HD
ENDBRANCH   5  49
BRANCH   7  51
ATOM     51  O   LIG d   1      13.729   6.308  -0.062  0.00  0.00    -0.383 OA
ATOM     52  H   LIG d   1      14.577   5.848  -0.129  0.00  0.00     0.210 HD
ENDBRANCH   7  51
TORSDOF 12
ENDMDL
MODEL 7
REMARK VINA RESULT:      -6.5      7.780     12.539
REMARK  12 active torsions:
REMARK  status: ('A' for Active; 'I' for Inactive)
REMARK    1  A    between atoms: C_3  and  O_35 
REMARK    2  A    between atoms: C_6  and  C_7 
REMARK    3  A    between atoms: C_8  and  C_9 
REMARK    4  A    between atoms: C_9  and  O_11 
REMARK    5  A    between atoms: O_11  and  C_12 
REMARK    6  A    between atoms: C_12  and  C_13 
REMARK    7  A    between atoms: C_15  and  O_34 
REMARK    8  A    between atoms: C_17  and  O_33 
REMARK    9  A    between atoms: C_19  and  O_32 
REMARK   10  A    between atoms: C_21  and  O_24 
REMARK   11  A    between atoms: O_24  and  C_25 
REMARK   12  A    between atoms: C_28  and  O_31 
ROOT
ATOM      1  C   LIG d   1      10.443   5.499  -3.141  0.00  0.00     0.125 C 
ATOM      2  H   LIG d   1      11.400   5.865  -3.515  0.00  0.00     0.066 H 
ATOM      3  C   LIG d   1      10.677   4.632  -1.901  0.00  0.00     0.113 C 
ATOM      4  H   LIG d   1       9.725   4.232  -1.551  0.00  0.00     0.065 H 
ATOM      5  C   LIG d   1      11.309   5.489  -0.800  0.00  0.00     0.115 C 
ATOM      6  H   LIG d   1      12.284   5.848  -1.130  0.00  0.00     0.065 H 
ATOM      7  C   LIG d   1      10.395   6.683  -0.511  0.00  0.00     0.145 C 
ATOM      8  H   LIG d   1       9.437   6.325  -0.131  0.00  0.00     0.068 H 
ATOM      9  C   LIG d   1      10.172   7.471  -1.804  0.00  0.00     0.231 C 
ATOM     10  H   LIG d   1      11.124   7.863  -2.159  0.00  0.00     0.108 H 
ATOM     11  O   LIG d   1       9.610   6.608  -2.795  0.00  0.00    -0.330 OA
ENDROOT
BRANCH   1  12
ATOM     12  C   LIG d   1       9.757   4.665  -4.225  0.00  0.00     0.121 C 
ATOM     13  H   LIG d   1      10.495   4.347  -4.961  0.00  0.00     0.072 H 
ATOM     14  H   LIG d   1       8.991   5.265  -4.715  0.00  0.00     0.072 H 
BRANCH  12  15
ATOM     15  O   LIG d   1       9.153   3.515  -3.630  0.00  0.00    -0.459 OA
BRANCH  15  16
ATOM     16  C   LIG d   1       9.143   2.381  -4.360  0.00  0.00     0.332 C 
ATOM     17  O   LIG d   1       9.882   2.269  -5.320  0.00  0.00    -0.246 OA
BRANCH  16  18
ATOM     18  C   LIG d   1       8.272   1.318  -4.008  0.00  0.00     0.023 C 
ATOM     19  C   LIG d   1       7.019   1.586  -3.581  0.00  0.00    -0.048 C 
ATOM     20  H   LIG d   1       6.681   2.608  -3.507  0.00  0.00     0.063 H 
ATOM     21  H   LIG d   1       8.612   0.296  -4.082  0.00  0.00     0.069 H 
BRANCH  19  22
ATOM     22  C   LIG d   1       6.116   0.484  -3.217  0.00  0.00    -0.025 A 
ATOM     23  C   LIG d   1       5.053   0.711  -2.334  0.00  0.00    -0.051 A 
ATOM     24  C   LIG d   1       4.212  -0.324  -1.996  0.00  0.00    -0.020 A 
ATOM     25  H   LIG d   1       4.894   1.695  -1.920  0.00  0.00     0.062 H 
ATOM     26  C   LIG d   1       4.415  -1.593  -2.529  0.00  0.00     0.117 A 
ATOM     27  H   LIG d   1       3.391  -0.152  -1.316  0.00  0.00     0.065 H 
ATOM     28  C   LIG d   1       5.473  -1.824  -3.402  0.00  0.00    -0.020 A 
ATOM     29  C   LIG d   1       6.317  -0.794  -3.751  0.00  0.00    -0.051 A 
ATOM     30  H   LIG d   1       5.629  -2.812  -3.810  0.00  0.00     0.065 H 
ATOM     31  H   LIG d   1       7.136  -0.973  -4.433  0.00  0.00     0.062 H 
BRANCH  26  32
ATOM     32  O   LIG d   1       3.582  -2.609  -2.192  0.00  0.00    -0.507 OA
ATOM     33  H   LIG d   1       3.754  -3.434  -2.667  0.00  0.00     0.292 HD
ENDBRANCH  26  32
ENDBRANCH  19  22
ENDBRANCH  16  18
ENDBRANCH  15  16
ENDBRANCH  12  15
ENDBRANCH   1  12
BRANCH   3  34
ATOM     34  O   LIG d   1      11.556   3.555  -2.232  0.00  0.00    -0.386 OA
ATOM     35  H   LIG d   1      11.996   3.656  -3.087  0.00  0.00     0.210 HD
ENDBRANCH   3  34
BRANCH   9  36
ATOM     36  O   LIG d   1       9.275   8.556  -1.553  0.00  0.00    -0.461 OA
BRANCH  36  37
ATOM     37  C   LIG d   1       9.715   9.804  -1.861  0.00  0.00     0.124 A 
ATOM     38  C   LIG d   1       9.964  10.146  -3.182  0.00  0.00    -0.016 A 
ATOM     39  C   LIG d   1      10.410  11.415  -3.495  0.00  0.00    -0.017 A 
ATOM     40  H   LIG d   1       9.807   9.420  -3.966  0.00  0.00     0.066 H 
ATOM     41  C   LIG d   1      10.611  12.347  -2.488  0.00  0.00     0.117 A 
ATOM     42  H   LIG d   1      10.604  11.681  -4.524  0.00  0.00     0.066 H 
ATOM     43  C   LIG d   1      10.363  12.006  -1.167  0.00  0.00    -0.017 A 
ATOM     44  C   LIG d   1       9.910  10.739  -0.855  0.00  0.00    -0.016 A 
ATOM     45  H   LIG d   1      10.518  12.732  -0.383  0.00  0.00     0.066 H 
ATOM     46  H   LIG d   1       9.713  10.474   0.174  0.00  0.00     0.066 H 
BRANCH  41  47
ATOM     47  O   LIG d   1      11.052  13.596  -2.796  0.00  0.00    -0.507 OA
ATOM     48  H   LIG d   1      10.514  14.050  -3.460  0.00  0.00     0.292 HD
ENDBRANCH  41  47
ENDBRANCH  36  37
ENDBRANCH   9  36
BRANCH   5  49
ATOM     49  O   LIG d   1      11.464   4.706   0.385  0.00  0.00    -0.386 OA
ATOM     50  H   LIG d   1      11.860   5.187   1.125  0.00  0.00     0.210 HD
ENDBRANCH   5  49
BRANCH   7  51
ATOM     51  O   LIG d   1      11.008   7.529   0.464  0.00  0.00    -0.383 OA
ATOM     52  H   LIG d   1      10.699   7.377   1.368  0.00  0.00     0.210 HD
ENDBRANCH   7  51
TORSDOF 12
ENDMDL
MODEL 8
REMARK VINA RESULT:      -6.4      4.651      8.148
REMARK  12 active torsions:
REMARK  status: ('A' for Active; 'I' for Inactive)
REMARK    1  A    between atoms: C_3  and  O_35 
REMARK    2  A    between atoms: C_6  and  C_7 
REMARK    3  A    between atoms: C_8  and  C_9 
REMARK    4  A    between atoms: C_9  and  O_11 
REMARK    5  A    between atoms: O_11  and  C_12 
REMARK    6  A    between atoms: C_12  and  C_13 
REMARK    7  A    between atoms: C_15  and  O_34 
REMARK    8  A    between atoms: C_17  and  O_33 
REMARK    9  A    between atoms: C_19  and  O_32 
REMARK   10  A    between atoms: C_21  and  O_24 
REMARK   11  A    between atoms: O_24  and  C_25 
REMARK   12  A    between atoms: C_28  and  O_31 
ROOT
ATOM      1  C   LIG d   1       5.930  -8.731  -5.418  0.00  0.00     0.125 C 
ATOM      2  H   LIG d   1       6.010  -9.620  -6.043  0.00  0.00     0.066 H 
ATOM      3  C   LIG d   1       5.102  -9.055  -4.171  0.00  0.00     0.113 C 
ATOM      4  H   LIG d   1       4.986  -8.156  -3.566  0.00  0.00     0.065 H 
ATOM      5  C   LIG d   1       5.821 -10.134  -3.356  0.00  0.00     0.115 C 
ATOM      6  H   LIG d   1       5.891 -11.050  -3.942  0.00  0.00     0.065 H 
ATOM      7  C   LIG d   1       7.227  -9.640  -3.006  0.00  0.00     0.145 C 
ATOM      8  H   LIG d   1       7.156  -8.753  -2.376  0.00  0.00     0.068 H 
ATOM      9  C   LIG d   1       7.975  -9.293  -4.296  0.00  0.00     0.231 C 
ATOM     10  H   LIG d   1       8.081 -10.190  -4.906  0.00  0.00     0.108 H 
ATOM     11  O   LIG d   1       7.237  -8.307  -5.021  0.00  0.00    -0.330 OA
ENDROOT
BRANCH   1  12
ATOM     12  C   LIG d   1       5.248  -7.612  -6.207  0.00  0.00     0.121 C 
ATOM     13  H   LIG d   1       4.167  -7.740  -6.159  0.00  0.00     0.072 H 
ATOM     14  H   LIG d   1       5.574  -7.650  -7.246  0.00  0.00     0.072 H 
BRANCH  12  15
ATOM     15  O   LIG d   1       5.602  -6.348  -5.642  0.00  0.00    -0.459 OA
BRANCH  15  16
ATOM     16  C   LIG d   1       4.654  -5.388  -5.645  0.00  0.00     0.332 C 
ATOM     17  O   LIG d   1       3.539  -5.635  -6.065  0.00  0.00    -0.246 OA
BRANCH  16  18
ATOM     18  C   LIG d   1       4.956  -4.091  -5.157  0.00  0.00     0.023 C 
ATOM     19  C   LIG d   1       4.364  -3.639  -4.029  0.00  0.00    -0.048 C 
ATOM     20  H   LIG d   1       3.663  -4.265  -3.500  0.00  0.00     0.063 H 
ATOM     21  H   LIG d   1       5.657  -3.465  -5.688  0.00  0.00     0.069 H 
BRANCH  19  22
ATOM     22  C   LIG d   1       4.678  -2.295  -3.524  0.00  0.00    -0.025 A 
ATOM     23  C   LIG d   1       4.009  -1.794  -2.400  0.00  0.00    -0.051 A 
ATOM     24  C   LIG d   1       4.306  -0.535  -1.932  0.00  0.00    -0.020 A 
ATOM     25  H   LIG d   1       3.263  -2.395  -1.902  0.00  0.00     0.062 H 
ATOM     26  C   LIG d   1       5.267   0.240  -2.572  0.00  0.00     0.117 A 
ATOM     27  H   LIG d   1       3.791  -0.147  -1.065  0.00  0.00     0.065 H 
ATOM     28  C   LIG d   1       5.929  -0.250  -3.692  0.00  0.00    -0.020 A 
ATOM     29  C   LIG d   1       5.644  -1.511  -4.165  0.00  0.00    -0.051 A 
ATOM     30  H   LIG d   1       6.672   0.357  -4.188  0.00  0.00     0.065 H 
ATOM     31  H   LIG d   1       6.163  -1.893  -5.033  0.00  0.00     0.062 H 
BRANCH  26  32
ATOM     32  O   LIG d   1       5.555   1.482  -2.106  0.00  0.00    -0.507 OA
ATOM     33  H   LIG d   1       6.241   1.497  -1.424  0.00  0.00     0.292 HD
ENDBRANCH  26  32
ENDBRANCH  19  22
ENDBRANCH  16  18
ENDBRANCH  15  16
ENDBRANCH  12  15
ENDBRANCH   1  12
BRANCH   3  34
ATOM     34  O   LIG d   1       3.814  -9.534  -4.566  0.00  0.00    -0.386 OA
ATOM     35  H   LIG d   1       3.605  -9.375  -5.498  0.00  0.00     0.210 HD
ENDBRANCH   3  34
BRANCH   9  36
ATOM     36  O   LIG d   1       9.269  -8.779  -3.975  0.00  0.00    -0.461 OA
BRANCH  36  37
ATOM     37  C   LIG d   1       9.329  -7.499  -3.520  0.00  0.00     0.124 A 
ATOM     38  C   LIG d   1       9.166  -6.442  -4.402  0.00  0.00    -0.016 A 
ATOM     39  C   LIG d   1       9.225  -5.142  -3.940  0.00  0.00    -0.017 A 
ATOM     40  H   LIG d   1       8.991  -6.635  -5.450  0.00  0.00     0.066 H 
ATOM     41  C   LIG d   1       9.450  -4.893  -2.594  0.00  0.00     0.117 A 
ATOM     42  H   LIG d   1       9.099  -4.317  -4.627  0.00  0.00     0.066 H 
ATOM     43  C   LIG d   1       9.613  -5.951  -1.711  0.00  0.00    -0.017 A 
ATOM     44  C   LIG d   1       9.547  -7.252  -2.173  0.00  0.00    -0.016 A 
ATOM     45  H   LIG d   1       9.787  -5.759  -0.663  0.00  0.00     0.066 H 
ATOM     46  H   LIG d   1       9.670  -8.076  -1.485  0.00  0.00     0.066 H 
BRANCH  41  47
ATOM     47  O   LIG d   1       9.510  -3.614  -2.139  0.00  0.00    -0.507 OA
ATOM     48  H   LIG d   1       8.889  -3.012  -2.574  0.00  0.00     0.292 HD
ENDBRANCH  41  47
ENDBRANCH  36  37
ENDBRANCH   9  36
BRANCH   5  49
ATOM     49  O   LIG d   1       5.091 -10.391  -2.154  0.00  0.00    -0.386 OA
ATOM     50  H   LIG d   1       5.368  -9.849  -1.403  0.00  0.00     0.210 HD
ENDBRANCH   5  49
BRANCH   7  51
ATOM     51  O   LIG d   1       7.934 -10.667  -2.307  0.00  0.00    -0.383 OA
ATOM     52  H   LIG d   1       8.891 -10.533  -2.272  0.00  0.00     0.210 HD
ENDBRANCH   7  51
TORSDOF 12
ENDMDL
MODEL 9
REMARK VINA RESULT:      -6.4      9.480     15.018
REMARK  12 active torsions:
REMARK  status: ('A' for Active; 'I' for Inactive)
REMARK    1  A    between atoms: C_3  and  O_35 
REMARK    2  A    between atoms: C_6  and  C_7 
REMARK    3  A    between atoms: C_8  and  C_9 
REMARK    4  A    between atoms: C_9  and  O_11 
REMARK    5  A    between atoms: O_11  and  C_12 
REMARK    6  A    between atoms: C_12  and  C_13 
REMARK    7  A    between atoms: C_15  and  O_34 
REMARK    8  A    between atoms: C_17  and  O_33 
REMARK    9  A    between atoms: C_19  and  O_32 
REMARK   10  A    between atoms: C_21  and  O_24 
REMARK   11  A    between atoms: O_24  and  C_25 
REMARK   12  A    between atoms: C_28  and  O_31 
ROOT
ATOM      1  C   LIG d   1      10.561  10.767  -4.796  0.00  0.00     0.125 C 
ATOM      2  H   LIG d   1       9.964  10.062  -5.374  0.00  0.00     0.066 H 
ATOM      3  C   LIG d   1       9.700  11.972  -4.408  0.00  0.00     0.113 C 
ATOM      4  H   LIG d   1      10.307  12.695  -3.866  0.00  0.00     0.065 H 
ATOM      5  C   LIG d   1       8.546  11.500  -3.518  0.00  0.00     0.115 C 
ATOM      6  H   LIG d   1       7.909  10.815  -4.077  0.00  0.00     0.065 H 
ATOM      7  C   LIG d   1       9.122  10.781  -2.295  0.00  0.00     0.145 C 
ATOM      8  H   LIG d   1       9.718  11.481  -1.708  0.00  0.00     0.068 H 
ATOM      9  C   LIG d   1      10.007   9.622  -2.762  0.00  0.00     0.231 C 
ATOM     10  H   LIG d   1       9.401   8.903  -3.313  0.00  0.00     0.108 H 
ATOM     11  O   LIG d   1      11.040  10.126  -3.610  0.00  0.00    -0.330 OA
ENDROOT
BRANCH   1  12
ATOM     12  C   LIG d   1      11.750  11.238  -5.636  0.00  0.00     0.121 C 
ATOM     13  H   LIG d   1      12.653  11.228  -5.026  0.00  0.00     0.072 H 
ATOM     14  H   LIG d   1      11.563  12.250  -5.993  0.00  0.00     0.072 H 
BRANCH  12  15
ATOM     15  O   LIG d   1      11.921  10.362  -6.752  0.00  0.00    -0.459 OA
BRANCH  15  16
ATOM     16  C   LIG d   1      10.949  10.365  -7.688  0.00  0.00     0.332 C 
ATOM     17  O   LIG d   1      10.461  11.418  -8.056  0.00  0.00    -0.246 OA
BRANCH  16  18
ATOM     18  C   LIG d   1      10.495   9.142  -8.244  0.00  0.00     0.023 C 
ATOM     19  C   LIG d   1      10.208   8.098  -7.435  0.00  0.00    -0.048 C 
ATOM     20  H   LIG d   1      10.326   8.195  -6.366  0.00  0.00     0.063 H 
ATOM     21  H   LIG d   1      10.378   9.046  -9.313  0.00  0.00     0.069 H 
BRANCH  19  22
ATOM     22  C   LIG d   1       9.738   6.831  -8.011  0.00  0.00    -0.025 A 
ATOM     23  C   LIG d   1       9.017   6.831  -9.212  0.00  0.00    -0.051 A 
ATOM     24  C   LIG d   1       8.578   5.642  -9.747  0.00  0.00    -0.020 A 
ATOM     25  H   LIG d   1       8.806   7.762  -9.716  0.00  0.00     0.062 H 
ATOM     26  C   LIG d   1       8.848   4.442  -9.098  0.00  0.00     0.117 A 
ATOM     27  H   LIG d   1       8.022   5.640 -10.673  0.00  0.00     0.065 H 
ATOM     28  C   LIG d   1       9.559   4.437  -7.903  0.00  0.00    -0.020 A 
ATOM     29  C   LIG d   1      10.008   5.621  -7.362  0.00  0.00    -0.051 A 
ATOM     30  H   LIG d   1       9.763   3.503  -7.401  0.00  0.00     0.065 H 
ATOM     31  H   LIG d   1      10.564   5.616  -6.436  0.00  0.00     0.062 H 
BRANCH  26  32
ATOM     32  O   LIG d   1       8.412   3.272  -9.631  0.00  0.00    -0.507 OA
ATOM     33  H   LIG d   1       8.433   3.248 -10.597  0.00  0.00     0.292 HD
ENDBRANCH  26  32
ENDBRANCH  19  22
ENDBRANCH  16  18
ENDBRANCH  15  16
ENDBRANCH  12  15
ENDBRANCH   1  12
BRANCH   3  34
ATOM     34  O   LIG d   1       9.173  12.579  -5.590  0.00  0.00    -0.386 OA
ATOM     35  H   LIG d   1       8.546  12.022  -6.073  0.00  0.00     0.210 HD
ENDBRANCH   3  34
BRANCH   9  36
ATOM     36  O   LIG d   1      10.592   8.981  -1.627  0.00  0.00    -0.461 OA
BRANCH  36  37
ATOM     37  C   LIG d   1      10.688   7.625  -1.665  0.00  0.00     0.124 A 
ATOM     38  C   LIG d   1       9.899   6.899  -2.546  0.00  0.00    -0.016 A 
ATOM     39  C   LIG d   1       9.997   5.522  -2.585  0.00  0.00    -0.017 A 
ATOM     40  H   LIG d   1       9.210   7.411  -3.201  0.00  0.00     0.066 H 
ATOM     41  C   LIG d   1      10.882   4.865  -1.744  0.00  0.00     0.117 A 
ATOM     42  H   LIG d   1       9.382   4.956  -3.270  0.00  0.00     0.066 H 
ATOM     43  C   LIG d   1      11.671   5.591  -0.863  0.00  0.00    -0.017 A 
ATOM     44  C   LIG d   1      11.577   6.969  -0.828  0.00  0.00    -0.016 A 
ATOM     45  H   LIG d   1      12.361   5.080  -0.208  0.00  0.00     0.066 H 
ATOM     46  H   LIG d   1      12.194   7.535  -0.145  0.00  0.00     0.066 H 
BRANCH  41  47
ATOM     47  O   LIG d   1      10.977   3.509  -1.782  0.00  0.00    -0.507 OA
ATOM     48  H   LIG d   1      11.404   3.168  -2.580  0.00  0.00     0.292 HD
ENDBRANCH  41  47
ENDBRANCH  36  37
ENDBRANCH   9  36
BRANCH   5  49
ATOM     49  O   LIG d   1       7.779  12.628  -3.093  0.00  0.00    -0.386 OA
ATOM     50  H   LIG d   1       8.116  13.053  -2.293  0.00  0.00     0.210 HD
ENDBRANCH   5  49
BRANCH   7  51
ATOM     51  O   LIG d   1       8.055  10.274  -1.492  0.00  0.00    -0.383 OA
ATOM     52  H   LIG d   1       8.337   9.926  -0.635  0.00  0.00     0.210 HD
ENDBRANCH   7  51
TORSDOF 12
ENDMDL
MODEL 10
REMARK VINA RESULT:      -6.2      3.592      6.573
REMARK  12 active torsions:
REMARK  status: ('A' for Active; 'I' for Inactive)
REMARK    1  A    between atoms: C_3  and  O_35 
REMARK    2  A    between atoms: C_6  and  C_7 
REMARK    3  A    between atoms: C_8  and  C_9 
REMARK    4  A    between atoms: C_9  and  O_11 
REMARK    5  A    between atoms: O_11  and  C_12 
REMARK    6  A    between atoms: C_12  and  C_13 
REMARK    7  A    between atoms: C_15  and  O_34 
REMARK    8  A    between atoms: C_17  and  O_33 
REMARK    9  A    between atoms: C_19  and  O_32 
REMARK   10  A    between atoms: C_21  and  O_24 
REMARK   11  A    between atoms: O_24  and  C_25 
REMARK   12  A    between atoms: C_28  and  O_31 
ROOT
ATOM      1  C   LIG d   1       4.927  -1.786  -5.718  0.00  0.00     0.125 C 
ATOM      2  H   LIG d   1       5.813  -1.155  -5.787  0.00  0.00     0.066 H 
ATOM      3  C   LIG d   1       4.348  -1.703  -4.303  0.00  0.00     0.113 C 
ATOM      4  H   LIG d   1       3.487  -2.365  -4.221  0.00  0.00     0.065 H 
ATOM      5  C   LIG d   1       3.916  -0.261  -4.020  0.00  0.00     0.115 C 
ATOM      6  H   LIG d   1       4.785   0.395  -4.050  0.00  0.00     0.065 H 
ATOM      7  C   LIG d   1       2.907   0.175  -5.086  0.00  0.00     0.145 C 
ATOM      8  H   LIG d   1       2.015  -0.449  -5.020  0.00  0.00     0.068 H 
ATOM      9  C   LIG d   1       3.539   0.020  -6.471  0.00  0.00     0.231 C 
ATOM     10  H   LIG d   1       4.407   0.675  -6.549  0.00  0.00     0.108 H 
ATOM     11  O   LIG d   1       3.947  -1.337  -6.658  0.00  0.00    -0.330 OA
ENDROOT
BRANCH   1  12
ATOM     12  C   LIG d   1       5.307  -3.234  -6.030  0.00  0.00     0.121 C 
ATOM     13  H   LIG d   1       6.296  -3.446  -5.625  0.00  0.00     0.072 H 
ATOM     14  H   LIG d   1       5.316  -3.383  -7.109  0.00  0.00     0.072 H 
BRANCH  12  15
ATOM     15  O   LIG d   1       4.351  -4.115  -5.437  0.00  0.00    -0.459 OA
BRANCH  15  16
ATOM     16  C   LIG d   1       4.159  -5.307  -6.040  0.00  0.00     0.332 C 
ATOM     17  O   LIG d   1       3.538  -5.367  -7.085  0.00  0.00    -0.246 OA
BRANCH  16  18
ATOM     18  C   LIG d   1       4.680  -6.490  -5.456  0.00  0.00     0.023 C 
ATOM     19  C   LIG d   1       4.693  -7.642  -6.162  0.00  0.00    -0.048 C 
ATOM     20  H   LIG d   1       4.306  -7.662  -7.170  0.00  0.00     0.063 H 
ATOM     21  H   LIG d   1       5.065  -6.469  -4.447  0.00  0.00     0.069 H 
BRANCH  19  22
ATOM     22  C   LIG d   1       5.233  -8.868  -5.556  0.00  0.00    -0.025 A 
ATOM     23  C   LIG d   1       4.720 -10.117  -5.926  0.00  0.00    -0.051 A 
ATOM     24  C   LIG d   1       5.229 -11.262  -5.356  0.00  0.00    -0.020 A 
ATOM     25  H   LIG d   1       3.929 -10.183  -6.657  0.00  0.00     0.062 H 
ATOM     26  C   LIG d   1       6.249 -11.179  -4.414  0.00  0.00     0.117 A 
ATOM     27  H   LIG d   1       4.835 -12.226  -5.640  0.00  0.00     0.065 H 
ATOM     28  C   LIG d   1       6.757  -9.940  -4.040  0.00  0.00    -0.020 A 
ATOM     29  C   LIG d   1       6.259  -8.790  -4.609  0.00  0.00    -0.051 A 
ATOM     30  H   LIG d   1       7.547  -9.881  -3.305  0.00  0.00     0.065 H 
ATOM     31  H   LIG d   1       6.658  -7.828  -4.320  0.00  0.00     0.062 H 
BRANCH  26  32
ATOM     32  O   LIG d   1       6.747 -12.311  -3.855  0.00  0.00    -0.507 OA
ATOM     33  H   LIG d   1       6.071 -12.956  -3.605  0.00  0.00     0.292 HD
ENDBRANCH  26  32
ENDBRANCH  19  22
ENDBRANCH  16  18
ENDBRANCH  15  16
ENDBRANCH  12  15
ENDBRANCH   1  12
BRANCH   3  34
ATOM     34  O   LIG d   1       5.346  -2.096  -3.357  0.00  0.00    -0.386 OA
ATOM     35  H   LIG d   1       6.074  -2.604  -3.742  0.00  0.00     0.210 HD
ENDBRANCH   3  34
BRANCH   9  36
ATOM     36  O   LIG d   1       2.584   0.373  -7.474  0.00  0.00    -0.461 OA
BRANCH  36  37
ATOM     37  C   LIG d   1       3.011   0.359  -8.765  0.00  0.00     0.124 A 
ATOM     38  C   LIG d   1       4.092   1.141  -9.146  0.00  0.00    -0.016 A 
ATOM     39  C   LIG d   1       4.527   1.126 -10.456  0.00  0.00    -0.017 A 
ATOM     40  H   LIG d   1       4.595   1.759  -8.417  0.00  0.00     0.066 H 
ATOM     41  C   LIG d   1       3.882   0.332 -11.393  0.00  0.00     0.117 A 
ATOM     42  H   LIG d   1       5.368   1.735 -10.754  0.00  0.00     0.066 H 
ATOM     43  C   LIG d   1       2.801  -0.450 -11.012  0.00  0.00    -0.017 A 
ATOM     44  C   LIG d   1       2.370  -0.440  -9.699  0.00  0.00    -0.016 A 
ATOM     45  H   LIG d   1       2.299  -1.069 -11.741  0.00  0.00     0.066 H 
ATOM     46  H   LIG d   1       1.531  -1.052  -9.402  0.00  0.00     0.066 H 
BRANCH  41  47
ATOM     47  O   LIG d   1       4.309   0.319 -12.683  0.00  0.00    -0.507 OA
ATOM     48  H   LIG d   1       5.181  -0.083 -12.805  0.00  0.00     0.292 HD
ENDBRANCH  41  47
ENDBRANCH  36  37
ENDBRANCH   9  36
BRANCH   5  49
ATOM     49  O   LIG d   1       3.309  -0.189  -2.728  0.00  0.00    -0.386 OA
ATOM     50  H   LIG d   1       2.968   0.687  -2.502  0.00  0.00     0.210 HD
ENDBRANCH   5  49
BRANCH   7  51
ATOM     51  O   LIG d   1       2.549   1.542  -4.875  0.00  0.00    -0.383 OA
ATOM     52  H   LIG d   1       3.298   2.154  -4.904  0.00  0.00     0.210 HD
ENDBRANCH   7  51
TORSDOF 12
ENDMDL
