MODEL 1
REMARK VINA RESULT:      -7.4      0.000      0.000
REMARK  10 active torsions:
REMARK  status: ('A' for Active; 'I' for Inactive)
REMARK    1  A    between atoms: C_1  and  O_2 
REMARK    2  A    between atoms: O_2  and  C_3 
REMARK    3  A    between atoms: C_6  and  C_11 
REMARK    4  A    between atoms: C_8  and  O_9 
REMARK    5  A    between atoms: O_9  and  C_10 
REMARK    6  A    between atoms: C_16  and  C_17 
REMARK    7  A    between atoms: C_20  and  O_24 
REMARK    8  A    between atoms: C_22  and  O_23 
REMARK    9  A    between atoms: O_24  and  C_25 
REMARK   10  A    between atoms: C_25  and  C_26 
ROOT
ATOM      1  C   LIG d   1      12.528   5.234  -3.370  0.00  0.00     0.027 A 
ATOM      2  C   LIG d   1      13.866   5.487  -3.419  0.00  0.00     0.031 A 
ATOM      3  N   LIG d   1      14.441   4.525  -4.171  0.00  0.00    -0.283 N 
ATOM      4  H   LIG d   1      15.387   4.454  -4.375  0.00  0.00     0.188 HD
ATOM      5  N   LIG d   1      13.442   3.646  -4.605  0.00  0.00    -0.173 NA
ATOM      6  C   LIG d   1      12.289   4.058  -4.127  0.00  0.00     0.104 A 
ATOM      7  H   LIG d   1      14.376   6.310  -2.941  0.00  0.00     0.083 H 
ENDROOT
BRANCH   6   8
ATOM      8  C   LIG d   1      10.972   3.413  -4.342  0.00  0.00     0.044 A 
ATOM      9  C   LIG d   1      10.352   2.719  -3.297  0.00  0.00     0.130 A 
ATOM     10  C   LIG d   1       9.119   2.125  -3.502  0.00  0.00     0.022 A 
ATOM     11  C   LIG d   1       8.506   2.207  -4.743  0.00  0.00     0.124 A 
ATOM     12  H   LIG d   1       8.635   1.592  -2.696  0.00  0.00     0.069 H 
ATOM     13  C   LIG d   1       9.122   2.892  -5.782  0.00  0.00    -0.019 A 
ATOM     14  C   LIG d   1      10.349   3.493  -5.585  0.00  0.00    -0.045 A 
ATOM     15  H   LIG d   1       8.641   2.955  -6.747  0.00  0.00     0.065 H 
ATOM     16  H   LIG d   1      10.826   4.024  -6.396  0.00  0.00     0.063 H 
BRANCH   9  17
ATOM     17  O   LIG d   1      10.957   2.633  -2.084  0.00  0.00    -0.506 OA
ATOM     18  H   LIG d   1      11.117   3.489  -1.662  0.00  0.00     0.292 HD
ENDBRANCH   9  17
BRANCH  11  19
ATOM     19  O   LIG d   1       7.298   1.618  -4.943  0.00  0.00    -0.487 OA
BRANCH  19  20
ATOM     20  C   LIG d   1       7.215   0.212  -4.698  0.00  0.00     0.115 C 
ATOM     21  H   LIG d   1       6.944  -0.302  -5.620  0.00  0.00     0.075 H 
ATOM     22  H   LIG d   1       8.179  -0.153  -4.347  0.00  0.00     0.075 H 
BRANCH  20  23
ATOM     23  C   LIG d   1       6.165  -0.052  -3.648  0.00  0.00    -0.010 A 
ATOM     24  C   LIG d   1       5.640   0.996  -2.916  0.00  0.00    -0.055 A 
ATOM     25  C   LIG d   1       4.675   0.754  -1.957  0.00  0.00    -0.061 A 
ATOM     26  H   LIG d   1       5.983   2.005  -3.095  0.00  0.00     0.062 H 
ATOM     27  C   LIG d   1       4.240  -0.536  -1.725  0.00  0.00    -0.062 A 
ATOM     28  H   LIG d   1       4.263   1.575  -1.387  0.00  0.00     0.062 H 
ATOM     29  C   LIG d   1       4.768  -1.585  -2.454  0.00  0.00    -0.061 A 
ATOM     30  H   LIG d   1       3.487  -0.726  -0.974  0.00  0.00     0.062 H 
ATOM     31  C   LIG d   1       5.731  -1.344  -3.416  0.00  0.00    -0.055 A 
ATOM     32  H   LIG d   1       4.427  -2.595  -2.272  0.00  0.00     0.062 H 
ATOM     33  H   LIG d   1       6.143  -2.162  -3.986  0.00  0.00     0.062 H 
ENDBRANCH  20  23
ENDBRANCH  19  20
ENDBRANCH  11  19
ENDBRANCH   6   8
BRANCH   1  34
ATOM     34  C   LIG d   1      11.509   6.038  -2.652  0.00  0.00    -0.011 A 
ATOM     35  C   LIG d   1      10.542   6.740  -3.368  0.00  0.00    -0.050 A 
ATOM     36  C   LIG d   1       9.594   7.488  -2.699  0.00  0.00    -0.016 A 
ATOM     37  H   LIG d   1      10.534   6.700  -4.448  0.00  0.00     0.062 H 
ATOM     38  C   LIG d   1       9.601   7.541  -1.314  0.00  0.00     0.162 A 
ATOM     39  H   LIG d   1       8.845   8.032  -3.255  0.00  0.00     0.066 H 
ATOM     40  C   LIG d   1      10.567   6.846  -0.593  0.00  0.00     0.162 A 
ATOM     41  C   LIG d   1      11.517   6.092  -1.259  0.00  0.00    -0.009 A 
ATOM     42  H   LIG d   1      12.264   5.548  -0.701  0.00  0.00     0.066 H 
BRANCH  38  43
ATOM     43  O   LIG d   1       8.664   8.279  -0.659  0.00  0.00    -0.491 OA
BRANCH  43  44
ATOM     44  C   LIG d   1       8.762   9.699  -0.770  0.00  0.00     0.079 C 
ATOM     45  H   LIG d   1       7.974  10.068  -1.426  0.00  0.00     0.066 H 
ATOM     46  H   LIG d   1       8.655  10.150   0.217  0.00  0.00     0.066 H 
ATOM     47  H   LIG d   1       9.734   9.965  -1.186  0.00  0.00     0.066 H 
ENDBRANCH  43  44
ENDBRANCH  38  43
BRANCH  40  48
ATOM     48  O   LIG d   1      10.575   6.904   0.765  0.00  0.00    -0.491 OA
BRANCH  48  49
ATOM     49  C   LIG d   1      11.021   5.738   1.461  0.00  0.00     0.079 C 
ATOM     50  H   LIG d   1      10.317   4.923   1.293  0.00  0.00     0.066 H 
ATOM     51  H   LIG d   1      12.006   5.450   1.093  0.00  0.00     0.066 H 
ATOM     52  H   LIG d   1      11.080   5.952   2.529  0.00  0.00     0.066 H 
ENDBRANCH  48  49
ENDBRANCH  40  48
ENDBRANCH   1  34
TORSDOF 10
ENDMDL
MODEL 2
REMARK VINA RESULT:      -7.1      5.047      8.533
REMARK  10 active torsions:
REMARK  status: ('A' for Active; 'I' for Inactive)
REMARK    1  A    between atoms: C_1  and  O_2 
REMARK    2  A    between atoms: O_2  and  C_3 
REMARK    3  A    between atoms: C_6  and  C_11 
REMARK    4  A    between atoms: C_8  and  O_9 
REMARK    5  A    between atoms: O_9  and  C_10 
REMARK    6  A    between atoms: C_16  and  C_17 
REMARK    7  A    between atoms: C_20  and  O_24 
REMARK    8  A    between atoms: C_22  and  O_23 
REMARK    9  A    between atoms: O_24  and  C_25 
REMARK   10  A    between atoms: C_25  and  C_26 
ROOT
ATOM      1  C   LIG d   1       7.511  -3.059  -4.218  0.00  0.00     0.027 A 
ATOM      2  C   LIG d   1       8.471  -3.712  -3.506  0.00  0.00     0.031 A 
ATOM      3  N   LIG d   1       8.819  -4.817  -4.197  0.00  0.00    -0.283 N 
ATOM      4  H   LIG d   1       9.483  -5.471  -3.926  0.00  0.00     0.188 HD
ATOM      5  N   LIG d   1       8.060  -4.861  -5.372  0.00  0.00    -0.173 NA
ATOM      6  C   LIG d   1       7.267  -3.813  -5.394  0.00  0.00     0.104 A 
ATOM      7  H   LIG d   1       8.882  -3.400  -2.557  0.00  0.00     0.083 H 
ENDROOT
BRANCH   6   8
ATOM      8  C   LIG d   1       6.292  -3.476  -6.459  0.00  0.00     0.044 A 
ATOM      9  C   LIG d   1       4.987  -3.976  -6.399  0.00  0.00     0.130 A 
ATOM     10  C   LIG d   1       4.079  -3.651  -7.392  0.00  0.00     0.022 A 
ATOM     11  C   LIG d   1       4.467  -2.844  -8.451  0.00  0.00     0.124 A 
ATOM     12  H   LIG d   1       3.069  -4.031  -7.347  0.00  0.00     0.069 H 
ATOM     13  C   LIG d   1       5.765  -2.352  -8.515  0.00  0.00    -0.019 A 
ATOM     14  C   LIG d   1       6.674  -2.665  -7.525  0.00  0.00    -0.045 A 
ATOM     15  H   LIG d   1       6.063  -1.723  -9.341  0.00  0.00     0.065 H 
ATOM     16  H   LIG d   1       7.682  -2.281  -7.578  0.00  0.00     0.063 H 
BRANCH   9  17
ATOM     17  O   LIG d   1       4.610  -4.772  -5.365  0.00  0.00    -0.506 OA
ATOM     18  H   LIG d   1       5.078  -4.591  -4.538  0.00  0.00     0.292 HD
ENDBRANCH   9  17
BRANCH  11  19
ATOM     19  O   LIG d   1       3.576  -2.533  -9.428  0.00  0.00    -0.487 OA
BRANCH  19  20
ATOM     20  C   LIG d   1       2.502  -1.660  -9.071  0.00  0.00     0.115 C 
ATOM     21  H   LIG d   1       1.623  -1.901  -9.669  0.00  0.00     0.075 H 
ATOM     22  H   LIG d   1       2.268  -1.784  -8.014  0.00  0.00     0.075 H 
BRANCH  20  23
ATOM     23  C   LIG d   1       2.910  -0.231  -9.331  0.00  0.00    -0.010 A 
ATOM     24  C   LIG d   1       2.716   0.730  -8.357  0.00  0.00    -0.055 A 
ATOM     25  C   LIG d   1       3.094   2.039  -8.593  0.00  0.00    -0.061 A 
ATOM     26  H   LIG d   1       2.271   0.459  -7.411  0.00  0.00     0.062 H 
ATOM     27  C   LIG d   1       3.659   2.387  -9.805  0.00  0.00    -0.062 A 
ATOM     28  H   LIG d   1       2.945   2.790  -7.831  0.00  0.00     0.062 H 
ATOM     29  C   LIG d   1       3.849   1.426 -10.780  0.00  0.00    -0.061 A 
ATOM     30  H   LIG d   1       3.952   3.410  -9.991  0.00  0.00     0.062 H 
ATOM     31  C   LIG d   1       3.474   0.116 -10.543  0.00  0.00    -0.055 A 
ATOM     32  H   LIG d   1       4.291   1.698 -11.728  0.00  0.00     0.062 H 
ATOM     33  H   LIG d   1       3.623  -0.635 -11.304  0.00  0.00     0.062 H 
ENDBRANCH  20  23
ENDBRANCH  19  20
ENDBRANCH  11  19
ENDBRANCH   6   8
BRANCH   1  34
ATOM     34  C   LIG d   1       6.839  -1.794  -3.832  0.00  0.00    -0.011 A 
ATOM     35  C   LIG d   1       5.672  -1.829  -3.071  0.00  0.00    -0.050 A 
ATOM     36  C   LIG d   1       5.046  -0.653  -2.712  0.00  0.00    -0.016 A 
ATOM     37  H   LIG d   1       5.256  -2.777  -2.763  0.00  0.00     0.062 H 
ATOM     38  C   LIG d   1       5.578   0.566  -3.105  0.00  0.00     0.162 A 
ATOM     39  H   LIG d   1       4.142  -0.680  -2.122  0.00  0.00     0.066 H 
ATOM     40  C   LIG d   1       6.740   0.607  -3.870  0.00  0.00     0.162 A 
ATOM     41  C   LIG d   1       7.373  -0.570  -4.229  0.00  0.00    -0.009 A 
ATOM     42  H   LIG d   1       8.277  -0.539  -4.818  0.00  0.00     0.066 H 
BRANCH  38  43
ATOM     43  O   LIG d   1       4.958   1.724  -2.747  0.00  0.00    -0.491 OA
BRANCH  43  44
ATOM     44  C   LIG d   1       3.541   1.778  -2.912  0.00  0.00     0.079 C 
ATOM     45  H   LIG d   1       3.086   0.910  -2.435  0.00  0.00     0.066 H 
ATOM     46  H   LIG d   1       3.156   2.689  -2.452  0.00  0.00     0.066 H 
ATOM     47  H   LIG d   1       3.298   1.777  -3.975  0.00  0.00     0.066 H 
ENDBRANCH  43  44
ENDBRANCH  38  43
BRANCH  40  48
ATOM     48  O   LIG d   1       7.257   1.803  -4.259  0.00  0.00    -0.491 OA
BRANCH  48  49
ATOM     49  C   LIG d   1       8.557   2.138  -3.771  0.00  0.00     0.079 C 
ATOM     50  H   LIG d   1       8.694   3.219  -3.815  0.00  0.00     0.066 H 
ATOM     51  H   LIG d   1       8.655   1.801  -2.738  0.00  0.00     0.066 H 
ATOM     52  H   LIG d   1       9.313   1.650  -4.386  0.00  0.00     0.066 H 
ENDBRANCH  48  49
ENDBRANCH  40  48
ENDBRANCH   1  34
TORSDOF 10
ENDMDL
MODEL 3
REMARK VINA RESULT:      -7.0      7.430     11.160
REMARK  10 active torsions:
REMARK  status: ('A' for Active; 'I' for Inactive)
REMARK    1  A    between atoms: C_1  and  O_2 
REMARK    2  A    between atoms: O_2  and  C_3 
REMARK    3  A    between atoms: C_6  and  C_11 
REMARK    4  A    between atoms: C_8  and  O_9 
REMARK    5  A    between atoms: O_9  and  C_10 
REMARK    6  A    between atoms: C_16  and  C_17 
REMARK    7  A    between atoms: C_20  and  O_24 
REMARK    8  A    between atoms: C_22  and  O_23 
REMARK    9  A    between atoms: O_24  and  C_25 
REMARK   10  A    between atoms: C_25  and  C_26 
ROOT
ATOM      1  C   LIG d   1       2.717  -3.541  -9.768  0.00  0.00     0.027 A 
ATOM      2  C   LIG d   1       1.899  -4.354 -10.495  0.00  0.00     0.031 A 
ATOM      3  N   LIG d   1       2.005  -5.602  -9.993  0.00  0.00    -0.283 N 
ATOM      4  H   LIG d   1       1.533  -6.386 -10.317  0.00  0.00     0.188 HD
ATOM      5  N   LIG d   1       2.911  -5.575  -8.926  0.00  0.00    -0.173 NA
ATOM      6  C   LIG d   1       3.350  -4.343  -8.785  0.00  0.00     0.104 A 
ATOM      7  H   LIG d   1       1.276  -4.053 -11.324  0.00  0.00     0.083 H 
ENDROOT
BRANCH   6   8
ATOM      8  C   LIG d   1       4.328  -3.874  -7.775  0.00  0.00     0.044 A 
ATOM      9  C   LIG d   1       4.221  -4.296  -6.446  0.00  0.00     0.130 A 
ATOM     10  C   LIG d   1       5.143  -3.861  -5.509  0.00  0.00     0.022 A 
ATOM     11  C   LIG d   1       6.161  -2.999  -5.885  0.00  0.00     0.124 A 
ATOM     12  H   LIG d   1       5.065  -4.189  -4.483  0.00  0.00     0.069 H 
ATOM     13  C   LIG d   1       6.266  -2.575  -7.204  0.00  0.00    -0.019 A 
ATOM     14  C   LIG d   1       5.355  -3.009  -8.146  0.00  0.00    -0.045 A 
ATOM     15  H   LIG d   1       7.061  -1.904  -7.493  0.00  0.00     0.065 H 
ATOM     16  H   LIG d   1       5.439  -2.677  -9.170  0.00  0.00     0.063 H 
BRANCH   9  17
ATOM     17  O   LIG d   1       3.219  -5.136  -6.077  0.00  0.00    -0.506 OA
ATOM     18  H   LIG d   1       2.503  -5.203  -6.724  0.00  0.00     0.292 HD
ENDBRANCH   9  17
BRANCH  11  19
ATOM     19  O   LIG d   1       7.060  -2.568  -4.962  0.00  0.00    -0.487 OA
BRANCH  19  20
ATOM     20  C   LIG d   1       6.694  -2.705  -3.588  0.00  0.00     0.115 C 
ATOM     21  H   LIG d   1       6.008  -3.545  -3.477  0.00  0.00     0.075 H 
ATOM     22  H   LIG d   1       7.587  -2.882  -2.989  0.00  0.00     0.075 H 
BRANCH  20  23
ATOM     23  C   LIG d   1       6.019  -1.439  -3.121  0.00  0.00    -0.010 A 
ATOM     24  C   LIG d   1       4.869  -1.510  -2.358  0.00  0.00    -0.055 A 
ATOM     25  C   LIG d   1       4.254  -0.350  -1.926  0.00  0.00    -0.061 A 
ATOM     26  H   LIG d   1       4.453  -2.473  -2.096  0.00  0.00     0.062 H 
ATOM     27  C   LIG d   1       4.784   0.880  -2.264  0.00  0.00    -0.062 A 
ATOM     28  H   LIG d   1       3.356  -0.406  -1.326  0.00  0.00     0.062 H 
ATOM     29  C   LIG d   1       5.931   0.951  -3.031  0.00  0.00    -0.061 A 
ATOM     30  H   LIG d   1       4.301   1.786  -1.929  0.00  0.00     0.062 H 
ATOM     31  C   LIG d   1       6.549  -0.209  -3.460  0.00  0.00    -0.055 A 
ATOM     32  H   LIG d   1       6.346   1.913  -3.295  0.00  0.00     0.062 H 
ATOM     33  H   LIG d   1       7.446  -0.154  -4.059  0.00  0.00     0.062 H 
ENDBRANCH  20  23
ENDBRANCH  19  20
ENDBRANCH  11  19
ENDBRANCH   6   8
BRANCH   1  34
ATOM     34  C   LIG d   1       2.914  -2.085  -9.974  0.00  0.00    -0.011 A 
ATOM     35  C   LIG d   1       2.418  -1.176  -9.042  0.00  0.00    -0.050 A 
ATOM     36  C   LIG d   1       2.602   0.179  -9.233  0.00  0.00    -0.016 A 
ATOM     37  H   LIG d   1       1.889  -1.530  -8.170  0.00  0.00     0.062 H 
ATOM     38  C   LIG d   1       3.282   0.637 -10.352  0.00  0.00     0.162 A 
ATOM     39  H   LIG d   1       2.218   0.883  -8.511  0.00  0.00     0.066 H 
ATOM     40  C   LIG d   1       3.775  -0.266 -11.289  0.00  0.00     0.162 A 
ATOM     41  C   LIG d   1       3.596  -1.625 -11.099  0.00  0.00    -0.009 A 
ATOM     42  H   LIG d   1       3.982  -2.327 -11.822  0.00  0.00     0.066 H 
BRANCH  38  43
ATOM     43  O   LIG d   1       3.461   1.974 -10.536  0.00  0.00    -0.491 OA
BRANCH  43  44
ATOM     44  C   LIG d   1       3.933   2.725  -9.418  0.00  0.00     0.079 C 
ATOM     45  H   LIG d   1       3.193   2.690  -8.618  0.00  0.00     0.066 H 
ATOM     46  H   LIG d   1       4.872   2.301  -9.063  0.00  0.00     0.066 H 
ATOM     47  H   LIG d   1       4.093   3.761  -9.717  0.00  0.00     0.066 H 
ENDBRANCH  43  44
ENDBRANCH  38  43
BRANCH  40  48
ATOM     48  O   LIG d   1       4.436   0.186 -12.387  0.00  0.00    -0.491 OA
BRANCH  48  49
ATOM     49  C   LIG d   1       5.112  -0.789 -13.184  0.00  0.00     0.079 C 
ATOM     50  H   LIG d   1       6.106  -0.968 -12.773  0.00  0.00     0.066 H 
ATOM     51  H   LIG d   1       4.543  -1.719 -13.179  0.00  0.00     0.066 H 
ATOM     52  H   LIG d   1       5.202  -0.423 -14.207  0.00  0.00     0.066 H 
ENDBRANCH  48  49
ENDBRANCH  40  48
ENDBRANCH   1  34
TORSDOF 10
ENDMDL
MODEL 4
REMARK VINA RESULT:      -6.8      1.458      2.296
REMARK  10 active torsions:
REMARK  status: ('A' for Active; 'I' for Inactive)
REMARK    1  A    between atoms: C_1  and  O_2 
REMARK    2  A    between atoms: O_2  and  C_3 
REMARK    3  A    between atoms: C_6  and  C_11 
REMARK    4  A    between atoms: C_8  and  O_9 
REMARK    5  A    between atoms: O_9  and  C_10 
REMARK    6  A    between atoms: C_16  and  C_17 
REMARK    7  A    between atoms: C_20  and  O_24 
REMARK    8  A    between atoms: C_22  and  O_23 
REMARK    9  A    between atoms: O_24  and  C_25 
REMARK   10  A    between atoms: C_25  and  C_26 
ROOT
ATOM      1  C   LIG d   1      11.675   6.146  -4.592  0.00  0.00     0.027 A 
ATOM      2  C   LIG d   1      12.382   7.062  -5.312  0.00  0.00     0.031 A 
ATOM      3  N   LIG d   1      12.474   6.610  -6.580  0.00  0.00    -0.283 N 
ATOM      4  H   LIG d   1      12.924   7.061  -7.311  0.00  0.00     0.188 HD
ATOM      5  N   LIG d   1      11.811   5.380  -6.660  0.00  0.00    -0.173 NA
ATOM      6  C   LIG d   1      11.331   5.087  -5.472  0.00  0.00     0.104 A 
ATOM      7  H   LIG d   1      12.793   7.987  -4.935  0.00  0.00     0.083 H 
ENDROOT
BRANCH   6   8
ATOM      8  C   LIG d   1      10.564   3.871  -5.113  0.00  0.00     0.044 A 
ATOM      9  C   LIG d   1      11.225   2.650  -4.940  0.00  0.00     0.130 A 
ATOM     10  C   LIG d   1      10.504   1.519  -4.598  0.00  0.00     0.022 A 
ATOM     11  C   LIG d   1       9.129   1.594  -4.440  0.00  0.00     0.124 A 
ATOM     12  H   LIG d   1      11.012   0.576  -4.459  0.00  0.00     0.069 H 
ATOM     13  C   LIG d   1       8.470   2.804  -4.617  0.00  0.00    -0.019 A 
ATOM     14  C   LIG d   1       9.182   3.938  -4.952  0.00  0.00    -0.045 A 
ATOM     15  H   LIG d   1       7.398   2.858  -4.493  0.00  0.00     0.065 H 
ATOM     16  H   LIG d   1       8.667   4.878  -5.089  0.00  0.00     0.063 H 
BRANCH   9  17
ATOM     17  O   LIG d   1      12.572   2.577  -5.101  0.00  0.00    -0.506 OA
ATOM     18  H   LIG d   1      12.890   1.703  -5.365  0.00  0.00     0.292 HD
ENDBRANCH   9  17
BRANCH  11  19
ATOM     19  O   LIG d   1       8.423   0.481  -4.111  0.00  0.00    -0.487 OA
BRANCH  19  20
ATOM     20  C   LIG d   1       7.132   0.332  -4.707  0.00  0.00     0.115 C 
ATOM     21  H   LIG d   1       6.853   1.261  -5.204  0.00  0.00     0.075 H 
ATOM     22  H   LIG d   1       7.160  -0.478  -5.437  0.00  0.00     0.075 H 
BRANCH  20  23
ATOM     23  C   LIG d   1       6.120   0.009  -3.637  0.00  0.00    -0.010 A 
ATOM     24  C   LIG d   1       5.583   1.023  -2.866  0.00  0.00    -0.055 A 
ATOM     25  C   LIG d   1       4.652   0.728  -1.888  0.00  0.00    -0.061 A 
ATOM     26  H   LIG d   1       5.889   2.046  -3.030  0.00  0.00     0.062 H 
ATOM     27  C   LIG d   1       4.264  -0.581  -1.676  0.00  0.00    -0.062 A 
ATOM     28  H   LIG d   1       4.230   1.521  -1.288  0.00  0.00     0.062 H 
ATOM     29  C   LIG d   1       4.804  -1.595  -2.444  0.00  0.00    -0.061 A 
ATOM     30  H   LIG d   1       3.538  -0.812  -0.910  0.00  0.00     0.062 H 
ATOM     31  C   LIG d   1       5.733  -1.300  -3.425  0.00  0.00    -0.055 A 
ATOM     32  H   LIG d   1       4.501  -2.619  -2.278  0.00  0.00     0.062 H 
ATOM     33  H   LIG d   1       6.155  -2.092  -4.025  0.00  0.00     0.062 H 
ENDBRANCH  20  23
ENDBRANCH  19  20
ENDBRANCH  11  19
ENDBRANCH   6   8
BRANCH   1  34
ATOM     34  C   LIG d   1      11.334   6.235  -3.151  0.00  0.00    -0.011 A 
ATOM     35  C   LIG d   1      12.157   5.633  -2.201  0.00  0.00    -0.050 A 
ATOM     36  C   LIG d   1      11.840   5.716  -0.861  0.00  0.00    -0.016 A 
ATOM     37  H   LIG d   1      13.044   5.101  -2.514  0.00  0.00     0.062 H 
ATOM     38  C   LIG d   1      10.703   6.399  -0.456  0.00  0.00     0.162 A 
ATOM     39  H   LIG d   1      12.478   5.249  -0.125  0.00  0.00     0.066 H 
ATOM     40  C   LIG d   1       9.874   6.997  -1.400  0.00  0.00     0.162 A 
ATOM     41  C   LIG d   1      10.191   6.920  -2.745  0.00  0.00    -0.009 A 
ATOM     42  H   LIG d   1       9.551   7.388  -3.478  0.00  0.00     0.066 H 
BRANCH  38  43
ATOM     43  O   LIG d   1      10.395   6.478   0.867  0.00  0.00    -0.491 OA
BRANCH  43  44
ATOM     44  C   LIG d   1      10.998   5.516   1.733  0.00  0.00     0.079 C 
ATOM     45  H   LIG d   1      10.712   5.725   2.764  0.00  0.00     0.066 H 
ATOM     46  H   LIG d   1      10.661   4.516   1.458  0.00  0.00     0.066 H 
ATOM     47  H   LIG d   1      12.083   5.572   1.640  0.00  0.00     0.066 H 
ENDBRANCH  43  44
ENDBRANCH  38  43
BRANCH  40  48
ATOM     48  O   LIG d   1       8.757   7.662  -1.001  0.00  0.00    -0.491 OA
BRANCH  48  49
ATOM     49  C   LIG d   1       8.869   9.077  -0.837  0.00  0.00     0.079 C 
ATOM     50  H   LIG d   1       9.816   9.312  -0.351  0.00  0.00     0.066 H 
ATOM     51  H   LIG d   1       8.830   9.559  -1.813  0.00  0.00     0.066 H 
ATOM     52  H   LIG d   1       8.045   9.437  -0.220  0.00  0.00     0.066 H 
ENDBRANCH  48  49
ENDBRANCH  40  48
ENDBRANCH   1  34
TORSDOF 10
ENDMDL
MODEL 5
REMARK VINA RESULT:      -6.8      0.943      2.103
REMARK  10 active torsions:
REMARK  status: ('A' for Active; 'I' for Inactive)
REMARK    1  A    between atoms: C_1  and  O_2 
REMARK    2  A    between atoms: O_2  and  C_3 
REMARK    3  A    between atoms: C_6  and  C_11 
REMARK    4  A    between atoms: C_8  and  O_9 
REMARK    5  A    between atoms: O_9  and  C_10 
REMARK    6  A    between atoms: C_16  and  C_17 
REMARK    7  A    between atoms: C_20  and  O_24 
REMARK    8  A    between atoms: C_22  and  O_23 
REMARK    9  A    between atoms: O_24  and  C_25 
REMARK   10  A    between atoms: C_25  and  C_26 
ROOT
ATOM      1  C   LIG d   1      12.654   5.461  -3.317  0.00  0.00     0.027 A 
ATOM      2  C   LIG d   1      14.006   5.635  -3.320  0.00  0.00     0.031 A 
ATOM      3  N   LIG d   1      14.558   4.570  -3.938  0.00  0.00    -0.283 N 
ATOM      4  H   LIG d   1      15.507   4.427  -4.083  0.00  0.00     0.188 HD
ATOM      5  N   LIG d   1      13.531   3.705  -4.332  0.00  0.00    -0.173 NA
ATOM      6  C   LIG d   1      12.382   4.226  -3.960  0.00  0.00     0.104 A 
ATOM      7  H   LIG d   1      14.540   6.476  -2.904  0.00  0.00     0.083 H 
ENDROOT
BRANCH   6   8
ATOM      8  C   LIG d   1      11.041   3.633  -4.177  0.00  0.00     0.044 A 
ATOM      9  C   LIG d   1      10.415   2.921  -3.149  0.00  0.00     0.130 A 
ATOM     10  C   LIG d   1       9.159   2.377  -3.354  0.00  0.00     0.022 A 
ATOM     11  C   LIG d   1       8.530   2.525  -4.581  0.00  0.00     0.124 A 
ATOM     12  H   LIG d   1       8.671   1.830  -2.561  0.00  0.00     0.069 H 
ATOM     13  C   LIG d   1       9.154   3.228  -5.605  0.00  0.00    -0.019 A 
ATOM     14  C   LIG d   1      10.403   3.780  -5.406  0.00  0.00    -0.045 A 
ATOM     15  H   LIG d   1       8.660   3.342  -6.559  0.00  0.00     0.065 H 
ATOM     16  H   LIG d   1      10.884   4.325  -6.204  0.00  0.00     0.063 H 
BRANCH   9  17
ATOM     17  O   LIG d   1      11.035   2.771  -1.949  0.00  0.00    -0.506 OA
ATOM     18  H   LIG d   1      11.692   3.454  -1.757  0.00  0.00     0.292 HD
ENDBRANCH   9  17
BRANCH  11  19
ATOM     19  O   LIG d   1       7.300   1.983  -4.783  0.00  0.00    -0.487 OA
BRANCH  19  20
ATOM     20  C   LIG d   1       7.198   0.560  -4.698  0.00  0.00     0.115 C 
ATOM     21  H   LIG d   1       6.886   0.161  -5.664  0.00  0.00     0.075 H 
ATOM     22  H   LIG d   1       8.166   0.141  -4.426  0.00  0.00     0.075 H 
BRANCH  20  23
ATOM     23  C   LIG d   1       6.179   0.193  -3.650  0.00  0.00    -0.010 A 
ATOM     24  C   LIG d   1       5.842  -1.132  -3.449  0.00  0.00    -0.055 A 
ATOM     25  C   LIG d   1       4.911  -1.470  -2.484  0.00  0.00    -0.061 A 
ATOM     26  H   LIG d   1       6.308  -1.905  -4.043  0.00  0.00     0.062 H 
ATOM     27  C   LIG d   1       4.312  -0.482  -1.726  0.00  0.00    -0.062 A 
ATOM     28  H   LIG d   1       4.650  -2.506  -2.325  0.00  0.00     0.062 H 
ATOM     29  C   LIG d   1       4.646   0.844  -1.931  0.00  0.00    -0.061 A 
ATOM     30  H   LIG d   1       3.583  -0.745  -0.974  0.00  0.00     0.062 H 
ATOM     31  C   LIG d   1       5.579   1.181  -2.893  0.00  0.00    -0.055 A 
ATOM     32  H   LIG d   1       4.177   1.616  -1.338  0.00  0.00     0.062 H 
ATOM     33  H   LIG d   1       5.841   2.217  -3.052  0.00  0.00     0.062 H 
ENDBRANCH  20  23
ENDBRANCH  19  20
ENDBRANCH  11  19
ENDBRANCH   6   8
BRANCH   1  34
ATOM     34  C   LIG d   1      11.651   6.390  -2.740  0.00  0.00    -0.011 A 
ATOM     35  C   LIG d   1      11.163   6.176  -1.453  0.00  0.00    -0.050 A 
ATOM     36  C   LIG d   1      10.229   7.040  -0.917  0.00  0.00    -0.016 A 
ATOM     37  H   LIG d   1      11.514   5.334  -0.875  0.00  0.00     0.062 H 
ATOM     38  C   LIG d   1       9.777   8.122  -1.656  0.00  0.00     0.162 A 
ATOM     39  H   LIG d   1       9.851   6.874   0.082  0.00  0.00     0.066 H 
ATOM     40  C   LIG d   1      10.257   8.337  -2.945  0.00  0.00     0.162 A 
ATOM     41  C   LIG d   1      11.196   7.476  -3.485  0.00  0.00    -0.009 A 
ATOM     42  H   LIG d   1      11.573   7.645  -4.483  0.00  0.00     0.066 H 
BRANCH  38  43
ATOM     43  O   LIG d   1       8.857   8.971  -1.123  0.00  0.00    -0.491 OA
BRANCH  43  44
ATOM     44  C   LIG d   1       9.342   9.982  -0.239  0.00  0.00     0.079 C 
ATOM     45  H   LIG d   1      10.169  10.512  -0.711  0.00  0.00     0.066 H 
ATOM     46  H   LIG d   1       8.540  10.686  -0.014  0.00  0.00     0.066 H 
ATOM     47  H   LIG d   1       9.689   9.520   0.686  0.00  0.00     0.066 H 
ENDBRANCH  43  44
ENDBRANCH  38  43
BRANCH  40  48
ATOM     48  O   LIG d   1       9.808   9.396  -3.670  0.00  0.00    -0.491 OA
BRANCH  48  49
ATOM     49  C   LIG d   1       9.798   9.250  -5.092  0.00  0.00     0.079 C 
ATOM     50  H   LIG d   1      10.237  10.136  -5.550  0.00  0.00     0.066 H 
ATOM     51  H   LIG d   1      10.377   8.370  -5.370  0.00  0.00     0.066 H 
ATOM     52  H   LIG d   1       8.770   9.134  -5.438  0.00  0.00     0.066 H 
ENDBRANCH  48  49
ENDBRANCH  40  48
ENDBRANCH   1  34
TORSDOF 10
ENDMDL
MODEL 6
REMARK VINA RESULT:      -6.7      7.818     12.101
REMARK  10 active torsions:
REMARK  status: ('A' for Active; 'I' for Inactive)
REMARK    1  A    between atoms: C_1  and  O_2 
REMARK    2  A    between atoms: O_2  and  C_3 
REMARK    3  A    between atoms: C_6  and  C_11 
REMARK    4  A    between atoms: C_8  and  O_9 
REMARK    5  A    between atoms: O_9  and  C_10 
REMARK    6  A    between atoms: C_16  and  C_17 
REMARK    7  A    between atoms: C_20  and  O_24 
REMARK    8  A    between atoms: C_22  and  O_23 
REMARK    9  A    between atoms: O_24  and  C_25 
REMARK   10  A    between atoms: C_25  and  C_26 
ROOT
ATOM      1  C   LIG d   1       4.153  -1.829 -11.550  0.00  0.00     0.027 A 
ATOM      2  C   LIG d   1       4.935  -1.983 -12.655  0.00  0.00     0.031 A 
ATOM      3  N   LIG d   1       5.941  -1.086 -12.578  0.00  0.00    -0.283 N 
ATOM      4  H   LIG d   1       6.650  -0.971 -13.230  0.00  0.00     0.188 HD
ATOM      5  N   LIG d   1       5.788  -0.350 -11.398  0.00  0.00    -0.173 NA
ATOM      6  C   LIG d   1       4.714  -0.782 -10.774  0.00  0.00     0.104 A 
ATOM      7  H   LIG d   1       4.780  -2.697 -13.450  0.00  0.00     0.083 H 
ENDROOT
BRANCH   6   8
ATOM      8  C   LIG d   1       4.185  -0.272  -9.487  0.00  0.00     0.044 A 
ATOM      9  C   LIG d   1       3.633   1.011  -9.415  0.00  0.00     0.130 A 
ATOM     10  C   LIG d   1       3.133   1.479  -8.212  0.00  0.00     0.022 A 
ATOM     11  C   LIG d   1       3.192   0.683  -7.078  0.00  0.00     0.124 A 
ATOM     12  H   LIG d   1       2.703   2.468  -8.154  0.00  0.00     0.069 H 
ATOM     13  C   LIG d   1       3.744  -0.590  -7.147  0.00  0.00    -0.019 A 
ATOM     14  C   LIG d   1       4.239  -1.067  -8.344  0.00  0.00    -0.045 A 
ATOM     15  H   LIG d   1       3.787  -1.208  -6.262  0.00  0.00     0.065 H 
ATOM     16  H   LIG d   1       4.668  -2.057  -8.394  0.00  0.00     0.063 H 
BRANCH   9  17
ATOM     17  O   LIG d   1       3.582   1.793 -10.524  0.00  0.00    -0.506 OA
ATOM     18  H   LIG d   1       2.898   1.535 -11.157  0.00  0.00     0.292 HD
ENDBRANCH   9  17
BRANCH  11  19
ATOM     19  O   LIG d   1       2.707   1.147  -5.897  0.00  0.00    -0.487 OA
BRANCH  19  20
ATOM     20  C   LIG d   1       2.102   0.191  -5.024  0.00  0.00     0.115 C 
ATOM     21  H   LIG d   1       1.115   0.545  -4.726  0.00  0.00     0.075 H 
ATOM     22  H   LIG d   1       2.005  -0.763  -5.542  0.00  0.00     0.075 H 
BRANCH  20  23
ATOM     23  C   LIG d   1       2.964   0.014  -3.800  0.00  0.00    -0.010 A 
ATOM     24  C   LIG d   1       3.447   1.121  -3.129  0.00  0.00    -0.055 A 
ATOM     25  C   LIG d   1       4.234   0.959  -2.004  0.00  0.00    -0.061 A 
ATOM     26  H   LIG d   1       3.207   2.114  -3.482  0.00  0.00     0.062 H 
ATOM     27  C   LIG d   1       4.545  -0.311  -1.556  0.00  0.00    -0.062 A 
ATOM     28  H   LIG d   1       4.609   1.824  -1.477  0.00  0.00     0.062 H 
ATOM     29  C   LIG d   1       4.066  -1.418  -2.230  0.00  0.00    -0.061 A 
ATOM     30  H   LIG d   1       5.162  -0.438  -0.679  0.00  0.00     0.062 H 
ATOM     31  C   LIG d   1       3.276  -1.257  -3.353  0.00  0.00    -0.055 A 
ATOM     32  H   LIG d   1       4.309  -2.411  -1.879  0.00  0.00     0.062 H 
ATOM     33  H   LIG d   1       2.901  -2.121  -3.880  0.00  0.00     0.062 H 
ENDBRANCH  20  23
ENDBRANCH  19  20
ENDBRANCH  11  19
ENDBRANCH   6   8
BRANCH   1  34
ATOM     34  C   LIG d   1       2.933  -2.607 -11.223  0.00  0.00    -0.011 A 
ATOM     35  C   LIG d   1       1.680  -2.132 -11.605  0.00  0.00    -0.050 A 
ATOM     36  C   LIG d   1       0.545  -2.856 -11.301  0.00  0.00    -0.016 A 
ATOM     37  H   LIG d   1       1.596  -1.197 -12.139  0.00  0.00     0.062 H 
ATOM     38  C   LIG d   1       0.649  -4.057 -10.616  0.00  0.00     0.162 A 
ATOM     39  H   LIG d   1      -0.426  -2.488 -11.597  0.00  0.00     0.066 H 
ATOM     40  C   LIG d   1       1.897  -4.533 -10.226  0.00  0.00     0.162 A 
ATOM     41  C   LIG d   1       3.038  -3.813 -10.533  0.00  0.00    -0.009 A 
ATOM     42  H   LIG d   1       4.008  -4.184 -10.236  0.00  0.00     0.066 H 
BRANCH  38  43
ATOM     43  O   LIG d   1      -0.473  -4.768 -10.318  0.00  0.00    -0.491 OA
BRANCH  43  44
ATOM     44  C   LIG d   1      -1.337  -5.102 -11.404  0.00  0.00     0.079 C 
ATOM     45  H   LIG d   1      -0.799  -5.728 -12.117  0.00  0.00     0.066 H 
ATOM     46  H   LIG d   1      -2.204  -5.644 -11.027  0.00  0.00     0.066 H 
ATOM     47  H   LIG d   1      -1.667  -4.190 -11.901  0.00  0.00     0.066 H 
ENDBRANCH  43  44
ENDBRANCH  38  43
BRANCH  40  48
ATOM     48  O   LIG d   1       1.997  -5.708  -9.550  0.00  0.00    -0.491 OA
BRANCH  48  49
ATOM     49  C   LIG d   1       3.284  -6.054  -9.035  0.00  0.00     0.079 C 
ATOM     50  H   LIG d   1       3.460  -5.515  -8.104  0.00  0.00     0.066 H 
ATOM     51  H   LIG d   1       3.324  -7.127  -8.848  0.00  0.00     0.066 H 
ATOM     52  H   LIG d   1       4.051  -5.783  -9.762  0.00  0.00     0.066 H 
ENDBRANCH  48  49
ENDBRANCH  40  48
ENDBRANCH   1  34
TORSDOF 10
ENDMDL
MODEL 7
REMARK VINA RESULT:      -6.5      1.648      2.293
REMARK  10 active torsions:
REMARK  status: ('A' for Active; 'I' for Inactive)
REMARK    1  A    between atoms: C_1  and  O_2 
REMARK    2  A    between atoms: O_2  and  C_3 
REMARK    3  A    between atoms: C_6  and  C_11 
REMARK    4  A    between atoms: C_8  and  O_9 
REMARK    5  A    between atoms: O_9  and  C_10 
REMARK    6  A    between atoms: C_16  and  C_17 
REMARK    7  A    between atoms: C_20  and  O_24 
REMARK    8  A    between atoms: C_22  and  O_23 
REMARK    9  A    between atoms: O_24  and  C_25 
REMARK   10  A    between atoms: C_25  and  C_26 
ROOT
ATOM      1  C   LIG d   1      12.788   5.800  -4.090  0.00  0.00     0.027 A 
ATOM      2  C   LIG d   1      14.128   5.942  -3.887  0.00  0.00     0.031 A 
ATOM      3  N   LIG d   1      14.654   4.710  -3.726  0.00  0.00    -0.283 N 
ATOM      4  H   LIG d   1      15.590   4.509  -3.565  0.00  0.00     0.188 HD
ATOM      5  N   LIG d   1      13.622   3.770  -3.828  0.00  0.00    -0.173 NA
ATOM      6  C   LIG d   1      12.495   4.413  -4.042  0.00  0.00     0.104 A 
ATOM      7  H   LIG d   1      14.672   6.874  -3.862  0.00  0.00     0.083 H 
ENDROOT
BRANCH   6   8
ATOM      8  C   LIG d   1      11.156   3.799  -4.207  0.00  0.00     0.044 A 
ATOM      9  C   LIG d   1      10.502   3.235  -3.106  0.00  0.00     0.130 A 
ATOM     10  C   LIG d   1       9.248   2.670  -3.265  0.00  0.00     0.022 A 
ATOM     11  C   LIG d   1       8.649   2.652  -4.515  0.00  0.00     0.124 A 
ATOM     12  H   LIG d   1       8.739   2.238  -2.417  0.00  0.00     0.069 H 
ATOM     13  C   LIG d   1       9.299   3.206  -5.610  0.00  0.00    -0.019 A 
ATOM     14  C   LIG d   1      10.546   3.778  -5.460  0.00  0.00    -0.045 A 
ATOM     15  H   LIG d   1       8.828   3.190  -6.582  0.00  0.00     0.065 H 
ATOM     16  H   LIG d   1      11.049   4.208  -6.313  0.00  0.00     0.063 H 
BRANCH   9  17
ATOM     17  O   LIG d   1      11.094   3.248  -1.884  0.00  0.00    -0.506 OA
ATOM     18  H   LIG d   1      10.748   3.925  -1.286  0.00  0.00     0.292 HD
ENDBRANCH   9  17
BRANCH  11  19
ATOM     19  O   LIG d   1       7.421   2.090  -4.670  0.00  0.00    -0.487 OA
BRANCH  19  20
ATOM     20  C   LIG d   1       7.345   0.665  -4.589  0.00  0.00     0.115 C 
ATOM     21  H   LIG d   1       7.090   0.259  -5.568  0.00  0.00     0.075 H 
ATOM     22  H   LIG d   1       8.308   0.268  -4.270  0.00  0.00     0.075 H 
BRANCH  20  23
ATOM     23  C   LIG d   1       6.285   0.276  -3.591  0.00  0.00    -0.010 A 
ATOM     24  C   LIG d   1       5.984  -1.058  -3.388  0.00  0.00    -0.055 A 
ATOM     25  C   LIG d   1       5.015  -1.416  -2.469  0.00  0.00    -0.061 A 
ATOM     26  H   LIG d   1       6.508  -1.821  -3.945  0.00  0.00     0.062 H 
ATOM     27  C   LIG d   1       4.341  -0.440  -1.760  0.00  0.00    -0.062 A 
ATOM     28  H   LIG d   1       4.782  -2.458  -2.308  0.00  0.00     0.062 H 
ATOM     29  C   LIG d   1       4.639   0.894  -1.967  0.00  0.00    -0.061 A 
ATOM     30  H   LIG d   1       3.582  -0.719  -1.044  0.00  0.00     0.062 H 
ATOM     31  C   LIG d   1       5.611   1.252  -2.882  0.00  0.00    -0.055 A 
ATOM     32  H   LIG d   1       4.112   1.658  -1.412  0.00  0.00     0.062 H 
ATOM     33  H   LIG d   1       5.844   2.294  -3.044  0.00  0.00     0.062 H 
ENDBRANCH  20  23
ENDBRANCH  19  20
ENDBRANCH  11  19
ENDBRANCH   6   8
BRANCH   1  34
ATOM     34  C   LIG d   1      11.813   6.896  -4.313  0.00  0.00    -0.011 A 
ATOM     35  C   LIG d   1      11.474   7.274  -5.610  0.00  0.00    -0.050 A 
ATOM     36  C   LIG d   1      10.567   8.294  -5.817  0.00  0.00    -0.016 A 
ATOM     37  H   LIG d   1      11.921   6.770  -6.454  0.00  0.00     0.062 H 
ATOM     38  C   LIG d   1       9.991   8.943  -4.735  0.00  0.00     0.162 A 
ATOM     39  H   LIG d   1      10.304   8.587  -6.823  0.00  0.00     0.066 H 
ATOM     40  C   LIG d   1      10.331   8.573  -3.437  0.00  0.00     0.162 A 
ATOM     41  C   LIG d   1      11.236   7.548  -3.225  0.00  0.00    -0.009 A 
ATOM     42  H   LIG d   1      11.497   7.257  -2.219  0.00  0.00     0.066 H 
BRANCH  38  43
ATOM     43  O   LIG d   1       9.097   9.947  -4.944  0.00  0.00    -0.491 OA
BRANCH  43  44
ATOM     44  C   LIG d   1       9.624  11.210  -5.352  0.00  0.00     0.079 C 
ATOM     45  H   LIG d   1       9.928  11.157  -6.397  0.00  0.00     0.066 H 
ATOM     46  H   LIG d   1       8.860  11.979  -5.234  0.00  0.00     0.066 H 
ATOM     47  H   LIG d   1      10.488  11.460  -4.736  0.00  0.00     0.066 H 
ENDBRANCH  43  44
ENDBRANCH  38  43
BRANCH  40  48
ATOM     48  O   LIG d   1       9.769   9.214  -2.378  0.00  0.00    -0.491 OA
BRANCH  48  49
ATOM     49  C   LIG d   1      10.120   8.744  -1.075  0.00  0.00     0.079 C 
ATOM     50  H   LIG d   1       9.672   7.764  -0.910  0.00  0.00     0.066 H 
ATOM     51  H   LIG d   1      11.204   8.666  -0.997  0.00  0.00     0.066 H 
ATOM     52  H   LIG d   1       9.751   9.443  -0.325  0.00  0.00     0.066 H 
ENDBRANCH  48  49
ENDBRANCH  40  48
ENDBRANCH   1  34
TORSDOF 10
ENDMDL
MODEL 8
REMARK VINA RESULT:      -6.4      7.586     11.617
REMARK  10 active torsions:
REMARK  status: ('A' for Active; 'I' for Inactive)
REMARK    1  A    between atoms: C_1  and  O_2 
REMARK    2  A    between atoms: O_2  and  C_3 
REMARK    3  A    between atoms: C_6  and  C_11 
REMARK    4  A    between atoms: C_8  and  O_9 
REMARK    5  A    between atoms: O_9  and  C_10 
REMARK    6  A    between atoms: C_16  and  C_17 
REMARK    7  A    between atoms: C_20  and  O_24 
REMARK    8  A    between atoms: C_22  and  O_23 
REMARK    9  A    between atoms: O_24  and  C_25 
REMARK   10  A    between atoms: C_25  and  C_26 
ROOT
ATOM      1  C   LIG d   1      10.153  -7.154  -3.976  0.00  0.00     0.027 A 
ATOM      2  C   LIG d   1      11.454  -7.549  -4.073  0.00  0.00     0.031 A 
ATOM      3  N   LIG d   1      12.163  -6.517  -4.576  0.00  0.00    -0.283 N 
ATOM      4  H   LIG d   1      13.117  -6.517  -4.751  0.00  0.00     0.188 HD
ATOM      5  N   LIG d   1      11.289  -5.448  -4.802  0.00  0.00    -0.173 NA
ATOM      6  C   LIG d   1      10.077  -5.820  -4.451  0.00  0.00     0.104 A 
ATOM      7  H   LIG d   1      11.848  -8.516  -3.795  0.00  0.00     0.083 H 
ENDROOT
BRANCH   6   8
ATOM      8  C   LIG d   1       8.851  -4.992  -4.532  0.00  0.00     0.044 A 
ATOM      9  C   LIG d   1       8.705  -3.872  -3.707  0.00  0.00     0.130 A 
ATOM     10  C   LIG d   1       7.561  -3.097  -3.793  0.00  0.00     0.022 A 
ATOM     11  C   LIG d   1       6.556  -3.440  -4.685  0.00  0.00     0.124 A 
ATOM     12  H   LIG d   1       7.447  -2.229  -3.161  0.00  0.00     0.069 H 
ATOM     13  C   LIG d   1       6.697  -4.556  -5.501  0.00  0.00    -0.019 A 
ATOM     14  C   LIG d   1       7.838  -5.329  -5.427  0.00  0.00    -0.045 A 
ATOM     15  H   LIG d   1       5.912  -4.819  -6.195  0.00  0.00     0.065 H 
ATOM     16  H   LIG d   1       7.944  -6.196  -6.062  0.00  0.00     0.063 H 
BRANCH   9  17
ATOM     17  O   LIG d   1       9.687  -3.541  -2.829  0.00  0.00    -0.506 OA
ATOM     18  H   LIG d   1       9.450  -2.825  -2.224  0.00  0.00     0.292 HD
ENDBRANCH   9  17
BRANCH  11  19
ATOM     19  O   LIG d   1       5.431  -2.683  -4.762  0.00  0.00    -0.487 OA
BRANCH  19  20
ATOM     20  C   LIG d   1       4.554  -2.707  -3.633  0.00  0.00     0.115 C 
ATOM     21  H   LIG d   1       3.629  -3.215  -3.903  0.00  0.00     0.075 H 
ATOM     22  H   LIG d   1       5.035  -3.238  -2.812  0.00  0.00     0.075 H 
BRANCH  20  23
ATOM     23  C   LIG d   1       4.247  -1.294  -3.207  0.00  0.00    -0.010 A 
ATOM     24  C   LIG d   1       4.741  -0.810  -2.011  0.00  0.00    -0.055 A 
ATOM     25  C   LIG d   1       4.463   0.487  -1.622  0.00  0.00    -0.061 A 
ATOM     26  H   LIG d   1       5.347  -1.445  -1.380  0.00  0.00     0.062 H 
ATOM     27  C   LIG d   1       3.684   1.297  -2.426  0.00  0.00    -0.062 A 
ATOM     28  H   LIG d   1       4.852   0.866  -0.688  0.00  0.00     0.062 H 
ATOM     29  C   LIG d   1       3.186   0.811  -3.620  0.00  0.00    -0.061 A 
ATOM     30  H   LIG d   1       3.464   2.310  -2.121  0.00  0.00     0.062 H 
ATOM     31  C   LIG d   1       3.467  -0.484  -4.011  0.00  0.00    -0.055 A 
ATOM     32  H   LIG d   1       2.576   1.445  -4.249  0.00  0.00     0.062 H 
ATOM     33  H   LIG d   1       3.078  -0.864  -4.944  0.00  0.00     0.062 H 
ENDBRANCH  20  23
ENDBRANCH  19  20
ENDBRANCH  11  19
ENDBRANCH   6   8
BRANCH   1  34
ATOM     34  C   LIG d   1       9.022  -7.973  -3.474  0.00  0.00    -0.011 A 
ATOM     35  C   LIG d   1       8.915  -8.253  -2.114  0.00  0.00    -0.050 A 
ATOM     36  C   LIG d   1       7.863  -9.015  -1.647  0.00  0.00    -0.016 A 
ATOM     37  H   LIG d   1       9.655  -7.875  -1.424  0.00  0.00     0.062 H 
ATOM     38  C   LIG d   1       6.910  -9.501  -2.530  0.00  0.00     0.162 A 
ATOM     39  H   LIG d   1       7.779  -9.232  -0.592  0.00  0.00     0.066 H 
ATOM     40  C   LIG d   1       7.016  -9.229  -3.891  0.00  0.00     0.162 A 
ATOM     41  C   LIG d   1       8.067  -8.463  -4.363  0.00  0.00    -0.009 A 
ATOM     42  H   LIG d   1       8.147  -8.247  -5.417  0.00  0.00     0.066 H 
BRANCH  38  43
ATOM     43  O   LIG d   1       5.875 -10.252  -2.065  0.00  0.00    -0.491 OA
BRANCH  43  44
ATOM     44  C   LIG d   1       6.186 -11.559  -1.582  0.00  0.00     0.079 C 
ATOM     45  H   LIG d   1       7.131 -11.530  -1.039  0.00  0.00     0.066 H 
ATOM     46  H   LIG d   1       5.393 -11.898  -0.914  0.00  0.00     0.066 H 
ATOM     47  H   LIG d   1       6.271 -12.247  -2.423  0.00  0.00     0.066 H 
ENDBRANCH  43  44
ENDBRANCH  38  43
BRANCH  40  48
ATOM     48  O   LIG d   1       6.085  -9.712  -4.755  0.00  0.00    -0.491 OA
BRANCH  48  49
ATOM     49  C   LIG d   1       5.063  -8.807  -5.179  0.00  0.00     0.079 C 
ATOM     50  H   LIG d   1       4.117  -9.084  -4.712  0.00  0.00     0.066 H 
ATOM     51  H   LIG d   1       5.332  -7.793  -4.885  0.00  0.00     0.066 H 
ATOM     52  H   LIG d   1       4.961  -8.856  -6.264  0.00  0.00     0.066 H 
ENDBRANCH  48  49
ENDBRANCH  40  48
ENDBRANCH   1  34
TORSDOF 10
ENDMDL
MODEL 9
REMARK VINA RESULT:      -6.3      2.114      2.978
REMARK  10 active torsions:
REMARK  status: ('A' for Active; 'I' for Inactive)
REMARK    1  A    between atoms: C_1  and  O_2 
REMARK    2  A    between atoms: O_2  and  C_3 
REMARK    3  A    between atoms: C_6  and  C_11 
REMARK    4  A    between atoms: C_8  and  O_9 
REMARK    5  A    between atoms: O_9  and  C_10 
REMARK    6  A    between atoms: C_16  and  C_17 
REMARK    7  A    between atoms: C_20  and  O_24 
REMARK    8  A    between atoms: C_22  and  O_23 
REMARK    9  A    between atoms: O_24  and  C_25 
REMARK   10  A    between atoms: C_25  and  C_26 
ROOT
ATOM      1  C   LIG d   1      12.008   3.564  -3.996  0.00  0.00     0.027 A 
ATOM      2  C   LIG d   1      13.291   3.552  -3.537  0.00  0.00     0.031 A 
ATOM      3  N   LIG d   1      13.616   2.273  -3.255  0.00  0.00    -0.283 N 
ATOM      4  H   LIG d   1      14.471   1.967  -2.911  0.00  0.00     0.188 HD
ATOM      5  N   LIG d   1      12.513   1.461  -3.542  0.00  0.00    -0.173 NA
ATOM      6  C   LIG d   1      11.538   2.226  -3.983  0.00  0.00     0.104 A 
ATOM      7  H   LIG d   1      13.933   4.412  -3.421  0.00  0.00     0.083 H 
ENDROOT
BRANCH   6   8
ATOM      8  C   LIG d   1      10.189   1.771  -4.397  0.00  0.00     0.044 A 
ATOM      9  C   LIG d   1      10.035   0.990  -5.547  0.00  0.00     0.130 A 
ATOM     10  C   LIG d   1       8.774   0.562  -5.924  0.00  0.00     0.022 A 
ATOM     11  C   LIG d   1       7.665   0.919  -5.172  0.00  0.00     0.124 A 
ATOM     12  H   LIG d   1       8.652  -0.045  -6.809  0.00  0.00     0.069 H 
ATOM     13  C   LIG d   1       7.817   1.699  -4.032  0.00  0.00    -0.019 A 
ATOM     14  C   LIG d   1       9.071   2.124  -3.645  0.00  0.00    -0.045 A 
ATOM     15  H   LIG d   1       6.950   1.974  -3.448  0.00  0.00     0.065 H 
ATOM     16  H   LIG d   1       9.185   2.731  -2.759  0.00  0.00     0.063 H 
BRANCH   9  17
ATOM     17  O   LIG d   1      11.121   0.647  -6.288  0.00  0.00    -0.506 OA
ATOM     18  H   LIG d   1      11.946   0.613  -5.784  0.00  0.00     0.292 HD
ENDBRANCH   9  17
BRANCH  11  19
ATOM     19  O   LIG d   1       6.428   0.503  -5.548  0.00  0.00    -0.487 OA
BRANCH  19  20
ATOM     20  C   LIG d   1       6.121  -0.880  -5.352  0.00  0.00     0.115 C 
ATOM     21  H   LIG d   1       5.842  -1.328  -6.305  0.00  0.00     0.075 H 
ATOM     22  H   LIG d   1       6.995  -1.392  -4.951  0.00  0.00     0.075 H 
BRANCH  20  23
ATOM     23  C   LIG d   1       4.975  -1.006  -4.381  0.00  0.00    -0.010 A 
ATOM     24  C   LIG d   1       3.835  -0.244  -4.554  0.00  0.00    -0.055 A 
ATOM     25  C   LIG d   1       2.782  -0.363  -3.666  0.00  0.00    -0.061 A 
ATOM     26  H   LIG d   1       3.766   0.442  -5.386  0.00  0.00     0.062 H 
ATOM     27  C   LIG d   1       2.873  -1.238  -2.601  0.00  0.00    -0.062 A 
ATOM     28  H   LIG d   1       1.890   0.230  -3.804  0.00  0.00     0.062 H 
ATOM     29  C   LIG d   1       4.015  -1.996  -2.425  0.00  0.00    -0.061 A 
ATOM     30  H   LIG d   1       2.052  -1.329  -1.905  0.00  0.00     0.062 H 
ATOM     31  C   LIG d   1       5.067  -1.880  -3.314  0.00  0.00    -0.055 A 
ATOM     32  H   LIG d   1       4.086  -2.681  -1.591  0.00  0.00     0.062 H 
ATOM     33  H   LIG d   1       5.959  -2.473  -3.177  0.00  0.00     0.062 H 
ENDBRANCH  20  23
ENDBRANCH  19  20
ENDBRANCH  11  19
ENDBRANCH   6   8
BRANCH   1  34
ATOM     34  C   LIG d   1      11.240   4.760  -4.423  0.00  0.00    -0.011 A 
ATOM     35  C   LIG d   1      10.890   4.921  -5.762  0.00  0.00    -0.050 A 
ATOM     36  C   LIG d   1      10.176   6.034  -6.159  0.00  0.00    -0.016 A 
ATOM     37  H   LIG d   1      11.177   4.177  -6.489  0.00  0.00     0.062 H 
ATOM     38  C   LIG d   1       9.804   6.992  -5.227  0.00  0.00     0.162 A 
ATOM     39  H   LIG d   1       9.904   6.159  -7.197  0.00  0.00     0.066 H 
ATOM     40  C   LIG d   1      10.157   6.838  -3.890  0.00  0.00     0.162 A 
ATOM     41  C   LIG d   1      10.869   5.722  -3.486  0.00  0.00    -0.009 A 
ATOM     42  H   LIG d   1      11.139   5.600  -2.448  0.00  0.00     0.066 H 
BRANCH  38  43
ATOM     43  O   LIG d   1       9.100   8.086  -5.624  0.00  0.00    -0.491 OA
BRANCH  43  44
ATOM     44  C   LIG d   1       9.296   8.534  -6.966  0.00  0.00     0.079 C 
ATOM     45  H   LIG d   1      10.161   9.197  -7.005  0.00  0.00     0.066 H 
ATOM     46  H   LIG d   1       9.468   7.674  -7.614  0.00  0.00     0.066 H 
ATOM     47  H   LIG d   1       8.411   9.072  -7.302  0.00  0.00     0.066 H 
ENDBRANCH  43  44
ENDBRANCH  38  43
BRANCH  40  48
ATOM     48  O   LIG d   1       9.797   7.781  -2.979  0.00  0.00    -0.491 OA
BRANCH  48  49
ATOM     49  C   LIG d   1       9.426   7.318  -1.679  0.00  0.00     0.079 C 
ATOM     50  H   LIG d   1       8.974   6.329  -1.760  0.00  0.00     0.066 H 
ATOM     51  H   LIG d   1      10.313   7.262  -1.047  0.00  0.00     0.066 H 
ATOM     52  H   LIG d   1       8.709   8.010  -1.237  0.00  0.00     0.066 H 
ENDBRANCH  48  49
ENDBRANCH  40  48
ENDBRANCH   1  34
TORSDOF 10
ENDMDL
