MODEL 1
REMARK VINA RESULT:      -5.8      0.000      0.000
REMARK  13 active torsions:
REMARK  status: ('A' for Active; 'I' for Inactive)
REMARK    1  A    between atoms: C_1  and  C_2 
REMARK    2  A    between atoms: C_2  and  C_24 
REMARK    3  A    between atoms: C_6  and  C_23 
REMARK    4  A    between atoms: C_13  and  C_15 
REMARK    5  A    between atoms: C_15  and  C_16 
REMARK    6  A    between atoms: C_16  and  C_17 
REMARK    7  A    between atoms: C_24  and  O_25 
REMARK    8  A    between atoms: O_25  and  C_26 
REMARK    9  A    between atoms: C_28  and  O_41 
REMARK   10  A    between atoms: C_30  and  O_40 
REMARK   11  A    between atoms: C_32  and  O_39 
REMARK   12  A    between atoms: C_34  and  C_37 
REMARK   13  A    between atoms: C_37  and  O_38 
ROOT
ATOM      1  C   LIG d   1      10.368   7.283  -1.307  0.00  0.00    -0.005 C 
ATOM      2  C   LIG d   1      10.653   6.358  -0.125  0.00  0.00    -0.045 C 
ATOM      3  C   LIG d   1      11.668   5.294  -0.550  0.00  0.00    -0.052 C 
ATOM      4  C   LIG d   1      11.086   4.474  -1.702  0.00  0.00    -0.047 C 
ATOM      5  C   LIG d   1      10.789   5.392  -2.891  0.00  0.00    -0.022 C 
ATOM      6  C   LIG d   1       9.792   6.473  -2.472  0.00  0.00    -0.027 C 
ATOM      7  H   LIG d   1       8.853   5.988  -2.165  0.00  0.00     0.031 H 
ATOM      8  C   LIG d   1       9.528   7.420  -3.646  0.00  0.00    -0.045 C 
ATOM      9  C   LIG d   1       8.871   6.647  -4.793  0.00  0.00    -0.031 C 
ATOM     10  C   LIG d   1       9.754   5.469  -5.140  0.00  0.00    -0.073 C 
ATOM     11  C   LIG d   1      10.135   5.253  -6.374  0.00  0.00    -0.099 C 
ATOM     12  C   LIG d   1      10.185   4.548  -4.020  0.00  0.00    -0.014 C 
ATOM     13  H   LIG d   1       9.311   3.990  -3.655  0.00  0.00     0.035 H 
ATOM     14  H   LIG d   1      11.062   6.944   0.710  0.00  0.00     0.027 H 
ATOM     15  H   LIG d   1       9.719   5.869   0.192  0.00  0.00     0.027 H 
ATOM     16  H   LIG d   1      12.596   5.784  -0.878  0.00  0.00     0.027 H 
ATOM     17  H   LIG d   1      11.884   4.631   0.302  0.00  0.00     0.027 H 
ATOM     18  H   LIG d   1      11.810   3.705  -2.008  0.00  0.00     0.027 H 
ATOM     19  H   LIG d   1      10.154   3.990  -1.374  0.00  0.00     0.027 H 
ATOM     20  H   LIG d   1       8.857   8.230  -3.320  0.00  0.00     0.027 H 
ATOM     21  H   LIG d   1      10.480   7.849  -3.993  0.00  0.00     0.027 H 
ATOM     22  H   LIG d   1       7.878   6.294  -4.477  0.00  0.00     0.031 H 
ATOM     23  H   LIG d   1       8.763   7.307  -5.666  0.00  0.00     0.031 H 
ATOM     24  H   LIG d   1      10.777   4.391  -6.609  0.00  0.00     0.053 H 
ATOM     25  H   LIG d   1       9.813   5.933  -7.176  0.00  0.00     0.053 H 
ENDROOT
BRANCH   1  26
ATOM     26  C   LIG d   1       9.360   8.353  -0.884  0.00  0.00    -0.057 C 
ATOM     27  H   LIG d   1       9.898   9.237  -0.512  0.00  0.00     0.024 H 
ATOM     28  H   LIG d   1       8.714   7.955  -0.089  0.00  0.00     0.024 H 
ATOM     29  H   LIG d   1       8.743   8.638  -1.750  0.00  0.00     0.024 H 
ENDBRANCH   1  26
BRANCH   1  30
ATOM     30  C   LIG d   1      11.668   7.957  -1.750  0.00  0.00     0.056 C 
ATOM     31  H   LIG d   1      12.511   7.535  -1.184  0.00  0.00     0.057 H 
ATOM     32  H   LIG d   1      11.825   7.781  -2.825  0.00  0.00     0.057 H 
BRANCH  30  33
ATOM     33  O   LIG d   1      11.584   9.362  -1.504  0.00  0.00    -0.348 OA
BRANCH  33  34
ATOM     34  C   LIG d   1      12.057  10.170  -2.583  0.00  0.00     0.188 C 
ATOM     35  H   LIG d   1      12.749   9.556  -3.178  0.00  0.00     0.094 H 
ATOM     36  O   LIG d   1      10.961  10.527  -3.428  0.00  0.00    -0.341 OA
ATOM     37  C   LIG d   1       9.920  11.244  -2.761  0.00  0.00     0.113 C 
ATOM     38  C   LIG d   1      10.480  12.558  -2.209  0.00  0.00     0.112 C 
ATOM     39  H   LIG d   1       9.573  10.586  -1.951  0.00  0.00     0.065 H 
ATOM     40  C   LIG d   1      11.647  12.251  -1.266  0.00  0.00     0.114 C 
ATOM     41  H   LIG d   1      10.786  13.237  -3.019  0.00  0.00     0.065 H 
ATOM     42  C   LIG d   1      12.703  11.441  -2.024  0.00  0.00     0.134 C 
ATOM     43  H   LIG d   1      11.308  11.723  -0.362  0.00  0.00     0.065 H 
ATOM     44  H   LIG d   1      13.172  12.037  -2.822  0.00  0.00     0.067 H 
BRANCH  37  45
ATOM     45  C   LIG d   1       8.793  11.547  -3.751  0.00  0.00     0.073 C 
ATOM     46  H   LIG d   1       8.980  12.517  -4.233  0.00  0.00     0.058 H 
ATOM     47  H   LIG d   1       8.755  10.757  -4.516  0.00  0.00     0.058 H 
BRANCH  45  48
ATOM     48  O   LIG d   1       7.547  11.594  -3.053  0.00  0.00    -0.392 OA
ATOM     49  H   LIG d   1       6.640  11.182  -3.519  0.00  0.00     0.209 HD
ENDBRANCH  45  48
ENDBRANCH  37  45
BRANCH  38  50
ATOM     50  O   LIG d   1       9.457  13.251  -1.492  0.00  0.00    -0.387 OA
ATOM     51  H   LIG d   1       9.067  12.835  -0.551  0.00  0.00     0.210 HD
ENDBRANCH  38  50
BRANCH  40  52
ATOM     52  O   LIG d   1      12.224  13.473  -0.804  0.00  0.00    -0.386 OA
ATOM     53  H   LIG d   1      13.245  13.748  -1.106  0.00  0.00     0.210 HD
ENDBRANCH  40  52
BRANCH  42  54
ATOM     54  O   LIG d   1      13.763  11.086  -1.135  0.00  0.00    -0.384 OA
ATOM     55  H   LIG d   1      13.591  11.079  -0.049  0.00  0.00     0.210 HD
ENDBRANCH  42  54
ENDBRANCH  33  34
ENDBRANCH  30  33
ENDBRANCH   1  30
BRANCH   5  56
ATOM     56  C   LIG d   1      12.083   6.048  -3.377  0.00  0.00    -0.059 C 
ATOM     57  H   LIG d   1      12.563   5.399  -4.125  0.00  0.00     0.024 H 
ATOM     58  H   LIG d   1      12.763   6.192  -2.525  0.00  0.00     0.024 H 
ATOM     59  H   LIG d   1      11.851   7.022  -3.832  0.00  0.00     0.024 H 
ENDBRANCH   5  56
BRANCH  12  60
ATOM     60  C   LIG d   1      11.234   3.564  -4.542  0.00  0.00    -0.042 C 
ATOM     61  H   LIG d   1      11.369   3.709  -5.624  0.00  0.00     0.027 H 
ATOM     62  H   LIG d   1      12.190   3.739  -4.026  0.00  0.00     0.027 H 
BRANCH  60  63
ATOM     63  C   LIG d   1      10.766   2.131  -4.275  0.00  0.00    -0.021 C 
ATOM     64  H   LIG d   1      11.571   1.428  -4.532  0.00  0.00     0.032 H 
ATOM     65  H   LIG d   1      10.509   2.022  -3.211  0.00  0.00     0.032 H 
BRANCH  63  66
ATOM     66  C   LIG d   1       9.551   1.835  -5.117  0.00  0.00     0.036 A 
ATOM     67  C   LIG d   1       8.176   1.754  -4.619  0.00  0.00     0.335 A 
ATOM     68  O   LIG d   1       7.335   1.478  -5.633  0.00  0.00    -0.457 OA
ATOM     69  O   LIG d   1       7.842   1.916  -3.462  0.00  0.00    -0.245 OA
ATOM     70  C   LIG d   1       8.133   1.356  -6.844  0.00  0.00     0.112 A 
ATOM     71  C   LIG d   1       9.564   1.601  -6.427  0.00  0.00    -0.037 A 
ATOM     72  H   LIG d   1       7.837   2.104  -7.593  0.00  0.00     0.074 H 
ATOM     73  H   LIG d   1       8.046   0.348  -7.277  0.00  0.00     0.074 H 
ATOM     74  H   LIG d   1      10.516   1.615  -6.979  0.00  0.00     0.061 H 
ENDBRANCH  63  66
ENDBRANCH  60  63
ENDBRANCH  12  60
TORSDOF 13
ENDMDL
MODEL 2
REMARK VINA RESULT:      -5.8      9.245     13.209
REMARK  13 active torsions:
REMARK  status: ('A' for Active; 'I' for Inactive)
REMARK    1  A    between atoms: C_1  and  C_2 
REMARK    2  A    between atoms: C_2  and  C_24 
REMARK    3  A    between atoms: C_6  and  C_23 
REMARK    4  A    between atoms: C_13  and  C_15 
REMARK    5  A    between atoms: C_15  and  C_16 
REMARK    6  A    between atoms: C_16  and  C_17 
REMARK    7  A    between atoms: C_24  and  O_25 
REMARK    8  A    between atoms: O_25  and  C_26 
REMARK    9  A    between atoms: C_28  and  O_41 
REMARK   10  A    between atoms: C_30  and  O_40 
REMARK   11  A    between atoms: C_32  and  O_39 
REMARK   12  A    between atoms: C_34  and  C_37 
REMARK   13  A    between atoms: C_37  and  O_38 
ROOT
ATOM      1  C   LIG d   1       4.911   0.146  -8.528  0.00  0.00    -0.005 C 
ATOM      2  C   LIG d   1       5.086   1.418  -9.356  0.00  0.00    -0.045 C 
ATOM      3  C   LIG d   1       3.746   1.791  -9.996  0.00  0.00    -0.052 C 
ATOM      4  C   LIG d   1       3.291   0.654 -10.911  0.00  0.00    -0.047 C 
ATOM      5  C   LIG d   1       3.120  -0.629 -10.094  0.00  0.00    -0.022 C 
ATOM      6  C   LIG d   1       4.446  -1.000  -9.431  0.00  0.00    -0.027 C 
ATOM      7  H   LIG d   1       5.194  -1.187 -10.216  0.00  0.00     0.031 H 
ATOM      8  C   LIG d   1       4.267  -2.258  -8.575  0.00  0.00    -0.045 C 
ATOM      9  C   LIG d   1       3.886  -3.439  -9.471  0.00  0.00    -0.031 C 
ATOM     10  C   LIG d   1       2.657  -3.056 -10.267  0.00  0.00    -0.073 C 
ATOM     11  C   LIG d   1       1.599  -3.828 -10.286  0.00  0.00    -0.099 C 
ATOM     12  C   LIG d   1       2.686  -1.756 -11.039  0.00  0.00    -0.014 C 
ATOM     13  H   LIG d   1       3.395  -1.848 -11.875  0.00  0.00     0.035 H 
ATOM     14  H   LIG d   1       5.424   2.237  -8.705  0.00  0.00     0.027 H 
ATOM     15  H   LIG d   1       5.834   1.243 -10.144  0.00  0.00     0.027 H 
ATOM     16  H   LIG d   1       2.997   1.954  -9.208  0.00  0.00     0.027 H 
ATOM     17  H   LIG d   1       3.866   2.714 -10.585  0.00  0.00     0.027 H 
ATOM     18  H   LIG d   1       2.331   0.920 -11.377  0.00  0.00     0.027 H 
ATOM     19  H   LIG d   1       4.045   0.489 -11.694  0.00  0.00     0.027 H 
ATOM     20  H   LIG d   1       5.210  -2.485  -8.054  0.00  0.00     0.027 H 
ATOM     21  H   LIG d   1       3.470  -2.088  -7.836  0.00  0.00     0.027 H 
ATOM     22  H   LIG d   1       4.719  -3.668 -10.152  0.00  0.00     0.031 H 
ATOM     23  H   LIG d   1       3.671  -4.319  -8.847  0.00  0.00     0.031 H 
ATOM     24  H   LIG d   1       0.715  -3.534 -10.871  0.00  0.00     0.053 H 
ATOM     25  H   LIG d   1       1.595  -4.770  -9.719  0.00  0.00     0.053 H 
ENDROOT
BRANCH   1  26
ATOM     26  C   LIG d   1       6.246  -0.226  -7.879  0.00  0.00    -0.057 C 
ATOM     27  H   LIG d   1       7.071   0.069  -8.544  0.00  0.00     0.024 H 
ATOM     28  H   LIG d   1       6.281  -1.312  -7.711  0.00  0.00     0.024 H 
ATOM     29  H   LIG d   1       6.344   0.298  -6.917  0.00  0.00     0.024 H 
ENDBRANCH   1  26
BRANCH   1  30
ATOM     30  C   LIG d   1       3.867   0.389  -7.437  0.00  0.00     0.056 C 
ATOM     31  H   LIG d   1       3.400   1.373  -7.589  0.00  0.00     0.057 H 
ATOM     32  H   LIG d   1       3.095  -0.394  -7.486  0.00  0.00     0.057 H 
BRANCH  30  33
ATOM     33  O   LIG d   1       4.499   0.355  -6.156  0.00  0.00    -0.348 OA
BRANCH  33  34
ATOM     34  C   LIG d   1       3.769  -0.373  -5.167  0.00  0.00     0.188 C 
ATOM     35  H   LIG d   1       2.738  -0.487  -5.533  0.00  0.00     0.094 H 
ATOM     36  O   LIG d   1       4.325  -1.681  -5.028  0.00  0.00    -0.341 OA
ATOM     37  C   LIG d   1       5.705  -1.692  -4.656  0.00  0.00     0.113 C 
ATOM     38  C   LIG d   1       5.871  -1.011  -3.295  0.00  0.00     0.112 C 
ATOM     39  H   LIG d   1       6.234  -1.139  -5.447  0.00  0.00     0.065 H 
ATOM     40  C   LIG d   1       5.319   0.416  -3.376  0.00  0.00     0.114 C 
ATOM     41  H   LIG d   1       5.381  -1.586  -2.495  0.00  0.00     0.065 H 
ATOM     42  C   LIG d   1       3.856   0.362  -3.825  0.00  0.00     0.134 C 
ATOM     43  H   LIG d   1       5.923   1.046  -4.046  0.00  0.00     0.065 H 
ATOM     44  H   LIG d   1       3.218  -0.114  -3.065  0.00  0.00     0.067 H 
BRANCH  37  45
ATOM     45  C   LIG d   1       6.199  -3.137  -4.566  0.00  0.00     0.073 C 
ATOM     46  H   LIG d   1       5.943  -3.551  -3.581  0.00  0.00     0.058 H 
ATOM     47  H   LIG d   1       5.721  -3.737  -5.353  0.00  0.00     0.058 H 
BRANCH  45  48
ATOM     48  O   LIG d   1       7.617  -3.167  -4.740  0.00  0.00    -0.392 OA
ATOM     49  H   LIG d   1       8.087  -3.996  -5.291  0.00  0.00     0.209 HD
ENDBRANCH  45  48
ENDBRANCH  37  45
BRANCH  38  50
ATOM     50  O   LIG d   1       7.256  -0.968  -2.946  0.00  0.00    -0.387 OA
ATOM     51  H   LIG d   1       7.970  -1.635  -3.451  0.00  0.00     0.210 HD
ENDBRANCH  38  50
BRANCH  40  52
ATOM     52  O   LIG d   1       5.401   1.034  -2.091  0.00  0.00    -0.386 OA
ATOM     53  H   LIG d   1       5.483   0.413  -1.186  0.00  0.00     0.210 HD
ENDBRANCH  40  52
BRANCH  42  54
ATOM     54  O   LIG d   1       3.352   1.690  -3.975  0.00  0.00    -0.384 OA
ATOM     55  H   LIG d   1       3.862   2.400  -4.642  0.00  0.00     0.210 HD
ENDBRANCH  42  54
ENDBRANCH  33  34
ENDBRANCH  30  33
ENDBRANCH   1  30
BRANCH   5  56
ATOM     56  C   LIG d   1       2.050  -0.422  -9.019  0.00  0.00    -0.059 C 
ATOM     57  H   LIG d   1       1.698   0.620  -9.050  0.00  0.00     0.024 H 
ATOM     58  H   LIG d   1       2.478  -0.637  -8.030  0.00  0.00     0.024 H 
ATOM     59  H   LIG d   1       1.204  -1.099  -9.209  0.00  0.00     0.024 H 
ENDBRANCH   5  56
BRANCH  12  60
ATOM     60  C   LIG d   1       1.290  -1.456 -11.589  0.00  0.00    -0.042 C 
ATOM     61  H   LIG d   1       0.540  -2.018 -11.013  0.00  0.00     0.027 H 
ATOM     62  H   LIG d   1       1.086  -0.378 -11.504  0.00  0.00     0.027 H 
BRANCH  60  63
ATOM     63  C   LIG d   1       1.221  -1.873 -13.060  0.00  0.00    -0.021 C 
ATOM     64  H   LIG d   1       1.402  -0.997 -13.698  0.00  0.00     0.032 H 
ATOM     65  H   LIG d   1       1.985  -2.639 -13.260  0.00  0.00     0.032 H 
BRANCH  63  66
ATOM     66  C   LIG d   1      -0.145  -2.438 -13.358  0.00  0.00     0.036 A 
ATOM     67  C   LIG d   1      -0.445  -3.856 -13.571  0.00  0.00     0.335 A 
ATOM     68  O   LIG d   1      -1.761  -4.016 -13.810  0.00  0.00    -0.457 OA
ATOM     69  O   LIG d   1       0.371  -4.755 -13.534  0.00  0.00    -0.245 OA
ATOM     70  C   LIG d   1      -2.377  -2.699 -13.772  0.00  0.00     0.112 A 
ATOM     71  C   LIG d   1      -1.262  -1.725 -13.473  0.00  0.00    -0.037 A 
ATOM     72  H   LIG d   1      -3.138  -2.638 -12.981  0.00  0.00     0.074 H 
ATOM     73  H   LIG d   1      -2.834  -2.446 -14.741  0.00  0.00     0.074 H 
ATOM     74  H   LIG d   1      -1.232  -0.632 -13.349  0.00  0.00     0.061 H 
ENDBRANCH  63  66
ENDBRANCH  60  63
ENDBRANCH  12  60
TORSDOF 13
ENDMDL
MODEL 3
REMARK VINA RESULT:      -5.7      7.366     14.074
REMARK  13 active torsions:
REMARK  status: ('A' for Active; 'I' for Inactive)
REMARK    1  A    between atoms: C_1  and  C_2 
REMARK    2  A    between atoms: C_2  and  C_24 
REMARK    3  A    between atoms: C_6  and  C_23 
REMARK    4  A    between atoms: C_13  and  C_15 
REMARK    5  A    between atoms: C_15  and  C_16 
REMARK    6  A    between atoms: C_16  and  C_17 
REMARK    7  A    between atoms: C_24  and  O_25 
REMARK    8  A    between atoms: O_25  and  C_26 
REMARK    9  A    between atoms: C_28  and  O_41 
REMARK   10  A    between atoms: C_30  and  O_40 
REMARK   11  A    between atoms: C_32  and  O_39 
REMARK   12  A    between atoms: C_34  and  C_37 
REMARK   13  A    between atoms: C_37  and  O_38 
ROOT
ATOM      1  C   LIG d   1       3.621  -0.325  -8.693  0.00  0.00    -0.005 C 
ATOM      2  C   LIG d   1       4.951  -0.292  -9.445  0.00  0.00    -0.045 C 
ATOM      3  C   LIG d   1       5.894  -1.340  -8.848  0.00  0.00    -0.052 C 
ATOM      4  C   LIG d   1       6.141  -1.014  -7.375  0.00  0.00    -0.047 C 
ATOM      5  C   LIG d   1       4.814  -1.037  -6.612  0.00  0.00    -0.022 C 
ATOM      6  C   LIG d   1       3.855  -0.009  -7.212  0.00  0.00    -0.027 C 
ATOM      7  H   LIG d   1       4.298   0.992  -7.107  0.00  0.00     0.031 H 
ATOM      8  C   LIG d   1       2.511  -0.061  -6.481  0.00  0.00    -0.045 C 
ATOM      9  C   LIG d   1       2.707   0.336  -5.015  0.00  0.00    -0.031 C 
ATOM     10  C   LIG d   1       3.768  -0.561  -4.417  0.00  0.00    -0.073 C 
ATOM     11  C   LIG d   1       3.550  -1.212  -3.302  0.00  0.00    -0.099 C 
ATOM     12  C   LIG d   1       5.089  -0.684  -5.144  0.00  0.00    -0.014 C 
ATOM     13  H   LIG d   1       5.630   0.271  -5.075  0.00  0.00     0.035 H 
ATOM     14  H   LIG d   1       4.777  -0.514 -10.507  0.00  0.00     0.027 H 
ATOM     15  H   LIG d   1       5.402   0.708  -9.348  0.00  0.00     0.027 H 
ATOM     16  H   LIG d   1       5.436  -2.336  -8.935  0.00  0.00     0.027 H 
ATOM     17  H   LIG d   1       6.850  -1.326  -9.395  0.00  0.00     0.027 H 
ATOM     18  H   LIG d   1       6.822  -1.762  -6.944  0.00  0.00     0.027 H 
ATOM     19  H   LIG d   1       6.592  -0.015  -7.290  0.00  0.00     0.027 H 
ATOM     20  H   LIG d   1       1.806   0.638  -6.957  0.00  0.00     0.027 H 
ATOM     21  H   LIG d   1       2.105  -1.082  -6.531  0.00  0.00     0.027 H 
ATOM     22  H   LIG d   1       3.027   1.387  -4.959  0.00  0.00     0.031 H 
ATOM     23  H   LIG d   1       1.759   0.213  -4.471  0.00  0.00     0.031 H 
ATOM     24  H   LIG d   1       4.333  -1.860  -2.881  0.00  0.00     0.053 H 
ATOM     25  H   LIG d   1       2.584  -1.111  -2.786  0.00  0.00     0.053 H 
ENDROOT
BRANCH   1  26
ATOM     26  C   LIG d   1       2.672   0.715  -9.291  0.00  0.00    -0.057 C 
ATOM     27  H   LIG d   1       2.538   0.514 -10.364  0.00  0.00     0.024 H 
ATOM     28  H   LIG d   1       3.097   1.720  -9.157  0.00  0.00     0.024 H 
ATOM     29  H   LIG d   1       1.698   0.658  -8.782  0.00  0.00     0.024 H 
ENDBRANCH   1  26
BRANCH   1  30
ATOM     30  C   LIG d   1       2.998  -1.716  -8.823  0.00  0.00     0.056 C 
ATOM     31  H   LIG d   1       3.795  -2.471  -8.876  0.00  0.00     0.057 H 
ATOM     32  H   LIG d   1       2.360  -1.916  -7.949  0.00  0.00     0.057 H 
BRANCH  30  33
ATOM     33  O   LIG d   1       2.207  -1.774 -10.012  0.00  0.00    -0.348 OA
BRANCH  33  34
ATOM     34  C   LIG d   1       2.649  -2.749 -10.958  0.00  0.00     0.188 C 
ATOM     35  H   LIG d   1       3.740  -2.844 -10.849  0.00  0.00     0.094 H 
ATOM     36  O   LIG d   1       2.071  -4.017 -10.642  0.00  0.00    -0.341 OA
ATOM     37  C   LIG d   1       0.642  -4.022 -10.637  0.00  0.00     0.113 C 
ATOM     38  C   LIG d   1       0.128  -3.653 -12.031  0.00  0.00     0.112 C 
ATOM     39  H   LIG d   1       0.341  -3.274  -9.890  0.00  0.00     0.065 H 
ATOM     40  C   LIG d   1       0.687  -2.282 -12.428  0.00  0.00     0.114 C 
ATOM     41  H   LIG d   1       0.388  -4.423 -12.774  0.00  0.00     0.065 H 
ATOM     42  C   LIG d   1       2.216  -2.329 -12.365  0.00  0.00     0.134 C 
ATOM     43  H   LIG d   1       0.281  -1.482 -11.791  0.00  0.00     0.065 H 
ATOM     44  H   LIG d   1       2.631  -3.002 -13.131  0.00  0.00     0.067 H 
BRANCH  37  45
ATOM     45  C   LIG d   1       0.137  -5.417 -10.261  0.00  0.00     0.073 C 
ATOM     46  H   LIG d   1      -0.033  -6.003 -11.175  0.00  0.00     0.058 H 
ATOM     47  H   LIG d   1       0.887  -5.920  -9.634  0.00  0.00     0.058 H 
BRANCH  45  48
ATOM     48  O   LIG d   1      -1.088  -5.298  -9.536  0.00  0.00    -0.392 OA
ATOM     49  H   LIG d   1      -1.664  -4.361  -9.578  0.00  0.00     0.209 HD
ENDBRANCH  45  48
ENDBRANCH  37  45
BRANCH  38  50
ATOM     50  O   LIG d   1      -1.300  -3.600 -12.017  0.00  0.00    -0.387 OA
ATOM     51  H   LIG d   1      -1.872  -3.959 -12.886  0.00  0.00     0.210 HD
ENDBRANCH  38  50
BRANCH  40  52
ATOM     52  O   LIG d   1       0.273  -1.963 -13.757  0.00  0.00    -0.386 OA
ATOM     53  H   LIG d   1      -0.192  -0.988 -13.968  0.00  0.00     0.210 HD
ENDBRANCH  40  52
BRANCH  42  54
ATOM     54  O   LIG d   1       2.746  -1.036 -12.661  0.00  0.00    -0.384 OA
ATOM     55  H   LIG d   1       2.099  -0.149 -12.602  0.00  0.00     0.210 HD
ENDBRANCH  42  54
ENDBRANCH  33  34
ENDBRANCH  30  33
ENDBRANCH   1  30
BRANCH   5  56
ATOM     56  C   LIG d   1       4.190  -2.431  -6.695  0.00  0.00    -0.059 C 
ATOM     57  H   LIG d   1       4.258  -2.801  -7.729  0.00  0.00     0.024 H 
ATOM     58  H   LIG d   1       3.135  -2.379  -6.392  0.00  0.00     0.024 H 
ATOM     59  H   LIG d   1       4.732  -3.115  -6.025  0.00  0.00     0.024 H 
ENDBRANCH   5  56
BRANCH  12  60
ATOM     60  C   LIG d   1       5.927  -1.790  -4.500  0.00  0.00    -0.042 C 
ATOM     61  H   LIG d   1       5.264  -2.502  -3.986  0.00  0.00     0.027 H 
ATOM     62  H   LIG d   1       6.500  -2.317  -5.277  0.00  0.00     0.027 H 
BRANCH  60  63
ATOM     63  C   LIG d   1       6.893  -1.172  -3.486  0.00  0.00    -0.021 C 
ATOM     64  H   LIG d   1       6.354  -0.946  -2.556  0.00  0.00     0.032 H 
ATOM     65  H   LIG d   1       7.707  -1.882  -3.276  0.00  0.00     0.032 H 
BRANCH  63  66
ATOM     66  C   LIG d   1       7.471   0.099  -4.054  0.00  0.00     0.036 A 
ATOM     67  C   LIG d   1       7.003   1.452  -3.745  0.00  0.00     0.335 A 
ATOM     68  O   LIG d   1       7.738   2.358  -4.417  0.00  0.00    -0.457 OA
ATOM     69  O   LIG d   1       6.089   1.719  -2.990  0.00  0.00    -0.245 OA
ATOM     70  C   LIG d   1       8.718   1.628  -5.208  0.00  0.00     0.112 A 
ATOM     71  C   LIG d   1       8.481   0.164  -4.918  0.00  0.00    -0.037 A 
ATOM     72  H   LIG d   1       9.744   1.897  -4.917  0.00  0.00     0.074 H 
ATOM     73  H   LIG d   1       8.580   1.815  -6.283  0.00  0.00     0.074 H 
ATOM     74  H   LIG d   1       8.962  -0.759  -5.273  0.00  0.00     0.061 H 
ENDBRANCH  63  66
ENDBRANCH  60  63
ENDBRANCH  12  60
TORSDOF 13
ENDMDL
MODEL 4
REMARK VINA RESULT:      -5.7      8.877     12.860
REMARK  13 active torsions:
REMARK  status: ('A' for Active; 'I' for Inactive)
REMARK    1  A    between atoms: C_1  and  C_2 
REMARK    2  A    between atoms: C_2  and  C_24 
REMARK    3  A    between atoms: C_6  and  C_23 
REMARK    4  A    between atoms: C_13  and  C_15 
REMARK    5  A    between atoms: C_15  and  C_16 
REMARK    6  A    between atoms: C_16  and  C_17 
REMARK    7  A    between atoms: C_24  and  O_25 
REMARK    8  A    between atoms: O_25  and  C_26 
REMARK    9  A    between atoms: C_28  and  O_41 
REMARK   10  A    between atoms: C_30  and  O_40 
REMARK   11  A    between atoms: C_32  and  O_39 
REMARK   12  A    between atoms: C_34  and  C_37 
REMARK   13  A    between atoms: C_37  and  O_38 
ROOT
ATOM      1  C   LIG d   1       4.213   0.838  -9.093  0.00  0.00    -0.005 C 
ATOM      2  C   LIG d   1       2.774   1.145  -8.680  0.00  0.00    -0.045 C 
ATOM      3  C   LIG d   1       1.967  -0.156  -8.659  0.00  0.00    -0.052 C 
ATOM      4  C   LIG d   1       1.969  -0.772 -10.058  0.00  0.00    -0.047 C 
ATOM      5  C   LIG d   1       3.407  -1.077 -10.487  0.00  0.00    -0.022 C 
ATOM      6  C   LIG d   1       4.229   0.212 -10.490  0.00  0.00    -0.027 C 
ATOM      7  H   LIG d   1       3.791   0.909 -11.220  0.00  0.00     0.031 H 
ATOM      8  C   LIG d   1       5.679  -0.096 -10.874  0.00  0.00    -0.045 C 
ATOM      9  C   LIG d   1       5.728  -0.644 -12.303  0.00  0.00    -0.031 C 
ATOM     10  C   LIG d   1       4.803  -1.838 -12.387  0.00  0.00    -0.073 C 
ATOM     11  C   LIG d   1       5.221  -2.982 -12.866  0.00  0.00    -0.099 C 
ATOM     12  C   LIG d   1       3.380  -1.671 -11.901  0.00  0.00    -0.014 C 
ATOM     13  H   LIG d   1       2.840  -1.002 -12.586  0.00  0.00     0.035 H 
ATOM     14  H   LIG d   1       2.768   1.598  -7.678  0.00  0.00     0.027 H 
ATOM     15  H   LIG d   1       2.326   1.844  -9.402  0.00  0.00     0.027 H 
ATOM     16  H   LIG d   1       2.423  -0.858  -7.946  0.00  0.00     0.027 H 
ATOM     17  H   LIG d   1       0.932   0.059  -8.352  0.00  0.00     0.027 H 
ATOM     18  H   LIG d   1       1.387  -1.705 -10.049  0.00  0.00     0.027 H 
ATOM     19  H   LIG d   1       1.519  -0.066 -10.771  0.00  0.00     0.027 H 
ATOM     20  H   LIG d   1       6.278   0.826 -10.816  0.00  0.00     0.027 H 
ATOM     21  H   LIG d   1       6.090  -0.845 -10.181  0.00  0.00     0.027 H 
ATOM     22  H   LIG d   1       5.402   0.137 -13.006  0.00  0.00     0.031 H 
ATOM     23  H   LIG d   1       6.757  -0.947 -12.544  0.00  0.00     0.031 H 
ATOM     24  H   LIG d   1       4.534  -3.839 -12.920  0.00  0.00     0.053 H 
ATOM     25  H   LIG d   1       6.259  -3.086 -13.215  0.00  0.00     0.053 H 
ENDROOT
BRANCH   1  26
ATOM     26  C   LIG d   1       5.026   2.135  -9.107  0.00  0.00    -0.057 C 
ATOM     27  H   LIG d   1       4.455   2.930  -8.605  0.00  0.00     0.024 H 
ATOM     28  H   LIG d   1       5.229   2.429 -10.146  0.00  0.00     0.024 H 
ATOM     29  H   LIG d   1       5.976   1.976  -8.577  0.00  0.00     0.024 H 
ENDBRANCH   1  26
BRANCH   1  30
ATOM     30  C   LIG d   1       4.832  -0.138  -8.091  0.00  0.00     0.056 C 
ATOM     31  H   LIG d   1       4.481  -1.157  -8.307  0.00  0.00     0.057 H 
ATOM     32  H   LIG d   1       5.929  -0.103  -8.175  0.00  0.00     0.057 H 
BRANCH  30  33
ATOM     33  O   LIG d   1       4.444   0.228  -6.765  0.00  0.00    -0.348 OA
BRANCH  33  34
ATOM     34  C   LIG d   1       4.350  -0.873  -5.861  0.00  0.00     0.188 C 
ATOM     35  H   LIG d   1       3.982  -1.739  -6.432  0.00  0.00     0.094 H 
ATOM     36  O   LIG d   1       5.652  -1.202  -5.372  0.00  0.00    -0.341 OA
ATOM     37  C   LIG d   1       6.308  -0.128  -4.694  0.00  0.00     0.113 C 
ATOM     38  C   LIG d   1       5.482   0.282  -3.472  0.00  0.00     0.112 C 
ATOM     39  H   LIG d   1       6.375   0.692  -5.424  0.00  0.00     0.065 H 
ATOM     40  C   LIG d   1       4.073   0.678  -3.926  0.00  0.00     0.114 C 
ATOM     41  H   LIG d   1       5.451  -0.521  -2.719  0.00  0.00     0.065 H 
ATOM     42  C   LIG d   1       3.445  -0.494  -4.686  0.00  0.00     0.134 C 
ATOM     43  H   LIG d   1       4.088   1.593  -4.536  0.00  0.00     0.065 H 
ATOM     44  H   LIG d   1       3.265  -1.354  -4.024  0.00  0.00     0.067 H 
BRANCH  37  45
ATOM     45  C   LIG d   1       7.697  -0.583  -4.241  0.00  0.00     0.073 C 
ATOM     46  H   LIG d   1       7.606  -1.178  -3.321  0.00  0.00     0.058 H 
ATOM     47  H   LIG d   1       8.158  -1.194  -5.030  0.00  0.00     0.058 H 
BRANCH  45  48
ATOM     48  O   LIG d   1       8.513   0.562  -3.988  0.00  0.00    -0.392 OA
ATOM     49  H   LIG d   1       8.955   1.119  -4.828  0.00  0.00     0.209 HD
ENDBRANCH  45  48
ENDBRANCH  37  45
BRANCH  38  50
ATOM     50  O   LIG d   1       6.105   1.393  -2.824  0.00  0.00    -0.387 OA
ATOM     51  H   LIG d   1       7.138   1.671  -3.082  0.00  0.00     0.210 HD
ENDBRANCH  38  50
BRANCH  40  52
ATOM     52  O   LIG d   1       3.273   0.991  -2.785  0.00  0.00    -0.386 OA
ATOM     53  H   LIG d   1       2.226   0.655  -2.739  0.00  0.00     0.210 HD
ENDBRANCH  40  52
BRANCH  42  54
ATOM     54  O   LIG d   1       2.160  -0.111  -5.177  0.00  0.00    -0.384 OA
ATOM     55  H   LIG d   1       1.454  -0.878  -5.529  0.00  0.00     0.210 HD
ENDBRANCH  42  54
ENDBRANCH  33  34
ENDBRANCH  30  33
ENDBRANCH   1  30
BRANCH   5  56
ATOM     56  C   LIG d   1       4.035  -2.083  -9.520  0.00  0.00    -0.059 C 
ATOM     57  H   LIG d   1       4.575  -2.852 -10.093  0.00  0.00     0.024 H 
ATOM     58  H   LIG d   1       3.244  -2.558  -8.921  0.00  0.00     0.024 H 
ATOM     59  H   LIG d   1       4.738  -1.562  -8.854  0.00  0.00     0.024 H 
ENDBRANCH   5  56
BRANCH  12  60
ATOM     60  C   LIG d   1       2.686  -3.035 -11.871  0.00  0.00    -0.042 C 
ATOM     61  H   LIG d   1       3.354  -3.796 -12.299  0.00  0.00     0.027 H 
ATOM     62  H   LIG d   1       2.444  -3.300 -10.831  0.00  0.00     0.027 H 
BRANCH  60  63
ATOM     63  C   LIG d   1       1.397  -2.968 -12.693  0.00  0.00    -0.021 C 
ATOM     64  H   LIG d   1       1.119  -1.917 -12.855  0.00  0.00     0.032 H 
ATOM     65  H   LIG d   1       1.555  -3.460 -13.664  0.00  0.00     0.032 H 
BRANCH  63  66
ATOM     66  C   LIG d   1       0.290  -3.671 -11.948  0.00  0.00     0.036 A 
ATOM     67  C   LIG d   1      -1.063  -3.898 -12.462  0.00  0.00     0.335 A 
ATOM     68  O   LIG d   1      -1.797  -4.557 -11.546  0.00  0.00    -0.457 OA
ATOM     69  O   LIG d   1      -1.463  -3.546 -13.554  0.00  0.00    -0.245 OA
ATOM     70  C   LIG d   1      -0.951  -4.782 -10.384  0.00  0.00     0.112 A 
ATOM     71  C   LIG d   1       0.391  -4.177 -10.722  0.00  0.00    -0.037 A 
ATOM     72  H   LIG d   1      -0.828  -5.856 -10.183  0.00  0.00     0.074 H 
ATOM     73  H   LIG d   1      -1.362  -4.286  -9.492  0.00  0.00     0.074 H 
ATOM     74  H   LIG d   1       1.340  -4.097 -10.170  0.00  0.00     0.061 H 
ENDBRANCH  63  66
ENDBRANCH  60  63
ENDBRANCH  12  60
TORSDOF 13
ENDMDL
MODEL 5
REMARK VINA RESULT:      -5.6      2.319      4.264
REMARK  13 active torsions:
REMARK  status: ('A' for Active; 'I' for Inactive)
REMARK    1  A    between atoms: C_1  and  C_2 
REMARK    2  A    between atoms: C_2  and  C_24 
REMARK    3  A    between atoms: C_6  and  C_23 
REMARK    4  A    between atoms: C_13  and  C_15 
REMARK    5  A    between atoms: C_15  and  C_16 
REMARK    6  A    between atoms: C_16  and  C_17 
REMARK    7  A    between atoms: C_24  and  O_25 
REMARK    8  A    between atoms: O_25  and  C_26 
REMARK    9  A    between atoms: C_28  and  O_41 
REMARK   10  A    between atoms: C_30  and  O_40 
REMARK   11  A    between atoms: C_32  and  O_39 
REMARK   12  A    between atoms: C_34  and  C_37 
REMARK   13  A    between atoms: C_37  and  O_38 
ROOT
ATOM      1  C   LIG d   1      11.577   6.865  -3.827  0.00  0.00    -0.005 C 
ATOM      2  C   LIG d   1      11.999   7.453  -5.173  0.00  0.00    -0.045 C 
ATOM      3  C   LIG d   1      10.882   7.224  -6.195  0.00  0.00    -0.052 C 
ATOM      4  C   LIG d   1      10.646   5.722  -6.354  0.00  0.00    -0.047 C 
ATOM      5  C   LIG d   1      10.230   5.120  -5.010  0.00  0.00    -0.022 C 
ATOM      6  C   LIG d   1      11.328   5.361  -3.973  0.00  0.00    -0.027 C 
ATOM      7  H   LIG d   1      12.248   4.859  -4.309  0.00  0.00     0.031 H 
ATOM      8  C   LIG d   1      10.896   4.800  -2.616  0.00  0.00    -0.045 C 
ATOM      9  C   LIG d   1      10.724   3.282  -2.718  0.00  0.00    -0.031 C 
ATOM     10  C   LIG d   1       9.755   2.987  -3.842  0.00  0.00    -0.073 C 
ATOM     11  C   LIG d   1       8.716   2.214  -3.650  0.00  0.00    -0.099 C 
ATOM     12  C   LIG d   1      10.023   3.611  -5.194  0.00  0.00    -0.014 C 
ATOM     13  H   LIG d   1      10.920   3.152  -5.632  0.00  0.00     0.035 H 
ATOM     14  H   LIG d   1      12.181   8.532  -5.062  0.00  0.00     0.027 H 
ATOM     15  H   LIG d   1      12.920   6.959  -5.517  0.00  0.00     0.027 H 
ATOM     16  H   LIG d   1       9.960   7.709  -5.844  0.00  0.00     0.027 H 
ATOM     17  H   LIG d   1      11.178   7.656  -7.164  0.00  0.00     0.027 H 
ATOM     18  H   LIG d   1       9.848   5.553  -7.091  0.00  0.00     0.027 H 
ATOM     19  H   LIG d   1      11.571   5.239  -6.699  0.00  0.00     0.027 H 
ATOM     20  H   LIG d   1      11.664   5.031  -1.862  0.00  0.00     0.027 H 
ATOM     21  H   LIG d   1       9.940   5.257  -2.318  0.00  0.00     0.027 H 
ATOM     22  H   LIG d   1      11.698   2.816  -2.927  0.00  0.00     0.031 H 
ATOM     23  H   LIG d   1      10.329   2.893  -1.768  0.00  0.00     0.031 H 
ATOM     24  H   LIG d   1       8.022   2.010  -4.479  0.00  0.00     0.053 H 
ATOM     25  H   LIG d   1       8.537   1.769  -2.661  0.00  0.00     0.053 H 
ENDROOT
BRANCH   1  26
ATOM     26  C   LIG d   1      12.687   7.099  -2.799  0.00  0.00    -0.057 C 
ATOM     27  H   LIG d   1      12.995   6.136  -2.367  0.00  0.00     0.024 H 
ATOM     28  H   LIG d   1      12.314   7.757  -2.001  0.00  0.00     0.024 H 
ATOM     29  H   LIG d   1      13.549   7.572  -3.293  0.00  0.00     0.024 H 
ENDBRANCH   1  26
BRANCH   1  30
ATOM     30  C   LIG d   1      10.294   7.549  -3.353  0.00  0.00     0.056 C 
ATOM     31  H   LIG d   1       9.898   8.185  -4.158  0.00  0.00     0.057 H 
ATOM     32  H   LIG d   1       9.547   6.786  -3.088  0.00  0.00     0.057 H 
BRANCH  30  33
ATOM     33  O   LIG d   1      10.578   8.355  -2.207  0.00  0.00    -0.348 OA
BRANCH  33  34
ATOM     34  C   LIG d   1       9.564   8.315  -1.202  0.00  0.00     0.188 C 
ATOM     35  H   LIG d   1       8.604   8.132  -1.707  0.00  0.00     0.094 H 
ATOM     36  O   LIG d   1       9.806   7.215  -0.323  0.00  0.00    -0.341 OA
ATOM     37  C   LIG d   1      11.076   7.259   0.332  0.00  0.00     0.113 C 
ATOM     38  C   LIG d   1      11.160   8.522   1.194  0.00  0.00     0.112 C 
ATOM     39  H   LIG d   1      11.828   7.273  -0.471  0.00  0.00     0.065 H 
ATOM     40  C   LIG d   1      10.938   9.752   0.308  0.00  0.00     0.114 C 
ATOM     41  H   LIG d   1      10.439   8.491   2.025  0.00  0.00     0.065 H 
ATOM     42  C   LIG d   1       9.587   9.620  -0.401  0.00  0.00     0.134 C 
ATOM     43  H   LIG d   1      11.760   9.885  -0.412  0.00  0.00     0.065 H 
ATOM     44  H   LIG d   1       8.750   9.668   0.312  0.00  0.00     0.067 H 
BRANCH  37  45
ATOM     45  C   LIG d   1      11.236   6.024   1.221  0.00  0.00     0.073 C 
ATOM     46  H   LIG d   1      10.467   5.283   0.959  0.00  0.00     0.058 H 
ATOM     47  H   LIG d   1      12.233   5.589   1.066  0.00  0.00     0.058 H 
BRANCH  45  48
ATOM     48  O   LIG d   1      11.087   6.402   2.590  0.00  0.00    -0.392 OA
ATOM     49  H   LIG d   1      10.538   7.319   2.851  0.00  0.00     0.209 HD
ENDBRANCH  45  48
ENDBRANCH  37  45
BRANCH  38  50
ATOM     50  O   LIG d   1      12.449   8.600   1.805  0.00  0.00    -0.387 OA
ATOM     51  H   LIG d   1      13.123   9.435   1.561  0.00  0.00     0.210 HD
ENDBRANCH  38  50
BRANCH  40  52
ATOM     52  O   LIG d   1      10.941  10.930   1.115  0.00  0.00    -0.386 OA
ATOM     53  H   LIG d   1      11.045  10.848   2.207  0.00  0.00     0.210 HD
ENDBRANCH  40  52
BRANCH  42  54
ATOM     54  O   LIG d   1       9.402  10.726  -1.287  0.00  0.00    -0.384 OA
ATOM     55  H   LIG d   1      10.173  11.507  -1.360  0.00  0.00     0.210 HD
ENDBRANCH  42  54
ENDBRANCH  33  34
ENDBRANCH  30  33
ENDBRANCH   1  30
BRANCH   5  56
ATOM     56  C   LIG d   1       8.925   5.762  -4.533  0.00  0.00    -0.059 C 
ATOM     57  H   LIG d   1       8.406   5.073  -3.850  0.00  0.00     0.024 H 
ATOM     58  H   LIG d   1       8.283   5.973  -5.401  0.00  0.00     0.024 H 
ATOM     59  H   LIG d   1       9.150   6.700  -4.006  0.00  0.00     0.024 H 
ENDBRANCH   5  56
BRANCH  12  60
ATOM     60  C   LIG d   1       8.826   3.367  -6.116  0.00  0.00    -0.042 C 
ATOM     61  H   LIG d   1       7.963   3.037  -5.518  0.00  0.00     0.027 H 
ATOM     62  H   LIG d   1       8.573   4.299  -6.643  0.00  0.00     0.027 H 
BRANCH  60  63
ATOM     63  C   LIG d   1       9.182   2.284  -7.137  0.00  0.00    -0.021 C 
ATOM     64  H   LIG d   1       9.545   2.756  -8.060  0.00  0.00     0.032 H 
ATOM     65  H   LIG d   1       9.968   1.634  -6.723  0.00  0.00     0.032 H 
BRANCH  63  66
ATOM     66  C   LIG d   1       7.958   1.459  -7.442  0.00  0.00     0.036 A 
ATOM     67  C   LIG d   1       6.988   1.746  -8.501  0.00  0.00     0.335 A 
ATOM     68  O   LIG d   1       6.019   0.810  -8.503  0.00  0.00    -0.457 OA
ATOM     69  O   LIG d   1       7.049   2.687  -9.268  0.00  0.00    -0.245 OA
ATOM     70  C   LIG d   1       6.313  -0.128  -7.430  0.00  0.00     0.112 A 
ATOM     71  C   LIG d   1       7.589   0.362  -6.786  0.00  0.00    -0.037 A 
ATOM     72  H   LIG d   1       6.467  -1.144  -7.821  0.00  0.00     0.074 H 
ATOM     73  H   LIG d   1       5.507  -0.141  -6.682  0.00  0.00     0.074 H 
ATOM     74  H   LIG d   1       8.197  -0.009  -5.947  0.00  0.00     0.061 H 
ENDBRANCH  63  66
ENDBRANCH  60  63
ENDBRANCH  12  60
TORSDOF 13
ENDMDL
MODEL 6
REMARK VINA RESULT:      -5.6      8.468     14.930
REMARK  13 active torsions:
REMARK  status: ('A' for Active; 'I' for Inactive)
REMARK    1  A    between atoms: C_1  and  C_2 
REMARK    2  A    between atoms: C_2  and  C_24 
REMARK    3  A    between atoms: C_6  and  C_23 
REMARK    4  A    between atoms: C_13  and  C_15 
REMARK    5  A    between atoms: C_15  and  C_16 
REMARK    6  A    between atoms: C_16  and  C_17 
REMARK    7  A    between atoms: C_24  and  O_25 
REMARK    8  A    between atoms: O_25  and  C_26 
REMARK    9  A    between atoms: C_28  and  O_41 
REMARK   10  A    between atoms: C_30  and  O_40 
REMARK   11  A    between atoms: C_32  and  O_39 
REMARK   12  A    between atoms: C_34  and  C_37 
REMARK   13  A    between atoms: C_37  and  O_38 
ROOT
ATOM      1  C   LIG d   1       4.321  -1.033 -10.859  0.00  0.00    -0.005 C 
ATOM      2  C   LIG d   1       5.723  -1.602 -11.070  0.00  0.00    -0.045 C 
ATOM      3  C   LIG d   1       6.076  -2.522  -9.899  0.00  0.00    -0.052 C 
ATOM      4  C   LIG d   1       6.050  -1.716  -8.600  0.00  0.00    -0.047 C 
ATOM      5  C   LIG d   1       4.652  -1.135  -8.381  0.00  0.00    -0.022 C 
ATOM      6  C   LIG d   1       4.278  -0.230  -9.555  0.00  0.00    -0.027 C 
ATOM      7  H   LIG d   1       4.996   0.602  -9.603  0.00  0.00     0.031 H 
ATOM      8  C   LIG d   1       2.861   0.317  -9.361  0.00  0.00    -0.045 C 
ATOM      9  C   LIG d   1       2.816   1.195  -8.108  0.00  0.00    -0.031 C 
ATOM     10  C   LIG d   1       3.327   0.383  -6.939  0.00  0.00    -0.073 C 
ATOM     11  C   LIG d   1       2.634   0.285  -5.832  0.00  0.00    -0.099 C 
ATOM     12  C   LIG d   1       4.662  -0.313  -7.085  0.00  0.00    -0.014 C 
ATOM     13  H   LIG d   1       5.461   0.441  -7.116  0.00  0.00     0.035 H 
ATOM     14  H   LIG d   1       5.750  -2.173 -12.009  0.00  0.00     0.027 H 
ATOM     15  H   LIG d   1       6.450  -0.776 -11.122  0.00  0.00     0.027 H 
ATOM     16  H   LIG d   1       5.343  -3.339  -9.842  0.00  0.00     0.027 H 
ATOM     17  H   LIG d   1       7.082  -2.942 -10.053  0.00  0.00     0.027 H 
ATOM     18  H   LIG d   1       6.308  -2.373  -7.756  0.00  0.00     0.027 H 
ATOM     19  H   LIG d   1       6.780  -0.896  -8.662  0.00  0.00     0.027 H 
ATOM     20  H   LIG d   1       2.576   0.918 -10.239  0.00  0.00     0.027 H 
ATOM     21  H   LIG d   1       2.157  -0.521  -9.246  0.00  0.00     0.027 H 
ATOM     22  H   LIG d   1       3.450   2.081  -8.258  0.00  0.00     0.031 H 
ATOM     23  H   LIG d   1       1.780   1.514  -7.921  0.00  0.00     0.031 H 
ATOM     24  H   LIG d   1       3.021  -0.310  -4.992  0.00  0.00     0.053 H 
ATOM     25  H   LIG d   1       1.665   0.797  -5.743  0.00  0.00     0.053 H 
ENDROOT
BRANCH   1  26
ATOM     26  C   LIG d   1       3.960  -0.119 -12.031  0.00  0.00    -0.057 C 
ATOM     27  H   LIG d   1       4.747   0.639 -12.161  0.00  0.00     0.024 H 
ATOM     28  H   LIG d   1       3.002   0.379 -11.826  0.00  0.00     0.024 H 
ATOM     29  H   LIG d   1       3.873  -0.718 -12.949  0.00  0.00     0.024 H 
ENDBRANCH   1  26
BRANCH   1  30
ATOM     30  C   LIG d   1       3.313  -2.181 -10.782  0.00  0.00     0.056 C 
ATOM     31  H   LIG d   1       3.848  -3.142 -10.814  0.00  0.00     0.057 H 
ATOM     32  H   LIG d   1       2.746  -2.110  -9.841  0.00  0.00     0.057 H 
BRANCH  30  33
ATOM     33  O   LIG d   1       2.412  -2.100 -11.888  0.00  0.00    -0.348 OA
BRANCH  33  34
ATOM     34  C   LIG d   1       2.276  -3.321 -12.618  0.00  0.00     0.188 C 
ATOM     35  H   LIG d   1       3.288  -3.713 -12.799  0.00  0.00     0.094 H 
ATOM     36  O   LIG d   1       1.578  -4.279 -11.821  0.00  0.00    -0.341 OA
ATOM     37  C   LIG d   1       0.274  -3.860 -11.413  0.00  0.00     0.113 C 
ATOM     38  C   LIG d   1      -0.593  -3.621 -12.652  0.00  0.00     0.112 C 
ATOM     39  H   LIG d   1       0.421  -2.930 -10.843  0.00  0.00     0.065 H 
ATOM     40  C   LIG d   1       0.082  -2.576 -13.546  0.00  0.00     0.114 C 
ATOM     41  H   LIG d   1      -0.780  -4.557 -13.199  0.00  0.00     0.065 H 
ATOM     42  C   LIG d   1       1.490  -3.061 -13.906  0.00  0.00     0.134 C 
ATOM     43  H   LIG d   1       0.107  -1.587 -13.063  0.00  0.00     0.065 H 
ATOM     44  H   LIG d   1       1.457  -3.957 -14.544  0.00  0.00     0.067 H 
BRANCH  37  45
ATOM     45  C   LIG d   1      -0.364  -4.946 -10.546  0.00  0.00     0.073 C 
ATOM     46  H   LIG d   1      -1.185  -4.510  -9.957  0.00  0.00     0.058 H 
ATOM     47  H   LIG d   1      -0.758  -5.745 -11.191  0.00  0.00     0.058 H 
BRANCH  45  48
ATOM     48  O   LIG d   1       0.619  -5.488  -9.663  0.00  0.00    -0.392 OA
ATOM     49  H   LIG d   1       0.316  -6.170  -8.853  0.00  0.00     0.209 HD
ENDBRANCH  45  48
ENDBRANCH  37  45
BRANCH  38  50
ATOM     50  O   LIG d   1      -1.880  -3.146 -12.252  0.00  0.00    -0.387 OA
ATOM     51  H   LIG d   1      -2.149  -2.091 -12.408  0.00  0.00     0.210 HD
ENDBRANCH  38  50
BRANCH  40  52
ATOM     52  O   LIG d   1      -0.682  -2.401 -14.740  0.00  0.00    -0.386 OA
ATOM     53  H   LIG d   1      -1.461  -3.132 -15.006  0.00  0.00     0.210 HD
ENDBRANCH  40  52
BRANCH  42  54
ATOM     54  O   LIG d   1       2.156  -2.061 -14.679  0.00  0.00    -0.384 OA
ATOM     55  H   LIG d   1       2.921  -2.353 -15.413  0.00  0.00     0.210 HD
ENDBRANCH  42  54
ENDBRANCH  33  34
ENDBRANCH  30  33
ENDBRANCH   1  30
BRANCH   5  56
ATOM     56  C   LIG d   1       3.631  -2.268  -8.261  0.00  0.00    -0.059 C 
ATOM     57  H   LIG d   1       3.265  -2.539  -9.263  0.00  0.00     0.024 H 
ATOM     58  H   LIG d   1       2.787  -1.937  -7.639  0.00  0.00     0.024 H 
ATOM     59  H   LIG d   1       4.108  -3.143  -7.796  0.00  0.00     0.024 H 
ENDBRANCH   5  56
BRANCH  12  60
ATOM     60  C   LIG d   1       4.888  -1.243  -5.891  0.00  0.00    -0.042 C 
ATOM     61  H   LIG d   1       3.975  -1.282  -5.278  0.00  0.00     0.027 H 
ATOM     62  H   LIG d   1       5.131  -2.253  -6.253  0.00  0.00     0.027 H 
BRANCH  60  63
ATOM     63  C   LIG d   1       6.047  -0.713  -5.045  0.00  0.00    -0.021 C 
ATOM     64  H   LIG d   1       6.780  -1.516  -4.882  0.00  0.00     0.032 H 
ATOM     65  H   LIG d   1       6.531   0.125  -5.569  0.00  0.00     0.032 H 
BRANCH  63  66
ATOM     66  C   LIG d   1       5.521  -0.236  -3.714  0.00  0.00     0.036 A 
ATOM     67  C   LIG d   1       5.898   1.018  -3.057  0.00  0.00     0.335 A 
ATOM     68  O   LIG d   1       5.242   1.138  -1.887  0.00  0.00    -0.457 OA
ATOM     69  O   LIG d   1       6.683   1.831  -3.502  0.00  0.00    -0.245 OA
ATOM     70  C   LIG d   1       4.412  -0.046  -1.726  0.00  0.00     0.112 A 
ATOM     71  C   LIG d   1       4.648  -0.892  -2.955  0.00  0.00    -0.037 A 
ATOM     72  H   LIG d   1       3.346   0.220  -1.664  0.00  0.00     0.074 H 
ATOM     73  H   LIG d   1       4.700  -0.615  -0.829  0.00  0.00     0.074 H 
ATOM     74  H   LIG d   1       4.252  -1.864  -3.286  0.00  0.00     0.061 H 
ENDBRANCH  63  66
ENDBRANCH  60  63
ENDBRANCH  12  60
TORSDOF 13
ENDMDL
MODEL 7
REMARK VINA RESULT:      -5.6      2.878      3.791
REMARK  13 active torsions:
REMARK  status: ('A' for Active; 'I' for Inactive)
REMARK    1  A    between atoms: C_1  and  C_2 
REMARK    2  A    between atoms: C_2  and  C_24 
REMARK    3  A    between atoms: C_6  and  C_23 
REMARK    4  A    between atoms: C_13  and  C_15 
REMARK    5  A    between atoms: C_15  and  C_16 
REMARK    6  A    between atoms: C_16  and  C_17 
REMARK    7  A    between atoms: C_24  and  O_25 
REMARK    8  A    between atoms: O_25  and  C_26 
REMARK    9  A    between atoms: C_28  and  O_41 
REMARK   10  A    between atoms: C_30  and  O_40 
REMARK   11  A    between atoms: C_32  and  O_39 
REMARK   12  A    between atoms: C_34  and  C_37 
REMARK   13  A    between atoms: C_37  and  O_38 
ROOT
ATOM      1  C   LIG d   1      10.028   6.255  -3.003  0.00  0.00    -0.005 C 
ATOM      2  C   LIG d   1      10.010   4.759  -2.693  0.00  0.00    -0.045 C 
ATOM      3  C   LIG d   1      10.966   4.035  -3.644  0.00  0.00    -0.052 C 
ATOM      4  C   LIG d   1      10.507   4.256  -5.086  0.00  0.00    -0.047 C 
ATOM      5  C   LIG d   1      10.514   5.753  -5.406  0.00  0.00    -0.022 C 
ATOM      6  C   LIG d   1       9.578   6.491  -4.448  0.00  0.00    -0.027 C 
ATOM      7  H   LIG d   1       8.555   6.111  -4.590  0.00  0.00     0.031 H 
ATOM      8  C   LIG d   1       9.618   7.994  -4.736  0.00  0.00    -0.045 C 
ATOM      9  C   LIG d   1       9.089   8.262  -6.148  0.00  0.00    -0.031 C 
ATOM     10  C   LIG d   1       9.891   7.427  -7.122  0.00  0.00    -0.073 C 
ATOM     11  C   LIG d   1      10.452   7.972  -8.173  0.00  0.00    -0.099 C 
ATOM     12  C   LIG d   1      10.026   5.946  -6.848  0.00  0.00    -0.014 C 
ATOM     13  H   LIG d   1       9.050   5.462  -6.990  0.00  0.00     0.035 H 
ATOM     14  H   LIG d   1      10.329   4.595  -1.654  0.00  0.00     0.027 H 
ATOM     15  H   LIG d   1       8.990   4.368  -2.830  0.00  0.00     0.027 H 
ATOM     16  H   LIG d   1      11.983   4.434  -3.515  0.00  0.00     0.027 H 
ATOM     17  H   LIG d   1      10.963   2.957  -3.417  0.00  0.00     0.027 H 
ATOM     18  H   LIG d   1      11.188   3.734  -5.772  0.00  0.00     0.027 H 
ATOM     19  H   LIG d   1       9.488   3.862  -5.211  0.00  0.00     0.027 H 
ATOM     20  H   LIG d   1       8.989   8.525  -4.004  0.00  0.00     0.027 H 
ATOM     21  H   LIG d   1      10.654   8.355  -4.660  0.00  0.00     0.027 H 
ATOM     22  H   LIG d   1       8.026   7.985  -6.200  0.00  0.00     0.031 H 
ATOM     23  H   LIG d   1       9.202   9.330  -6.385  0.00  0.00     0.031 H 
ATOM     24  H   LIG d   1      11.032   7.350  -8.871  0.00  0.00     0.053 H 
ATOM     25  H   LIG d   1      10.344   9.050  -8.357  0.00  0.00     0.053 H 
ENDROOT
BRANCH   1  26
ATOM     26  C   LIG d   1       9.080   6.984  -2.049  0.00  0.00    -0.057 C 
ATOM     27  H   LIG d   1       8.045   6.872  -2.406  0.00  0.00     0.024 H 
ATOM     28  H   LIG d   1       9.343   8.051  -2.016  0.00  0.00     0.024 H 
ATOM     29  H   LIG d   1       9.170   6.552  -1.042  0.00  0.00     0.024 H 
ENDBRANCH   1  26
BRANCH   1  30
ATOM     30  C   LIG d   1      11.448   6.795  -2.819  0.00  0.00     0.056 C 
ATOM     31  H   LIG d   1      12.158   5.955  -2.784  0.00  0.00     0.057 H 
ATOM     32  H   LIG d   1      11.702   7.455  -3.662  0.00  0.00     0.057 H 
BRANCH  30  33
ATOM     33  O   LIG d   1      11.522   7.532  -1.597  0.00  0.00    -0.348 OA
BRANCH  33  34
ATOM     34  C   LIG d   1      12.300   8.727  -1.685  0.00  0.00     0.188 C 
ATOM     35  H   LIG d   1      13.174   8.507  -2.316  0.00  0.00     0.094 H 
ATOM     36  O   LIG d   1      11.540   9.744  -2.341  0.00  0.00    -0.341 OA
ATOM     37  C   LIG d   1      10.309  10.064  -1.688  0.00  0.00     0.113 C 
ATOM     38  C   LIG d   1      10.602  10.590  -0.280  0.00  0.00     0.112 C 
ATOM     39  H   LIG d   1       9.734   9.127  -1.654  0.00  0.00     0.065 H 
ATOM     40  C   LIG d   1      11.395   9.533   0.497  0.00  0.00     0.114 C 
ATOM     41  H   LIG d   1      11.137  11.551  -0.312  0.00  0.00     0.065 H 
ATOM     42  C   LIG d   1      12.673   9.199  -0.277  0.00  0.00     0.134 C 
ATOM     43  H   LIG d   1      10.790   8.633   0.686  0.00  0.00     0.065 H 
ATOM     44  H   LIG d   1      13.361  10.057  -0.310  0.00  0.00     0.067 H 
BRANCH  37  45
ATOM     45  C   LIG d   1       9.571  11.139  -2.490  0.00  0.00     0.073 C 
ATOM     46  H   LIG d   1       9.886  12.134  -2.145  0.00  0.00     0.058 H 
ATOM     47  H   LIG d   1       9.808  11.027  -3.557  0.00  0.00     0.058 H 
BRANCH  45  48
ATOM     48  O   LIG d   1       8.163  10.992  -2.296  0.00  0.00    -0.392 OA
ATOM     49  H   LIG d   1       7.762  10.811  -1.287  0.00  0.00     0.209 HD
ENDBRANCH  45  48
ENDBRANCH  37  45
BRANCH  38  50
ATOM     50  O   LIG d   1       9.372  10.857   0.396  0.00  0.00    -0.387 OA
ATOM     51  H   LIG d   1       8.428  10.459  -0.003  0.00  0.00     0.210 HD
ENDBRANCH  38  50
BRANCH  40  52
ATOM     52  O   LIG d   1      11.736  10.044   1.786  0.00  0.00    -0.386 OA
ATOM     53  H   LIG d   1      12.769  10.363   1.995  0.00  0.00     0.210 HD
ENDBRANCH  40  52
BRANCH  42  54
ATOM     54  O   LIG d   1      13.385   8.162   0.401  0.00  0.00    -0.384 OA
ATOM     55  H   LIG d   1      12.838   7.308   0.828  0.00  0.00     0.210 HD
ENDBRANCH  42  54
ENDBRANCH  33  34
ENDBRANCH  30  33
ENDBRANCH   1  30
BRANCH   5  56
ATOM     56  C   LIG d   1      11.933   6.307  -5.266  0.00  0.00    -0.059 C 
ATOM     57  H   LIG d   1      12.656   5.557  -5.620  0.00  0.00     0.024 H 
ATOM     58  H   LIG d   1      12.133   6.540  -4.210  0.00  0.00     0.024 H 
ATOM     59  H   LIG d   1      12.030   7.222  -5.869  0.00  0.00     0.024 H 
ENDBRANCH   5  56
BRANCH  12  60
ATOM     60  C   LIG d   1      11.041   5.336  -7.818  0.00  0.00    -0.042 C 
ATOM     61  H   LIG d   1      11.446   6.124  -8.469  0.00  0.00     0.027 H 
ATOM     62  H   LIG d   1      11.861   4.874  -7.248  0.00  0.00     0.027 H 
BRANCH  60  63
ATOM     63  C   LIG d   1      10.351   4.271  -8.673  0.00  0.00    -0.021 C 
ATOM     64  H   LIG d   1      11.003   3.390  -8.758  0.00  0.00     0.032 H 
ATOM     65  H   LIG d   1       9.400   3.981  -8.202  0.00  0.00     0.032 H 
BRANCH  63  66
ATOM     66  C   LIG d   1      10.080   4.830 -10.047  0.00  0.00     0.036 A 
ATOM     67  C   LIG d   1       8.836   5.482 -10.464  0.00  0.00     0.335 A 
ATOM     68  O   LIG d   1       8.928   5.866 -11.752  0.00  0.00    -0.457 OA
ATOM     69  O   LIG d   1       7.865   5.653  -9.754  0.00  0.00    -0.245 OA
ATOM     70  C   LIG d   1      10.242   5.469 -12.235  0.00  0.00     0.112 A 
ATOM     71  C   LIG d   1      10.931   4.801 -11.069  0.00  0.00    -0.037 A 
ATOM     72  H   LIG d   1      10.828   6.343 -12.556  0.00  0.00     0.074 H 
ATOM     73  H   LIG d   1      10.159   4.756 -13.069  0.00  0.00     0.074 H 
ATOM     74  H   LIG d   1      11.924   4.343 -10.945  0.00  0.00     0.061 H 
ENDBRANCH  63  66
ENDBRANCH  60  63
ENDBRANCH  12  60
TORSDOF 13
ENDMDL
MODEL 8
REMARK VINA RESULT:      -5.5      4.297      7.342
REMARK  13 active torsions:
REMARK  status: ('A' for Active; 'I' for Inactive)
REMARK    1  A    between atoms: C_1  and  C_2 
REMARK    2  A    between atoms: C_2  and  C_24 
REMARK    3  A    between atoms: C_6  and  C_23 
REMARK    4  A    between atoms: C_13  and  C_15 
REMARK    5  A    between atoms: C_15  and  C_16 
REMARK    6  A    between atoms: C_16  and  C_17 
REMARK    7  A    between atoms: C_24  and  O_25 
REMARK    8  A    between atoms: O_25  and  C_26 
REMARK    9  A    between atoms: C_28  and  O_41 
REMARK   10  A    between atoms: C_30  and  O_40 
REMARK   11  A    between atoms: C_32  and  O_39 
REMARK   12  A    between atoms: C_34  and  C_37 
REMARK   13  A    between atoms: C_37  and  O_38 
ROOT
ATOM      1  C   LIG d   1       9.762   8.424  -6.445  0.00  0.00    -0.005 C 
ATOM      2  C   LIG d   1       9.489   9.741  -5.721  0.00  0.00    -0.045 C 
ATOM      3  C   LIG d   1      10.422   9.855  -4.512  0.00  0.00    -0.052 C 
ATOM      4  C   LIG d   1      10.152   8.691  -3.558  0.00  0.00    -0.047 C 
ATOM      5  C   LIG d   1      10.415   7.364  -4.275  0.00  0.00    -0.022 C 
ATOM      6  C   LIG d   1       9.505   7.248  -5.498  0.00  0.00    -0.027 C 
ATOM      7  H   LIG d   1       8.457   7.259  -5.161  0.00  0.00     0.031 H 
ATOM      8  C   LIG d   1       9.797   5.943  -6.243  0.00  0.00    -0.045 C 
ATOM      9  C   LIG d   1       9.464   4.751  -5.342  0.00  0.00    -0.031 C 
ATOM     10  C   LIG d   1      10.230   4.904  -4.047  0.00  0.00    -0.073 C 
ATOM     11  C   LIG d   1      10.972   3.930  -3.583  0.00  0.00    -0.099 C 
ATOM     12  C   LIG d   1      10.115   6.216  -3.302  0.00  0.00    -0.014 C 
ATOM     13  H   LIG d   1       9.097   6.314  -2.898  0.00  0.00     0.035 H 
ATOM     14  H   LIG d   1       9.670  10.582  -6.407  0.00  0.00     0.027 H 
ATOM     15  H   LIG d   1       8.442   9.764  -5.382  0.00  0.00     0.027 H 
ATOM     16  H   LIG d   1      11.467   9.820  -4.852  0.00  0.00     0.027 H 
ATOM     17  H   LIG d   1      10.235  10.808  -3.994  0.00  0.00     0.027 H 
ATOM     18  H   LIG d   1      10.817   8.771  -2.686  0.00  0.00     0.027 H 
ATOM     19  H   LIG d   1       9.105   8.724  -3.225  0.00  0.00     0.027 H 
ATOM     20  H   LIG d   1       9.181   5.895  -7.154  0.00  0.00     0.027 H 
ATOM     21  H   LIG d   1      10.862   5.908  -6.517  0.00  0.00     0.027 H 
ATOM     22  H   LIG d   1       8.383   4.733  -5.141  0.00  0.00     0.031 H 
ATOM     23  H   LIG d   1       9.757   3.818  -5.845  0.00  0.00     0.031 H 
ATOM     24  H   LIG d   1      11.522   4.059  -2.639  0.00  0.00     0.053 H 
ATOM     25  H   LIG d   1      11.045   2.983  -4.137  0.00  0.00     0.053 H 
ENDROOT
BRANCH   1  26
ATOM     26  C   LIG d   1       8.838   8.309  -7.660  0.00  0.00    -0.057 C 
ATOM     27  H   LIG d   1       7.848   8.716  -7.406  0.00  0.00     0.024 H 
ATOM     28  H   LIG d   1       8.738   7.253  -7.946  0.00  0.00     0.024 H 
ATOM     29  H   LIG d   1       9.264   8.878  -8.499  0.00  0.00     0.024 H 
ENDBRANCH   1  26
BRANCH   1  30
ATOM     30  C   LIG d   1      11.219   8.392  -6.911  0.00  0.00     0.056 C 
ATOM     31  H   LIG d   1      11.844   8.949  -6.199  0.00  0.00     0.057 H 
ATOM     32  H   LIG d   1      11.564   7.348  -6.964  0.00  0.00     0.057 H 
BRANCH  30  33
ATOM     33  O   LIG d   1      11.319   8.993  -8.204  0.00  0.00    -0.348 OA
BRANCH  33  34
ATOM     34  C   LIG d   1      12.227   8.329  -9.085  0.00  0.00     0.188 C 
ATOM     35  H   LIG d   1      13.074   7.972  -8.480  0.00  0.00     0.094 H 
ATOM     36  O   LIG d   1      11.589   7.184  -9.653  0.00  0.00    -0.341 OA
ATOM     37  C   LIG d   1      10.400   7.482 -10.387  0.00  0.00     0.113 C 
ATOM     38  C   LIG d   1      10.743   8.406 -11.558  0.00  0.00     0.112 C 
ATOM     39  H   LIG d   1       9.723   7.976  -9.674  0.00  0.00     0.065 H 
ATOM     40  C   LIG d   1      11.408   9.677 -11.020  0.00  0.00     0.114 C 
ATOM     41  H   LIG d   1      11.384   7.899 -12.297  0.00  0.00     0.065 H 
ATOM     42  C   LIG d   1      12.644   9.287 -10.204  0.00  0.00     0.134 C 
ATOM     43  H   LIG d   1      10.705  10.279 -10.424  0.00  0.00     0.065 H 
ATOM     44  H   LIG d   1      13.425   8.844 -10.842  0.00  0.00     0.067 H 
BRANCH  37  45
ATOM     45  C   LIG d   1       9.790   6.185 -10.923  0.00  0.00     0.073 C 
ATOM     46  H   LIG d   1      10.211   5.966 -11.915  0.00  0.00     0.058 H 
ATOM     47  H   LIG d   1      10.023   5.360 -10.234  0.00  0.00     0.058 H 
BRANCH  45  48
ATOM     48  O   LIG d   1       8.374   6.333 -11.028  0.00  0.00    -0.392 OA
ATOM     49  H   LIG d   1       7.911   7.319 -10.870  0.00  0.00     0.209 HD
ENDBRANCH  45  48
ENDBRANCH  37  45
BRANCH  38  50
ATOM     50  O   LIG d   1       9.548   8.754 -12.261  0.00  0.00    -0.387 OA
ATOM     51  H   LIG d   1       9.599   9.047 -13.320  0.00  0.00     0.210 HD
ENDBRANCH  38  50
BRANCH  40  52
ATOM     52  O   LIG d   1      11.799  10.512 -12.110  0.00  0.00    -0.386 OA
ATOM     53  H   LIG d   1      12.008  11.578 -11.938  0.00  0.00     0.210 HD
ENDBRANCH  40  52
BRANCH  42  54
ATOM     54  O   LIG d   1      13.231  10.459  -9.636  0.00  0.00    -0.384 OA
ATOM     55  H   LIG d   1      14.277  10.714  -9.859  0.00  0.00     0.210 HD
ENDBRANCH  42  54
ENDBRANCH  33  34
ENDBRANCH  30  33
ENDBRANCH   1  30
BRANCH   5  56
ATOM     56  C   LIG d   1      11.878   7.293  -4.716  0.00  0.00    -0.059 C 
ATOM     57  H   LIG d   1      11.953   6.705  -5.643  0.00  0.00     0.024 H 
ATOM     58  H   LIG d   1      12.476   6.812  -3.927  0.00  0.00     0.024 H 
ATOM     59  H   LIG d   1      12.257   8.310  -4.895  0.00  0.00     0.024 H 
ENDBRANCH   5  56
BRANCH  12  60
ATOM     60  C   LIG d   1      11.123   6.243  -2.151  0.00  0.00    -0.042 C 
ATOM     61  H   LIG d   1      11.862   5.441  -2.293  0.00  0.00     0.027 H 
ATOM     62  H   LIG d   1      11.635   7.216  -2.135  0.00  0.00     0.027 H 
BRANCH  60  63
ATOM     63  C   LIG d   1      10.388   6.031  -0.826  0.00  0.00    -0.021 C 
ATOM     64  H   LIG d   1       9.306   6.145  -0.984  0.00  0.00     0.032 H 
ATOM     65  H   LIG d   1      10.599   5.020  -0.447  0.00  0.00     0.032 H 
BRANCH  63  66
ATOM     66  C   LIG d   1      10.860   7.051   0.178  0.00  0.00     0.036 A 
ATOM     67  C   LIG d   1      11.178   6.773   1.581  0.00  0.00     0.335 A 
ATOM     68  O   LIG d   1      11.572   7.904   2.196  0.00  0.00    -0.457 OA
ATOM     69  O   LIG d   1      11.100   5.683   2.111  0.00  0.00    -0.245 OA
ATOM     70  C   LIG d   1      11.519   8.978   1.215  0.00  0.00     0.112 A 
ATOM     71  C   LIG d   1      11.046   8.345  -0.072  0.00  0.00    -0.037 A 
ATOM     72  H   LIG d   1      12.512   9.425   1.061  0.00  0.00     0.074 H 
ATOM     73  H   LIG d   1      10.808   9.760   1.521  0.00  0.00     0.074 H 
ATOM     74  H   LIG d   1      10.853   8.744  -1.079  0.00  0.00     0.061 H 
ENDBRANCH  63  66
ENDBRANCH  60  63
ENDBRANCH  12  60
TORSDOF 13
ENDMDL
MODEL 9
REMARK VINA RESULT:      -5.4      8.888     12.779
REMARK  13 active torsions:
REMARK  status: ('A' for Active; 'I' for Inactive)
REMARK    1  A    between atoms: C_1  and  C_2 
REMARK    2  A    between atoms: C_2  and  C_24 
REMARK    3  A    between atoms: C_6  and  C_23 
REMARK    4  A    between atoms: C_13  and  C_15 
REMARK    5  A    between atoms: C_15  and  C_16 
REMARK    6  A    between atoms: C_16  and  C_17 
REMARK    7  A    between atoms: C_24  and  O_25 
REMARK    8  A    between atoms: O_25  and  C_26 
REMARK    9  A    between atoms: C_28  and  O_41 
REMARK   10  A    between atoms: C_30  and  O_40 
REMARK   11  A    between atoms: C_32  and  O_39 
REMARK   12  A    between atoms: C_34  and  C_37 
REMARK   13  A    between atoms: C_37  and  O_38 
ROOT
ATOM      1  C   LIG d   1       5.148   0.523  -8.569  0.00  0.00    -0.005 C 
ATOM      2  C   LIG d   1       4.902   1.910  -9.163  0.00  0.00    -0.045 C 
ATOM      3  C   LIG d   1       3.632   1.875 -10.017  0.00  0.00    -0.052 C 
ATOM      4  C   LIG d   1       3.816   0.867 -11.151  0.00  0.00    -0.047 C 
ATOM      5  C   LIG d   1       4.072  -0.526 -10.570  0.00  0.00    -0.022 C 
ATOM      6  C   LIG d   1       5.326  -0.498  -9.696  0.00  0.00    -0.027 C 
ATOM      7  H   LIG d   1       6.187  -0.221 -10.322  0.00  0.00     0.031 H 
ATOM      8  C   LIG d   1       5.558  -1.879  -9.075  0.00  0.00    -0.045 C 
ATOM      9  C   LIG d   1       5.825  -2.902 -10.182  0.00  0.00    -0.031 C 
ATOM     10  C   LIG d   1       4.673  -2.855 -11.162  0.00  0.00    -0.073 C 
ATOM     11  C   LIG d   1       4.038  -3.946 -11.509  0.00  0.00    -0.099 C 
ATOM     12  C   LIG d   1       4.276  -1.510 -11.729  0.00  0.00    -0.014 C 
ATOM     13  H   LIG d   1       5.070  -1.151 -12.399  0.00  0.00     0.035 H 
ATOM     14  H   LIG d   1       4.779   2.641  -8.350  0.00  0.00     0.027 H 
ATOM     15  H   LIG d   1       5.759   2.198  -9.789  0.00  0.00     0.027 H 
ATOM     16  H   LIG d   1       2.779   1.575  -9.392  0.00  0.00     0.027 H 
ATOM     17  H   LIG d   1       3.445   2.875 -10.437  0.00  0.00     0.027 H 
ATOM     18  H   LIG d   1       2.908   0.842 -11.771  0.00  0.00     0.027 H 
ATOM     19  H   LIG d   1       4.674   1.165 -11.772  0.00  0.00     0.027 H 
ATOM     20  H   LIG d   1       6.428  -1.836  -8.401  0.00  0.00     0.027 H 
ATOM     21  H   LIG d   1       4.667  -2.180  -8.506  0.00  0.00     0.027 H 
ATOM     22  H   LIG d   1       6.766  -2.653 -10.694  0.00  0.00     0.031 H 
ATOM     23  H   LIG d   1       5.903  -3.907  -9.742  0.00  0.00     0.031 H 
ATOM     24  H   LIG d   1       3.203  -3.892 -12.223  0.00  0.00     0.053 H 
ATOM     25  H   LIG d   1       4.340  -4.916 -11.087  0.00  0.00     0.053 H 
ENDROOT
BRANCH   1  26
ATOM     26  C   LIG d   1       6.412   0.556  -7.708  0.00  0.00    -0.057 C 
ATOM     27  H   LIG d   1       6.366   1.414  -7.022  0.00  0.00     0.024 H 
ATOM     28  H   LIG d   1       7.295   0.652  -8.355  0.00  0.00     0.024 H 
ATOM     29  H   LIG d   1       6.483  -0.375  -7.126  0.00  0.00     0.024 H 
ENDBRANCH   1  26
BRANCH   1  30
ATOM     30  C   LIG d   1       3.953   0.122  -7.703  0.00  0.00     0.056 C 
ATOM     31  H   LIG d   1       3.068   0.697  -8.010  0.00  0.00     0.057 H 
ATOM     32  H   LIG d   1       3.754  -0.953  -7.828  0.00  0.00     0.057 H 
BRANCH  30  33
ATOM     33  O   LIG d   1       4.246   0.395  -6.331  0.00  0.00    -0.348 OA
BRANCH  33  34
ATOM     34  C   LIG d   1       4.167  -0.750  -5.480  0.00  0.00     0.188 C 
ATOM     35  H   LIG d   1       3.818  -1.594  -6.093  0.00  0.00     0.094 H 
ATOM     36  O   LIG d   1       5.472  -1.077  -4.998  0.00  0.00    -0.341 OA
ATOM     37  C   LIG d   1       6.104  -0.025  -4.266  0.00  0.00     0.113 C 
ATOM     38  C   LIG d   1       5.264   0.312  -3.031  0.00  0.00     0.112 C 
ATOM     39  H   LIG d   1       6.161   0.829  -4.956  0.00  0.00     0.065 H 
ATOM     40  C   LIG d   1       3.851   0.703  -3.475  0.00  0.00     0.114 C 
ATOM     41  H   LIG d   1       5.243  -0.526  -2.317  0.00  0.00     0.065 H 
ATOM     42  C   LIG d   1       3.249  -0.442  -4.294  0.00  0.00     0.134 C 
ATOM     43  H   LIG d   1       3.853   1.647  -4.042  0.00  0.00     0.065 H 
ATOM     44  H   LIG d   1       3.081  -1.336  -3.674  0.00  0.00     0.067 H 
BRANCH  37  45
ATOM     45  C   LIG d   1       7.499  -0.476  -3.826  0.00  0.00     0.073 C 
ATOM     46  H   LIG d   1       8.150  -0.566  -4.708  0.00  0.00     0.058 H 
ATOM     47  H   LIG d   1       7.920   0.264  -3.131  0.00  0.00     0.058 H 
BRANCH  45  48
ATOM     48  O   LIG d   1       7.405  -1.743  -3.173  0.00  0.00    -0.392 OA
ATOM     49  H   LIG d   1       7.363  -2.667  -3.769  0.00  0.00     0.209 HD
ENDBRANCH  45  48
ENDBRANCH  37  45
BRANCH  38  50
ATOM     50  O   LIG d   1       5.863   1.402  -2.328  0.00  0.00    -0.387 OA
ATOM     51  H   LIG d   1       5.230   2.194  -1.901  0.00  0.00     0.210 HD
ENDBRANCH  38  50
BRANCH  40  52
ATOM     52  O   LIG d   1       3.039   0.948  -2.326  0.00  0.00    -0.386 OA
ATOM     53  H   LIG d   1       2.559   1.929  -2.191  0.00  0.00     0.210 HD
ENDBRANCH  40  52
BRANCH  42  54
ATOM     54  O   LIG d   1       1.959  -0.060  -4.775  0.00  0.00    -0.384 OA
ATOM     55  H   LIG d   1       1.428  -0.701  -5.494  0.00  0.00     0.210 HD
ENDBRANCH  42  54
ENDBRANCH  33  34
ENDBRANCH  30  33
ENDBRANCH   1  30
BRANCH   5  56
ATOM     56  C   LIG d   1       2.871  -0.966  -9.730  0.00  0.00    -0.059 C 
ATOM     57  H   LIG d   1       1.953  -0.520 -10.141  0.00  0.00     0.024 H 
ATOM     58  H   LIG d   1       3.008  -0.632  -8.691  0.00  0.00     0.024 H 
ATOM     59  H   LIG d   1       2.789  -2.062  -9.755  0.00  0.00     0.024 H 
ENDBRANCH   5  56
BRANCH  12  60
ATOM     60  C   LIG d   1       2.972  -1.651 -12.517  0.00  0.00    -0.042 C 
ATOM     61  H   LIG d   1       2.566  -2.663 -12.376  0.00  0.00     0.027 H 
ATOM     62  H   LIG d   1       2.244  -0.909 -12.157  0.00  0.00     0.027 H 
BRANCH  60  63
ATOM     63  C   LIG d   1       3.247  -1.414 -14.004  0.00  0.00    -0.021 C 
ATOM     64  H   LIG d   1       2.690  -0.530 -14.344  0.00  0.00     0.032 H 
ATOM     65  H   LIG d   1       4.325  -1.250 -14.156  0.00  0.00     0.032 H 
BRANCH  63  66
ATOM     66  C   LIG d   1       2.808  -2.620 -14.794  0.00  0.00     0.036 A 
ATOM     67  C   LIG d   1       1.431  -2.907 -15.202  0.00  0.00     0.335 A 
ATOM     68  O   LIG d   1       1.388  -4.060 -15.897  0.00  0.00    -0.457 OA
ATOM     69  O   LIG d   1       0.469  -2.208 -14.954  0.00  0.00    -0.245 OA
ATOM     70  C   LIG d   1       2.744  -4.583 -15.964  0.00  0.00     0.112 A 
ATOM     71  C   LIG d   1       3.610  -3.591 -15.223  0.00  0.00    -0.037 A 
ATOM     72  H   LIG d   1       3.089  -4.664 -17.005  0.00  0.00     0.074 H 
ATOM     73  H   LIG d   1       2.815  -5.566 -15.476  0.00  0.00     0.074 H 
ATOM     74  H   LIG d   1       4.688  -3.550 -15.006  0.00  0.00     0.061 H 
ENDBRANCH  63  66
ENDBRANCH  60  63
ENDBRANCH  12  60
TORSDOF 13
ENDMDL
MODEL 10
REMARK VINA RESULT:      -5.3      2.248      4.115
REMARK  13 active torsions:
REMARK  status: ('A' for Active; 'I' for Inactive)
REMARK    1  A    between atoms: C_1  and  C_2 
REMARK    2  A    between atoms: C_2  and  C_24 
REMARK    3  A    between atoms: C_6  and  C_23 
REMARK    4  A    between atoms: C_13  and  C_15 
REMARK    5  A    between atoms: C_15  and  C_16 
REMARK    6  A    between atoms: C_16  and  C_17 
REMARK    7  A    between atoms: C_24  and  O_25 
REMARK    8  A    between atoms: O_25  and  C_26 
REMARK    9  A    between atoms: C_28  and  O_41 
REMARK   10  A    between atoms: C_30  and  O_40 
REMARK   11  A    between atoms: C_32  and  O_39 
REMARK   12  A    between atoms: C_34  and  C_37 
REMARK   13  A    between atoms: C_37  and  O_38 
ROOT
ATOM      1  C   LIG d   1      11.287   8.143  -4.078  0.00  0.00    -0.005 C 
ATOM      2  C   LIG d   1      11.042   8.696  -5.481  0.00  0.00    -0.045 C 
ATOM      3  C   LIG d   1       9.812   8.013  -6.084  0.00  0.00    -0.052 C 
ATOM      4  C   LIG d   1      10.065   6.508  -6.173  0.00  0.00    -0.047 C 
ATOM      5  C   LIG d   1      10.321   5.943  -4.774  0.00  0.00    -0.022 C 
ATOM      6  C   LIG d   1      11.534   6.634  -4.151  0.00  0.00    -0.027 C 
ATOM      7  H   LIG d   1      12.417   6.427  -4.775  0.00  0.00     0.031 H 
ATOM      8  C   LIG d   1      11.764   6.104  -2.733  0.00  0.00    -0.045 C 
ATOM      9  C   LIG d   1      12.099   4.611  -2.789  0.00  0.00    -0.031 C 
ATOM     10  C   LIG d   1      10.991   3.903  -3.538  0.00  0.00    -0.073 C 
ATOM     11  C   LIG d   1      10.393   2.857  -3.026  0.00  0.00    -0.099 C 
ATOM     12  C   LIG d   1      10.595   4.439  -4.896  0.00  0.00    -0.014 C 
ATOM     13  H   LIG d   1      11.411   4.256  -5.609  0.00  0.00     0.035 H 
ATOM     14  H   LIG d   1      10.870   9.781  -5.424  0.00  0.00     0.027 H 
ATOM     15  H   LIG d   1      11.921   8.497  -6.113  0.00  0.00     0.027 H 
ATOM     16  H   LIG d   1       8.937   8.203  -5.446  0.00  0.00     0.027 H 
ATOM     17  H   LIG d   1       9.626   8.416  -7.092  0.00  0.00     0.027 H 
ATOM     18  H   LIG d   1       9.186   6.013  -6.611  0.00  0.00     0.027 H 
ATOM     19  H   LIG d   1      10.944   6.320  -6.807  0.00  0.00     0.027 H 
ATOM     20  H   LIG d   1      12.601   6.648  -2.269  0.00  0.00     0.027 H 
ATOM     21  H   LIG d   1      10.854   6.252  -2.134  0.00  0.00     0.027 H 
ATOM     22  H   LIG d   1      13.057   4.469  -3.311  0.00  0.00     0.031 H 
ATOM     23  H   LIG d   1      12.176   4.214  -1.767  0.00  0.00     0.031 H 
ATOM     24  H   LIG d   1       9.589   2.355  -3.584  0.00  0.00     0.053 H 
ATOM     25  H   LIG d   1      10.693   2.481  -2.037  0.00  0.00     0.053 H 
ENDROOT
BRANCH   1  26
ATOM     26  C   LIG d   1      12.511   8.830  -3.467  0.00  0.00    -0.057 C 
ATOM     27  H   LIG d   1      12.993   8.149  -2.751  0.00  0.00     0.024 H 
ATOM     28  H   LIG d   1      12.196   9.746  -2.947  0.00  0.00     0.024 H 
ATOM     29  H   LIG d   1      13.223   9.087  -4.265  0.00  0.00     0.024 H 
ENDBRANCH   1  26
BRANCH   1  30
ATOM     30  C   LIG d   1      10.063   8.416  -3.203  0.00  0.00     0.056 C 
ATOM     31  H   LIG d   1       9.341   9.029  -3.762  0.00  0.00     0.057 H 
ATOM     32  H   LIG d   1       9.592   7.462  -2.922  0.00  0.00     0.057 H 
BRANCH  30  33
ATOM     33  O   LIG d   1      10.466   9.115  -2.022  0.00  0.00    -0.348 OA
BRANCH  33  34
ATOM     34  C   LIG d   1       9.538   9.013  -0.941  0.00  0.00     0.188 C 
ATOM     35  H   LIG d   1       8.530   8.944  -1.376  0.00  0.00     0.094 H 
ATOM     36  O   LIG d   1       9.780   7.807  -0.216  0.00  0.00    -0.341 OA
ATOM     37  C   LIG d   1      11.099   7.705   0.323  0.00  0.00     0.113 C 
ATOM     38  C   LIG d   1      11.336   8.852   1.309  0.00  0.00     0.112 C 
ATOM     39  H   LIG d   1      11.782   7.770  -0.537  0.00  0.00     0.065 H 
ATOM     40  C   LIG d   1      11.122  10.187   0.590  0.00  0.00     0.114 C 
ATOM     41  H   LIG d   1      10.687   8.763   2.194  0.00  0.00     0.065 H 
ATOM     42  C   LIG d   1       9.711  10.213  -0.006  0.00  0.00     0.134 C 
ATOM     43  H   LIG d   1      11.889  10.357  -0.182  0.00  0.00     0.065 H 
ATOM     44  H   LIG d   1       8.942  10.224   0.781  0.00  0.00     0.067 H 
BRANCH  37  45
ATOM     45  C   LIG d   1      11.252   6.367   1.051  0.00  0.00     0.073 C 
ATOM     46  H   LIG d   1      10.451   5.684   0.733  0.00  0.00     0.058 H 
ATOM     47  H   LIG d   1      12.229   5.927   0.807  0.00  0.00     0.058 H 
BRANCH  45  48
ATOM     48  O   LIG d   1      11.164   6.581   2.461  0.00  0.00    -0.392 OA
ATOM     49  H   LIG d   1      10.261   7.039   2.892  0.00  0.00     0.209 HD
ENDBRANCH  45  48
ENDBRANCH  37  45
BRANCH  38  50
ATOM     50  O   LIG d   1      12.674   8.787   1.807  0.00  0.00    -0.387 OA
ATOM     51  H   LIG d   1      13.224   7.834   1.782  0.00  0.00     0.210 HD
ENDBRANCH  38  50
BRANCH  40  52
ATOM     52  O   LIG d   1      11.268  11.261   1.520  0.00  0.00    -0.386 OA
ATOM     53  H   LIG d   1      11.688  12.222   1.187  0.00  0.00     0.210 HD
ENDBRANCH  40  52
BRANCH  42  54
ATOM     54  O   LIG d   1       9.526  11.423  -0.742  0.00  0.00    -0.384 OA
ATOM     55  H   LIG d   1      10.275  12.226  -0.679  0.00  0.00     0.210 HD
ENDBRANCH  42  54
ENDBRANCH  33  34
ENDBRANCH  30  33
ENDBRANCH   1  30
BRANCH   5  56
ATOM     56  C   LIG d   1       9.092   6.170  -3.890  0.00  0.00    -0.059 C 
ATOM     57  H   LIG d   1       9.195   7.127  -3.358  0.00  0.00     0.024 H 
ATOM     58  H   LIG d   1       9.009   5.351  -3.161  0.00  0.00     0.024 H 
ATOM     59  H   LIG d   1       8.189   6.195  -4.518  0.00  0.00     0.024 H 
ENDBRANCH   5  56
BRANCH  12  60
ATOM     60  C   LIG d   1       9.330   3.725  -5.379  0.00  0.00    -0.042 C 
ATOM     61  H   LIG d   1       8.985   3.024  -4.604  0.00  0.00     0.027 H 
ATOM     62  H   LIG d   1       8.543   4.467  -5.579  0.00  0.00     0.027 H 
BRANCH  60  63
ATOM     63  C   LIG d   1       9.639   2.953  -6.663  0.00  0.00    -0.021 C 
ATOM     64  H   LIG d   1       8.819   3.091  -7.381  0.00  0.00     0.032 H 
ATOM     65  H   LIG d   1      10.577   3.327  -7.100  0.00  0.00     0.032 H 
BRANCH  63  66
ATOM     66  C   LIG d   1       9.786   1.486  -6.344  0.00  0.00     0.036 A 
ATOM     67  C   LIG d   1      11.051   0.806  -6.058  0.00  0.00     0.335 A 
ATOM     68  O   LIG d   1      10.826  -0.499  -5.811  0.00  0.00    -0.457 OA
ATOM     69  O   LIG d   1      12.143   1.339  -6.043  0.00  0.00    -0.245 OA
ATOM     70  C   LIG d   1       9.394  -0.728  -5.936  0.00  0.00     0.112 A 
ATOM     71  C   LIG d   1       8.786   0.611  -6.284  0.00  0.00    -0.037 A 
ATOM     72  H   LIG d   1       8.965  -1.090  -4.990  0.00  0.00     0.074 H 
ATOM     73  H   LIG d   1       9.176  -1.449  -6.738  0.00  0.00     0.074 H 
ATOM     74  H   LIG d   1       7.754   0.940  -6.476  0.00  0.00     0.061 H 
ENDBRANCH  63  66
ENDBRANCH  60  63
ENDBRANCH  12  60
TORSDOF 13
ENDMDL
