MODEL 1
REMARK VINA RESULT:      -6.8      0.000      0.000
REMARK  8 active torsions:
REMARK  status: ('A' for Active; 'I' for Inactive)
REMARK    1  A    between atoms: C_1  and  C_2 
REMARK    2  A    between atoms: C_2  and  C_3 
REMARK    3  A    between atoms: C_2  and  S_4 
REMARK    4  A    between atoms: S_4  and  N_7 
REMARK    5  A    between atoms: C_10  and  C_17 
REMARK    6  A    between atoms: C_15  and  N_16 
REMARK    7  A    between atoms: C_17  and  C_20 
REMARK    8  A    between atoms: N_18  and  O_19 
ROOT
ATOM      1  N   LIG d   1       3.498  -1.491  -8.476  0.00  0.00    -0.183 N 
ATOM      2  C   LIG d   1       4.195  -2.157  -7.482  0.00  0.00     0.094 A 
ATOM      3  C   LIG d   1       4.903  -1.746  -6.367  0.00  0.00    -0.025 A 
ATOM      4  C   LIG d   1       5.507  -2.695  -5.545  0.00  0.00     0.006 A 
ATOM      5  C   LIG d   1       5.398  -4.057  -5.848  0.00  0.00    -0.050 A 
ATOM      6  C   LIG d   1       4.703  -4.469  -6.946  0.00  0.00    -0.034 A 
ATOM      7  C   LIG d   1       4.089  -3.528  -7.781  0.00  0.00     0.093 A 
ATOM      8  N   LIG d   1       3.351  -3.632  -8.915  0.00  0.00    -0.213 NA
ATOM      9  C   LIG d   1       2.997  -2.437  -9.322  0.00  0.00     0.214 A 
ATOM     10  H   LIG d   1       4.986  -0.695  -6.134  0.00  0.00     0.065 H 
ATOM     11  H   LIG d   1       5.869  -4.789  -5.207  0.00  0.00     0.062 H 
ATOM     12  H   LIG d   1       4.624  -5.522  -7.172  0.00  0.00     0.064 H 
ENDROOT
BRANCH   4  13
ATOM     13  C   LIG d   1       6.264  -2.263  -4.349  0.00  0.00     0.117 C 
ATOM     14  N   LIG d   1       7.415  -2.808  -4.075  0.00  0.00    -0.086 NA
BRANCH  14  15
ATOM     15  O   LIG d   1       8.079  -2.488  -2.866  0.00  0.00    -0.409 OA
ATOM     16  H   LIG d   1       9.014  -2.735  -2.853  0.00  0.00     0.328 HD
ENDBRANCH  14  15
BRANCH  13  17
ATOM     17  C   LIG d   1       5.712  -1.210  -3.464  0.00  0.00     0.004 A 
ATOM     18  C   LIG d   1       4.762  -1.537  -2.497  0.00  0.00    -0.052 A 
ATOM     19  C   LIG d   1       4.256  -0.554  -1.672  0.00  0.00    -0.061 A 
ATOM     20  H   LIG d   1       4.426  -2.558  -2.392  0.00  0.00     0.062 H 
ATOM     21  C   LIG d   1       4.680   0.755  -1.811  0.00  0.00    -0.062 A 
ATOM     22  H   LIG d   1       3.523  -0.807  -0.919  0.00  0.00     0.062 H 
ATOM     23  C   LIG d   1       5.618   1.087  -2.772  0.00  0.00    -0.061 A 
ATOM     24  H   LIG d   1       4.276   1.522  -1.165  0.00  0.00     0.062 H 
ATOM     25  C   LIG d   1       6.136   0.111  -3.599  0.00  0.00    -0.052 A 
ATOM     26  H   LIG d   1       5.945   2.111  -2.875  0.00  0.00     0.062 H 
ATOM     27  H   LIG d   1       6.868   0.371  -4.349  0.00  0.00     0.062 H 
ENDBRANCH  13  17
ENDBRANCH   4  13
BRANCH   1  28
ATOM     28  S   LIG d   1       3.302   0.148  -8.609  0.00  0.00     0.060 S 
ATOM     29  O   LIG d   1       3.542   0.649  -7.301  0.00  0.00    -0.152 OA
ATOM     30  O   LIG d   1       2.033   0.313  -9.227  0.00  0.00    -0.152 OA
BRANCH  28  31
ATOM     31  C   LIG d   1       4.620   0.684  -9.735  0.00  0.00     0.093 C 
ATOM     32  H   LIG d   1       5.365  -0.107  -9.825  0.00  0.00     0.055 H 
BRANCH  31  33
ATOM     33  C   LIG d   1       4.023   0.982 -11.113  0.00  0.00    -0.041 C 
ATOM     34  H   LIG d   1       4.817   0.980 -11.860  0.00  0.00     0.025 H 
ATOM     35  H   LIG d   1       3.287   0.216 -11.363  0.00  0.00     0.025 H 
ATOM     36  H   LIG d   1       3.540   1.958 -11.097  0.00  0.00     0.025 H 
ENDBRANCH  31  33
BRANCH  31  37
ATOM     37  C   LIG d   1       5.281   1.947  -9.183  0.00  0.00    -0.041 C 
ATOM     38  H   LIG d   1       6.105   2.241  -9.833  0.00  0.00     0.025 H 
ATOM     39  H   LIG d   1       4.547   2.754  -9.141  0.00  0.00     0.025 H 
ATOM     40  H   LIG d   1       5.661   1.750  -8.181  0.00  0.00     0.025 H 
ENDBRANCH  31  37
ENDBRANCH  28  31
ENDBRANCH   1  28
BRANCH   9  41
ATOM     41  N   LIG d   1       2.235  -2.177 -10.440  0.00  0.00    -0.328 N 
ATOM     42  H   LIG d   1       1.307  -2.457 -10.471  0.00  0.00     0.145 HD
ATOM     43  H   LIG d   1       2.627  -1.713 -11.198  0.00  0.00     0.145 HD
ENDBRANCH   9  41
TORSDOF 8
ENDMDL
MODEL 2
REMARK VINA RESULT:      -6.7      1.437      2.050
REMARK  8 active torsions:
REMARK  status: ('A' for Active; 'I' for Inactive)
REMARK    1  A    between atoms: C_1  and  C_2 
REMARK    2  A    between atoms: C_2  and  C_3 
REMARK    3  A    between atoms: C_2  and  S_4 
REMARK    4  A    between atoms: S_4  and  N_7 
REMARK    5  A    between atoms: C_10  and  C_17 
REMARK    6  A    between atoms: C_15  and  N_16 
REMARK    7  A    between atoms: C_17  and  C_20 
REMARK    8  A    between atoms: N_18  and  O_19 
ROOT
ATOM      1  N   LIG d   1       3.838  -2.796  -8.611  0.00  0.00    -0.183 N 
ATOM      2  C   LIG d   1       4.365  -3.213  -7.400  0.00  0.00     0.094 A 
ATOM      3  C   LIG d   1       5.121  -2.597  -6.419  0.00  0.00    -0.025 A 
ATOM      4  C   LIG d   1       5.501  -3.315  -5.287  0.00  0.00     0.006 A 
ATOM      5  C   LIG d   1       5.119  -4.655  -5.146  0.00  0.00    -0.050 A 
ATOM      6  C   LIG d   1       4.376  -5.268  -6.109  0.00  0.00    -0.034 A 
ATOM      7  C   LIG d   1       3.985  -4.559  -7.251  0.00  0.00     0.093 A 
ATOM      8  N   LIG d   1       3.262  -4.893  -8.350  0.00  0.00    -0.213 NA
ATOM      9  C   LIG d   1       3.170  -3.857  -9.148  0.00  0.00     0.214 A 
ATOM     10  H   LIG d   1       5.415  -1.564  -6.530  0.00  0.00     0.065 H 
ATOM     11  H   LIG d   1       5.417  -5.207  -4.266  0.00  0.00     0.062 H 
ATOM     12  H   LIG d   1       4.086  -6.302  -5.991  0.00  0.00     0.064 H 
ENDROOT
BRANCH   4  13
ATOM     13  C   LIG d   1       6.309  -2.662  -4.233  0.00  0.00     0.117 C 
ATOM     14  N   LIG d   1       7.517  -3.081  -3.985  0.00  0.00    -0.086 NA
BRANCH  14  15
ATOM     15  O   LIG d   1       8.242  -2.543  -2.894  0.00  0.00    -0.409 OA
ATOM     16  H   LIG d   1       8.393  -3.170  -2.174  0.00  0.00     0.328 HD
ENDBRANCH  14  15
BRANCH  13  17
ATOM     17  C   LIG d   1       5.742  -1.531  -3.461  0.00  0.00     0.004 A 
ATOM     18  C   LIG d   1       6.202  -0.233  -3.682  0.00  0.00    -0.052 A 
ATOM     19  C   LIG d   1       5.667   0.817  -2.965  0.00  0.00    -0.061 A 
ATOM     20  H   LIG d   1       6.974  -0.050  -4.415  0.00  0.00     0.062 H 
ATOM     21  C   LIG d   1       4.684   0.583  -2.020  0.00  0.00    -0.062 A 
ATOM     22  H   LIG d   1       6.020   1.823  -3.138  0.00  0.00     0.062 H 
ATOM     23  C   LIG d   1       4.227  -0.703  -1.792  0.00  0.00    -0.061 A 
ATOM     24  H   LIG d   1       4.272   1.408  -1.457  0.00  0.00     0.062 H 
ATOM     25  C   LIG d   1       4.751  -1.761  -2.509  0.00  0.00    -0.052 A 
ATOM     26  H   LIG d   1       3.460  -0.879  -1.054  0.00  0.00     0.062 H 
ATOM     27  H   LIG d   1       4.394  -2.764  -2.330  0.00  0.00     0.062 H 
ENDBRANCH  13  17
ENDBRANCH   4  13
BRANCH   1  28
ATOM     28  S   LIG d   1       3.987  -1.288  -9.279  0.00  0.00     0.060 S 
ATOM     29  O   LIG d   1       4.004  -1.514 -10.682  0.00  0.00    -0.152 OA
ATOM     30  O   LIG d   1       5.109  -0.710  -8.625  0.00  0.00    -0.152 OA
BRANCH  28  31
ATOM     31  C   LIG d   1       2.468  -0.416  -8.805  0.00  0.00     0.093 C 
ATOM     32  H   LIG d   1       2.061  -0.865  -7.899  0.00  0.00     0.055 H 
BRANCH  31  33
ATOM     33  C   LIG d   1       2.787   1.058  -8.546  0.00  0.00    -0.041 C 
ATOM     34  H   LIG d   1       2.327   1.670  -9.322  0.00  0.00     0.025 H 
ATOM     35  H   LIG d   1       2.391   1.350  -7.572  0.00  0.00     0.025 H 
ATOM     36  H   LIG d   1       3.866   1.204  -8.558  0.00  0.00     0.025 H 
ENDBRANCH  31  33
BRANCH  31  37
ATOM     37  C   LIG d   1       1.444  -0.525  -9.934  0.00  0.00    -0.041 C 
ATOM     38  H   LIG d   1       0.795  -1.383  -9.756  0.00  0.00     0.025 H 
ATOM     39  H   LIG d   1       0.842   0.384  -9.969  0.00  0.00     0.025 H 
ATOM     40  H   LIG d   1       1.962  -0.654 -10.884  0.00  0.00     0.025 H 
ENDBRANCH  31  37
ENDBRANCH  28  31
ENDBRANCH   1  28
BRANCH   9  41
ATOM     41  N   LIG d   1       2.499  -3.844 -10.352  0.00  0.00    -0.328 N 
ATOM     42  H   LIG d   1       1.634  -3.411 -10.420  0.00  0.00     0.145 HD
ATOM     43  H   LIG d   1       2.892  -4.268 -11.131  0.00  0.00     0.145 HD
ENDBRANCH   9  41
TORSDOF 8
ENDMDL
MODEL 3
REMARK VINA RESULT:      -6.5      1.886      6.371
REMARK  8 active torsions:
REMARK  status: ('A' for Active; 'I' for Inactive)
REMARK    1  A    between atoms: C_1  and  C_2 
REMARK    2  A    between atoms: C_2  and  C_3 
REMARK    3  A    between atoms: C_2  and  S_4 
REMARK    4  A    between atoms: S_4  and  N_7 
REMARK    5  A    between atoms: C_10  and  C_17 
REMARK    6  A    between atoms: C_15  and  N_16 
REMARK    7  A    between atoms: C_17  and  C_20 
REMARK    8  A    between atoms: N_18  and  O_19 
ROOT
ATOM      1  N   LIG d   1       6.223  -1.643  -4.642  0.00  0.00    -0.183 N 
ATOM      2  C   LIG d   1       5.656  -2.098  -5.821  0.00  0.00     0.094 A 
ATOM      3  C   LIG d   1       4.719  -1.580  -6.697  0.00  0.00    -0.025 A 
ATOM      4  C   LIG d   1       4.352  -2.311  -7.825  0.00  0.00     0.006 A 
ATOM      5  C   LIG d   1       4.929  -3.563  -8.069  0.00  0.00    -0.050 A 
ATOM      6  C   LIG d   1       5.852  -4.079  -7.209  0.00  0.00    -0.034 A 
ATOM      7  C   LIG d   1       6.232  -3.357  -6.072  0.00  0.00     0.093 A 
ATOM      8  N   LIG d   1       7.102  -3.606  -5.060  0.00  0.00    -0.213 NA
ATOM      9  C   LIG d   1       7.103  -2.598  -4.222  0.00  0.00     0.214 A 
ATOM     10  H   LIG d   1       4.275  -0.615  -6.507  0.00  0.00     0.065 H 
ATOM     11  H   LIG d   1       4.640  -4.124  -8.945  0.00  0.00     0.062 H 
ATOM     12  H   LIG d   1       6.291  -5.046  -7.405  0.00  0.00     0.064 H 
ENDROOT
BRANCH   4  13
ATOM     13  C   LIG d   1       3.351  -1.762  -8.767  0.00  0.00     0.117 C 
ATOM     14  N   LIG d   1       2.431  -2.538  -9.264  0.00  0.00    -0.086 NA
BRANCH  14  15
ATOM     15  O   LIG d   1       1.553  -2.047 -10.261  0.00  0.00    -0.409 OA
ATOM     16  H   LIG d   1       0.627  -2.006  -9.985  0.00  0.00     0.328 HD
ENDBRANCH  14  15
BRANCH  13  17
ATOM     17  C   LIG d   1       3.399  -0.330  -9.146  0.00  0.00     0.004 A 
ATOM     18  C   LIG d   1       4.150   0.077 -10.248  0.00  0.00    -0.052 A 
ATOM     19  C   LIG d   1       4.186   1.411 -10.599  0.00  0.00    -0.061 A 
ATOM     20  H   LIG d   1       4.700  -0.650 -10.827  0.00  0.00     0.062 H 
ATOM     21  C   LIG d   1       3.488   2.344  -9.854  0.00  0.00    -0.062 A 
ATOM     22  H   LIG d   1       4.765   1.727 -11.456  0.00  0.00     0.062 H 
ATOM     23  C   LIG d   1       2.746   1.947  -8.757  0.00  0.00    -0.061 A 
ATOM     24  H   LIG d   1       3.524   3.388 -10.131  0.00  0.00     0.062 H 
ATOM     25  C   LIG d   1       2.697   0.615  -8.399  0.00  0.00    -0.052 A 
ATOM     26  H   LIG d   1       2.203   2.681  -8.180  0.00  0.00     0.062 H 
ATOM     27  H   LIG d   1       2.117   0.306  -7.542  0.00  0.00     0.062 H 
ENDBRANCH  13  17
ENDBRANCH   4  13
BRANCH   1  28
ATOM     28  S   LIG d   1       5.899  -0.206  -3.886  0.00  0.00     0.060 S 
ATOM     29  O   LIG d   1       5.044   0.490  -4.783  0.00  0.00    -0.152 OA
ATOM     30  O   LIG d   1       7.174   0.321  -3.546  0.00  0.00    -0.152 OA
BRANCH  28  31
ATOM     31  C   LIG d   1       4.990  -0.664  -2.385  0.00  0.00     0.093 C 
ATOM     32  H   LIG d   1       5.652  -1.209  -1.712  0.00  0.00     0.055 H 
BRANCH  31  33
ATOM     33  C   LIG d   1       4.485   0.602  -1.689  0.00  0.00    -0.041 C 
ATOM     34  H   LIG d   1       3.757   0.330  -0.924  0.00  0.00     0.025 H 
ATOM     35  H   LIG d   1       5.324   1.121  -1.223  0.00  0.00     0.025 H 
ATOM     36  H   LIG d   1       4.015   1.257  -2.422  0.00  0.00     0.025 H 
ENDBRANCH  31  33
BRANCH  31  37
ATOM     37  C   LIG d   1       3.800  -1.549  -2.758  0.00  0.00    -0.041 C 
ATOM     38  H   LIG d   1       4.161  -2.465  -3.226  0.00  0.00     0.025 H 
ATOM     39  H   LIG d   1       3.235  -1.799  -1.859  0.00  0.00     0.025 H 
ATOM     40  H   LIG d   1       3.155  -1.015  -3.456  0.00  0.00     0.025 H 
ENDBRANCH  31  37
ENDBRANCH  28  31
ENDBRANCH   1  28
BRANCH   9  41
ATOM     41  N   LIG d   1       7.876  -2.517  -3.084  0.00  0.00    -0.328 N 
ATOM     42  H   LIG d   1       7.636  -3.030  -2.297  0.00  0.00     0.145 HD
ATOM     43  H   LIG d   1       8.661  -1.947  -3.070  0.00  0.00     0.145 HD
ENDBRANCH   9  41
TORSDOF 8
ENDMDL
MODEL 4
REMARK VINA RESULT:      -6.2      2.789      4.392
REMARK  8 active torsions:
REMARK  status: ('A' for Active; 'I' for Inactive)
REMARK    1  A    between atoms: C_1  and  C_2 
REMARK    2  A    between atoms: C_2  and  C_3 
REMARK    3  A    between atoms: C_2  and  S_4 
REMARK    4  A    between atoms: S_4  and  N_7 
REMARK    5  A    between atoms: C_10  and  C_17 
REMARK    6  A    between atoms: C_15  and  N_16 
REMARK    7  A    between atoms: C_17  and  C_20 
REMARK    8  A    between atoms: N_18  and  O_19 
ROOT
ATOM      1  N   LIG d   1       2.722  -3.761  -9.808  0.00  0.00    -0.183 N 
ATOM      2  C   LIG d   1       2.897  -2.569  -9.124  0.00  0.00     0.094 A 
ATOM      3  C   LIG d   1       3.688  -2.182  -8.058  0.00  0.00    -0.025 A 
ATOM      4  C   LIG d   1       3.627  -0.869  -7.595  0.00  0.00     0.006 A 
ATOM      5  C   LIG d   1       2.769   0.052  -8.208  0.00  0.00    -0.050 A 
ATOM      6  C   LIG d   1       1.987  -0.323  -9.259  0.00  0.00    -0.034 A 
ATOM      7  C   LIG d   1       2.038  -1.638  -9.736  0.00  0.00     0.093 A 
ATOM      8  N   LIG d   1       1.394  -2.289 -10.738  0.00  0.00    -0.213 NA
ATOM      9  C   LIG d   1       1.799  -3.535 -10.787  0.00  0.00     0.214 A 
ATOM     10  H   LIG d   1       4.348  -2.894  -7.586  0.00  0.00     0.065 H 
ATOM     11  H   LIG d   1       2.727   1.068  -7.844  0.00  0.00     0.062 H 
ATOM     12  H   LIG d   1       1.328   0.394  -9.725  0.00  0.00     0.064 H 
ENDROOT
BRANCH   4  13
ATOM     13  C   LIG d   1       4.471  -0.448  -6.454  0.00  0.00     0.117 C 
ATOM     14  N   LIG d   1       5.504   0.319  -6.658  0.00  0.00    -0.086 NA
BRANCH  14  15
ATOM     15  O   LIG d   1       6.384   0.618  -5.589  0.00  0.00    -0.409 OA
ATOM     16  H   LIG d   1       7.283   0.839  -5.870  0.00  0.00     0.328 HD
ENDBRANCH  14  15
BRANCH  13  17
ATOM     17  C   LIG d   1       4.140  -0.900  -5.082  0.00  0.00     0.004 A 
ATOM     18  C   LIG d   1       4.736  -2.049  -4.562  0.00  0.00    -0.052 A 
ATOM     19  C   LIG d   1       4.429  -2.462  -3.282  0.00  0.00    -0.061 A 
ATOM     20  H   LIG d   1       5.439  -2.612  -5.159  0.00  0.00     0.062 H 
ATOM     21  C   LIG d   1       3.524  -1.746  -2.520  0.00  0.00    -0.062 A 
ATOM     22  H   LIG d   1       4.893  -3.349  -2.876  0.00  0.00     0.062 H 
ATOM     23  C   LIG d   1       2.925  -0.609  -3.032  0.00  0.00    -0.061 A 
ATOM     24  H   LIG d   1       3.283  -2.077  -1.519  0.00  0.00     0.062 H 
ATOM     25  C   LIG d   1       3.229  -0.182  -4.309  0.00  0.00    -0.052 A 
ATOM     26  H   LIG d   1       2.220  -0.054  -2.432  0.00  0.00     0.062 H 
ATOM     27  H   LIG d   1       2.761   0.705  -4.709  0.00  0.00     0.062 H 
ENDBRANCH  13  17
ENDBRANCH   4  13
BRANCH   1  28
ATOM     28  S   LIG d   1       3.494  -5.193  -9.498  0.00  0.00     0.060 S 
ATOM     29  O   LIG d   1       4.270  -5.445 -10.662  0.00  0.00    -0.152 OA
ATOM     30  O   LIG d   1       2.460  -6.087  -9.109  0.00  0.00    -0.152 OA
BRANCH  28  31
ATOM     31  C   LIG d   1       4.580  -4.841  -8.088  0.00  0.00     0.093 C 
ATOM     32  H   LIG d   1       4.609  -3.766  -7.912  0.00  0.00     0.055 H 
BRANCH  31  33
ATOM     33  C   LIG d   1       4.043  -5.549  -6.843  0.00  0.00    -0.041 C 
ATOM     34  H   LIG d   1       4.361  -5.006  -5.952  0.00  0.00     0.025 H 
ATOM     35  H   LIG d   1       2.954  -5.577  -6.881  0.00  0.00     0.025 H 
ATOM     36  H   LIG d   1       4.431  -6.566  -6.807  0.00  0.00     0.025 H 
ENDBRANCH  31  33
BRANCH  31  37
ATOM     37  C   LIG d   1       5.991  -5.346  -8.392  0.00  0.00    -0.041 C 
ATOM     38  H   LIG d   1       6.586  -5.338  -7.478  0.00  0.00     0.025 H 
ATOM     39  H   LIG d   1       5.939  -6.363  -8.783  0.00  0.00     0.025 H 
ATOM     40  H   LIG d   1       6.458  -4.696  -9.133  0.00  0.00     0.025 H 
ENDBRANCH  31  37
ENDBRANCH  28  31
ENDBRANCH   1  28
BRANCH   9  41
ATOM     41  N   LIG d   1       1.355  -4.476 -11.690  0.00  0.00    -0.328 N 
ATOM     42  H   LIG d   1       0.797  -4.207 -12.436  0.00  0.00     0.145 HD
ATOM     43  H   LIG d   1       1.599  -5.408 -11.580  0.00  0.00     0.145 HD
ENDBRANCH   9  41
TORSDOF 8
ENDMDL
MODEL 5
REMARK VINA RESULT:      -5.8      2.694      4.503
REMARK  8 active torsions:
REMARK  status: ('A' for Active; 'I' for Inactive)
REMARK    1  A    between atoms: C_1  and  C_2 
REMARK    2  A    between atoms: C_2  and  C_3 
REMARK    3  A    between atoms: C_2  and  S_4 
REMARK    4  A    between atoms: S_4  and  N_7 
REMARK    5  A    between atoms: C_10  and  C_17 
REMARK    6  A    between atoms: C_15  and  N_16 
REMARK    7  A    between atoms: C_17  and  C_20 
REMARK    8  A    between atoms: N_18  and  O_19 
ROOT
ATOM      1  N   LIG d   1       5.263  -3.050  -8.385  0.00  0.00    -0.183 N 
ATOM      2  C   LIG d   1       4.426  -2.030  -7.963  0.00  0.00     0.094 A 
ATOM      3  C   LIG d   1       4.286  -1.332  -6.776  0.00  0.00    -0.025 A 
ATOM      4  C   LIG d   1       3.318  -0.336  -6.672  0.00  0.00     0.006 A 
ATOM      5  C   LIG d   1       2.491  -0.044  -7.763  0.00  0.00    -0.050 A 
ATOM      6  C   LIG d   1       2.623  -0.728  -8.934  0.00  0.00    -0.034 A 
ATOM      7  C   LIG d   1       3.591  -1.731  -9.055  0.00  0.00     0.093 A 
ATOM      8  N   LIG d   1       3.949  -2.561 -10.067  0.00  0.00    -0.213 NA
ATOM      9  C   LIG d   1       4.934  -3.333  -9.678  0.00  0.00     0.214 A 
ATOM     10  H   LIG d   1       4.925  -1.559  -5.935  0.00  0.00     0.065 H 
ATOM     11  H   LIG d   1       1.742   0.730  -7.675  0.00  0.00     0.062 H 
ATOM     12  H   LIG d   1       1.980  -0.496  -9.770  0.00  0.00     0.064 H 
ENDROOT
BRANCH   4  13
ATOM     13  C   LIG d   1       3.164   0.415  -5.406  0.00  0.00     0.117 C 
ATOM     14  N   LIG d   1       2.588   1.583  -5.408  0.00  0.00    -0.086 NA
BRANCH  14  15
ATOM     15  O   LIG d   1       2.554   2.357  -4.223  0.00  0.00    -0.409 OA
ATOM     16  H   LIG d   1       2.504   1.833  -3.412  0.00  0.00     0.328 HD
ENDBRANCH  14  15
BRANCH  13  17
ATOM     17  C   LIG d   1       3.667  -0.162  -4.137  0.00  0.00     0.004 A 
ATOM     18  C   LIG d   1       2.988  -1.219  -3.531  0.00  0.00    -0.052 A 
ATOM     19  C   LIG d   1       3.464  -1.756  -2.353  0.00  0.00    -0.061 A 
ATOM     20  H   LIG d   1       2.093  -1.617  -3.985  0.00  0.00     0.062 H 
ATOM     21  C   LIG d   1       4.606  -1.241  -1.767  0.00  0.00    -0.062 A 
ATOM     22  H   LIG d   1       2.941  -2.577  -1.885  0.00  0.00     0.062 H 
ATOM     23  C   LIG d   1       5.282  -0.189  -2.360  0.00  0.00    -0.061 A 
ATOM     24  H   LIG d   1       4.972  -1.662  -0.842  0.00  0.00     0.062 H 
ATOM     25  C   LIG d   1       4.818   0.352  -3.542  0.00  0.00    -0.052 A 
ATOM     26  H   LIG d   1       6.173   0.208  -1.898  0.00  0.00     0.062 H 
ATOM     27  H   LIG d   1       5.346   1.174  -4.004  0.00  0.00     0.062 H 
ENDBRANCH  13  17
ENDBRANCH   4  13
BRANCH   1  28
ATOM     28  S   LIG d   1       6.446  -3.784  -7.488  0.00  0.00     0.060 S 
ATOM     29  O   LIG d   1       7.421  -2.771  -7.276  0.00  0.00    -0.152 OA
ATOM     30  O   LIG d   1       6.772  -4.962  -8.212  0.00  0.00    -0.152 OA
BRANCH  28  31
ATOM     31  C   LIG d   1       5.642  -4.215  -5.920  0.00  0.00     0.093 C 
ATOM     32  H   LIG d   1       4.601  -3.895  -5.946  0.00  0.00     0.055 H 
BRANCH  31  33
ATOM     33  C   LIG d   1       5.706  -5.730  -5.715  0.00  0.00    -0.041 C 
ATOM     34  H   LIG d   1       5.058  -6.222  -6.440  0.00  0.00     0.025 H 
ATOM     35  H   LIG d   1       6.732  -6.073  -5.854  0.00  0.00     0.025 H 
ATOM     36  H   LIG d   1       5.375  -5.975  -4.706  0.00  0.00     0.025 H 
ENDBRANCH  31  33
BRANCH  31  37
ATOM     37  C   LIG d   1       6.362  -3.514  -4.768  0.00  0.00    -0.041 C 
ATOM     38  H   LIG d   1       6.933  -2.669  -5.155  0.00  0.00     0.025 H 
ATOM     39  H   LIG d   1       5.629  -3.155  -4.044  0.00  0.00     0.025 H 
ATOM     40  H   LIG d   1       7.039  -4.216  -4.281  0.00  0.00     0.025 H 
ENDBRANCH  31  37
ENDBRANCH  28  31
ENDBRANCH   1  28
BRANCH   9  41
ATOM     41  N   LIG d   1       5.545  -4.290 -10.459  0.00  0.00    -0.328 N 
ATOM     42  H   LIG d   1       6.374  -4.084 -10.919  0.00  0.00     0.145 HD
ATOM     43  H   LIG d   1       5.146  -5.170 -10.551  0.00  0.00     0.145 HD
ENDBRANCH   9  41
TORSDOF 8
ENDMDL
MODEL 6
REMARK VINA RESULT:      -5.8      3.551      4.764
REMARK  8 active torsions:
REMARK  status: ('A' for Active; 'I' for Inactive)
REMARK    1  A    between atoms: C_1  and  C_2 
REMARK    2  A    between atoms: C_2  and  C_3 
REMARK    3  A    between atoms: C_2  and  S_4 
REMARK    4  A    between atoms: S_4  and  N_7 
REMARK    5  A    between atoms: C_10  and  C_17 
REMARK    6  A    between atoms: C_15  and  N_16 
REMARK    7  A    between atoms: C_17  and  C_20 
REMARK    8  A    between atoms: N_18  and  O_19 
ROOT
ATOM      1  N   LIG d   1       5.732  -5.819  -6.089  0.00  0.00    -0.183 N 
ATOM      2  C   LIG d   1       6.339  -4.695  -5.554  0.00  0.00     0.094 A 
ATOM      3  C   LIG d   1       6.015  -3.351  -5.527  0.00  0.00    -0.025 A 
ATOM      4  C   LIG d   1       6.864  -2.449  -4.888  0.00  0.00     0.006 A 
ATOM      5  C   LIG d   1       8.039  -2.904  -4.277  0.00  0.00    -0.050 A 
ATOM      6  C   LIG d   1       8.364  -4.227  -4.301  0.00  0.00    -0.034 A 
ATOM      7  C   LIG d   1       7.521  -5.145  -4.938  0.00  0.00     0.093 A 
ATOM      8  N   LIG d   1       7.579  -6.489  -5.121  0.00  0.00    -0.213 NA
ATOM      9  C   LIG d   1       6.526  -6.888  -5.791  0.00  0.00     0.214 A 
ATOM     10  H   LIG d   1       5.109  -3.001  -5.999  0.00  0.00     0.065 H 
ATOM     11  H   LIG d   1       8.693  -2.200  -3.784  0.00  0.00     0.062 H 
ATOM     12  H   LIG d   1       9.273  -4.568  -3.828  0.00  0.00     0.064 H 
ENDROOT
BRANCH   4  13
ATOM     13  C   LIG d   1       6.523  -1.009  -4.855  0.00  0.00     0.117 C 
ATOM     14  N   LIG d   1       7.217  -0.160  -5.557  0.00  0.00    -0.086 NA
BRANCH  14  15
ATOM     15  O   LIG d   1       6.974   1.230  -5.427  0.00  0.00    -0.409 OA
ATOM     16  H   LIG d   1       6.043   1.476  -5.514  0.00  0.00     0.328 HD
ENDBRANCH  14  15
BRANCH  13  17
ATOM     17  C   LIG d   1       5.392  -0.536  -4.021  0.00  0.00     0.004 A 
ATOM     18  C   LIG d   1       4.115  -0.431  -4.571  0.00  0.00    -0.052 A 
ATOM     19  C   LIG d   1       3.065   0.005  -3.789  0.00  0.00    -0.061 A 
ATOM     20  H   LIG d   1       3.947  -0.693  -5.605  0.00  0.00     0.062 H 
ATOM     21  C   LIG d   1       3.280   0.348  -2.467  0.00  0.00    -0.062 A 
ATOM     22  H   LIG d   1       2.074   0.083  -4.213  0.00  0.00     0.062 H 
ATOM     23  C   LIG d   1       4.546   0.251  -1.917  0.00  0.00    -0.061 A 
ATOM     24  H   LIG d   1       2.455   0.694  -1.860  0.00  0.00     0.062 H 
ATOM     25  C   LIG d   1       5.603  -0.190  -2.688  0.00  0.00    -0.052 A 
ATOM     26  H   LIG d   1       4.707   0.520  -0.884  0.00  0.00     0.062 H 
ATOM     27  H   LIG d   1       6.591  -0.265  -2.258  0.00  0.00     0.062 H 
ENDBRANCH  13  17
ENDBRANCH   4  13
BRANCH   1  28
ATOM     28  S   LIG d   1       4.304  -5.859  -6.927  0.00  0.00     0.060 S 
ATOM     29  O   LIG d   1       3.364  -5.220  -6.073  0.00  0.00    -0.152 OA
ATOM     30  O   LIG d   1       4.138  -7.221  -7.297  0.00  0.00    -0.152 OA
BRANCH  28  31
ATOM     31  C   LIG d   1       4.601  -4.843  -8.400  0.00  0.00     0.093 C 
ATOM     32  H   LIG d   1       5.627  -4.475  -8.387  0.00  0.00     0.055 H 
BRANCH  31  33
ATOM     33  C   LIG d   1       4.377  -5.688  -9.656  0.00  0.00    -0.041 C 
ATOM     34  H   LIG d   1       5.288  -5.697 -10.254  0.00  0.00     0.025 H 
ATOM     35  H   LIG d   1       4.123  -6.709  -9.367  0.00  0.00     0.025 H 
ATOM     36  H   LIG d   1       3.562  -5.263 -10.240  0.00  0.00     0.025 H 
ENDBRANCH  31  33
BRANCH  31  37
ATOM     37  C   LIG d   1       3.635  -3.657  -8.405  0.00  0.00    -0.041 C 
ATOM     38  H   LIG d   1       3.952  -2.926  -7.662  0.00  0.00     0.025 H 
ATOM     39  H   LIG d   1       3.632  -3.194  -9.393  0.00  0.00     0.025 H 
ATOM     40  H   LIG d   1       2.630  -4.006  -8.166  0.00  0.00     0.025 H 
ENDBRANCH  31  37
ENDBRANCH  28  31
ENDBRANCH   1  28
BRANCH   9  41
ATOM     41  N   LIG d   1       6.263  -8.194  -6.146  0.00  0.00    -0.328 N 
ATOM     42  H   LIG d   1       5.433  -8.613  -5.871  0.00  0.00     0.145 HD
ATOM     43  H   LIG d   1       6.908  -8.694  -6.670  0.00  0.00     0.145 HD
ENDBRANCH   9  41
TORSDOF 8
ENDMDL
MODEL 7
REMARK VINA RESULT:      -5.7      9.945     12.594
REMARK  8 active torsions:
REMARK  status: ('A' for Active; 'I' for Inactive)
REMARK    1  A    between atoms: C_1  and  C_2 
REMARK    2  A    between atoms: C_2  and  C_3 
REMARK    3  A    between atoms: C_2  and  S_4 
REMARK    4  A    between atoms: S_4  and  N_7 
REMARK    5  A    between atoms: C_10  and  C_17 
REMARK    6  A    between atoms: C_15  and  N_16 
REMARK    7  A    between atoms: C_17  and  C_20 
REMARK    8  A    between atoms: N_18  and  O_19 
ROOT
ATOM      1  N   LIG d   1      10.461   6.258  -2.139  0.00  0.00    -0.183 N 
ATOM      2  C   LIG d   1      10.397   6.459  -3.509  0.00  0.00     0.094 A 
ATOM      3  C   LIG d   1       9.971   7.506  -4.305  0.00  0.00    -0.025 A 
ATOM      4  C   LIG d   1      10.038   7.389  -5.692  0.00  0.00     0.006 A 
ATOM      5  C   LIG d   1      10.534   6.217  -6.274  0.00  0.00    -0.050 A 
ATOM      6  C   LIG d   1      10.955   5.181  -5.495  0.00  0.00    -0.034 A 
ATOM      7  C   LIG d   1      10.895   5.284  -4.100  0.00  0.00     0.093 A 
ATOM      8  N   LIG d   1      11.231   4.442  -3.090  0.00  0.00    -0.213 NA
ATOM      9  C   LIG d   1      10.983   5.014  -1.938  0.00  0.00     0.214 A 
ATOM     10  H   LIG d   1       9.588   8.410  -3.855  0.00  0.00     0.065 H 
ATOM     11  H   LIG d   1      10.584   6.132  -7.350  0.00  0.00     0.062 H 
ATOM     12  H   LIG d   1      11.336   4.281  -5.953  0.00  0.00     0.064 H 
ENDROOT
BRANCH   4  13
ATOM     13  C   LIG d   1       9.585   8.507  -6.551  0.00  0.00     0.117 C 
ATOM     14  N   LIG d   1       8.826   8.268  -7.582  0.00  0.00    -0.086 NA
BRANCH  14  15
ATOM     15  O   LIG d   1       8.497   9.317  -8.476  0.00  0.00    -0.409 OA
ATOM     16  H   LIG d   1       9.265   9.745  -8.879  0.00  0.00     0.328 HD
ENDBRANCH  14  15
BRANCH  13  17
ATOM     17  C   LIG d   1       9.997   9.895  -6.237  0.00  0.00     0.004 A 
ATOM     18  C   LIG d   1      11.131  10.441  -6.838  0.00  0.00    -0.052 A 
ATOM     19  C   LIG d   1      11.507  11.736  -6.546  0.00  0.00    -0.061 A 
ATOM     20  H   LIG d   1      11.712   9.852  -7.532  0.00  0.00     0.062 H 
ATOM     21  C   LIG d   1      10.768  12.489  -5.652  0.00  0.00    -0.062 A 
ATOM     22  H   LIG d   1      12.382  12.161  -7.015  0.00  0.00     0.062 H 
ATOM     23  C   LIG d   1       9.645  11.951  -5.048  0.00  0.00    -0.061 A 
ATOM     24  H   LIG d   1      11.069  13.501  -5.423  0.00  0.00     0.062 H 
ATOM     25  C   LIG d   1       9.256  10.658  -5.337  0.00  0.00    -0.052 A 
ATOM     26  H   LIG d   1       9.072  12.544  -4.351  0.00  0.00     0.062 H 
ATOM     27  H   LIG d   1       8.379  10.240  -4.864  0.00  0.00     0.062 H 
ENDBRANCH  13  17
ENDBRANCH   4  13
BRANCH   1  28
ATOM     28  S   LIG d   1       9.998   7.331  -0.966  0.00  0.00     0.060 S 
ATOM     29  O   LIG d   1      10.435   6.747   0.253  0.00  0.00    -0.152 OA
ATOM     30  O   LIG d   1       8.616   7.557  -1.207  0.00  0.00    -0.152 OA
BRANCH  28  31
ATOM     31  C   LIG d   1      10.947   8.838  -1.312  0.00  0.00     0.093 C 
ATOM     32  H   LIG d   1      11.566   8.682  -2.196  0.00  0.00     0.055 H 
BRANCH  31  33
ATOM     33  C   LIG d   1       9.984  10.001  -1.562  0.00  0.00    -0.041 C 
ATOM     34  H   LIG d   1       9.773  10.074  -2.629  0.00  0.00     0.025 H 
ATOM     35  H   LIG d   1       9.054   9.826  -1.020  0.00  0.00     0.025 H 
ATOM     36  H   LIG d   1      10.438  10.929  -1.216  0.00  0.00     0.025 H 
ENDBRANCH  31  33
BRANCH  31  37
ATOM     37  C   LIG d   1      11.840   9.165  -0.115  0.00  0.00    -0.041 C 
ATOM     38  H   LIG d   1      12.439  10.048  -0.338  0.00  0.00     0.025 H 
ATOM     39  H   LIG d   1      11.220   9.358   0.761  0.00  0.00     0.025 H 
ATOM     40  H   LIG d   1      12.500   8.321   0.088  0.00  0.00     0.025 H 
ENDBRANCH  31  37
ENDBRANCH  28  31
ENDBRANCH   1  28
BRANCH   9  41
ATOM     41  N   LIG d   1      11.213   4.441  -0.705  0.00  0.00    -0.328 N 
ATOM     42  H   LIG d   1      11.641   4.956  -0.004  0.00  0.00     0.145 HD
ATOM     43  H   LIG d   1      10.946   3.523  -0.539  0.00  0.00     0.145 HD
ENDBRANCH   9  41
TORSDOF 8
ENDMDL
MODEL 8
REMARK VINA RESULT:      -5.6     12.511     15.759
REMARK  8 active torsions:
REMARK  status: ('A' for Active; 'I' for Inactive)
REMARK    1  A    between atoms: C_1  and  C_2 
REMARK    2  A    between atoms: C_2  and  C_3 
REMARK    3  A    between atoms: C_2  and  S_4 
REMARK    4  A    between atoms: S_4  and  N_7 
REMARK    5  A    between atoms: C_10  and  C_17 
REMARK    6  A    between atoms: C_15  and  N_16 
REMARK    7  A    between atoms: C_17  and  C_20 
REMARK    8  A    between atoms: N_18  and  O_19 
ROOT
ATOM      1  N   LIG d   1      -5.822   5.803 -14.233  0.00  0.00    -0.183 N 
ATOM      2  C   LIG d   1      -4.976   6.884 -14.420  0.00  0.00     0.094 A 
ATOM      3  C   LIG d   1      -3.629   7.009 -14.711  0.00  0.00    -0.025 A 
ATOM      4  C   LIG d   1      -3.066   8.277 -14.835  0.00  0.00     0.006 A 
ATOM      5  C   LIG d   1      -3.859   9.418 -14.666  0.00  0.00    -0.050 A 
ATOM      6  C   LIG d   1      -5.186   9.301 -14.378  0.00  0.00    -0.034 A 
ATOM      7  C   LIG d   1      -5.768   8.034 -14.251  0.00  0.00     0.093 A 
ATOM      8  N   LIG d   1      -7.028   7.613 -13.976  0.00  0.00    -0.213 NA
ATOM      9  C   LIG d   1      -7.065   6.303 -13.971  0.00  0.00     0.214 A 
ATOM     10  H   LIG d   1      -3.018   6.128 -14.841  0.00  0.00     0.065 H 
ATOM     11  H   LIG d   1      -3.416  10.398 -14.764  0.00  0.00     0.062 H 
ATOM     12  H   LIG d   1      -5.791  10.187 -14.249  0.00  0.00     0.064 H 
ENDROOT
BRANCH   4  13
ATOM     13  C   LIG d   1      -1.626   8.418 -15.148  0.00  0.00     0.117 C 
ATOM     14  N   LIG d   1      -0.742   7.755 -14.458  0.00  0.00    -0.086 NA
BRANCH  14  15
ATOM     15  O   LIG d   1       0.639   7.985 -14.671  0.00  0.00    -0.409 OA
ATOM     16  H   LIG d   1       1.031   8.620 -14.056  0.00  0.00     0.328 HD
ENDBRANCH  14  15
BRANCH  13  17
ATOM     17  C   LIG d   1      -1.191   9.315 -16.245  0.00  0.00     0.004 A 
ATOM     18  C   LIG d   1      -0.791  10.621 -15.963  0.00  0.00    -0.052 A 
ATOM     19  C   LIG d   1      -0.383  11.450 -16.987  0.00  0.00    -0.061 A 
ATOM     20  H   LIG d   1      -0.799  10.982 -14.945  0.00  0.00     0.062 H 
ATOM     21  C   LIG d   1      -0.379  10.992 -18.292  0.00  0.00    -0.062 A 
ATOM     22  H   LIG d   1      -0.068  12.461 -16.769  0.00  0.00     0.062 H 
ATOM     23  C   LIG d   1      -0.780   9.699 -18.579  0.00  0.00    -0.061 A 
ATOM     24  H   LIG d   1      -0.063  11.647 -19.091  0.00  0.00     0.062 H 
ATOM     25  C   LIG d   1      -1.186   8.859 -17.562  0.00  0.00    -0.052 A 
ATOM     26  H   LIG d   1      -0.775   9.348 -19.600  0.00  0.00     0.062 H 
ATOM     27  H   LIG d   1      -1.499   7.850 -17.787  0.00  0.00     0.062 H 
ENDBRANCH  13  17
ENDBRANCH   4  13
BRANCH   1  28
ATOM     28  S   LIG d   1      -5.405   4.203 -14.319  0.00  0.00     0.060 S 
ATOM     29  O   LIG d   1      -4.581   4.105 -15.473  0.00  0.00    -0.152 OA
ATOM     30  O   LIG d   1      -6.639   3.502 -14.248  0.00  0.00    -0.152 OA
BRANCH  28  31
ATOM     31  C   LIG d   1      -4.424   3.897 -12.824  0.00  0.00     0.093 C 
ATOM     32  H   LIG d   1      -3.943   4.823 -12.509  0.00  0.00     0.055 H 
BRANCH  31  33
ATOM     33  C   LIG d   1      -5.341   3.393 -11.707  0.00  0.00    -0.041 C 
ATOM     34  H   LIG d   1      -6.105   4.143 -11.499  0.00  0.00     0.025 H 
ATOM     35  H   LIG d   1      -5.820   2.464 -12.021  0.00  0.00     0.025 H 
ATOM     36  H   LIG d   1      -4.754   3.212 -10.808  0.00  0.00     0.025 H 
ENDBRANCH  31  33
BRANCH  31  37
ATOM     37  C   LIG d   1      -3.357   2.843 -13.121  0.00  0.00    -0.041 C 
ATOM     38  H   LIG d   1      -3.610   2.318 -14.042  0.00  0.00     0.025 H 
ATOM     39  H   LIG d   1      -2.387   3.329 -13.235  0.00  0.00     0.025 H 
ATOM     40  H   LIG d   1      -3.311   2.130 -12.297  0.00  0.00     0.025 H 
ENDBRANCH  31  37
ENDBRANCH  28  31
ENDBRANCH   1  28
BRANCH   9  41
ATOM     41  N   LIG d   1      -8.190   5.544 -13.733  0.00  0.00    -0.328 N 
ATOM     42  H   LIG d   1      -9.063   5.875 -13.996  0.00  0.00     0.145 HD
ATOM     43  H   LIG d   1      -8.109   4.679 -13.302  0.00  0.00     0.145 HD
ENDBRANCH   9  41
TORSDOF 8
ENDMDL
MODEL 9
REMARK VINA RESULT:      -5.5      2.813      6.260
REMARK  8 active torsions:
REMARK  status: ('A' for Active; 'I' for Inactive)
REMARK    1  A    between atoms: C_1  and  C_2 
REMARK    2  A    between atoms: C_2  and  C_3 
REMARK    3  A    between atoms: C_2  and  S_4 
REMARK    4  A    between atoms: S_4  and  N_7 
REMARK    5  A    between atoms: C_10  and  C_17 
REMARK    6  A    between atoms: C_15  and  N_16 
REMARK    7  A    between atoms: C_17  and  C_20 
REMARK    8  A    between atoms: N_18  and  O_19 
ROOT
ATOM      1  N   LIG d   1       4.617  -4.120  -6.754  0.00  0.00    -0.183 N 
ATOM      2  C   LIG d   1       3.856  -3.968  -7.901  0.00  0.00     0.094 A 
ATOM      3  C   LIG d   1       3.293  -2.878  -8.541  0.00  0.00    -0.025 A 
ATOM      4  C   LIG d   1       2.563  -3.068  -9.713  0.00  0.00     0.006 A 
ATOM      5  C   LIG d   1       2.402  -4.355 -10.238  0.00  0.00    -0.050 A 
ATOM      6  C   LIG d   1       2.954  -5.433  -9.612  0.00  0.00    -0.034 A 
ATOM      7  C   LIG d   1       3.690  -5.259  -8.435  0.00  0.00     0.093 A 
ATOM      8  N   LIG d   1       4.341  -6.117  -7.609  0.00  0.00    -0.213 NA
ATOM      9  C   LIG d   1       4.891  -5.451  -6.624  0.00  0.00     0.214 A 
ATOM     10  H   LIG d   1       3.418  -1.886  -8.134  0.00  0.00     0.065 H 
ATOM     11  H   LIG d   1       1.835  -4.496 -11.147  0.00  0.00     0.062 H 
ATOM     12  H   LIG d   1       2.823  -6.423 -10.024  0.00  0.00     0.064 H 
ENDROOT
BRANCH   4  13
ATOM     13  C   LIG d   1       1.959  -1.907 -10.403  0.00  0.00     0.117 C 
ATOM     14  N   LIG d   1       0.911  -2.073 -11.159  0.00  0.00    -0.086 NA
BRANCH  14  15
ATOM     15  O   LIG d   1       0.410  -0.988 -11.920  0.00  0.00    -0.409 OA
ATOM     16  H   LIG d   1       0.289  -1.188 -12.859  0.00  0.00     0.328 HD
ENDBRANCH  14  15
BRANCH  13  17
ATOM     17  C   LIG d   1       2.547  -0.557 -10.234  0.00  0.00     0.004 A 
ATOM     18  C   LIG d   1       2.138   0.256  -9.177  0.00  0.00    -0.052 A 
ATOM     19  C   LIG d   1       2.693   1.509  -9.021  0.00  0.00    -0.061 A 
ATOM     20  H   LIG d   1       1.392  -0.096  -8.481  0.00  0.00     0.062 H 
ATOM     21  C   LIG d   1       3.644   1.964  -9.917  0.00  0.00    -0.062 A 
ATOM     22  H   LIG d   1       2.381   2.139  -8.200  0.00  0.00     0.062 H 
ATOM     23  C   LIG d   1       4.049   1.165 -10.970  0.00  0.00    -0.061 A 
ATOM     24  H   LIG d   1       4.072   2.949  -9.792  0.00  0.00     0.062 H 
ATOM     25  C   LIG d   1       3.506  -0.094 -11.133  0.00  0.00    -0.052 A 
ATOM     26  H   LIG d   1       4.792   1.525 -11.666  0.00  0.00     0.062 H 
ATOM     27  H   LIG d   1       3.823  -0.717 -11.956  0.00  0.00     0.062 H 
ENDBRANCH  13  17
ENDBRANCH   4  13
BRANCH   1  28
ATOM     28  S   LIG d   1       5.108  -2.912  -5.733  0.00  0.00     0.060 S 
ATOM     29  O   LIG d   1       6.527  -2.994  -5.731  0.00  0.00    -0.152 OA
ATOM     30  O   LIG d   1       4.368  -3.123  -4.538  0.00  0.00    -0.152 OA
BRANCH  28  31
ATOM     31  C   LIG d   1       4.572  -1.377  -6.537  0.00  0.00     0.093 C 
ATOM     32  H   LIG d   1       3.881  -1.613  -7.347  0.00  0.00     0.055 H 
BRANCH  31  33
ATOM     33  C   LIG d   1       3.871  -0.482  -5.512  0.00  0.00    -0.041 C 
ATOM     34  H   LIG d   1       2.860  -0.850  -5.341  0.00  0.00     0.025 H 
ATOM     35  H   LIG d   1       4.428  -0.499  -4.574  0.00  0.00     0.025 H 
ATOM     36  H   LIG d   1       3.828   0.539  -5.890  0.00  0.00     0.025 H 
ENDBRANCH  31  33
BRANCH  31  37
ATOM     37  C   LIG d   1       5.790  -0.645  -7.104  0.00  0.00    -0.041 C 
ATOM     38  H   LIG d   1       5.461   0.232  -7.662  0.00  0.00     0.025 H 
ATOM     39  H   LIG d   1       6.440  -0.332  -6.286  0.00  0.00     0.025 H 
ATOM     40  H   LIG d   1       6.338  -1.313  -7.768  0.00  0.00     0.025 H 
ENDBRANCH  31  37
ENDBRANCH  28  31
ENDBRANCH   1  28
BRANCH   9  41
ATOM     41  N   LIG d   1       5.633  -6.011  -5.607  0.00  0.00    -0.328 N 
ATOM     42  H   LIG d   1       5.813  -6.964  -5.606  0.00  0.00     0.145 HD
ATOM     43  H   LIG d   1       5.974  -5.453  -4.890  0.00  0.00     0.145 HD
ENDBRANCH   9  41
TORSDOF 8
ENDMDL
