MODEL 1
REMARK VINA RESULT:      -5.8      0.000      0.000
REMARK  9 active torsions:
REMARK  status: ('A' for Active; 'I' for Inactive)
REMARK    1  A    between atoms: C_1  and  C_2 
REMARK    2  A    between atoms: C_2  and  C_23 
REMARK    3  A    between atoms: C_3  and  C_4 
REMARK    4  A    between atoms: C_4  and  C_5 
REMARK    5  A    between atoms: C_7  and  C_9 
REMARK    6  A    between atoms: C_7  and  C_10 
REMARK    7  A    between atoms: C_10  and  O_22 
REMARK    8  A    between atoms: C_11  and  O_20 
REMARK    9  A    between atoms: O_20  and  C_21 
ROOT
ATOM      1  C   LIG d   1       4.243  -0.903  -4.693  0.00  0.00     0.161 C 
ATOM      2  C   LIG d   1       4.759   0.267  -3.846  0.00  0.00     0.150 C 
ATOM      3  H   LIG d   1       4.457   1.130  -4.251  0.00  0.00     0.071 H 
ATOM      4  C   LIG d   1       4.205   0.131  -2.446  0.00  0.00     0.165 C 
ATOM      5  O   LIG d   1       3.592   1.038  -1.937  0.00  0.00    -0.294 OA
ATOM      6  C   LIG d   1       4.432  -1.161  -1.695  0.00  0.00     0.011 C 
ATOM      7  C   LIG d   1       3.918  -2.324  -2.553  0.00  0.00    -0.012 C 
ATOM      8  C   LIG d   1       4.524  -2.213  -3.954  0.00  0.00     0.127 A 
ATOM      9  C   LIG d   1       4.639  -3.490  -4.785  0.00  0.00     0.081 A 
ATOM     10  O   LIG d   1       5.777  -2.858  -4.191  0.00  0.00    -0.365 OA
ATOM     11  H   LIG d   1       5.410  -1.276  -1.517  0.00  0.00     0.034 H 
ATOM     12  H   LIG d   1       3.892  -1.134  -0.749  0.00  0.00     0.034 H 
ATOM     13  H   LIG d   1       2.831  -2.273  -2.620  0.00  0.00     0.030 H 
ATOM     14  H   LIG d   1       4.213  -3.270  -2.101  0.00  0.00     0.030 H 
ATOM     15  H   LIG d   1       4.517  -3.407  -5.864  0.00  0.00     0.059 H 
ATOM     16  H   LIG d   1       4.285  -4.420  -4.338  0.00  0.00     0.059 H 
ENDROOT
BRANCH   1  17
ATOM     17  C   LIG d   1       4.957  -0.914  -6.046  0.00  0.00     0.128 A 
ATOM     18  C   LIG d   1       4.330  -0.116  -7.190  0.00  0.00     0.095 A 
ATOM     19  H   LIG d   1       3.405   0.423  -6.987  0.00  0.00     0.063 H 
ATOM     20  O   LIG d   1       4.295  -1.545  -7.144  0.00  0.00    -0.362 OA
BRANCH  18  21
ATOM     21  C   LIG d   1       5.272   0.542  -8.201  0.00  0.00    -0.005 C 
ATOM     22  H   LIG d   1       5.145   1.623  -8.165  0.00  0.00     0.033 H 
ATOM     23  H   LIG d   1       6.303   0.289  -7.954  0.00  0.00     0.033 H 
BRANCH  21  24
ATOM     24  C   LIG d   1       4.949   0.044  -9.586  0.00  0.00    -0.083 C 
ATOM     25  C   LIG d   1       4.258   0.795 -10.407  0.00  0.00    -0.080 C 
ATOM     26  H   LIG d   1       5.287  -0.932  -9.902  0.00  0.00     0.057 H 
BRANCH  25  27
ATOM     27  C   LIG d   1       3.802   2.165  -9.974  0.00  0.00    -0.044 C 
ATOM     28  H   LIG d   1       4.154   2.362  -8.962  0.00  0.00     0.027 H 
ATOM     29  H   LIG d   1       4.207   2.914 -10.654  0.00  0.00     0.027 H 
ATOM     30  H   LIG d   1       2.713   2.208  -9.994  0.00  0.00     0.027 H 
ENDBRANCH  25  27
BRANCH  25  31
ATOM     31  C   LIG d   1       3.918   0.290 -11.786  0.00  0.00    -0.044 C 
ATOM     32  H   LIG d   1       4.265  -0.738 -11.891  0.00  0.00     0.027 H 
ATOM     33  H   LIG d   1       2.838   0.326 -11.931  0.00  0.00     0.027 H 
ATOM     34  H   LIG d   1       4.407   0.916 -12.533  0.00  0.00     0.027 H 
ENDBRANCH  25  31
ENDBRANCH  21  24
ENDBRANCH  18  21
BRANCH  17  35
ATOM     35  C   LIG d   1       6.484  -1.000  -5.989  0.00  0.00    -0.030 C 
ATOM     36  H   LIG d   1       6.913  -0.035  -6.255  0.00  0.00     0.026 H 
ATOM     37  H   LIG d   1       6.796  -1.270  -4.981  0.00  0.00     0.026 H 
ATOM     38  H   LIG d   1       6.831  -1.758  -6.692  0.00  0.00     0.026 H 
ENDBRANCH  17  35
ENDBRANCH   1  17
BRANCH   1  39
ATOM     39  O   LIG d   1       2.835  -0.761  -4.897  0.00  0.00    -0.380 OA
ATOM     40  H   LIG d   1       2.300  -1.392  -4.396  0.00  0.00     0.210 HD
ENDBRANCH   1  39
BRANCH   2  41
ATOM     41  O   LIG d   1       6.187   0.234  -3.802  0.00  0.00    -0.369 OA
BRANCH  41  42
ATOM     42  C   LIG d   1       6.786   1.479  -3.437  0.00  0.00     0.037 C 
ATOM     43  H   LIG d   1       6.040   2.114  -2.959  0.00  0.00     0.052 H 
ATOM     44  H   LIG d   1       7.607   1.297  -2.743  0.00  0.00     0.052 H 
ATOM     45  H   LIG d   1       7.168   1.974  -4.329  0.00  0.00     0.052 H 
ENDBRANCH  41  42
ENDBRANCH   2  41
TORSDOF 9
ENDMDL
MODEL 2
REMARK VINA RESULT:      -5.5      2.700      5.809
REMARK  9 active torsions:
REMARK  status: ('A' for Active; 'I' for Inactive)
REMARK    1  A    between atoms: C_1  and  C_2 
REMARK    2  A    between atoms: C_2  and  C_23 
REMARK    3  A    between atoms: C_3  and  C_4 
REMARK    4  A    between atoms: C_4  and  C_5 
REMARK    5  A    between atoms: C_7  and  C_9 
REMARK    6  A    between atoms: C_7  and  C_10 
REMARK    7  A    between atoms: C_10  and  O_22 
REMARK    8  A    between atoms: C_11  and  O_20 
REMARK    9  A    between atoms: O_20  and  C_21 
ROOT
ATOM      1  C   LIG d   1       4.467  -1.038  -4.692  0.00  0.00     0.161 C 
ATOM      2  C   LIG d   1       4.814  -0.798  -6.166  0.00  0.00     0.150 C 
ATOM      3  H   LIG d   1       5.226  -1.624  -6.551  0.00  0.00     0.071 H 
ATOM      4  C   LIG d   1       3.543  -0.460  -6.912  0.00  0.00     0.165 C 
ATOM      5  O   LIG d   1       3.218  -1.091  -7.889  0.00  0.00    -0.294 OA
ATOM      6  C   LIG d   1       2.686   0.681  -6.413  0.00  0.00     0.011 C 
ATOM      7  C   LIG d   1       2.351   0.433  -4.937  0.00  0.00    -0.012 C 
ATOM      8  C   LIG d   1       3.646   0.145  -4.175  0.00  0.00     0.127 A 
ATOM      9  C   LIG d   1       3.669   0.428  -2.674  0.00  0.00     0.081 A 
ATOM     10  O   LIG d   1       4.353   1.256  -3.618  0.00  0.00    -0.365 OA
ATOM     11  H   LIG d   1       3.188   1.541  -6.508  0.00  0.00     0.034 H 
ATOM     12  H   LIG d   1       1.767   0.731  -6.997  0.00  0.00     0.034 H 
ATOM     13  H   LIG d   1       1.681  -0.423  -4.855  0.00  0.00     0.030 H 
ATOM     14  H   LIG d   1       1.869   1.317  -4.519  0.00  0.00     0.030 H 
ATOM     15  H   LIG d   1       4.269  -0.226  -2.043  0.00  0.00     0.059 H 
ATOM     16  H   LIG d   1       2.760   0.823  -2.217  0.00  0.00     0.059 H 
ENDROOT
BRANCH   1  17
ATOM     17  C   LIG d   1       5.754  -1.165  -3.874  0.00  0.00     0.128 A 
ATOM     18  C   LIG d   1       6.412  -2.543  -3.790  0.00  0.00     0.095 A 
ATOM     19  H   LIG d   1       5.933  -3.369  -4.317  0.00  0.00     0.063 H 
ATOM     20  O   LIG d   1       5.713  -1.960  -2.687  0.00  0.00    -0.362 OA
BRANCH  18  21
ATOM     21  C   LIG d   1       7.939  -2.601  -3.717  0.00  0.00    -0.005 C 
ATOM     22  H   LIG d   1       8.363  -1.818  -4.345  0.00  0.00     0.033 H 
ATOM     23  H   LIG d   1       8.259  -2.452  -2.686  0.00  0.00     0.033 H 
BRANCH  21  24
ATOM     24  C   LIG d   1       8.415  -3.947  -4.200  0.00  0.00    -0.083 C 
ATOM     25  C   LIG d   1       9.168  -4.691  -3.429  0.00  0.00    -0.080 C 
ATOM     26  H   LIG d   1       8.135  -4.298  -5.182  0.00  0.00     0.057 H 
BRANCH  25  27
ATOM     27  C   LIG d   1       9.543  -4.210  -2.050  0.00  0.00    -0.044 C 
ATOM     28  H   LIG d   1       9.403  -3.132  -1.990  0.00  0.00     0.027 H 
ATOM     29  H   LIG d   1       8.911  -4.702  -1.310  0.00  0.00     0.027 H 
ATOM     30  H   LIG d   1      10.587  -4.452  -1.853  0.00  0.00     0.027 H 
ENDBRANCH  25  27
BRANCH  25  31
ATOM     31  C   LIG d   1       9.660  -6.029  -3.919  0.00  0.00    -0.044 C 
ATOM     32  H   LIG d   1      10.300  -5.883  -4.789  0.00  0.00     0.027 H 
ATOM     33  H   LIG d   1      10.227  -6.520  -3.128  0.00  0.00     0.027 H 
ATOM     34  H   LIG d   1       8.807  -6.650  -4.196  0.00  0.00     0.027 H 
ENDBRANCH  25  31
ENDBRANCH  21  24
ENDBRANCH  18  21
BRANCH  17  35
ATOM     35  C   LIG d   1       6.667   0.062  -3.880  0.00  0.00    -0.030 C 
ATOM     36  H   LIG d   1       7.658  -0.223  -4.231  0.00  0.00     0.026 H 
ATOM     37  H   LIG d   1       6.252   0.821  -4.542  0.00  0.00     0.026 H 
ATOM     38  H   LIG d   1       6.742   0.463  -2.869  0.00  0.00     0.026 H 
ENDBRANCH  17  35
ENDBRANCH   1  17
BRANCH   1  39
ATOM     39  O   LIG d   1       3.702  -2.240  -4.570  0.00  0.00    -0.380 OA
ATOM     40  H   LIG d   1       3.082  -2.237  -3.829  0.00  0.00     0.210 HD
ENDBRANCH   1  39
BRANCH   2  41
ATOM     41  O   LIG d   1       5.735   0.290  -6.271  0.00  0.00    -0.369 OA
BRANCH  41  42
ATOM     42  C   LIG d   1       6.456   0.323  -7.504  0.00  0.00     0.037 C 
ATOM     43  H   LIG d   1       5.752   0.300  -8.337  0.00  0.00     0.052 H 
ATOM     44  H   LIG d   1       7.047   1.238  -7.554  0.00  0.00     0.052 H 
ATOM     45  H   LIG d   1       7.118  -0.540  -7.562  0.00  0.00     0.052 H 
ENDBRANCH  41  42
ENDBRANCH   2  41
TORSDOF 9
ENDMDL
MODEL 3
REMARK VINA RESULT:      -5.3      1.961      5.612
REMARK  9 active torsions:
REMARK  status: ('A' for Active; 'I' for Inactive)
REMARK    1  A    between atoms: C_1  and  C_2 
REMARK    2  A    between atoms: C_2  and  C_23 
REMARK    3  A    between atoms: C_3  and  C_4 
REMARK    4  A    between atoms: C_4  and  C_5 
REMARK    5  A    between atoms: C_7  and  C_9 
REMARK    6  A    between atoms: C_7  and  C_10 
REMARK    7  A    between atoms: C_10  and  O_22 
REMARK    8  A    between atoms: C_11  and  O_20 
REMARK    9  A    between atoms: O_20  and  C_21 
ROOT
ATOM      1  C   LIG d   1       4.889  -0.444  -7.628  0.00  0.00     0.161 C 
ATOM      2  C   LIG d   1       3.841   0.501  -7.029  0.00  0.00     0.150 C 
ATOM      3  H   LIG d   1       4.299   1.207  -6.488  0.00  0.00     0.071 H 
ATOM      4  C   LIG d   1       3.064   1.139  -8.158  0.00  0.00     0.165 C 
ATOM      5  O   LIG d   1       2.978   2.340  -8.244  0.00  0.00    -0.294 OA
ATOM      6  C   LIG d   1       2.398   0.245  -9.180  0.00  0.00     0.011 C 
ATOM      7  C   LIG d   1       3.454  -0.700  -9.767  0.00  0.00    -0.012 C 
ATOM      8  C   LIG d   1       4.202  -1.384  -8.621  0.00  0.00     0.127 A 
ATOM      9  C   LIG d   1       4.863  -2.732  -8.904  0.00  0.00     0.081 A 
ATOM     10  O   LIG d   1       3.673  -2.614  -8.120  0.00  0.00    -0.365 OA
ATOM     11  H   LIG d   1       1.675  -0.286  -8.737  0.00  0.00     0.034 H 
ATOM     12  H   LIG d   1       1.967   0.855  -9.973  0.00  0.00     0.034 H 
ATOM     13  H   LIG d   1       4.157  -0.128 -10.372  0.00  0.00     0.030 H 
ATOM     14  H   LIG d   1       2.966  -1.453 -10.387  0.00  0.00     0.030 H 
ATOM     15  H   LIG d   1       5.793  -2.960  -8.384  0.00  0.00     0.059 H 
ATOM     16  H   LIG d   1       4.769  -3.142  -9.910  0.00  0.00     0.059 H 
ENDROOT
BRANCH   1  17
ATOM     17  C   LIG d   1       5.540  -1.265  -6.512  0.00  0.00     0.128 A 
ATOM     18  C   LIG d   1       6.554  -0.562  -5.609  0.00  0.00     0.095 A 
ATOM     19  H   LIG d   1       6.763   0.491  -5.801  0.00  0.00     0.063 H 
ATOM     20  O   LIG d   1       6.945  -1.514  -6.601  0.00  0.00    -0.362 OA
BRANCH  18  21
ATOM     21  C   LIG d   1       6.620  -0.992  -4.142  0.00  0.00    -0.005 C 
ATOM     22  H   LIG d   1       6.033  -1.900  -4.003  0.00  0.00     0.033 H 
ATOM     23  H   LIG d   1       7.657  -1.185  -3.867  0.00  0.00     0.033 H 
BRANCH  21  24
ATOM     24  C   LIG d   1       6.064   0.105  -3.271  0.00  0.00    -0.083 C 
ATOM     25  C   LIG d   1       5.103  -0.159  -2.420  0.00  0.00    -0.080 C 
ATOM     26  H   LIG d   1       6.457   1.107  -3.347  0.00  0.00     0.057 H 
BRANCH  25  27
ATOM     27  C   LIG d   1       4.567  -1.562  -2.299  0.00  0.00    -0.044 C 
ATOM     28  H   LIG d   1       4.856  -1.981  -1.336  0.00  0.00     0.027 H 
ATOM     29  H   LIG d   1       3.479  -1.543  -2.375  0.00  0.00     0.027 H 
ATOM     30  H   LIG d   1       4.976  -2.178  -3.100  0.00  0.00     0.027 H 
ENDBRANCH  25  27
BRANCH  25  31
ATOM     31  C   LIG d   1       4.533   0.941  -1.562  0.00  0.00    -0.044 C 
ATOM     32  H   LIG d   1       5.301   1.300  -0.876  0.00  0.00     0.027 H 
ATOM     33  H   LIG d   1       4.200   1.762  -2.197  0.00  0.00     0.027 H 
ATOM     34  H   LIG d   1       3.688   0.556  -0.991  0.00  0.00     0.027 H 
ENDBRANCH  25  31
ENDBRANCH  21  24
ENDBRANCH  18  21
BRANCH  17  35
ATOM     35  C   LIG d   1       4.661  -2.351  -5.889  0.00  0.00    -0.030 C 
ATOM     36  H   LIG d   1       4.709  -2.279  -4.803  0.00  0.00     0.026 H 
ATOM     37  H   LIG d   1       3.631  -2.218  -6.217  0.00  0.00     0.026 H 
ATOM     38  H   LIG d   1       5.019  -3.332  -6.204  0.00  0.00     0.026 H 
ENDBRANCH  17  35
ENDBRANCH   1  17
BRANCH   1  39
ATOM     39  O   LIG d   1       5.890   0.319  -8.306  0.00  0.00    -0.380 OA
ATOM     40  H   LIG d   1       5.901   1.255  -8.064  0.00  0.00     0.210 HD
ENDBRANCH   1  39
BRANCH   2  41
ATOM     41  O   LIG d   1       2.950  -0.239  -6.192  0.00  0.00    -0.369 OA
BRANCH  41  42
ATOM     42  C   LIG d   1       2.510   0.477  -5.036  0.00  0.00     0.037 C 
ATOM     43  H   LIG d   1       1.784  -0.126  -4.491  0.00  0.00     0.052 H 
ATOM     44  H   LIG d   1       3.364   0.688  -4.392  0.00  0.00     0.052 H 
ATOM     45  H   LIG d   1       2.047   1.415  -5.343  0.00  0.00     0.052 H 
ENDBRANCH  41  42
ENDBRANCH   2  41
TORSDOF 9
ENDMDL
MODEL 4
REMARK VINA RESULT:      -5.0      2.352      6.723
REMARK  9 active torsions:
REMARK  status: ('A' for Active; 'I' for Inactive)
REMARK    1  A    between atoms: C_1  and  C_2 
REMARK    2  A    between atoms: C_2  and  C_23 
REMARK    3  A    between atoms: C_3  and  C_4 
REMARK    4  A    between atoms: C_4  and  C_5 
REMARK    5  A    between atoms: C_7  and  C_9 
REMARK    6  A    between atoms: C_7  and  C_10 
REMARK    7  A    between atoms: C_10  and  O_22 
REMARK    8  A    between atoms: C_11  and  O_20 
REMARK    9  A    between atoms: O_20  and  C_21 
ROOT
ATOM      1  C   LIG d   1       3.322  -0.847  -8.699  0.00  0.00     0.161 C 
ATOM      2  C   LIG d   1       3.098  -2.339  -8.975  0.00  0.00     0.150 C 
ATOM      3  H   LIG d   1       2.631  -2.755  -8.194  0.00  0.00     0.071 H 
ATOM      4  C   LIG d   1       2.250  -2.478 -10.218  0.00  0.00     0.165 C 
ATOM      5  O   LIG d   1       1.225  -3.117 -10.195  0.00  0.00    -0.294 OA
ATOM      6  C   LIG d   1       2.706  -1.803 -11.491  0.00  0.00     0.011 C 
ATOM      7  C   LIG d   1       2.933  -0.314 -11.203  0.00  0.00    -0.012 C 
ATOM      8  C   LIG d   1       3.837  -0.177  -9.976  0.00  0.00     0.127 A 
ATOM      9  C   LIG d   1       4.653   1.106  -9.830  0.00  0.00     0.081 A 
ATOM     10  O   LIG d   1       5.250  -0.143 -10.189  0.00  0.00    -0.365 OA
ATOM     11  H   LIG d   1       3.559  -2.223 -11.804  0.00  0.00     0.034 H 
ATOM     12  H   LIG d   1       1.942  -1.918 -12.260  0.00  0.00     0.034 H 
ATOM     13  H   LIG d   1       1.975   0.168 -11.007  0.00  0.00     0.030 H 
ATOM     14  H   LIG d   1       3.410   0.156 -12.063  0.00  0.00     0.030 H 
ATOM     15  H   LIG d   1       4.831   1.482  -8.823  0.00  0.00     0.059 H 
ATOM     16  H   LIG d   1       4.553   1.863 -10.608  0.00  0.00     0.059 H 
ENDROOT
BRANCH   1  17
ATOM     17  C   LIG d   1       4.353  -0.679  -7.581  0.00  0.00     0.128 A 
ATOM     18  C   LIG d   1       3.834  -0.523  -6.151  0.00  0.00     0.095 A 
ATOM     19  H   LIG d   1       2.755  -0.541  -5.996  0.00  0.00     0.063 H 
ATOM     20  O   LIG d   1       4.385   0.571  -6.888  0.00  0.00    -0.362 OA
BRANCH  18  21
ATOM     21  C   LIG d   1       4.675  -1.117  -5.019  0.00  0.00    -0.005 C 
ATOM     22  H   LIG d   1       4.172  -1.995  -4.615  0.00  0.00     0.033 H 
ATOM     23  H   LIG d   1       5.652  -1.404  -5.405  0.00  0.00     0.033 H 
BRANCH  21  24
ATOM     24  C   LIG d   1       4.847  -0.090  -3.929  0.00  0.00    -0.083 C 
ATOM     25  C   LIG d   1       4.447  -0.356  -2.710  0.00  0.00    -0.080 C 
ATOM     26  H   LIG d   1       5.299   0.864  -4.152  0.00  0.00     0.057 H 
BRANCH  25  27
ATOM     27  C   LIG d   1       3.833  -1.696  -2.393  0.00  0.00    -0.044 C 
ATOM     28  H   LIG d   1       3.505  -1.709  -1.355  0.00  0.00     0.027 H 
ATOM     29  H   LIG d   1       2.978  -1.867  -3.048  0.00  0.00     0.027 H 
ATOM     30  H   LIG d   1       4.573  -2.480  -2.550  0.00  0.00     0.027 H 
ENDBRANCH  25  27
BRANCH  25  31
ATOM     31  C   LIG d   1       4.601   0.677  -1.624  0.00  0.00    -0.044 C 
ATOM     32  H   LIG d   1       3.788   0.571  -0.904  0.00  0.00     0.027 H 
ATOM     33  H   LIG d   1       5.556   0.534  -1.118  0.00  0.00     0.027 H 
ATOM     34  H   LIG d   1       4.568   1.674  -2.064  0.00  0.00     0.027 H 
ENDBRANCH  25  31
ENDBRANCH  21  24
ENDBRANCH  18  21
BRANCH  17  35
ATOM     35  C   LIG d   1       5.677  -1.417  -7.783  0.00  0.00    -0.030 C 
ATOM     36  H   LIG d   1       5.584  -2.439  -7.417  0.00  0.00     0.026 H 
ATOM     37  H   LIG d   1       5.927  -1.433  -8.844  0.00  0.00     0.026 H 
ATOM     38  H   LIG d   1       6.466  -0.905  -7.232  0.00  0.00     0.026 H 
ENDBRANCH  17  35
ENDBRANCH   1  17
BRANCH   1  39
ATOM     39  O   LIG d   1       2.088  -0.242  -8.307  0.00  0.00    -0.380 OA
ATOM     40  H   LIG d   1       2.074   0.064  -7.390  0.00  0.00     0.210 HD
ENDBRANCH   1  39
BRANCH   2  41
ATOM     41  O   LIG d   1       4.357  -2.983  -9.178  0.00  0.00    -0.369 OA
BRANCH  41  42
ATOM     42  C   LIG d   1       4.285  -4.410  -9.185  0.00  0.00     0.037 C 
ATOM     43  H   LIG d   1       5.141  -4.815  -9.725  0.00  0.00     0.052 H 
ATOM     44  H   LIG d   1       4.295  -4.779  -8.159  0.00  0.00     0.052 H 
ATOM     45  H   LIG d   1       3.364  -4.726  -9.674  0.00  0.00     0.052 H 
ENDBRANCH  41  42
ENDBRANCH   2  41
TORSDOF 9
ENDMDL
MODEL 5
REMARK VINA RESULT:      -5.0      2.362      3.779
REMARK  9 active torsions:
REMARK  status: ('A' for Active; 'I' for Inactive)
REMARK    1  A    between atoms: C_1  and  C_2 
REMARK    2  A    between atoms: C_2  and  C_23 
REMARK    3  A    between atoms: C_3  and  C_4 
REMARK    4  A    between atoms: C_4  and  C_5 
REMARK    5  A    between atoms: C_7  and  C_9 
REMARK    6  A    between atoms: C_7  and  C_10 
REMARK    7  A    between atoms: C_10  and  O_22 
REMARK    8  A    between atoms: C_11  and  O_20 
REMARK    9  A    between atoms: O_20  and  C_21 
ROOT
ATOM      1  C   LIG d   1       5.438  -0.847  -4.076  0.00  0.00     0.161 C 
ATOM      2  C   LIG d   1       3.980  -0.649  -4.509  0.00  0.00     0.150 C 
ATOM      3  H   LIG d   1       3.594  -1.527  -4.792  0.00  0.00     0.071 H 
ATOM      4  C   LIG d   1       3.199  -0.094  -3.339  0.00  0.00     0.165 C 
ATOM      5  O   LIG d   1       2.201  -0.649  -2.947  0.00  0.00    -0.294 OA
ATOM      6  C   LIG d   1       3.692   1.168  -2.668  0.00  0.00     0.011 C 
ATOM      7  C   LIG d   1       5.151   0.961  -2.245  0.00  0.00    -0.012 C 
ATOM      8  C   LIG d   1       5.949   0.451  -3.446  0.00  0.00     0.127 A 
ATOM      9  C   LIG d   1       7.456   0.707  -3.464  0.00  0.00     0.081 A 
ATOM     10  O   LIG d   1       6.549   1.420  -4.309  0.00  0.00    -0.365 OA
ATOM     11  H   LIG d   1       3.629   1.933  -3.309  0.00  0.00     0.034 H 
ATOM     12  H   LIG d   1       3.079   1.378  -1.791  0.00  0.00     0.034 H 
ATOM     13  H   LIG d   1       5.196   0.228  -1.439  0.00  0.00     0.030 H 
ATOM     14  H   LIG d   1       5.570   1.907  -1.903  0.00  0.00     0.030 H 
ATOM     15  H   LIG d   1       8.093  -0.046  -3.925  0.00  0.00     0.059 H 
ATOM     16  H   LIG d   1       7.889   1.243  -2.618  0.00  0.00     0.059 H 
ENDROOT
BRANCH   1  17
ATOM     17  C   LIG d   1       6.294  -1.198  -5.295  0.00  0.00     0.128 A 
ATOM     18  C   LIG d   1       6.443  -2.675  -5.659  0.00  0.00     0.095 A 
ATOM     19  H   LIG d   1       5.932  -3.408  -5.034  0.00  0.00     0.063 H 
ATOM     20  O   LIG d   1       7.506  -1.921  -5.071  0.00  0.00    -0.362 OA
BRANCH  18  21
ATOM     21  C   LIG d   1       6.560  -3.036  -7.142  0.00  0.00    -0.005 C 
ATOM     22  H   LIG d   1       6.263  -2.181  -7.748  0.00  0.00     0.033 H 
ATOM     23  H   LIG d   1       7.592  -3.301  -7.370  0.00  0.00     0.033 H 
BRANCH  21  24
ATOM     24  C   LIG d   1       5.660  -4.205  -7.446  0.00  0.00    -0.083 C 
ATOM     25  C   LIG d   1       4.476  -4.001  -7.970  0.00  0.00    -0.080 C 
ATOM     26  H   LIG d   1       5.990  -5.211  -7.234  0.00  0.00     0.057 H 
BRANCH  25  27
ATOM     27  C   LIG d   1       4.023  -2.599  -8.286  0.00  0.00    -0.044 C 
ATOM     28  H   LIG d   1       3.114  -2.376  -7.728  0.00  0.00     0.027 H 
ATOM     29  H   LIG d   1       4.805  -1.893  -8.006  0.00  0.00     0.027 H 
ATOM     30  H   LIG d   1       3.823  -2.514  -9.354  0.00  0.00     0.027 H 
ENDBRANCH  25  27
BRANCH  25  31
ATOM     31  C   LIG d   1       3.568  -5.169  -8.258  0.00  0.00    -0.044 C 
ATOM     32  H   LIG d   1       4.046  -6.091  -7.925  0.00  0.00     0.027 H 
ATOM     33  H   LIG d   1       2.625  -5.036  -7.726  0.00  0.00     0.027 H 
ATOM     34  H   LIG d   1       3.377  -5.226  -9.330  0.00  0.00     0.027 H 
ENDBRANCH  25  31
ENDBRANCH  21  24
ENDBRANCH  18  21
BRANCH  17  35
ATOM     35  C   LIG d   1       6.271  -0.180  -6.437  0.00  0.00    -0.030 C 
ATOM     36  H   LIG d   1       6.833   0.706  -6.146  0.00  0.00     0.026 H 
ATOM     37  H   LIG d   1       6.722  -0.620  -7.325  0.00  0.00     0.026 H 
ATOM     38  H   LIG d   1       5.240   0.100  -6.653  0.00  0.00     0.026 H 
ENDBRANCH  17  35
ENDBRANCH   1  17
BRANCH   1  39
ATOM     39  O   LIG d   1       5.513  -1.905  -3.118  0.00  0.00    -0.380 OA
ATOM     40  H   LIG d   1       6.044  -1.693  -2.339  0.00  0.00     0.210 HD
ENDBRANCH   1  39
BRANCH   2  41
ATOM     41  O   LIG d   1       3.925   0.270  -5.602  0.00  0.00    -0.369 OA
BRANCH  41  42
ATOM     42  C   LIG d   1       2.678   0.268  -6.300  0.00  0.00     0.037 C 
ATOM     43  H   LIG d   1       2.184  -0.693  -6.158  0.00  0.00     0.052 H 
ATOM     44  H   LIG d   1       2.043   1.065  -5.912  0.00  0.00     0.052 H 
ATOM     45  H   LIG d   1       2.856   0.433  -7.363  0.00  0.00     0.052 H 
ENDBRANCH  41  42
ENDBRANCH   2  41
TORSDOF 9
ENDMDL
MODEL 6
REMARK VINA RESULT:      -4.9      1.744      2.683
REMARK  9 active torsions:
REMARK  status: ('A' for Active; 'I' for Inactive)
REMARK    1  A    between atoms: C_1  and  C_2 
REMARK    2  A    between atoms: C_2  and  C_23 
REMARK    3  A    between atoms: C_3  and  C_4 
REMARK    4  A    between atoms: C_4  and  C_5 
REMARK    5  A    between atoms: C_7  and  C_9 
REMARK    6  A    between atoms: C_7  and  C_10 
REMARK    7  A    between atoms: C_10  and  O_22 
REMARK    8  A    between atoms: C_11  and  O_20 
REMARK    9  A    between atoms: O_20  and  C_21 
ROOT
ATOM      1  C   LIG d   1       4.709  -0.979  -4.827  0.00  0.00     0.161 C 
ATOM      2  C   LIG d   1       5.234   0.207  -4.009  0.00  0.00     0.150 C 
ATOM      3  H   LIG d   1       5.094   1.054  -4.523  0.00  0.00     0.071 H 
ATOM      4  C   LIG d   1       4.476   0.266  -2.702  0.00  0.00     0.165 C 
ATOM      5  O   LIG d   1       3.908   1.276  -2.366  0.00  0.00    -0.294 OA
ATOM      6  C   LIG d   1       4.443  -0.965  -1.824  0.00  0.00     0.011 C 
ATOM      7  C   LIG d   1       3.922  -2.145  -2.654  0.00  0.00    -0.012 C 
ATOM      8  C   LIG d   1       4.727  -2.234  -3.951  0.00  0.00     0.127 A 
ATOM      9  C   LIG d   1       4.809  -3.590  -4.650  0.00  0.00     0.081 A 
ATOM     10  O   LIG d   1       5.917  -3.026  -3.945  0.00  0.00    -0.365 OA
ATOM     11  H   LIG d   1       5.365  -1.163  -1.492  0.00  0.00     0.034 H 
ATOM     12  H   LIG d   1       3.781  -0.790  -0.975  0.00  0.00     0.034 H 
ATOM     13  H   LIG d   1       2.869  -1.989  -2.887  0.00  0.00     0.030 H 
ATOM     14  H   LIG d   1       4.038  -3.069  -2.087  0.00  0.00     0.030 H 
ATOM     15  H   LIG d   1       4.850  -3.599  -5.738  0.00  0.00     0.059 H 
ATOM     16  H   LIG d   1       4.289  -4.431  -4.188  0.00  0.00     0.059 H 
ENDROOT
BRANCH   1  17
ATOM     17  C   LIG d   1       5.600  -1.195  -6.052  0.00  0.00     0.128 A 
ATOM     18  C   LIG d   1       5.485  -0.195  -7.203  0.00  0.00     0.095 A 
ATOM     19  H   LIG d   1       4.774   0.625  -7.095  0.00  0.00     0.063 H 
ATOM     20  O   LIG d   1       4.964  -1.524  -7.289  0.00  0.00    -0.362 OA
BRANCH  18  21
ATOM     21  C   LIG d   1       6.752   0.127  -7.997  0.00  0.00    -0.005 C 
ATOM     22  H   LIG d   1       7.483  -0.669  -7.854  0.00  0.00     0.033 H 
ATOM     23  H   LIG d   1       6.506   0.209  -9.055  0.00  0.00     0.033 H 
BRANCH  21  24
ATOM     24  C   LIG d   1       7.330   1.432  -7.513  0.00  0.00    -0.083 C 
ATOM     25  C   LIG d   1       8.612   1.525  -7.254  0.00  0.00    -0.080 C 
ATOM     26  H   LIG d   1       6.690   2.291  -7.378  0.00  0.00     0.057 H 
BRANCH  25  27
ATOM     27  C   LIG d   1       9.511   0.333  -7.460  0.00  0.00    -0.044 C 
ATOM     28  H   LIG d   1       9.052  -0.350  -8.173  0.00  0.00     0.027 H 
ATOM     29  H   LIG d   1      10.474   0.667  -7.845  0.00  0.00     0.027 H 
ATOM     30  H   LIG d   1       9.658  -0.179  -6.509  0.00  0.00     0.027 H 
ENDBRANCH  25  27
BRANCH  25  31
ATOM     31  C   LIG d   1       9.187   2.824  -6.751  0.00  0.00    -0.044 C 
ATOM     32  H   LIG d   1       8.785   3.650  -7.338  0.00  0.00     0.027 H 
ATOM     33  H   LIG d   1       8.920   2.959  -5.703  0.00  0.00     0.027 H 
ATOM     34  H   LIG d   1      10.273   2.803  -6.851  0.00  0.00     0.027 H 
ENDBRANCH  25  31
ENDBRANCH  21  24
ENDBRANCH  18  21
BRANCH  17  35
ATOM     35  C   LIG d   1       6.975  -1.806  -5.772  0.00  0.00    -0.030 C 
ATOM     36  H   LIG d   1       6.927  -2.886  -5.903  0.00  0.00     0.026 H 
ATOM     37  H   LIG d   1       7.706  -1.388  -6.464  0.00  0.00     0.026 H 
ATOM     38  H   LIG d   1       7.272  -1.577  -4.749  0.00  0.00     0.026 H 
ENDBRANCH  17  35
ENDBRANCH   1  17
BRANCH   1  39
ATOM     39  O   LIG d   1       3.370  -0.712  -5.251  0.00  0.00    -0.380 OA
ATOM     40  H   LIG d   1       2.784  -0.419  -4.541  0.00  0.00     0.210 HD
ENDBRANCH   1  39
BRANCH   2  41
ATOM     41  O   LIG d   1       6.628   0.030  -3.748  0.00  0.00    -0.369 OA
BRANCH  41  42
ATOM     42  C   LIG d   1       7.372   1.250  -3.716  0.00  0.00     0.037 C 
ATOM     43  H   LIG d   1       6.934   1.960  -4.418  0.00  0.00     0.052 H 
ATOM     44  H   LIG d   1       7.342   1.667  -2.710  0.00  0.00     0.052 H 
ATOM     45  H   LIG d   1       8.406   1.052  -3.996  0.00  0.00     0.052 H 
ENDBRANCH  41  42
ENDBRANCH   2  41
TORSDOF 9
ENDMDL
MODEL 7
REMARK VINA RESULT:      -4.8      1.718      2.380
REMARK  9 active torsions:
REMARK  status: ('A' for Active; 'I' for Inactive)
REMARK    1  A    between atoms: C_1  and  C_2 
REMARK    2  A    between atoms: C_2  and  C_23 
REMARK    3  A    between atoms: C_3  and  C_4 
REMARK    4  A    between atoms: C_4  and  C_5 
REMARK    5  A    between atoms: C_7  and  C_9 
REMARK    6  A    between atoms: C_7  and  C_10 
REMARK    7  A    between atoms: C_10  and  O_22 
REMARK    8  A    between atoms: C_11  and  O_20 
REMARK    9  A    between atoms: O_20  and  C_21 
ROOT
ATOM      1  C   LIG d   1       4.725  -1.875  -5.862  0.00  0.00     0.161 C 
ATOM      2  C   LIG d   1       3.862  -1.163  -4.813  0.00  0.00     0.150 C 
ATOM      3  H   LIG d   1       2.895  -1.313  -5.019  0.00  0.00     0.071 H 
ATOM      4  C   LIG d   1       4.192  -1.731  -3.451  0.00  0.00     0.165 C 
ATOM      5  O   LIG d   1       3.322  -2.178  -2.743  0.00  0.00    -0.294 OA
ATOM      6  C   LIG d   1       5.633  -1.729  -2.991  0.00  0.00     0.011 C 
ATOM      7  C   LIG d   1       6.486  -2.437  -4.050  0.00  0.00    -0.012 C 
ATOM      8  C   LIG d   1       6.189  -1.824  -5.420  0.00  0.00     0.127 A 
ATOM      9  C   LIG d   1       7.265  -1.931  -6.499  0.00  0.00     0.081 A 
ATOM     10  O   LIG d   1       6.972  -0.701  -5.832  0.00  0.00    -0.365 OA
ATOM     11  H   LIG d   1       5.945  -0.786  -2.877  0.00  0.00     0.034 H 
ATOM     12  H   LIG d   1       5.713  -2.256  -2.040  0.00  0.00     0.034 H 
ATOM     13  H   LIG d   1       6.241  -3.500  -4.065  0.00  0.00     0.030 H 
ATOM     14  H   LIG d   1       7.543  -2.309  -3.814  0.00  0.00     0.030 H 
ATOM     15  H   LIG d   1       6.938  -2.038  -7.533  0.00  0.00     0.059 H 
ATOM     16  H   LIG d   1       8.194  -2.440  -6.241  0.00  0.00     0.059 H 
ENDROOT
BRANCH   1  17
ATOM     17  C   LIG d   1       4.573  -1.175  -7.214  0.00  0.00     0.128 A 
ATOM     18  C   LIG d   1       3.484  -1.682  -8.161  0.00  0.00     0.095 A 
ATOM     19  H   LIG d   1       2.868  -2.517  -7.827  0.00  0.00     0.063 H 
ATOM     20  O   LIG d   1       4.874  -1.927  -8.392  0.00  0.00    -0.362 OA
BRANCH  18  21
ATOM     21  C   LIG d   1       2.783  -0.657  -9.055  0.00  0.00    -0.005 C 
ATOM     22  H   LIG d   1       1.707  -0.712  -8.896  0.00  0.00     0.033 H 
ATOM     23  H   LIG d   1       3.136   0.343  -8.807  0.00  0.00     0.033 H 
BRANCH  21  24
ATOM     24  C   LIG d   1       3.094  -0.955 -10.500  0.00  0.00    -0.083 C 
ATOM     25  C   LIG d   1       3.637  -0.033 -11.256  0.00  0.00    -0.080 C 
ATOM     26  H   LIG d   1       2.869  -1.927 -10.912  0.00  0.00     0.057 H 
BRANCH  25  27
ATOM     27  C   LIG d   1       3.969   1.318 -10.678  0.00  0.00    -0.044 C 
ATOM     28  H   LIG d   1       3.500   1.421  -9.700  0.00  0.00     0.027 H 
ATOM     29  H   LIG d   1       5.050   1.413 -10.575  0.00  0.00     0.027 H 
ATOM     30  H   LIG d   1       3.597   2.099 -11.342  0.00  0.00     0.027 H 
ENDBRANCH  25  27
BRANCH  25  31
ATOM     31  C   LIG d   1       3.930  -0.324 -12.706  0.00  0.00    -0.044 C 
ATOM     32  H   LIG d   1       4.377   0.556 -13.169  0.00  0.00     0.027 H 
ATOM     33  H   LIG d   1       4.623  -1.163 -12.775  0.00  0.00     0.027 H 
ATOM     34  H   LIG d   1       3.002  -0.574 -13.221  0.00  0.00     0.027 H 
ENDBRANCH  25  31
ENDBRANCH  21  24
ENDBRANCH  18  21
BRANCH  17  35
ATOM     35  C   LIG d   1       4.887   0.323  -7.225  0.00  0.00    -0.030 C 
ATOM     36  H   LIG d   1       4.734   0.719  -8.227  0.00  0.00     0.026 H 
ATOM     37  H   LIG d   1       4.228   0.837  -6.526  0.00  0.00     0.026 H 
ATOM     38  H   LIG d   1       5.924   0.478  -6.927  0.00  0.00     0.026 H 
ENDBRANCH  17  35
ENDBRANCH   1  17
BRANCH   1  39
ATOM     39  O   LIG d   1       4.308  -3.238  -5.980  0.00  0.00    -0.380 OA
ATOM     40  H   LIG d   1       3.795  -3.424  -6.778  0.00  0.00     0.210 HD
ENDBRANCH   1  39
BRANCH   2  41
ATOM     41  O   LIG d   1       4.144   0.237  -4.830  0.00  0.00    -0.369 OA
BRANCH  41  42
ATOM     42  C   LIG d   1       3.319   1.006  -3.952  0.00  0.00     0.037 C 
ATOM     43  H   LIG d   1       3.656   2.044  -3.954  0.00  0.00     0.052 H 
ATOM     44  H   LIG d   1       2.284   0.959  -4.291  0.00  0.00     0.052 H 
ATOM     45  H   LIG d   1       3.388   0.603  -2.942  0.00  0.00     0.052 H 
ENDBRANCH  41  42
ENDBRANCH   2  41
TORSDOF 9
ENDMDL
MODEL 8
REMARK VINA RESULT:      -4.7      2.951      5.752
REMARK  9 active torsions:
REMARK  status: ('A' for Active; 'I' for Inactive)
REMARK    1  A    between atoms: C_1  and  C_2 
REMARK    2  A    between atoms: C_2  and  C_23 
REMARK    3  A    between atoms: C_3  and  C_4 
REMARK    4  A    between atoms: C_4  and  C_5 
REMARK    5  A    between atoms: C_7  and  C_9 
REMARK    6  A    between atoms: C_7  and  C_10 
REMARK    7  A    between atoms: C_10  and  O_22 
REMARK    8  A    between atoms: C_11  and  O_20 
REMARK    9  A    between atoms: O_20  and  C_21 
ROOT
ATOM      1  C   LIG d   1       5.463  -0.836  -5.398  0.00  0.00     0.161 C 
ATOM      2  C   LIG d   1       4.627  -0.674  -4.122  0.00  0.00     0.150 C 
ATOM      3  H   LIG d   1       5.223  -0.409  -3.364  0.00  0.00     0.071 H 
ATOM      4  C   LIG d   1       3.587   0.397  -4.360  0.00  0.00     0.165 C 
ATOM      5  O   LIG d   1       3.499   1.344  -3.616  0.00  0.00    -0.294 OA
ATOM      6  C   LIG d   1       2.659   0.262  -5.545  0.00  0.00     0.011 C 
ATOM      7  C   LIG d   1       3.505   0.094  -6.814  0.00  0.00    -0.012 C 
ATOM      8  C   LIG d   1       4.521  -1.027  -6.589  0.00  0.00     0.127 A 
ATOM      9  C   LIG d   1       5.063  -1.757  -7.817  0.00  0.00     0.081 A 
ATOM     10  O   LIG d   1       4.127  -2.361  -6.920  0.00  0.00    -0.365 OA
ATOM     11  H   LIG d   1       2.072  -0.539  -5.420  0.00  0.00     0.034 H 
ATOM     12  H   LIG d   1       2.041   1.155  -5.630  0.00  0.00     0.034 H 
ATOM     13  H   LIG d   1       4.031   1.026  -7.026  0.00  0.00     0.030 H 
ATOM     14  H   LIG d   1       2.859  -0.161  -7.653  0.00  0.00     0.030 H 
ATOM     15  H   LIG d   1       6.094  -2.107  -7.786  0.00  0.00     0.059 H 
ATOM     16  H   LIG d   1       4.698  -1.444  -8.796  0.00  0.00     0.059 H 
ENDROOT
BRANCH   1  17
ATOM     17  C   LIG d   1       6.375  -2.057  -5.264  0.00  0.00     0.128 A 
ATOM     18  C   LIG d   1       7.688  -1.886  -4.498  0.00  0.00     0.095 A 
ATOM     19  H   LIG d   1       7.910  -0.902  -4.083  0.00  0.00     0.063 H 
ATOM     20  O   LIG d   1       7.644  -2.016  -5.921  0.00  0.00    -0.362 OA
BRANCH  18  21
ATOM     21  C   LIG d   1       8.202  -3.078  -3.688  0.00  0.00    -0.005 C 
ATOM     22  H   LIG d   1       8.086  -2.872  -2.625  0.00  0.00     0.033 H 
ATOM     23  H   LIG d   1       7.629  -3.968  -3.950  0.00  0.00     0.033 H 
BRANCH  21  24
ATOM     24  C   LIG d   1       9.658  -3.307  -4.001  0.00  0.00    -0.083 C 
ATOM     25  C   LIG d   1      10.382  -4.074  -3.223  0.00  0.00    -0.080 C 
ATOM     26  H   LIG d   1      10.106  -2.840  -4.865  0.00  0.00     0.057 H 
BRANCH  25  27
ATOM     27  C   LIG d   1       9.753  -4.743  -2.027  0.00  0.00    -0.044 C 
ATOM     28  H   LIG d   1       9.614  -4.011  -1.232  0.00  0.00     0.027 H 
ATOM     29  H   LIG d   1       8.787  -5.160  -2.311  0.00  0.00     0.027 H 
ATOM     30  H   LIG d   1      10.405  -5.543  -1.675  0.00  0.00     0.027 H 
ENDBRANCH  25  27
BRANCH  25  31
ATOM     31  C   LIG d   1      11.843  -4.289  -3.524  0.00  0.00    -0.044 C 
ATOM     32  H   LIG d   1      12.148  -3.624  -4.332  0.00  0.00     0.027 H 
ATOM     33  H   LIG d   1      12.433  -4.073  -2.633  0.00  0.00     0.027 H 
ATOM     34  H   LIG d   1      12.004  -5.324  -3.825  0.00  0.00     0.027 H 
ENDBRANCH  25  31
ENDBRANCH  21  24
ENDBRANCH  18  21
BRANCH  17  35
ATOM     35  C   LIG d   1       5.665  -3.409  -5.169  0.00  0.00    -0.030 C 
ATOM     36  H   LIG d   1       4.608  -3.281  -5.402  0.00  0.00     0.026 H 
ATOM     37  H   LIG d   1       6.111  -4.105  -5.878  0.00  0.00     0.026 H 
ATOM     38  H   LIG d   1       5.768  -3.803  -4.158  0.00  0.00     0.026 H 
ENDBRANCH  17  35
ENDBRANCH   1  17
BRANCH   1  39
ATOM     39  O   LIG d   1       6.258   0.335  -5.601  0.00  0.00    -0.380 OA
ATOM     40  H   LIG d   1       5.778   1.071  -6.005  0.00  0.00     0.210 HD
ENDBRANCH   1  39
BRANCH   2  41
ATOM     41  O   LIG d   1       3.981  -1.910  -3.812  0.00  0.00    -0.369 OA
BRANCH  41  42
ATOM     42  C   LIG d   1       3.759  -2.115  -2.416  0.00  0.00     0.037 C 
ATOM     43  H   LIG d   1       2.744  -1.812  -2.161  0.00  0.00     0.052 H 
ATOM     44  H   LIG d   1       3.893  -3.171  -2.178  0.00  0.00     0.052 H 
ATOM     45  H   LIG d   1       4.472  -1.522  -1.843  0.00  0.00     0.052 H 
ENDBRANCH  41  42
ENDBRANCH   2  41
TORSDOF 9
ENDMDL
MODEL 9
REMARK VINA RESULT:      -4.7      2.526      4.034
REMARK  9 active torsions:
REMARK  status: ('A' for Active; 'I' for Inactive)
REMARK    1  A    between atoms: C_1  and  C_2 
REMARK    2  A    between atoms: C_2  and  C_23 
REMARK    3  A    between atoms: C_3  and  C_4 
REMARK    4  A    between atoms: C_4  and  C_5 
REMARK    5  A    between atoms: C_7  and  C_9 
REMARK    6  A    between atoms: C_7  and  C_10 
REMARK    7  A    between atoms: C_10  and  O_22 
REMARK    8  A    between atoms: C_11  and  O_20 
REMARK    9  A    between atoms: O_20  and  C_21 
ROOT
ATOM      1  C   LIG d   1       5.524  -0.792  -4.059  0.00  0.00     0.161 C 
ATOM      2  C   LIG d   1       4.078  -0.651  -4.551  0.00  0.00     0.150 C 
ATOM      3  H   LIG d   1       3.746  -1.538  -4.871  0.00  0.00     0.071 H 
ATOM      4  C   LIG d   1       3.223  -0.165  -3.402  0.00  0.00     0.165 C 
ATOM      5  O   LIG d   1       2.236  -0.776  -3.069  0.00  0.00    -0.294 OA
ATOM      6  C   LIG d   1       3.626   1.100  -2.679  0.00  0.00     0.011 C 
ATOM      7  C   LIG d   1       5.074   0.950  -2.197  0.00  0.00    -0.012 C 
ATOM      8  C   LIG d   1       5.946   0.510  -3.375  0.00  0.00     0.127 A 
ATOM      9  C   LIG d   1       7.437   0.836  -3.320  0.00  0.00     0.081 A 
ATOM     10  O   LIG d   1       6.535   1.529  -4.186  0.00  0.00    -0.365 OA
ATOM     11  H   LIG d   1       3.553   1.879  -3.303  0.00  0.00     0.034 H 
ATOM     12  H   LIG d   1       2.967   1.258  -1.824  0.00  0.00     0.034 H 
ATOM     13  H   LIG d   1       5.119   0.198  -1.409  0.00  0.00     0.030 H 
ATOM     14  H   LIG d   1       5.432   1.905  -1.814  0.00  0.00     0.030 H 
ATOM     15  H   LIG d   1       8.129   0.126  -3.772  0.00  0.00     0.059 H 
ATOM     16  H   LIG d   1       7.809   1.368  -2.444  0.00  0.00     0.059 H 
ENDROOT
BRANCH   1  17
ATOM     17  C   LIG d   1       6.446  -1.070  -5.247  0.00  0.00     0.128 A 
ATOM     18  C   LIG d   1       6.410  -0.092  -6.422  0.00  0.00     0.095 A 
ATOM     19  H   LIG d   1       5.730   0.757  -6.357  0.00  0.00     0.063 H 
ATOM     20  O   LIG d   1       5.840  -1.401  -6.499  0.00  0.00    -0.362 OA
BRANCH  18  21
ATOM     21  C   LIG d   1       7.716   0.162  -7.179  0.00  0.00    -0.005 C 
ATOM     22  H   LIG d   1       8.520  -0.412  -6.719  0.00  0.00     0.033 H 
ATOM     23  H   LIG d   1       7.599  -0.144  -8.218  0.00  0.00     0.033 H 
BRANCH  21  24
ATOM     24  C   LIG d   1       8.051   1.630  -7.122  0.00  0.00    -0.083 C 
ATOM     25  C   LIG d   1       9.164   2.026  -6.555  0.00  0.00    -0.080 C 
ATOM     26  H   LIG d   1       7.375   2.356  -7.548  0.00  0.00     0.057 H 
BRANCH  25  27
ATOM     27  C   LIG d   1      10.118   1.012  -5.977  0.00  0.00    -0.044 C 
ATOM     28  H   LIG d   1       9.740   0.662  -5.018  0.00  0.00     0.027 H 
ATOM     29  H   LIG d   1      10.210   0.169  -6.662  0.00  0.00     0.027 H 
ATOM     30  H   LIG d   1      11.096   1.473  -5.836  0.00  0.00     0.027 H 
ENDBRANCH  25  27
BRANCH  25  31
ATOM     31  C   LIG d   1       9.491   3.496  -6.481  0.00  0.00    -0.044 C 
ATOM     32  H   LIG d   1      10.111   3.773  -7.334  0.00  0.00     0.027 H 
ATOM     33  H   LIG d   1       8.568   4.075  -6.498  0.00  0.00     0.027 H 
ATOM     34  H   LIG d   1      10.033   3.701  -5.557  0.00  0.00     0.027 H 
ENDBRANCH  25  31
ENDBRANCH  21  24
ENDBRANCH  18  21
BRANCH  17  35
ATOM     35  C   LIG d   1       7.786  -1.728  -4.907  0.00  0.00    -0.030 C 
ATOM     36  H   LIG d   1       8.559  -0.964  -4.837  0.00  0.00     0.026 H 
ATOM     37  H   LIG d   1       7.703  -2.249  -3.954  0.00  0.00     0.026 H 
ATOM     38  H   LIG d   1       8.049  -2.440  -5.689  0.00  0.00     0.026 H 
ENDBRANCH  17  35
ENDBRANCH   1  17
BRANCH   1  39
ATOM     39  O   LIG d   1       5.608  -1.872  -3.125  0.00  0.00    -0.380 OA
ATOM     40  H   LIG d   1       6.504  -2.046  -2.806  0.00  0.00     0.210 HD
ENDBRANCH   1  39
BRANCH   2  41
ATOM     41  O   LIG d   1       4.025   0.294  -5.621  0.00  0.00    -0.369 OA
BRANCH  41  42
ATOM     42  C   LIG d   1       2.792   0.287  -6.343  0.00  0.00     0.037 C 
ATOM     43  H   LIG d   1       2.953  -0.143  -7.332  0.00  0.00     0.052 H 
ATOM     44  H   LIG d   1       2.058  -0.311  -5.802  0.00  0.00     0.052 H 
ATOM     45  H   LIG d   1       2.424   1.307  -6.445  0.00  0.00     0.052 H 
ENDBRANCH  41  42
ENDBRANCH   2  41
TORSDOF 9
ENDMDL
MODEL 10
REMARK VINA RESULT:      -4.6      8.350     11.332
REMARK  9 active torsions:
REMARK  status: ('A' for Active; 'I' for Inactive)
REMARK    1  A    between atoms: C_1  and  C_2 
REMARK    2  A    between atoms: C_2  and  C_23 
REMARK    3  A    between atoms: C_3  and  C_4 
REMARK    4  A    between atoms: C_4  and  C_5 
REMARK    5  A    between atoms: C_7  and  C_9 
REMARK    6  A    between atoms: C_7  and  C_10 
REMARK    7  A    between atoms: C_10  and  O_22 
REMARK    8  A    between atoms: C_11  and  O_20 
REMARK    9  A    between atoms: O_20  and  C_21 
ROOT
ATOM      1  C   LIG d   1       9.952   8.501  -1.169  0.00  0.00     0.161 C 
ATOM      2  C   LIG d   1      10.066   9.325  -2.458  0.00  0.00     0.150 C 
ATOM      3  H   LIG d   1       9.518   8.897  -3.177  0.00  0.00     0.071 H 
ATOM      4  C   LIG d   1       9.558  10.722  -2.184  0.00  0.00     0.165 C 
ATOM      5  O   LIG d   1       8.686  11.203  -2.866  0.00  0.00    -0.294 OA
ATOM      6  C   LIG d   1      10.162  11.505  -1.041  0.00  0.00     0.011 C 
ATOM      7  C   LIG d   1      10.048  10.670   0.240  0.00  0.00    -0.012 C 
ATOM      8  C   LIG d   1      10.613   9.273  -0.025  0.00  0.00     0.127 A 
ATOM      9  C   LIG d   1      11.132   8.474   1.169  0.00  0.00     0.081 A 
ATOM     10  O   LIG d   1      12.008   9.064   0.204  0.00  0.00    -0.365 OA
ATOM     11  H   LIG d   1      11.124  11.696  -1.238  0.00  0.00     0.034 H 
ATOM     12  H   LIG d   1       9.624  12.446  -0.918  0.00  0.00     0.034 H 
ATOM     13  H   LIG d   1       9.000  10.591   0.531  0.00  0.00     0.030 H 
ATOM     14  H   LIG d   1      10.614  11.148   1.040  0.00  0.00     0.030 H 
ATOM     15  H   LIG d   1      11.009   7.392   1.148  0.00  0.00     0.059 H 
ATOM     16  H   LIG d   1      11.076   8.939   2.154  0.00  0.00     0.059 H 
ENDROOT
BRANCH   1  17
ATOM     17  C   LIG d   1      10.657   7.156  -1.354  0.00  0.00     0.128 A 
ATOM     18  C   LIG d   1       9.848   6.001  -1.946  0.00  0.00     0.095 A 
ATOM     19  H   LIG d   1       8.807   6.193  -2.210  0.00  0.00     0.063 H 
ATOM     20  O   LIG d   1      10.207   6.053  -0.564  0.00  0.00    -0.362 OA
BRANCH  18  21
ATOM     21  C   LIG d   1      10.583   4.998  -2.838  0.00  0.00    -0.005 C 
ATOM     22  H   LIG d   1      10.879   5.485  -3.766  0.00  0.00     0.033 H 
ATOM     23  H   LIG d   1      11.470   4.635  -2.319  0.00  0.00     0.033 H 
BRANCH  21  24
ATOM     24  C   LIG d   1       9.672   3.839  -3.147  0.00  0.00    -0.083 C 
ATOM     25  C   LIG d   1       9.243   3.651  -4.371  0.00  0.00    -0.080 C 
ATOM     26  H   LIG d   1       9.372   3.162  -2.361  0.00  0.00     0.057 H 
BRANCH  25  27
ATOM     27  C   LIG d   1       9.677   4.583  -5.473  0.00  0.00    -0.044 C 
ATOM     28  H   LIG d   1      10.283   4.037  -6.194  0.00  0.00     0.027 H 
ATOM     29  H   LIG d   1       8.796   4.990  -5.971  0.00  0.00     0.027 H 
ATOM     30  H   LIG d   1      10.262   5.399  -5.049  0.00  0.00     0.027 H 
ENDBRANCH  25  27
BRANCH  25  31
ATOM     31  C   LIG d   1       8.316   2.503  -4.677  0.00  0.00    -0.044 C 
ATOM     32  H   LIG d   1       8.392   1.755  -3.887  0.00  0.00     0.027 H 
ATOM     33  H   LIG d   1       7.290   2.869  -4.734  0.00  0.00     0.027 H 
ATOM     34  H   LIG d   1       8.596   2.054  -5.630  0.00  0.00     0.027 H 
ENDBRANCH  25  31
ENDBRANCH  21  24
ENDBRANCH  18  21
BRANCH  17  35
ATOM     35  C   LIG d   1      12.148   7.229  -1.692  0.00  0.00    -0.030 C 
ATOM     36  H   LIG d   1      12.689   7.671  -0.857  0.00  0.00     0.026 H 
ATOM     37  H   LIG d   1      12.528   6.225  -1.880  0.00  0.00     0.026 H 
ATOM     38  H   LIG d   1      12.288   7.843  -2.582  0.00  0.00     0.026 H 
ENDBRANCH  17  35
ENDBRANCH   1  17
BRANCH   1  39
ATOM     39  O   LIG d   1       8.573   8.280  -0.864  0.00  0.00    -0.380 OA
ATOM     40  H   LIG d   1       8.205   8.912  -0.232  0.00  0.00     0.210 HD
ENDBRANCH   1  39
BRANCH   2  41
ATOM     41  O   LIG d   1      11.433   9.383  -2.870  0.00  0.00    -0.369 OA
BRANCH  41  42
ATOM     42  C   LIG d   1      11.620   9.889  -4.194  0.00  0.00     0.037 C 
ATOM     43  H   LIG d   1      12.386   9.303  -4.701  0.00  0.00     0.052 H 
ATOM     44  H   LIG d   1      10.682   9.817  -4.745  0.00  0.00     0.052 H 
ATOM     45  H   LIG d   1      11.932  10.932  -4.144  0.00  0.00     0.052 H 
ENDBRANCH  41  42
ENDBRANCH   2  41
TORSDOF 9
ENDMDL
