MODEL 1
REMARK VINA RESULT:      -6.4      0.000      0.000
REMARK  7 active torsions:
REMARK  status: ('A' for Active; 'I' for Inactive)
REMARK    1  A    between atoms: C_1  and  C_2 
REMARK    2  A    between atoms: C_3  and  C_25 
REMARK    3  A    between atoms: N_14  and  C_17 
REMARK    4  A    between atoms: C_17  and  C_18 
REMARK    5  A    between atoms: C_18  and  N_19 
REMARK    6  A    between atoms: C_28  and  O_31 
REMARK    7  A    between atoms: O_31  and  C_32 
ROOT
ATOM      1  C   LIG d   1      10.533   6.460  -1.020  0.00  0.00     0.114 A 
ATOM      2  C   LIG d   1      10.819   7.728  -1.407  0.00  0.00     0.067 A 
ATOM      3  C   LIG d   1      10.729   8.063  -2.839  0.00  0.00     0.200 A 
ATOM      4  O   LIG d   1      10.970   9.183  -3.255  0.00  0.00    -0.286 OA
ATOM      5  C   LIG d   1      10.328   6.967  -3.742  0.00  0.00     0.065 A 
ATOM      6  C   LIG d   1      10.210   7.174  -5.117  0.00  0.00    -0.044 A 
ATOM      7  C   LIG d   1       9.838   6.141  -5.926  0.00  0.00    -0.018 A 
ATOM      8  C   LIG d   1       9.572   4.880  -5.387  0.00  0.00     0.138 A 
ATOM      9  C   LIG d   1       9.686   4.663  -4.028  0.00  0.00     0.082 A 
ATOM     10  C   LIG d   1      10.065   5.705  -3.186  0.00  0.00     0.150 A 
ATOM     11  O   LIG d   1      10.175   5.494  -1.862  0.00  0.00    -0.459 OA
ATOM     12  C   LIG d   1       9.406   3.305  -3.434  0.00  0.00     0.005 C 
ATOM     13  N   LIG d   1       8.644   2.495  -4.395  0.00  0.00     0.268 N 
ATOM     14  C   LIG d   1       9.288   2.540  -5.718  0.00  0.00     0.117 C 
ATOM     15  O   LIG d   1       9.199   3.874  -6.223  0.00  0.00    -0.454 OA
ATOM     16  H   LIG d   1      10.414   8.146  -5.539  0.00  0.00     0.063 H 
ATOM     17  H   LIG d   1       9.746   6.299  -6.991  0.00  0.00     0.065 H 
ATOM     18  H   LIG d   1      10.357   2.802  -3.205  0.00  0.00     0.087 H 
ATOM     19  H   LIG d   1       8.821   3.423  -2.510  0.00  0.00     0.087 H 
ATOM     20  H   LIG d   1      10.344   2.246  -5.623  0.00  0.00     0.130 H 
ATOM     21  H   LIG d   1       8.775   1.847  -6.400  0.00  0.00     0.130 H 
ATOM     22  H   LIG d   1       7.632   2.917  -4.482  0.00  0.00     0.207 HD
ENDROOT
BRANCH  13  23
ATOM     23  C   LIG d   1       8.508   1.110  -3.924  0.00  0.00    -0.015 C 
ATOM     24  H   LIG d   1       9.347   0.509  -4.303  0.00  0.00     0.083 H 
ATOM     25  H   LIG d   1       8.513   1.095  -2.824  0.00  0.00     0.083 H 
BRANCH  23  26
ATOM     26  C   LIG d   1       7.189   0.525  -4.436  0.00  0.00     0.039 C 
ATOM     27  H   LIG d   1       6.664   1.278  -5.040  0.00  0.00     0.048 H 
ATOM     28  H   LIG d   1       7.398  -0.361  -5.054  0.00  0.00     0.048 H 
BRANCH  26  29
ATOM     29  N   LIG d   1       6.349   0.139  -3.295  0.00  0.00    -0.293 N 
ATOM     30  C   LIG d   1       5.438   1.229  -2.919  0.00  0.00     0.023 C 
ATOM     31  C   LIG d   1       4.625   0.808  -1.691  0.00  0.00     0.060 C 
ATOM     32  H   LIG d   1       6.023   2.130  -2.682  0.00  0.00     0.045 H 
ATOM     33  H   LIG d   1       4.757   1.443  -3.755  0.00  0.00     0.045 H 
ATOM     34  O   LIG d   1       3.926  -0.406  -1.983  0.00  0.00    -0.377 OA
ATOM     35  H   LIG d   1       3.902   1.597  -1.440  0.00  0.00     0.057 H 
ATOM     36  H   LIG d   1       5.302   0.645  -0.839  0.00  0.00     0.057 H 
ATOM     37  C   LIG d   1       4.783  -1.490  -2.352  0.00  0.00     0.060 C 
ATOM     38  C   LIG d   1       5.598  -1.091  -3.586  0.00  0.00     0.023 C 
ATOM     39  H   LIG d   1       4.177  -2.377  -2.585  0.00  0.00     0.057 H 
ATOM     40  H   LIG d   1       5.467  -1.720  -1.521  0.00  0.00     0.057 H 
ATOM     41  H   LIG d   1       4.920  -0.914  -4.433  0.00  0.00     0.045 H 
ATOM     42  H   LIG d   1       6.301  -1.898  -3.840  0.00  0.00     0.045 H 
ENDBRANCH  26  29
ENDBRANCH  23  26
ENDBRANCH  13  23
BRANCH   1  43
ATOM     43  C   LIG d   1      10.629   6.125   0.446  0.00  0.00    -0.006 C 
ATOM     44  H   LIG d   1      11.599   5.648   0.651  0.00  0.00     0.031 H 
ATOM     45  H   LIG d   1       9.815   5.437   0.720  0.00  0.00     0.031 H 
ATOM     46  H   LIG d   1      10.543   7.048   1.040  0.00  0.00     0.031 H 
ENDBRANCH   1  43
BRANCH   2  47
ATOM     47  C   LIG d   1      11.213   8.754  -0.411  0.00  0.00    -0.011 A 
ATOM     48  C   LIG d   1      12.529   8.815   0.046  0.00  0.00    -0.050 A 
ATOM     49  C   LIG d   1      12.892   9.771   0.972  0.00  0.00    -0.019 A 
ATOM     50  H   LIG d   1      13.262   8.114  -0.324  0.00  0.00     0.062 H 
ATOM     51  C   LIG d   1      11.950  10.672   1.447  0.00  0.00     0.120 A 
ATOM     52  H   LIG d   1      13.910   9.818   1.327  0.00  0.00     0.065 H 
ATOM     53  C   LIG d   1      10.639  10.615   0.993  0.00  0.00    -0.019 A 
ATOM     54  C   LIG d   1      10.271   9.665   0.063  0.00  0.00    -0.050 A 
ATOM     55  H   LIG d   1       9.908  11.318   1.366  0.00  0.00     0.065 H 
ATOM     56  H   LIG d   1       9.251   9.624  -0.292  0.00  0.00     0.062 H 
BRANCH  51  57
ATOM     57  O   LIG d   1      12.311  11.614   2.358  0.00  0.00    -0.495 OA
BRANCH  57  58
ATOM     58  C   LIG d   1      12.872  11.147   3.587  0.00  0.00     0.079 C 
ATOM     59  H   LIG d   1      12.293  10.287   3.951  0.00  0.00     0.066 H 
ATOM     60  H   LIG d   1      12.840  11.954   4.334  0.00  0.00     0.066 H 
ATOM     61  H   LIG d   1      13.915  10.842   3.421  0.00  0.00     0.066 H 
ENDBRANCH  57  58
ENDBRANCH  51  57
ENDBRANCH   2  47
TORSDOF 7
ENDMDL
MODEL 2
REMARK VINA RESULT:      -6.3      4.709      8.696
REMARK  7 active torsions:
REMARK  status: ('A' for Active; 'I' for Inactive)
REMARK    1  A    between atoms: C_1  and  C_2 
REMARK    2  A    between atoms: C_3  and  C_25 
REMARK    3  A    between atoms: N_14  and  C_17 
REMARK    4  A    between atoms: C_17  and  C_18 
REMARK    5  A    between atoms: C_18  and  N_19 
REMARK    6  A    between atoms: C_28  and  O_31 
REMARK    7  A    between atoms: O_31  and  C_32 
ROOT
ATOM      1  C   LIG d   1       8.608  -0.008  -5.007  0.00  0.00     0.114 A 
ATOM      2  C   LIG d   1       8.089   1.021  -4.291  0.00  0.00     0.067 A 
ATOM      3  C   LIG d   1       6.774   0.841  -3.652  0.00  0.00     0.200 A 
ATOM      4  O   LIG d   1       6.251   1.723  -2.994  0.00  0.00    -0.286 OA
ATOM      5  C   LIG d   1       6.125  -0.469  -3.854  0.00  0.00     0.065 A 
ATOM      6  C   LIG d   1       4.878  -0.748  -3.293  0.00  0.00    -0.044 A 
ATOM      7  C   LIG d   1       4.303  -1.969  -3.497  0.00  0.00    -0.018 A 
ATOM      8  C   LIG d   1       4.955  -2.939  -4.261  0.00  0.00     0.138 A 
ATOM      9  C   LIG d   1       6.190  -2.674  -4.822  0.00  0.00     0.082 A 
ATOM     10  C   LIG d   1       6.792  -1.435  -4.624  0.00  0.00     0.150 A 
ATOM     11  O   LIG d   1       7.995  -1.177  -5.170  0.00  0.00    -0.459 OA
ATOM     12  C   LIG d   1       6.902  -3.712  -5.651  0.00  0.00     0.005 C 
ATOM     13  N   LIG d   1       6.317  -5.036  -5.394  0.00  0.00     0.268 N 
ATOM     14  C   LIG d   1       4.850  -4.970  -5.497  0.00  0.00     0.117 C 
ATOM     15  O   LIG d   1       4.355  -4.146  -4.440  0.00  0.00    -0.454 OA
ATOM     16  H   LIG d   1       4.369  -0.002  -2.702  0.00  0.00     0.063 H 
ATOM     17  H   LIG d   1       3.337  -2.186  -3.064  0.00  0.00     0.065 H 
ATOM     18  H   LIG d   1       6.794  -3.466  -6.718  0.00  0.00     0.087 H 
ATOM     19  H   LIG d   1       7.969  -3.726  -5.384  0.00  0.00     0.087 H 
ATOM     20  H   LIG d   1       4.570  -4.539  -6.470  0.00  0.00     0.130 H 
ATOM     21  H   LIG d   1       4.430  -5.983  -5.411  0.00  0.00     0.130 H 
ATOM     22  H   LIG d   1       6.583  -5.342  -4.371  0.00  0.00     0.207 HD
ENDROOT
BRANCH  13  23
ATOM     23  C   LIG d   1       6.864  -6.042  -6.313  0.00  0.00    -0.015 C 
ATOM     24  H   LIG d   1       6.082  -6.361  -7.016  0.00  0.00     0.083 H 
ATOM     25  H   LIG d   1       7.705  -5.607  -6.874  0.00  0.00     0.083 H 
BRANCH  23  26
ATOM     26  C   LIG d   1       7.357  -7.250  -5.514  0.00  0.00     0.039 C 
ATOM     27  H   LIG d   1       8.407  -7.455  -5.769  0.00  0.00     0.048 H 
ATOM     28  H   LIG d   1       7.276  -7.035  -4.438  0.00  0.00     0.048 H 
BRANCH  26  29
ATOM     29  N   LIG d   1       6.536  -8.423  -5.843  0.00  0.00    -0.293 N 
ATOM     30  C   LIG d   1       5.585  -8.720  -4.762  0.00  0.00     0.023 C 
ATOM     31  C   LIG d   1       4.793  -9.981  -5.118  0.00  0.00     0.060 C 
ATOM     32  H   LIG d   1       6.136  -8.883  -3.824  0.00  0.00     0.045 H 
ATOM     33  H   LIG d   1       4.894  -7.874  -4.638  0.00  0.00     0.045 H 
ATOM     34  O   LIG d   1       4.140  -9.787  -6.376  0.00  0.00    -0.377 OA
ATOM     35  H   LIG d   1       4.041 -10.175  -4.340  0.00  0.00     0.057 H 
ATOM     36  H   LIG d   1       5.478 -10.839  -5.190  0.00  0.00     0.057 H 
ATOM     37  C   LIG d   1       5.037  -9.497  -7.452  0.00  0.00     0.060 C 
ATOM     38  C   LIG d   1       5.831  -8.231  -7.119  0.00  0.00     0.023 C 
ATOM     39  H   LIG d   1       4.463  -9.336  -8.377  0.00  0.00     0.057 H 
ATOM     40  H   LIG d   1       5.731 -10.338  -7.592  0.00  0.00     0.057 H 
ATOM     41  H   LIG d   1       5.145  -7.377  -7.033  0.00  0.00     0.045 H 
ATOM     42  H   LIG d   1       6.563  -8.035  -7.916  0.00  0.00     0.045 H 
ENDBRANCH  26  29
ENDBRANCH  23  26
ENDBRANCH  13  23
BRANCH   1  43
ATOM     43  C   LIG d   1       9.953   0.186  -5.658  0.00  0.00    -0.006 C 
ATOM     44  H   LIG d   1      10.311  -0.776  -6.054  0.00  0.00     0.031 H 
ATOM     45  H   LIG d   1      10.669   0.567  -4.914  0.00  0.00     0.031 H 
ATOM     46  H   LIG d   1       9.861   0.910  -6.481  0.00  0.00     0.031 H 
ENDBRANCH   1  43
BRANCH   2  47
ATOM     47  C   LIG d   1       8.830   2.299  -4.153  0.00  0.00    -0.011 A 
ATOM     48  C   LIG d   1       8.627   3.327  -5.073  0.00  0.00    -0.050 A 
ATOM     49  C   LIG d   1       9.317   4.514  -4.941  0.00  0.00    -0.019 A 
ATOM     50  H   LIG d   1       7.929   3.194  -5.886  0.00  0.00     0.062 H 
ATOM     51  C   LIG d   1      10.213   4.685  -3.895  0.00  0.00     0.120 A 
ATOM     52  H   LIG d   1       9.160   5.310  -5.653  0.00  0.00     0.065 H 
ATOM     53  C   LIG d   1      10.417   3.664  -2.978  0.00  0.00    -0.019 A 
ATOM     54  C   LIG d   1       9.726   2.476  -3.100  0.00  0.00    -0.050 A 
ATOM     55  H   LIG d   1      11.116   3.800  -2.165  0.00  0.00     0.065 H 
ATOM     56  H   LIG d   1       9.883   1.683  -2.383  0.00  0.00     0.062 H 
BRANCH  51  57
ATOM     57  O   LIG d   1      10.891   5.857  -3.768  0.00  0.00    -0.495 OA
BRANCH  57  58
ATOM     58  C   LIG d   1      10.112   7.046  -3.626  0.00  0.00     0.079 C 
ATOM     59  H   LIG d   1      10.615   7.733  -2.931  0.00  0.00     0.066 H 
ATOM     60  H   LIG d   1       9.117   6.789  -3.231  0.00  0.00     0.066 H 
ATOM     61  H   LIG d   1      10.003   7.532  -4.606  0.00  0.00     0.066 H 
ENDBRANCH  57  58
ENDBRANCH  51  57
ENDBRANCH   2  47
TORSDOF 7
ENDMDL
MODEL 3
REMARK VINA RESULT:      -6.2      1.848      2.217
REMARK  7 active torsions:
REMARK  status: ('A' for Active; 'I' for Inactive)
REMARK    1  A    between atoms: C_1  and  C_2 
REMARK    2  A    between atoms: C_3  and  C_25 
REMARK    3  A    between atoms: N_14  and  C_17 
REMARK    4  A    between atoms: C_17  and  C_18 
REMARK    5  A    between atoms: C_18  and  N_19 
REMARK    6  A    between atoms: C_28  and  O_31 
REMARK    7  A    between atoms: O_31  and  C_32 
ROOT
ATOM      1  C   LIG d   1       9.803   7.059  -2.733  0.00  0.00     0.114 A 
ATOM      2  C   LIG d   1      10.277   8.106  -3.454  0.00  0.00     0.067 A 
ATOM      3  C   LIG d   1      10.473   7.930  -4.904  0.00  0.00     0.200 A 
ATOM      4  O   LIG d   1      10.893   8.830  -5.611  0.00  0.00    -0.286 OA
ATOM      5  C   LIG d   1      10.131   6.604  -5.452  0.00  0.00     0.065 A 
ATOM      6  C   LIG d   1      10.277   6.327  -6.813  0.00  0.00    -0.044 A 
ATOM      7  C   LIG d   1       9.953   5.091  -7.290  0.00  0.00    -0.018 A 
ATOM      8  C   LIG d   1       9.474   4.103  -6.427  0.00  0.00     0.138 A 
ATOM      9  C   LIG d   1       9.325   4.364  -5.079  0.00  0.00     0.082 A 
ATOM     10  C   LIG d   1       9.651   5.620  -4.573  0.00  0.00     0.150 A 
ATOM     11  O   LIG d   1       9.505   5.874  -3.260  0.00  0.00    -0.459 OA
ATOM     12  C   LIG d   1       8.812   3.305  -4.137  0.00  0.00     0.005 C 
ATOM     13  N   LIG d   1       8.155   2.238  -4.905  0.00  0.00     0.268 N 
ATOM     14  C   LIG d   1       9.023   1.803  -6.012  0.00  0.00     0.117 C 
ATOM     15  O   LIG d   1       9.156   2.884  -6.938  0.00  0.00    -0.454 OA
ATOM     16  H   LIG d   1      10.647   7.088  -7.483  0.00  0.00     0.063 H 
ATOM     17  H   LIG d   1      10.066   4.876  -8.343  0.00  0.00     0.065 H 
ATOM     18  H   LIG d   1       9.654   2.881  -3.569  0.00  0.00     0.087 H 
ATOM     19  H   LIG d   1       8.088   3.752  -3.440  0.00  0.00     0.087 H 
ATOM     20  H   LIG d   1      10.011   1.526  -5.616  0.00  0.00     0.130 H 
ATOM     21  H   LIG d   1       8.572   0.934  -6.513  0.00  0.00     0.130 H 
ATOM     22  H   LIG d   1       7.221   2.637  -5.327  0.00  0.00     0.207 HD
ENDROOT
BRANCH  13  23
ATOM     23  C   LIG d   1       7.802   1.106  -4.039  0.00  0.00    -0.015 C 
ATOM     24  H   LIG d   1       8.709   0.536  -3.790  0.00  0.00     0.083 H 
ATOM     25  H   LIG d   1       7.341   1.482  -3.114  0.00  0.00     0.083 H 
BRANCH  23  26
ATOM     26  C   LIG d   1       6.811   0.195  -4.767  0.00  0.00     0.039 C 
ATOM     27  H   LIG d   1       6.465   0.690  -5.686  0.00  0.00     0.048 H 
ATOM     28  H   LIG d   1       7.308  -0.752  -5.027  0.00  0.00     0.048 H 
BRANCH  26  29
ATOM     29  N   LIG d   1       5.662  -0.077  -3.894  0.00  0.00    -0.293 N 
ATOM     30  C   LIG d   1       5.718  -1.445  -3.360  0.00  0.00     0.023 C 
ATOM     31  C   LIG d   1       4.474  -1.706  -2.506  0.00  0.00     0.060 C 
ATOM     32  H   LIG d   1       5.750  -2.163  -4.193  0.00  0.00     0.045 H 
ATOM     33  H   LIG d   1       6.620  -1.562  -2.742  0.00  0.00     0.045 H 
ATOM     34  O   LIG d   1       4.400  -0.723  -1.469  0.00  0.00    -0.377 OA
ATOM     35  H   LIG d   1       4.539  -2.708  -2.057  0.00  0.00     0.057 H 
ATOM     36  H   LIG d   1       3.574  -1.642  -3.136  0.00  0.00     0.057 H 
ATOM     37  C   LIG d   1       4.344   0.622  -1.954  0.00  0.00     0.060 C 
ATOM     38  C   LIG d   1       5.586   0.905  -2.803  0.00  0.00     0.023 C 
ATOM     39  H   LIG d   1       4.314   1.320  -1.104  0.00  0.00     0.057 H 
ATOM     40  H   LIG d   1       3.442   0.755  -2.569  0.00  0.00     0.057 H 
ATOM     41  H   LIG d   1       6.486   0.827  -2.176  0.00  0.00     0.045 H 
ATOM     42  H   LIG d   1       5.520   1.919  -3.225  0.00  0.00     0.045 H 
ENDBRANCH  26  29
ENDBRANCH  23  26
ENDBRANCH  13  23
BRANCH   1  43
ATOM     43  C   LIG d   1       9.607   7.248  -1.251  0.00  0.00    -0.006 C 
ATOM     44  H   LIG d   1      10.527   6.962  -0.720  0.00  0.00     0.031 H 
ATOM     45  H   LIG d   1       8.773   6.617  -0.908  0.00  0.00     0.031 H 
ATOM     46  H   LIG d   1       9.376   8.304  -1.043  0.00  0.00     0.031 H 
ENDBRANCH   1  43
BRANCH   2  47
ATOM     47  C   LIG d   1      10.589   9.399  -2.799  0.00  0.00    -0.011 A 
ATOM     48  C   LIG d   1      11.862   9.629  -2.278  0.00  0.00    -0.050 A 
ATOM     49  C   LIG d   1      12.149  10.833  -1.669  0.00  0.00    -0.019 A 
ATOM     50  H   LIG d   1      12.621   8.866  -2.352  0.00  0.00     0.062 H 
ATOM     51  C   LIG d   1      11.173  11.815  -1.575  0.00  0.00     0.120 A 
ATOM     52  H   LIG d   1      13.134  11.012  -1.265  0.00  0.00     0.065 H 
ATOM     53  C   LIG d   1       9.905  11.590  -2.093  0.00  0.00    -0.019 A 
ATOM     54  C   LIG d   1       9.613  10.390  -2.708  0.00  0.00    -0.050 A 
ATOM     55  H   LIG d   1       9.147  12.356  -2.017  0.00  0.00     0.065 H 
ATOM     56  H   LIG d   1       8.627  10.217  -3.114  0.00  0.00     0.062 H 
BRANCH  51  57
ATOM     57  O   LIG d   1      11.459  13.001  -0.975  0.00  0.00    -0.495 OA
BRANCH  57  58
ATOM     58  C   LIG d   1      10.765  13.300   0.237  0.00  0.00     0.079 C 
ATOM     59  H   LIG d   1       9.822  12.735   0.269  0.00  0.00     0.066 H 
ATOM     60  H   LIG d   1      10.548  14.378   0.279  0.00  0.00     0.066 H 
ATOM     61  H   LIG d   1      11.390  13.018   1.097  0.00  0.00     0.066 H 
ENDBRANCH  57  58
ENDBRANCH  51  57
ENDBRANCH   2  47
TORSDOF 7
ENDMDL
MODEL 4
REMARK VINA RESULT:      -6.1      2.777     10.415
REMARK  7 active torsions:
REMARK  status: ('A' for Active; 'I' for Inactive)
REMARK    1  A    between atoms: C_1  and  C_2 
REMARK    2  A    between atoms: C_3  and  C_25 
REMARK    3  A    between atoms: N_14  and  C_17 
REMARK    4  A    between atoms: C_17  and  C_18 
REMARK    5  A    between atoms: C_18  and  N_19 
REMARK    6  A    between atoms: C_28  and  O_31 
REMARK    7  A    between atoms: O_31  and  C_32 
ROOT
ATOM      1  C   LIG d   1       7.465   1.038  -3.763  0.00  0.00     0.114 A 
ATOM      2  C   LIG d   1       7.783   0.026  -4.609  0.00  0.00     0.067 A 
ATOM      3  C   LIG d   1       9.127   0.010  -5.212  0.00  0.00     0.200 A 
ATOM      4  O   LIG d   1       9.479  -0.870  -5.979  0.00  0.00    -0.286 OA
ATOM      5  C   LIG d   1      10.024   1.119  -4.836  0.00  0.00     0.065 A 
ATOM      6  C   LIG d   1      11.320   1.203  -5.347  0.00  0.00    -0.044 A 
ATOM      7  C   LIG d   1      12.126   2.241  -4.981  0.00  0.00    -0.018 A 
ATOM      8  C   LIG d   1      11.664   3.218  -4.096  0.00  0.00     0.138 A 
ATOM      9  C   LIG d   1      10.383   3.146  -3.583  0.00  0.00     0.082 A 
ATOM     10  C   LIG d   1       9.546   2.094  -3.946  0.00  0.00     0.150 A 
ATOM     11  O   LIG d   1       8.299   2.025  -3.445  0.00  0.00    -0.459 OA
ATOM     12  C   LIG d   1       9.871   4.196  -2.630  0.00  0.00     0.005 C 
ATOM     13  N   LIG d   1      11.003   4.949  -2.071  0.00  0.00     0.268 N 
ATOM     14  C   LIG d   1      11.901   5.389  -3.152  0.00  0.00     0.117 C 
ATOM     15  O   LIG d   1      12.496   4.235  -3.748  0.00  0.00    -0.454 OA
ATOM     16  H   LIG d   1      11.682   0.451  -6.032  0.00  0.00     0.063 H 
ATOM     17  H   LIG d   1      13.129   2.307  -5.376  0.00  0.00     0.065 H 
ATOM     18  H   LIG d   1       9.203   4.885  -3.168  0.00  0.00     0.087 H 
ATOM     19  H   LIG d   1       9.316   3.711  -1.813  0.00  0.00     0.087 H 
ATOM     20  H   LIG d   1      11.322   5.944  -3.905  0.00  0.00     0.130 H 
ATOM     21  H   LIG d   1      12.682   6.042  -2.736  0.00  0.00     0.130 H 
ATOM     22  H   LIG d   1      11.564   4.286  -1.397  0.00  0.00     0.207 HD
ENDROOT
BRANCH  13  23
ATOM     23  C   LIG d   1      10.534   6.093  -1.278  0.00  0.00    -0.015 C 
ATOM     24  H   LIG d   1      10.022   5.729  -0.376  0.00  0.00     0.083 H 
ATOM     25  H   LIG d   1      11.395   6.713  -0.986  0.00  0.00     0.083 H 
BRANCH  23  26
ATOM     26  C   LIG d   1       9.563   6.931  -2.113  0.00  0.00     0.039 C 
ATOM     27  H   LIG d   1       9.863   6.892  -3.171  0.00  0.00     0.048 H 
ATOM     28  H   LIG d   1       8.546   6.526  -2.006  0.00  0.00     0.048 H 
BRANCH  26  29
ATOM     29  N   LIG d   1       9.590   8.322  -1.646  0.00  0.00    -0.293 N 
ATOM     30  C   LIG d   1      10.345   8.443  -0.391  0.00  0.00     0.023 C 
ATOM     31  C   LIG d   1      10.296   9.896   0.091  0.00  0.00     0.060 C 
ATOM     32  H   LIG d   1       9.896   7.787   0.371  0.00  0.00     0.045 H 
ATOM     33  H   LIG d   1      11.389   8.145  -0.560  0.00  0.00     0.045 H 
ATOM     34  O   LIG d   1      10.812  10.749  -0.935  0.00  0.00    -0.377 OA
ATOM     35  H   LIG d   1      10.907  10.003   0.999  0.00  0.00     0.057 H 
ATOM     36  H   LIG d   1       9.256  10.177   0.312  0.00  0.00     0.057 H 
ATOM     37  C   LIG d   1      10.100  10.658  -2.172  0.00  0.00     0.060 C 
ATOM     38  C   LIG d   1      10.146   9.213  -2.676  0.00  0.00     0.023 C 
ATOM     39  H   LIG d   1      10.567  11.320  -2.916  0.00  0.00     0.057 H 
ATOM     40  H   LIG d   1       9.053  10.959  -2.019  0.00  0.00     0.057 H 
ATOM     41  H   LIG d   1      11.187   8.928  -2.883  0.00  0.00     0.045 H 
ATOM     42  H   LIG d   1       9.552   9.125  -3.597  0.00  0.00     0.045 H 
ENDBRANCH  26  29
ENDBRANCH  23  26
ENDBRANCH  13  23
BRANCH   1  43
ATOM     43  C   LIG d   1       6.087   1.047  -3.152  0.00  0.00    -0.006 C 
ATOM     44  H   LIG d   1       5.661   2.058  -3.224  0.00  0.00     0.031 H 
ATOM     45  H   LIG d   1       6.153   0.749  -2.094  0.00  0.00     0.031 H 
ATOM     46  H   LIG d   1       5.442   0.337  -3.692  0.00  0.00     0.031 H 
ENDBRANCH   1  43
BRANCH   2  47
ATOM     47  C   LIG d   1       6.800  -1.041  -4.919  0.00  0.00    -0.011 A 
ATOM     48  C   LIG d   1       6.757  -2.198  -4.142  0.00  0.00    -0.050 A 
ATOM     49  C   LIG d   1       5.842  -3.188  -4.432  0.00  0.00    -0.019 A 
ATOM     50  H   LIG d   1       7.439  -2.318  -3.313  0.00  0.00     0.062 H 
ATOM     51  C   LIG d   1       4.965  -3.034  -5.496  0.00  0.00     0.120 A 
ATOM     52  H   LIG d   1       5.808  -4.084  -3.832  0.00  0.00     0.065 H 
ATOM     53  C   LIG d   1       5.005  -1.883  -6.272  0.00  0.00    -0.019 A 
ATOM     54  C   LIG d   1       5.914  -0.886  -5.983  0.00  0.00    -0.050 A 
ATOM     55  H   LIG d   1       4.321  -1.766  -7.100  0.00  0.00     0.065 H 
ATOM     56  H   LIG d   1       5.942   0.011  -6.585  0.00  0.00     0.062 H 
BRANCH  51  57
ATOM     57  O   LIG d   1       4.063  -4.011  -5.780  0.00  0.00    -0.495 OA
BRANCH  57  58
ATOM     58  C   LIG d   1       4.042  -4.506  -7.120  0.00  0.00     0.079 C 
ATOM     59  H   LIG d   1       3.653  -5.534  -7.125  0.00  0.00     0.066 H 
ATOM     60  H   LIG d   1       5.062  -4.498  -7.531  0.00  0.00     0.066 H 
ATOM     61  H   LIG d   1       3.393  -3.867  -7.737  0.00  0.00     0.066 H 
ENDBRANCH  57  58
ENDBRANCH  51  57
ENDBRANCH   2  47
TORSDOF 7
ENDMDL
MODEL 5
REMARK VINA RESULT:      -6.1     13.743     16.487
REMARK  7 active torsions:
REMARK  status: ('A' for Active; 'I' for Inactive)
REMARK    1  A    between atoms: C_1  and  C_2 
REMARK    2  A    between atoms: C_3  and  C_25 
REMARK    3  A    between atoms: N_14  and  C_17 
REMARK    4  A    between atoms: C_17  and  C_18 
REMARK    5  A    between atoms: C_18  and  N_19 
REMARK    6  A    between atoms: C_28  and  O_31 
REMARK    7  A    between atoms: O_31  and  C_32 
ROOT
ATOM      1  C   LIG d   1       7.063  -7.793  -4.763  0.00  0.00     0.114 A 
ATOM      2  C   LIG d   1       5.798  -8.085  -5.156  0.00  0.00     0.067 A 
ATOM      3  C   LIG d   1       5.072  -9.156  -4.450  0.00  0.00     0.200 A 
ATOM      4  O   LIG d   1       3.933  -9.469  -4.751  0.00  0.00    -0.286 OA
ATOM      5  C   LIG d   1       5.801  -9.829  -3.358  0.00  0.00     0.065 A 
ATOM      6  C   LIG d   1       5.208 -10.856  -2.623  0.00  0.00    -0.044 A 
ATOM      7  C   LIG d   1       5.908 -11.459  -1.619  0.00  0.00    -0.018 A 
ATOM      8  C   LIG d   1       7.211 -11.053  -1.321  0.00  0.00     0.138 A 
ATOM      9  C   LIG d   1       7.809 -10.038  -2.042  0.00  0.00     0.082 A 
ATOM     10  C   LIG d   1       7.110  -9.411  -3.071  0.00  0.00     0.150 A 
ATOM     11  O   LIG d   1       7.692  -8.421  -3.772  0.00  0.00    -0.459 OA
ATOM     12  C   LIG d   1       9.216  -9.593  -1.734  0.00  0.00     0.005 C 
ATOM     13  N   LIG d   1       9.602 -10.070  -0.398  0.00  0.00     0.268 N 
ATOM     14  C   LIG d   1       9.295 -11.504  -0.264  0.00  0.00     0.117 C 
ATOM     15  O   LIG d   1       7.877 -11.673  -0.311  0.00  0.00    -0.454 OA
ATOM     16  H   LIG d   1       4.202 -11.174  -2.848  0.00  0.00     0.063 H 
ATOM     17  H   LIG d   1       5.451 -12.255  -1.049  0.00  0.00     0.065 H 
ATOM     18  H   LIG d   1       9.905 -10.009  -2.483  0.00  0.00     0.087 H 
ATOM     19  H   LIG d   1       9.267  -8.495  -1.758  0.00  0.00     0.087 H 
ATOM     20  H   LIG d   1       9.765 -12.058  -1.090  0.00  0.00     0.130 H 
ATOM     21  H   LIG d   1       9.686 -11.875   0.695  0.00  0.00     0.130 H 
ATOM     22  H   LIG d   1       9.019  -9.515   0.352  0.00  0.00     0.207 HD
ENDROOT
BRANCH  13  23
ATOM     23  C   LIG d   1      11.023  -9.810  -0.136  0.00  0.00    -0.015 C 
ATOM     24  H   LIG d   1      11.324 -10.317   0.792  0.00  0.00     0.083 H 
ATOM     25  H   LIG d   1      11.626 -10.190  -0.974  0.00  0.00     0.083 H 
BRANCH  23  26
ATOM     26  C   LIG d   1      11.248  -8.303   0.011  0.00  0.00     0.039 C 
ATOM     27  H   LIG d   1      11.887  -7.947  -0.810  0.00  0.00     0.048 H 
ATOM     28  H   LIG d   1      10.280  -7.783  -0.027  0.00  0.00     0.048 H 
BRANCH  26  29
ATOM     29  N   LIG d   1      11.902  -8.028   1.296  0.00  0.00    -0.293 N 
ATOM     30  C   LIG d   1      11.135  -8.601   2.411  0.00  0.00     0.023 C 
ATOM     31  C   LIG d   1      11.818  -8.241   3.734  0.00  0.00     0.060 C 
ATOM     32  H   LIG d   1      10.113  -8.193   2.401  0.00  0.00     0.045 H 
ATOM     33  H   LIG d   1      11.093  -9.695   2.304  0.00  0.00     0.045 H 
ATOM     34  O   LIG d   1      13.170  -8.710   3.708  0.00  0.00    -0.377 OA
ATOM     35  H   LIG d   1      11.281  -8.715   4.567  0.00  0.00     0.057 H 
ATOM     36  H   LIG d   1      11.813  -7.149   3.866  0.00  0.00     0.057 H 
ATOM     37  C   LIG d   1      13.947  -8.172   2.635  0.00  0.00     0.060 C 
ATOM     38  C   LIG d   1      13.284  -8.531   1.302  0.00  0.00     0.023 C 
ATOM     39  H   LIG d   1      14.962  -8.595   2.666  0.00  0.00     0.057 H 
ATOM     40  H   LIG d   1      14.003  -7.078   2.733  0.00  0.00     0.057 H 
ATOM     41  H   LIG d   1      13.277  -9.623   1.177  0.00  0.00     0.045 H 
ATOM     42  H   LIG d   1      13.845  -8.071   0.476  0.00  0.00     0.045 H 
ENDBRANCH  26  29
ENDBRANCH  23  26
ENDBRANCH  13  23
BRANCH   1  43
ATOM     43  C   LIG d   1       7.798  -6.698  -5.490  0.00  0.00    -0.006 C 
ATOM     44  H   LIG d   1       7.951  -6.992  -6.539  0.00  0.00     0.031 H 
ATOM     45  H   LIG d   1       8.774  -6.529  -5.010  0.00  0.00     0.031 H 
ATOM     46  H   LIG d   1       7.207  -5.770  -5.453  0.00  0.00     0.031 H 
ENDBRANCH   1  43
BRANCH   2  47
ATOM     47  C   LIG d   1       5.160  -7.344  -6.270  0.00  0.00    -0.011 A 
ATOM     48  C   LIG d   1       5.180  -7.869  -7.562  0.00  0.00    -0.050 A 
ATOM     49  C   LIG d   1       4.585  -7.177  -8.595  0.00  0.00    -0.019 A 
ATOM     50  H   LIG d   1       5.660  -8.817  -7.751  0.00  0.00     0.062 H 
ATOM     51  C   LIG d   1       3.966  -5.959  -8.352  0.00  0.00     0.120 A 
ATOM     52  H   LIG d   1       4.600  -7.583  -9.595  0.00  0.00     0.065 H 
ATOM     53  C   LIG d   1       3.944  -5.433  -7.067  0.00  0.00    -0.019 A 
ATOM     54  C   LIG d   1       4.532  -6.123  -6.027  0.00  0.00    -0.050 A 
ATOM     55  H   LIG d   1       3.462  -4.484  -6.881  0.00  0.00     0.065 H 
ATOM     56  H   LIG d   1       4.511  -5.715  -5.028  0.00  0.00     0.062 H 
BRANCH  51  57
ATOM     57  O   LIG d   1       3.380  -5.279  -9.372  0.00  0.00    -0.495 OA
BRANCH  57  58
ATOM     58  C   LIG d   1       3.166  -3.879  -9.182  0.00  0.00     0.079 C 
ATOM     59  H   LIG d   1       3.712  -3.317  -9.953  0.00  0.00     0.066 H 
ATOM     60  H   LIG d   1       3.528  -3.584  -8.187  0.00  0.00     0.066 H 
ATOM     61  H   LIG d   1       2.091  -3.659  -9.262  0.00  0.00     0.066 H 
ENDBRANCH  57  58
ENDBRANCH  51  57
ENDBRANCH   2  47
TORSDOF 7
ENDMDL
MODEL 6
REMARK VINA RESULT:      -6.0      6.098     11.196
REMARK  7 active torsions:
REMARK  status: ('A' for Active; 'I' for Inactive)
REMARK    1  A    between atoms: C_1  and  C_2 
REMARK    2  A    between atoms: C_3  and  C_25 
REMARK    3  A    between atoms: N_14  and  C_17 
REMARK    4  A    between atoms: C_17  and  C_18 
REMARK    5  A    between atoms: C_18  and  N_19 
REMARK    6  A    between atoms: C_28  and  O_31 
REMARK    7  A    between atoms: O_31  and  C_32 
ROOT
ATOM      1  C   LIG d   1       6.967  -3.161  -4.663  0.00  0.00     0.114 A 
ATOM      2  C   LIG d   1       6.587  -1.992  -5.236  0.00  0.00     0.067 A 
ATOM      3  C   LIG d   1       5.602  -2.033  -6.331  0.00  0.00     0.200 A 
ATOM      4  O   LIG d   1       5.216  -1.020  -6.889  0.00  0.00    -0.286 OA
ATOM      5  C   LIG d   1       5.107  -3.369  -6.714  0.00  0.00     0.065 A 
ATOM      6  C   LIG d   1       4.172  -3.525  -7.738  0.00  0.00    -0.044 A 
ATOM      7  C   LIG d   1       3.734  -4.773  -8.070  0.00  0.00    -0.018 A 
ATOM      8  C   LIG d   1       4.213  -5.895  -7.390  0.00  0.00     0.138 A 
ATOM      9  C   LIG d   1       5.140  -5.755  -6.375  0.00  0.00     0.082 A 
ATOM     10  C   LIG d   1       5.599  -4.488  -6.023  0.00  0.00     0.150 A 
ATOM     11  O   LIG d   1       6.501  -4.351  -5.034  0.00  0.00    -0.459 OA
ATOM     12  C   LIG d   1       5.669  -6.958  -5.637  0.00  0.00     0.005 C 
ATOM     13  N   LIG d   1       4.780  -8.106  -5.865  0.00  0.00     0.268 N 
ATOM     14  C   LIG d   1       4.505  -8.256  -7.303  0.00  0.00     0.117 C 
ATOM     15  O   LIG d   1       3.751  -7.124  -7.744  0.00  0.00    -0.454 OA
ATOM     16  H   LIG d   1       3.798  -2.661  -8.266  0.00  0.00     0.063 H 
ATOM     17  H   LIG d   1       3.010  -4.895  -8.862  0.00  0.00     0.065 H 
ATOM     18  H   LIG d   1       6.678  -7.199  -6.003  0.00  0.00     0.087 H 
ATOM     19  H   LIG d   1       5.712  -6.738  -4.560  0.00  0.00     0.087 H 
ATOM     20  H   LIG d   1       5.456  -8.310  -7.855  0.00  0.00     0.130 H 
ATOM     21  H   LIG d   1       3.930  -9.178  -7.474  0.00  0.00     0.130 H 
ATOM     22  H   LIG d   1       3.829  -7.920  -5.344  0.00  0.00     0.207 HD
ENDROOT
BRANCH  13  23
ATOM     23  C   LIG d   1       5.356  -9.337  -5.309  0.00  0.00    -0.015 C 
ATOM     24  H   LIG d   1       4.708  -9.715  -4.505  0.00  0.00     0.083 H 
ATOM     25  H   LIG d   1       5.435 -10.095  -6.102  0.00  0.00     0.083 H 
BRANCH  23  26
ATOM     26  C   LIG d   1       6.748  -9.041  -4.746  0.00  0.00     0.039 C 
ATOM     27  H   LIG d   1       7.510  -9.334  -5.482  0.00  0.00     0.048 H 
ATOM     28  H   LIG d   1       6.836  -7.965  -4.535  0.00  0.00     0.048 H 
BRANCH  26  29
ATOM     29  N   LIG d   1       6.947  -9.802  -3.506  0.00  0.00    -0.293 N 
ATOM     30  C   LIG d   1       7.770  -9.047  -2.551  0.00  0.00     0.023 C 
ATOM     31  C   LIG d   1       8.002  -9.899  -1.300  0.00  0.00     0.060 C 
ATOM     32  H   LIG d   1       8.737  -8.802  -3.014  0.00  0.00     0.045 H 
ATOM     33  H   LIG d   1       7.251  -8.118  -2.273  0.00  0.00     0.045 H 
ATOM     34  O   LIG d   1       6.739 -10.276  -0.745  0.00  0.00    -0.377 OA
ATOM     35  H   LIG d   1       8.569  -9.317  -0.558  0.00  0.00     0.057 H 
ATOM     36  H   LIG d   1       8.569 -10.803  -1.569  0.00  0.00     0.057 H 
ATOM     37  C   LIG d   1       5.910 -11.014  -1.649  0.00  0.00     0.060 C 
ATOM     38  C   LIG d   1       5.658 -10.174  -2.903  0.00  0.00     0.023 C 
ATOM     39  H   LIG d   1       4.951 -11.246  -1.164  0.00  0.00     0.057 H 
ATOM     40  H   LIG d   1       6.415 -11.950  -1.931  0.00  0.00     0.057 H 
ATOM     41  H   LIG d   1       5.105  -9.263  -2.632  0.00  0.00     0.045 H 
ATOM     42  H   LIG d   1       5.070 -10.758  -3.626  0.00  0.00     0.045 H 
ENDBRANCH  26  29
ENDBRANCH  23  26
ENDBRANCH  13  23
BRANCH   1  43
ATOM     43  C   LIG d   1       7.976  -3.110  -3.545  0.00  0.00    -0.006 C 
ATOM     44  H   LIG d   1       8.209  -2.061  -3.309  0.00  0.00     0.031 H 
ATOM     45  H   LIG d   1       8.894  -3.630  -3.855  0.00  0.00     0.031 H 
ATOM     46  H   LIG d   1       7.560  -3.603  -2.653  0.00  0.00     0.031 H 
ENDBRANCH   1  43
BRANCH   2  47
ATOM     47  C   LIG d   1       7.150  -0.701  -4.771  0.00  0.00    -0.011 A 
ATOM     48  C   LIG d   1       8.371  -0.250  -5.272  0.00  0.00    -0.050 A 
ATOM     49  C   LIG d   1       8.891   0.951  -4.838  0.00  0.00    -0.019 A 
ATOM     50  H   LIG d   1       8.907  -0.840  -6.000  0.00  0.00     0.062 H 
ATOM     51  C   LIG d   1       8.202   1.710  -3.903  0.00  0.00     0.120 A 
ATOM     52  H   LIG d   1       9.836   1.301  -5.225  0.00  0.00     0.065 H 
ATOM     53  C   LIG d   1       6.986   1.265  -3.403  0.00  0.00    -0.019 A 
ATOM     54  C   LIG d   1       6.457   0.067  -3.837  0.00  0.00    -0.050 A 
ATOM     55  H   LIG d   1       6.452   1.858  -2.675  0.00  0.00     0.065 H 
ATOM     56  H   LIG d   1       5.509  -0.277  -3.450  0.00  0.00     0.062 H 
BRANCH  51  57
ATOM     57  O   LIG d   1       8.717   2.894  -3.478  0.00  0.00    -0.495 OA
BRANCH  57  58
ATOM     58  C   LIG d   1      10.098   2.908  -3.112  0.00  0.00     0.079 C 
ATOM     59  H   LIG d   1      10.284   2.132  -2.356  0.00  0.00     0.066 H 
ATOM     60  H   LIG d   1      10.358   3.893  -2.698  0.00  0.00     0.066 H 
ATOM     61  H   LIG d   1      10.714   2.708  -4.001  0.00  0.00     0.066 H 
ENDBRANCH  57  58
ENDBRANCH  51  57
ENDBRANCH   2  47
TORSDOF 7
ENDMDL
MODEL 7
REMARK VINA RESULT:      -6.0      4.309     10.161
REMARK  7 active torsions:
REMARK  status: ('A' for Active; 'I' for Inactive)
REMARK    1  A    between atoms: C_1  and  C_2 
REMARK    2  A    between atoms: C_3  and  C_25 
REMARK    3  A    between atoms: N_14  and  C_17 
REMARK    4  A    between atoms: C_17  and  C_18 
REMARK    5  A    between atoms: C_18  and  N_19 
REMARK    6  A    between atoms: C_28  and  O_31 
REMARK    7  A    between atoms: O_31  and  C_32 
ROOT
ATOM      1  C   LIG d   1       9.974   7.791  -6.508  0.00  0.00     0.114 A 
ATOM      2  C   LIG d   1       9.963   6.543  -7.038  0.00  0.00     0.067 A 
ATOM      3  C   LIG d   1       9.948   5.389  -6.122  0.00  0.00     0.200 A 
ATOM      4  O   LIG d   1       9.936   4.241  -6.532  0.00  0.00    -0.286 OA
ATOM      5  C   LIG d   1       9.947   5.701  -4.680  0.00  0.00     0.065 A 
ATOM      6  C   LIG d   1       9.933   4.685  -3.724  0.00  0.00    -0.044 A 
ATOM      7  C   LIG d   1       9.933   5.005  -2.398  0.00  0.00    -0.018 A 
ATOM      8  C   LIG d   1       9.945   6.341  -1.992  0.00  0.00     0.138 A 
ATOM      9  C   LIG d   1       9.959   7.356  -2.929  0.00  0.00     0.082 A 
ATOM     10  C   LIG d   1       9.960   7.049  -4.287  0.00  0.00     0.150 A 
ATOM     11  O   LIG d   1       9.974   8.037  -5.200  0.00  0.00    -0.459 OA
ATOM     12  C   LIG d   1       9.976   8.802  -2.504  0.00  0.00     0.005 C 
ATOM     13  N   LIG d   1       9.561   8.908  -1.098  0.00  0.00     0.268 N 
ATOM     14  C   LIG d   1      10.314   7.947  -0.275  0.00  0.00     0.117 C 
ATOM     15  O   LIG d   1       9.939   6.623  -0.662  0.00  0.00    -0.454 OA
ATOM     16  H   LIG d   1       9.924   3.650  -4.032  0.00  0.00     0.063 H 
ATOM     17  H   LIG d   1       9.922   4.219  -1.656  0.00  0.00     0.065 H 
ATOM     18  H   LIG d   1      10.993   9.205  -2.616  0.00  0.00     0.087 H 
ATOM     19  H   LIG d   1       9.282   9.377  -3.134  0.00  0.00     0.087 H 
ATOM     20  H   LIG d   1      11.393   8.092  -0.435  0.00  0.00     0.130 H 
ATOM     21  H   LIG d   1      10.077   8.108   0.787  0.00  0.00     0.130 H 
ATOM     22  H   LIG d   1       8.491   8.664  -1.031  0.00  0.00     0.207 HD
ENDROOT
BRANCH  13  23
ATOM     23  C   LIG d   1       9.736  10.277  -0.599  0.00  0.00    -0.015 C 
ATOM     24  H   LIG d   1       8.752  10.753  -0.477  0.00  0.00     0.083 H 
ATOM     25  H   LIG d   1      10.252  10.250   0.372  0.00  0.00     0.083 H 
BRANCH  23  26
ATOM     26  C   LIG d   1      10.571  11.083  -1.597  0.00  0.00     0.039 C 
ATOM     27  H   LIG d   1      11.593  11.200  -1.209  0.00  0.00     0.048 H 
ATOM     28  H   LIG d   1      10.604  10.551  -2.560  0.00  0.00     0.048 H 
BRANCH  26  29
ATOM     29  N   LIG d   1       9.965  12.406  -1.788  0.00  0.00    -0.293 N 
ATOM     30  C   LIG d   1      10.995  13.451  -1.874  0.00  0.00     0.023 C 
ATOM     31  C   LIG d   1      10.319  14.818  -2.011  0.00  0.00     0.060 C 
ATOM     32  H   LIG d   1      11.610  13.435  -0.962  0.00  0.00     0.045 H 
ATOM     33  H   LIG d   1      11.633  13.266  -2.749  0.00  0.00     0.045 H 
ATOM     34  O   LIG d   1       9.463  14.806  -3.158  0.00  0.00    -0.377 OA
ATOM     35  H   LIG d   1      11.085  15.597  -2.134  0.00  0.00     0.057 H 
ATOM     36  H   LIG d   1       9.722  15.027  -1.111  0.00  0.00     0.057 H 
ATOM     37  C   LIG d   1       8.446  13.801  -3.108  0.00  0.00     0.060 C 
ATOM     38  C   LIG d   1       9.104  12.424  -2.980  0.00  0.00     0.023 C 
ATOM     39  H   LIG d   1       7.846  13.837  -4.029  0.00  0.00     0.057 H 
ATOM     40  H   LIG d   1       7.795  13.978  -2.239  0.00  0.00     0.057 H 
ATOM     41  H   LIG d   1       9.711  12.222  -3.873  0.00  0.00     0.045 H 
ATOM     42  H   LIG d   1       8.326  11.652  -2.882  0.00  0.00     0.045 H 
ENDBRANCH  26  29
ENDBRANCH  23  26
ENDBRANCH  13  23
BRANCH   1  43
ATOM     43  C   LIG d   1       9.990   8.965  -7.452  0.00  0.00    -0.006 C 
ATOM     44  H   LIG d   1       9.045   9.520  -7.364  0.00  0.00     0.031 H 
ATOM     45  H   LIG d   1      10.110   8.605  -8.484  0.00  0.00     0.031 H 
ATOM     46  H   LIG d   1      10.830   9.630  -7.197  0.00  0.00     0.031 H 
ENDBRANCH   1  43
BRANCH   2  47
ATOM     47  C   LIG d   1       9.965   6.344  -8.508  0.00  0.00    -0.011 A 
ATOM     48  C   LIG d   1      11.172   6.212  -9.194  0.00  0.00    -0.050 A 
ATOM     49  C   LIG d   1      11.171   6.027 -10.560  0.00  0.00    -0.019 A 
ATOM     50  H   LIG d   1      12.107   6.254  -8.655  0.00  0.00     0.062 H 
ATOM     51  C   LIG d   1       9.970   5.971 -11.253  0.00  0.00     0.120 A 
ATOM     52  H   LIG d   1      12.105   5.925 -11.092  0.00  0.00     0.065 H 
ATOM     53  C   LIG d   1       8.766   6.102 -10.574  0.00  0.00    -0.019 A 
ATOM     54  C   LIG d   1       8.761   6.282  -9.207  0.00  0.00    -0.050 A 
ATOM     55  H   LIG d   1       7.833   6.059 -11.117  0.00  0.00     0.065 H 
ATOM     56  H   LIG d   1       7.823   6.380  -8.678  0.00  0.00     0.062 H 
BRANCH  51  57
ATOM     57  O   LIG d   1       9.972   5.787 -12.600  0.00  0.00    -0.495 OA
BRANCH  57  58
ATOM     58  C   LIG d   1       8.796   6.180 -13.311  0.00  0.00     0.079 C 
ATOM     59  H   LIG d   1       9.082   6.644 -14.266  0.00  0.00     0.066 H 
ATOM     60  H   LIG d   1       8.227   6.903 -12.708  0.00  0.00     0.066 H 
ATOM     61  H   LIG d   1       8.173   5.295 -13.506  0.00  0.00     0.066 H 
ENDBRANCH  57  58
ENDBRANCH  51  57
ENDBRANCH   2  47
TORSDOF 7
ENDMDL
MODEL 8
REMARK VINA RESULT:      -6.0      7.931     12.411
REMARK  7 active torsions:
REMARK  status: ('A' for Active; 'I' for Inactive)
REMARK    1  A    between atoms: C_1  and  C_2 
REMARK    2  A    between atoms: C_3  and  C_25 
REMARK    3  A    between atoms: N_14  and  C_17 
REMARK    4  A    between atoms: C_17  and  C_18 
REMARK    5  A    between atoms: C_18  and  N_19 
REMARK    6  A    between atoms: C_28  and  O_31 
REMARK    7  A    between atoms: O_31  and  C_32 
ROOT
ATOM      1  C   LIG d   1       4.623  -2.382  -7.385  0.00  0.00     0.114 A 
ATOM      2  C   LIG d   1       4.633  -1.041  -7.183  0.00  0.00     0.067 A 
ATOM      3  C   LIG d   1       3.725  -0.202  -7.985  0.00  0.00     0.200 A 
ATOM      4  O   LIG d   1       3.682   1.009  -7.853  0.00  0.00    -0.286 OA
ATOM      5  C   LIG d   1       2.869  -0.910  -8.956  0.00  0.00     0.065 A 
ATOM      6  C   LIG d   1       1.972  -0.214  -9.767  0.00  0.00    -0.044 A 
ATOM      7  C   LIG d   1       1.194  -0.897 -10.655  0.00  0.00    -0.018 A 
ATOM      8  C   LIG d   1       1.289  -2.286 -10.757  0.00  0.00     0.138 A 
ATOM      9  C   LIG d   1       2.175  -2.987  -9.961  0.00  0.00     0.082 A 
ATOM     10  C   LIG d   1       2.977  -2.307  -9.048  0.00  0.00     0.150 A 
ATOM     11  O   LIG d   1       3.838  -2.989  -8.272  0.00  0.00    -0.459 OA
ATOM     12  C   LIG d   1       2.290  -4.486 -10.064  0.00  0.00     0.005 C 
ATOM     13  N   LIG d   1       1.108  -5.026 -10.752  0.00  0.00     0.268 N 
ATOM     14  C   LIG d   1       0.859  -4.274 -11.993  0.00  0.00     0.117 C 
ATOM     15  O   LIG d   1       0.496  -2.935 -11.651  0.00  0.00    -0.454 OA
ATOM     16  H   LIG d   1       1.894   0.860  -9.692  0.00  0.00     0.063 H 
ATOM     17  H   LIG d   1       0.499  -0.359 -11.284  0.00  0.00     0.065 H 
ATOM     18  H   LIG d   1       3.195  -4.746 -10.633  0.00  0.00     0.087 H 
ATOM     19  H   LIG d   1       2.354  -4.919  -9.055  0.00  0.00     0.087 H 
ATOM     20  H   LIG d   1       1.771  -4.269 -12.608  0.00  0.00     0.130 H 
ATOM     21  H   LIG d   1       0.042  -4.752 -12.554  0.00  0.00     0.130 H 
ATOM     22  H   LIG d   1       0.237  -4.910 -10.091  0.00  0.00     0.207 HD
ENDROOT
BRANCH  13  23
ATOM     23  C   LIG d   1       1.268  -6.459 -11.029  0.00  0.00    -0.015 C 
ATOM     24  H   LIG d   1       1.079  -6.651 -12.095  0.00  0.00     0.083 H 
ATOM     25  H   LIG d   1       2.293  -6.769 -10.777  0.00  0.00     0.083 H 
BRANCH  23  26
ATOM     26  C   LIG d   1       0.272  -7.256 -10.183  0.00  0.00     0.039 C 
ATOM     27  H   LIG d   1       0.270  -8.305 -10.513  0.00  0.00     0.048 H 
ATOM     28  H   LIG d   1       0.569  -7.206  -9.125  0.00  0.00     0.048 H 
BRANCH  26  29
ATOM     29  N   LIG d   1      -1.072  -6.689 -10.343  0.00  0.00    -0.293 N 
ATOM     30  C   LIG d   1      -1.794  -7.346 -11.442  0.00  0.00     0.023 C 
ATOM     31  C   LIG d   1      -3.165  -6.684 -11.613  0.00  0.00     0.060 C 
ATOM     32  H   LIG d   1      -1.217  -7.243 -12.373  0.00  0.00     0.045 H 
ATOM     33  H   LIG d   1      -1.926  -8.412 -11.209  0.00  0.00     0.045 H 
ATOM     34  O   LIG d   1      -3.880  -6.756 -10.376  0.00  0.00    -0.377 OA
ATOM     35  H   LIG d   1      -3.732  -7.209 -12.396  0.00  0.00     0.057 H 
ATOM     36  H   LIG d   1      -3.033  -5.630 -11.899  0.00  0.00     0.057 H 
ATOM     37  C   LIG d   1      -3.206  -6.125  -9.283  0.00  0.00     0.060 C 
ATOM     38  C   LIG d   1      -1.836  -6.780  -9.090  0.00  0.00     0.023 C 
ATOM     39  H   LIG d   1      -3.801  -6.242  -8.366  0.00  0.00     0.057 H 
ATOM     40  H   LIG d   1      -3.072  -5.055  -9.500  0.00  0.00     0.057 H 
ATOM     41  H   LIG d   1      -1.968  -7.837  -8.818  0.00  0.00     0.045 H 
ATOM     42  H   LIG d   1      -1.289  -6.262  -8.289  0.00  0.00     0.045 H 
ENDBRANCH  26  29
ENDBRANCH  23  26
ENDBRANCH  13  23
BRANCH   1  43
ATOM     43  C   LIG d   1       5.556  -3.232  -6.562  0.00  0.00    -0.006 C 
ATOM     44  H   LIG d   1       4.977  -3.999  -6.027  0.00  0.00     0.031 H 
ATOM     45  H   LIG d   1       6.086  -2.598  -5.835  0.00  0.00     0.031 H 
ATOM     46  H   LIG d   1       6.288  -3.720  -7.224  0.00  0.00     0.031 H 
ENDBRANCH   1  43
BRANCH   2  47
ATOM     47  C   LIG d   1       5.537  -0.432  -6.177  0.00  0.00    -0.011 A 
ATOM     48  C   LIG d   1       5.147  -0.359  -4.840  0.00  0.00    -0.050 A 
ATOM     49  C   LIG d   1       5.990   0.207  -3.907  0.00  0.00    -0.019 A 
ATOM     50  H   LIG d   1       4.186  -0.747  -4.536  0.00  0.00     0.062 H 
ATOM     51  C   LIG d   1       7.226   0.704  -4.298  0.00  0.00     0.120 A 
ATOM     52  H   LIG d   1       5.689   0.264  -2.872  0.00  0.00     0.065 H 
ATOM     53  C   LIG d   1       7.618   0.633  -5.628  0.00  0.00    -0.019 A 
ATOM     54  C   LIG d   1       6.781   0.062  -6.565  0.00  0.00    -0.050 A 
ATOM     55  H   LIG d   1       8.580   1.021  -5.928  0.00  0.00     0.065 H 
ATOM     56  H   LIG d   1       7.089   0.004  -7.599  0.00  0.00     0.062 H 
BRANCH  51  57
ATOM     57  O   LIG d   1       8.055   1.260  -3.376  0.00  0.00    -0.495 OA
BRANCH  57  58
ATOM     58  C   LIG d   1       8.795   2.414  -3.780  0.00  0.00     0.079 C 
ATOM     59  H   LIG d   1       9.140   2.284  -4.816  0.00  0.00     0.066 H 
ATOM     60  H   LIG d   1       9.664   2.544  -3.118  0.00  0.00     0.066 H 
ATOM     61  H   LIG d   1       8.150   3.303  -3.717  0.00  0.00     0.066 H 
ENDBRANCH  57  58
ENDBRANCH  51  57
ENDBRANCH   2  47
TORSDOF 7
ENDMDL
MODEL 9
REMARK VINA RESULT:      -5.9      1.643      2.197
REMARK  7 active torsions:
REMARK  status: ('A' for Active; 'I' for Inactive)
REMARK    1  A    between atoms: C_1  and  C_2 
REMARK    2  A    between atoms: C_3  and  C_25 
REMARK    3  A    between atoms: N_14  and  C_17 
REMARK    4  A    between atoms: C_17  and  C_18 
REMARK    5  A    between atoms: C_18  and  N_19 
REMARK    6  A    between atoms: C_28  and  O_31 
REMARK    7  A    between atoms: O_31  and  C_32 
ROOT
ATOM      1  C   LIG d   1      10.196   6.674  -2.625  0.00  0.00     0.114 A 
ATOM      2  C   LIG d   1      10.246   8.009  -2.860  0.00  0.00     0.067 A 
ATOM      3  C   LIG d   1      10.142   8.484  -4.251  0.00  0.00     0.200 A 
ATOM      4  O   LIG d   1      10.178   9.669  -4.531  0.00  0.00    -0.286 OA
ATOM      5  C   LIG d   1       9.990   7.443  -5.285  0.00  0.00     0.065 A 
ATOM      6  C   LIG d   1       9.881   7.780  -6.635  0.00  0.00    -0.044 A 
ATOM      7  C   LIG d   1       9.743   6.795  -7.569  0.00  0.00    -0.018 A 
ATOM      8  C   LIG d   1       9.706   5.454  -7.182  0.00  0.00     0.138 A 
ATOM      9  C   LIG d   1       9.813   5.107  -5.849  0.00  0.00     0.082 A 
ATOM     10  C   LIG d   1       9.956   6.099  -4.882  0.00  0.00     0.150 A 
ATOM     11  O   LIG d   1      10.060   5.761  -3.584  0.00  0.00    -0.459 OA
ATOM     12  C   LIG d   1       9.780   3.663  -5.419  0.00  0.00     0.005 C 
ATOM     13  N   LIG d   1       9.221   2.839  -6.501  0.00  0.00     0.268 N 
ATOM     14  C   LIG d   1       9.888   3.156  -7.775  0.00  0.00     0.117 C 
ATOM     15  O   LIG d   1       9.562   4.499  -8.139  0.00  0.00    -0.454 OA
ATOM     16  H   LIG d   1       9.909   8.815  -6.939  0.00  0.00     0.063 H 
ATOM     17  H   LIG d   1       9.659   7.055  -8.614  0.00  0.00     0.065 H 
ATOM     18  H   LIG d   1      10.801   3.324  -5.193  0.00  0.00     0.087 H 
ATOM     19  H   LIG d   1       9.152   3.562  -4.522  0.00  0.00     0.087 H 
ATOM     20  H   LIG d   1      10.977   3.056  -7.653  0.00  0.00     0.130 H 
ATOM     21  H   LIG d   1       9.542   2.461  -8.554  0.00  0.00     0.130 H 
ATOM     22  H   LIG d   1       8.150   3.072  -6.599  0.00  0.00     0.207 HD
ENDROOT
BRANCH  13  23
ATOM     23  C   LIG d   1       9.337   1.409  -6.189  0.00  0.00    -0.015 C 
ATOM     24  H   LIG d   1       8.545   0.853  -6.711  0.00  0.00     0.083 H 
ATOM     25  H   LIG d   1      10.320   1.041  -6.517  0.00  0.00     0.083 H 
BRANCH  23  26
ATOM     26  C   LIG d   1       9.194   1.203  -4.679  0.00  0.00     0.039 C 
ATOM     27  H   LIG d   1      10.018   0.571  -4.316  0.00  0.00     0.048 H 
ATOM     28  H   LIG d   1       9.230   2.178  -4.171  0.00  0.00     0.048 H 
BRANCH  26  29
ATOM     29  N   LIG d   1       7.911   0.548  -4.393  0.00  0.00    -0.293 N 
ATOM     30  C   LIG d   1       7.051   1.411  -3.571  0.00  0.00     0.023 C 
ATOM     31  C   LIG d   1       5.752   0.668  -3.247  0.00  0.00     0.060 C 
ATOM     32  H   LIG d   1       7.573   1.665  -2.636  0.00  0.00     0.045 H 
ATOM     33  H   LIG d   1       6.820   2.333  -4.124  0.00  0.00     0.045 H 
ATOM     34  O   LIG d   1       5.117   0.276  -4.467  0.00  0.00    -0.377 OA
ATOM     35  H   LIG d   1       5.080   1.330  -2.681  0.00  0.00     0.057 H 
ATOM     36  H   LIG d   1       5.978  -0.226  -2.648  0.00  0.00     0.057 H 
ATOM     37  C   LIG d   1       5.926  -0.567  -5.293  0.00  0.00     0.060 C 
ATOM     38  C   LIG d   1       7.227   0.164  -5.637  0.00  0.00     0.023 C 
ATOM     39  H   LIG d   1       5.384  -0.806  -6.220  0.00  0.00     0.057 H 
ATOM     40  H   LIG d   1       6.160  -1.497  -4.755  0.00  0.00     0.057 H 
ATOM     41  H   LIG d   1       7.000   1.065  -6.223  0.00  0.00     0.045 H 
ATOM     42  H   LIG d   1       7.879  -0.500  -6.223  0.00  0.00     0.045 H 
ENDBRANCH  26  29
ENDBRANCH  23  26
ENDBRANCH  13  23
BRANCH   1  43
ATOM     43  C   LIG d   1      10.305   6.198  -1.200  0.00  0.00    -0.006 C 
ATOM     44  H   LIG d   1      11.156   6.695  -0.711  0.00  0.00     0.031 H 
ATOM     45  H   LIG d   1      10.459   5.108  -1.188  0.00  0.00     0.031 H 
ATOM     46  H   LIG d   1       9.378   6.442  -0.660  0.00  0.00     0.031 H 
ENDBRANCH   1  43
BRANCH   2  47
ATOM     47  C   LIG d   1      10.402   8.970  -1.740  0.00  0.00    -0.011 A 
ATOM     48  C   LIG d   1       9.275   9.491  -1.105  0.00  0.00    -0.050 A 
ATOM     49  C   LIG d   1       9.423  10.384  -0.064  0.00  0.00    -0.019 A 
ATOM     50  H   LIG d   1       8.288   9.194  -1.427  0.00  0.00     0.062 H 
ATOM     51  C   LIG d   1      10.692  10.764   0.350  0.00  0.00     0.120 A 
ATOM     52  H   LIG d   1       8.552  10.787   0.428  0.00  0.00     0.065 H 
ATOM     53  C   LIG d   1      11.816  10.247  -0.280  0.00  0.00    -0.019 A 
ATOM     54  C   LIG d   1      11.674   9.349  -1.317  0.00  0.00    -0.050 A 
ATOM     55  H   LIG d   1      12.802  10.546   0.046  0.00  0.00     0.065 H 
ATOM     56  H   LIG d   1      12.550   8.945  -1.805  0.00  0.00     0.062 H 
BRANCH  51  57
ATOM     57  O   LIG d   1      10.835  11.644   1.377  0.00  0.00    -0.495 OA
BRANCH  57  58
ATOM     58  C   LIG d   1      11.419  12.910   1.070  0.00  0.00     0.079 C 
ATOM     59  H   LIG d   1      10.843  13.709   1.559  0.00  0.00     0.066 H 
ATOM     60  H   LIG d   1      11.410  13.066  -0.019  0.00  0.00     0.066 H 
ATOM     61  H   LIG d   1      12.457  12.933   1.435  0.00  0.00     0.066 H 
ENDBRANCH  57  58
ENDBRANCH  51  57
ENDBRANCH   2  47
TORSDOF 7
ENDMDL
