MODEL 1
REMARK VINA RESULT:      -7.1      0.000      0.000
REMARK  4 active torsions:
REMARK  status: ('A' for Active; 'I' for Inactive)
REMARK    1  A    between atoms: C_8  and  C_12 
REMARK    2  A    between atoms: C_15  and  N_18 
REMARK       I    between atoms: N_18  and  C_19 
REMARK    3  A    between atoms: C_19  and  C_21 
REMARK    4  A    between atoms: C_22  and  C_23 
ROOT
ATOM      1  C   LIG d   1       5.474  -4.479  -5.367  0.00  0.00    -0.011 A 
ATOM      2  C   LIG d   1       6.507  -5.392  -5.149  0.00  0.00    -0.052 A 
ATOM      3  C   LIG d   1       6.408  -6.672  -5.648  0.00  0.00    -0.040 A 
ATOM      4  C   LIG d   1       5.281  -7.055  -6.367  0.00  0.00     0.034 A 
ATOM      5  C   LIG d   1       4.254  -6.146  -6.591  0.00  0.00    -0.040 A 
ATOM      6  C   LIG d   1       4.346  -4.865  -6.090  0.00  0.00    -0.052 A 
ATOM      7  H   LIG d   1       7.381  -5.094  -4.589  0.00  0.00     0.062 H 
ATOM      8  H   LIG d   1       7.207  -7.379  -5.479  0.00  0.00     0.064 H 
ATOM      9  H   LIG d   1       3.383  -6.444  -7.154  0.00  0.00     0.064 H 
ATOM     10  H   LIG d   1       3.545  -4.160  -6.259  0.00  0.00     0.062 H 
ENDROOT
BRANCH   1  11
ATOM     11  C   LIG d   1       5.577  -3.100  -4.833  0.00  0.00     0.067 A 
ATOM     12  C   LIG d   1       4.844  -2.721  -3.741  0.00  0.00    -0.036 A 
ATOM     13  C   LIG d   1       4.985  -1.347  -3.255  0.00  0.00     0.018 A 
ATOM     14  H   LIG d   1       4.177  -3.416  -3.253  0.00  0.00     0.063 H 
ATOM     15  C   LIG d   1       5.860  -0.464  -3.912  0.00  0.00     0.139 A 
ATOM     16  C   LIG d   1       4.256  -0.908  -2.143  0.00  0.00    -0.051 A 
ATOM     17  C   LIG d   1       5.988   0.838  -3.444  0.00  0.00    -0.019 A 
ATOM     18  O   LIG d   1       6.568  -0.873  -4.985  0.00  0.00    -0.422 OA
ATOM     19  C   LIG d   1       5.262   1.250  -2.347  0.00  0.00    -0.058 A 
ATOM     20  H   LIG d   1       6.657   1.526  -3.940  0.00  0.00     0.065 H 
ATOM     21  C   LIG d   1       4.399   0.376  -1.701  0.00  0.00    -0.061 A 
ATOM     22  H   LIG d   1       5.366   2.263  -1.987  0.00  0.00     0.062 H 
ATOM     23  H   LIG d   1       3.836   0.715  -0.843  0.00  0.00     0.062 H 
ATOM     24  C   LIG d   1       6.474  -2.124  -5.461  0.00  0.00     0.345 A 
ATOM     25  O   LIG d   1       7.135  -2.452  -6.429  0.00  0.00    -0.244 OA
ATOM     26  H   LIG d   1       3.582  -1.583  -1.636  0.00  0.00     0.062 H 
ENDBRANCH   1  11
BRANCH   4  27
ATOM     27  N   LIG d   1       5.185  -8.354  -6.872  0.00  0.00    -0.282 N 
ATOM     28  C   LIG d   1       4.665  -9.336  -6.109  0.00  0.00     0.241 C 
ATOM     29  O   LIG d   1       4.201  -9.075  -5.013  0.00  0.00    -0.271 OA
ATOM     30  H   LIG d   1       5.492  -8.550  -7.771  0.00  0.00     0.155 HD
BRANCH  28  31
ATOM     31  C   LIG d   1       4.655 -10.670  -6.582  0.00  0.00     0.004 C 
ATOM     32  C   LIG d   1       3.902 -11.607  -5.953  0.00  0.00    -0.014 C 
ATOM     33  H   LIG d   1       3.309 -11.335  -5.093  0.00  0.00     0.066 H 
ATOM     34  H   LIG d   1       5.248 -10.941  -7.443  0.00  0.00     0.067 H 
BRANCH  32  35
ATOM     35  C   LIG d   1       3.893 -12.941  -6.427  0.00  0.00     0.128 A 
ATOM     36  O   LIG d   1       4.959 -13.764  -6.506  0.00  0.00    -0.464 OA
ATOM     37  C   LIG d   1       4.572 -14.948  -7.001  0.00  0.00     0.092 A 
ATOM     38  C   LIG d   1       3.244 -14.910  -7.251  0.00  0.00    -0.023 A 
ATOM     39  H   LIG d   1       5.218 -15.798  -7.172  0.00  0.00     0.103 H 
ATOM     40  C   LIG d   1       2.790 -13.634  -6.884  0.00  0.00    -0.017 A 
ATOM     41  H   LIG d   1       2.645 -15.712  -7.654  0.00  0.00     0.065 H 
ATOM     42  H   LIG d   1       1.777 -13.265  -6.949  0.00  0.00     0.066 H 
ENDBRANCH  32  35
ENDBRANCH  28  31
ENDBRANCH   4  27
TORSDOF 4
ENDMDL
MODEL 2
REMARK VINA RESULT:      -6.4      7.621     10.420
REMARK  4 active torsions:
REMARK  status: ('A' for Active; 'I' for Inactive)
REMARK    1  A    between atoms: C_8  and  C_12 
REMARK    2  A    between atoms: C_15  and  N_18 
REMARK       I    between atoms: N_18  and  C_19 
REMARK    3  A    between atoms: C_19  and  C_21 
REMARK    4  A    between atoms: C_22  and  C_23 
ROOT
ATOM      1  C   LIG d   1       3.834  -0.051  -8.668  0.00  0.00    -0.011 A 
ATOM      2  C   LIG d   1       2.828  -0.530  -9.509  0.00  0.00    -0.052 A 
ATOM      3  C   LIG d   1       2.979  -0.450 -10.877  0.00  0.00    -0.040 A 
ATOM      4  C   LIG d   1       4.133   0.107 -11.418  0.00  0.00     0.034 A 
ATOM      5  C   LIG d   1       5.138   0.579 -10.583  0.00  0.00    -0.040 A 
ATOM      6  C   LIG d   1       4.990   0.506  -9.215  0.00  0.00    -0.052 A 
ATOM      7  H   LIG d   1       1.932  -0.961  -9.088  0.00  0.00     0.062 H 
ATOM      8  H   LIG d   1       2.201  -0.819 -11.528  0.00  0.00     0.064 H 
ATOM      9  H   LIG d   1       6.035   1.007 -11.006  0.00  0.00     0.064 H 
ATOM     10  H   LIG d   1       5.769   0.877  -8.565  0.00  0.00     0.062 H 
ENDROOT
BRANCH   1  11
ATOM     11  C   LIG d   1       3.674  -0.137  -7.197  0.00  0.00     0.067 A 
ATOM     12  C   LIG d   1       4.171  -1.208  -6.506  0.00  0.00    -0.036 A 
ATOM     13  C   LIG d   1       3.986  -1.243  -5.054  0.00  0.00     0.018 A 
ATOM     14  H   LIG d   1       4.684  -2.009  -7.018  0.00  0.00     0.063 H 
ATOM     15  C   LIG d   1       3.312  -0.186  -4.415  0.00  0.00     0.139 A 
ATOM     16  C   LIG d   1       4.473  -2.317  -4.299  0.00  0.00    -0.051 A 
ATOM     17  C   LIG d   1       3.141  -0.226  -3.037  0.00  0.00    -0.019 A 
ATOM     18  O   LIG d   1       2.836   0.855  -5.129  0.00  0.00    -0.422 OA
ATOM     19  C   LIG d   1       3.629  -1.292  -2.312  0.00  0.00    -0.058 A 
ATOM     20  H   LIG d   1       2.625   0.579  -2.533  0.00  0.00     0.065 H 
ATOM     21  C   LIG d   1       4.293  -2.334  -2.946  0.00  0.00    -0.061 A 
ATOM     22  H   LIG d   1       3.494  -1.318  -1.241  0.00  0.00     0.062 H 
ATOM     23  H   LIG d   1       4.669  -3.162  -2.364  0.00  0.00     0.062 H 
ATOM     24  C   LIG d   1       2.988   0.929  -6.460  0.00  0.00     0.345 A 
ATOM     25  O   LIG d   1       2.548   1.890  -7.064  0.00  0.00    -0.244 OA
ATOM     26  H   LIG d   1       4.991  -3.130  -4.787  0.00  0.00     0.062 H 
ENDBRANCH   1  11
BRANCH   4  27
ATOM     27  N   LIG d   1       4.283   0.187 -12.805  0.00  0.00    -0.282 N 
ATOM     28  C   LIG d   1       4.847  -0.833 -13.482  0.00  0.00     0.241 C 
ATOM     29  O   LIG d   1       5.147  -1.859 -12.897  0.00  0.00    -0.271 OA
ATOM     30  H   LIG d   1       3.982   0.977 -13.281  0.00  0.00     0.155 HD
BRANCH  28  31
ATOM     31  C   LIG d   1       5.088  -0.713 -14.871  0.00  0.00     0.004 C 
ATOM     32  C   LIG d   1       4.294   0.084 -15.631  0.00  0.00    -0.014 C 
ATOM     33  H   LIG d   1       3.480   0.627 -15.175  0.00  0.00     0.066 H 
ATOM     34  H   LIG d   1       5.902  -1.257 -15.326  0.00  0.00     0.067 H 
BRANCH  32  35
ATOM     35  C   LIG d   1       4.536   0.202 -17.020  0.00  0.00     0.128 A 
ATOM     36  O   LIG d   1       5.285  -0.631 -17.772  0.00  0.00    -0.464 OA
ATOM     37  C   LIG d   1       5.287  -0.205 -19.043  0.00  0.00     0.092 A 
ATOM     38  C   LIG d   1       4.536   0.915 -19.134  0.00  0.00    -0.023 A 
ATOM     39  H   LIG d   1       5.805  -0.681 -19.863  0.00  0.00     0.103 H 
ATOM     40  C   LIG d   1       4.041   1.188 -17.850  0.00  0.00    -0.017 A 
ATOM     41  H   LIG d   1       4.348   1.489 -20.029  0.00  0.00     0.065 H 
ATOM     42  H   LIG d   1       3.401   2.010 -17.565  0.00  0.00     0.066 H 
ENDBRANCH  32  35
ENDBRANCH  28  31
ENDBRANCH   4  27
TORSDOF 4
ENDMDL
MODEL 3
REMARK VINA RESULT:      -6.4      7.704     14.836
REMARK  4 active torsions:
REMARK  status: ('A' for Active; 'I' for Inactive)
REMARK    1  A    between atoms: C_8  and  C_12 
REMARK    2  A    between atoms: C_15  and  N_18 
REMARK       I    between atoms: N_18  and  C_19 
REMARK    3  A    between atoms: C_19  and  C_21 
REMARK    4  A    between atoms: C_22  and  C_23 
ROOT
ATOM      1  C   LIG d   1       8.694   2.553  -4.656  0.00  0.00    -0.011 A 
ATOM      2  C   LIG d   1       9.307   3.393  -3.725  0.00  0.00    -0.052 A 
ATOM      3  C   LIG d   1      10.078   4.450  -4.156  0.00  0.00    -0.040 A 
ATOM      4  C   LIG d   1      10.246   4.680  -5.517  0.00  0.00     0.034 A 
ATOM      5  C   LIG d   1       9.633   3.848  -6.446  0.00  0.00    -0.040 A 
ATOM      6  C   LIG d   1       8.864   2.786  -6.021  0.00  0.00    -0.052 A 
ATOM      7  H   LIG d   1       9.176   3.213  -2.668  0.00  0.00     0.062 H 
ATOM      8  H   LIG d   1      10.552   5.100  -3.436  0.00  0.00     0.064 H 
ATOM      9  H   LIG d   1       9.761   4.032  -7.503  0.00  0.00     0.064 H 
ATOM     10  H   LIG d   1       8.392   2.137  -6.743  0.00  0.00     0.062 H 
ENDROOT
BRANCH   1  11
ATOM     11  C   LIG d   1       7.863   1.415  -4.196  0.00  0.00     0.067 A 
ATOM     12  C   LIG d   1       6.725   1.635  -3.468  0.00  0.00    -0.036 A 
ATOM     13  C   LIG d   1       5.941   0.476  -3.039  0.00  0.00     0.018 A 
ATOM     14  H   LIG d   1       6.414   2.638  -3.216  0.00  0.00     0.063 H 
ATOM     15  C   LIG d   1       6.372  -0.818  -3.382  0.00  0.00     0.139 A 
ATOM     16  C   LIG d   1       4.769   0.646  -2.292  0.00  0.00    -0.051 A 
ATOM     17  C   LIG d   1       5.623  -1.914  -2.971  0.00  0.00    -0.019 A 
ATOM     18  O   LIG d   1       7.500  -0.998  -4.100  0.00  0.00    -0.422 OA
ATOM     19  C   LIG d   1       4.471  -1.725  -2.236  0.00  0.00    -0.058 A 
ATOM     20  H   LIG d   1       5.942  -2.914  -3.227  0.00  0.00     0.065 H 
ATOM     21  C   LIG d   1       4.049  -0.445  -1.900  0.00  0.00    -0.061 A 
ATOM     22  H   LIG d   1       3.892  -2.579  -1.920  0.00  0.00     0.062 H 
ATOM     23  H   LIG d   1       3.145  -0.314  -1.323  0.00  0.00     0.062 H 
ATOM     24  C   LIG d   1       8.245   0.037  -4.519  0.00  0.00     0.345 A 
ATOM     25  O   LIG d   1       9.252  -0.171  -5.170  0.00  0.00    -0.244 OA
ATOM     26  H   LIG d   1       4.436   1.639  -2.027  0.00  0.00     0.062 H 
ENDBRANCH   1  11
BRANCH   4  27
ATOM     27  N   LIG d   1      11.029   5.753  -5.951  0.00  0.00    -0.282 N 
ATOM     28  C   LIG d   1      10.472   6.969  -6.120  0.00  0.00     0.241 C 
ATOM     29  O   LIG d   1       9.307   7.152  -5.814  0.00  0.00    -0.271 OA
ATOM     30  H   LIG d   1      11.973   5.624  -6.131  0.00  0.00     0.155 HD
BRANCH  28  31
ATOM     31  C   LIG d   1      11.240   8.031  -6.651  0.00  0.00     0.004 C 
ATOM     32  C   LIG d   1      10.625   9.062  -7.285  0.00  0.00    -0.014 C 
ATOM     33  H   LIG d   1       9.550   9.071  -7.384  0.00  0.00     0.066 H 
ATOM     34  H   LIG d   1      12.315   8.022  -6.553  0.00  0.00     0.067 H 
BRANCH  32  35
ATOM     35  C   LIG d   1      11.394  10.125  -7.817  0.00  0.00     0.128 A 
ATOM     36  O   LIG d   1      11.174  10.758  -8.988  0.00  0.00    -0.464 OA
ATOM     37  C   LIG d   1      12.102  11.710  -9.161  0.00  0.00     0.092 A 
ATOM     38  C   LIG d   1      12.941  11.706  -8.101  0.00  0.00    -0.023 A 
ATOM     39  H   LIG d   1      12.169  12.373 -10.011  0.00  0.00     0.103 H 
ATOM     40  C   LIG d   1      12.500  10.702  -7.226  0.00  0.00    -0.017 A 
ATOM     41  H   LIG d   1      13.789  12.358  -7.954  0.00  0.00     0.065 H 
ATOM     42  H   LIG d   1      12.941  10.431  -6.278  0.00  0.00     0.066 H 
ENDBRANCH  32  35
ENDBRANCH  28  31
ENDBRANCH   4  27
TORSDOF 4
ENDMDL
MODEL 4
REMARK VINA RESULT:      -6.2      7.172      9.869
REMARK  4 active torsions:
REMARK  status: ('A' for Active; 'I' for Inactive)
REMARK    1  A    between atoms: C_8  and  C_12 
REMARK    2  A    between atoms: C_15  and  N_18 
REMARK       I    between atoms: N_18  and  C_19 
REMARK    3  A    between atoms: C_19  and  C_21 
REMARK    4  A    between atoms: C_22  and  C_23 
ROOT
ATOM      1  C   LIG d   1       3.816  -0.884  -8.220  0.00  0.00    -0.011 A 
ATOM      2  C   LIG d   1       2.574  -1.171  -8.789  0.00  0.00    -0.052 A 
ATOM      3  C   LIG d   1       2.389  -1.022 -10.146  0.00  0.00    -0.040 A 
ATOM      4  C   LIG d   1       3.437  -0.584 -10.948  0.00  0.00     0.034 A 
ATOM      5  C   LIG d   1       4.676  -0.303 -10.385  0.00  0.00    -0.040 A 
ATOM      6  C   LIG d   1       4.865  -0.446  -9.027  0.00  0.00    -0.052 A 
ATOM      7  H   LIG d   1       1.760  -1.510  -8.166  0.00  0.00     0.062 H 
ATOM      8  H   LIG d   1       1.428  -1.244 -10.587  0.00  0.00     0.064 H 
ATOM      9  H   LIG d   1       5.490   0.032 -11.010  0.00  0.00     0.064 H 
ATOM     10  H   LIG d   1       5.827  -0.223  -8.589  0.00  0.00     0.062 H 
ENDROOT
BRANCH   1  11
ATOM     11  C   LIG d   1       4.018  -1.045  -6.761  0.00  0.00     0.067 A 
ATOM     12  C   LIG d   1       3.657  -0.049  -5.895  0.00  0.00    -0.036 A 
ATOM     13  C   LIG d   1       3.878  -0.260  -4.463  0.00  0.00     0.018 A 
ATOM     14  H   LIG d   1       3.221   0.871  -6.257  0.00  0.00     0.063 H 
ATOM     15  C   LIG d   1       4.449  -1.467  -4.020  0.00  0.00     0.139 A 
ATOM     16  C   LIG d   1       3.527   0.727  -3.535  0.00  0.00    -0.051 A 
ATOM     17  C   LIG d   1       4.656  -1.661  -2.660  0.00  0.00    -0.019 A 
ATOM     18  O   LIG d   1       4.793  -2.428  -4.903  0.00  0.00    -0.422 OA
ATOM     19  C   LIG d   1       4.303  -0.676  -1.762  0.00  0.00    -0.058 A 
ATOM     20  H   LIG d   1       5.093  -2.583  -2.306  0.00  0.00     0.065 H 
ATOM     21  C   LIG d   1       3.740   0.515  -2.203  0.00  0.00    -0.061 A 
ATOM     22  H   LIG d   1       4.465  -0.831  -0.706  0.00  0.00     0.062 H 
ATOM     23  H   LIG d   1       3.470   1.277  -1.487  0.00  0.00     0.062 H 
ATOM     24  C   LIG d   1       4.602  -2.278  -6.223  0.00  0.00     0.345 A 
ATOM     25  O   LIG d   1       4.922  -3.173  -6.983  0.00  0.00    -0.244 OA
ATOM     26  H   LIG d   1       3.090   1.656  -3.872  0.00  0.00     0.062 H 
ENDBRANCH   1  11
BRANCH   4  27
ATOM     27  N   LIG d   1       3.246  -0.433 -12.324  0.00  0.00    -0.282 N 
ATOM     28  C   LIG d   1       3.594  -1.427 -13.166  0.00  0.00     0.241 C 
ATOM     29  O   LIG d   1       3.996  -2.488 -12.722  0.00  0.00    -0.271 OA
ATOM     30  H   LIG d   1       2.864   0.386 -12.674  0.00  0.00     0.155 HD
BRANCH  28  31
ATOM     31  C   LIG d   1       3.492  -1.238 -14.564  0.00  0.00     0.004 C 
ATOM     32  C   LIG d   1       4.242  -0.288 -15.177  0.00  0.00    -0.014 C 
ATOM     33  H   LIG d   1       4.918   0.323 -14.598  0.00  0.00     0.066 H 
ATOM     34  H   LIG d   1       2.816  -1.849 -15.143  0.00  0.00     0.067 H 
BRANCH  32  35
ATOM     35  C   LIG d   1       4.139  -0.099 -16.576  0.00  0.00     0.128 A 
ATOM     36  O   LIG d   1       4.050   1.086 -17.215  0.00  0.00    -0.464 OA
ATOM     37  C   LIG d   1       3.967   0.875 -18.536  0.00  0.00     0.092 A 
ATOM     38  C   LIG d   1       4.001  -0.455 -18.774  0.00  0.00    -0.023 A 
ATOM     39  H   LIG d   1       3.887   1.645 -19.290  0.00  0.00     0.103 H 
ATOM     40  C   LIG d   1       4.117  -1.096 -17.531  0.00  0.00    -0.017 A 
ATOM     41  H   LIG d   1       3.953  -0.934 -19.741  0.00  0.00     0.065 H 
ATOM     42  H   LIG d   1       4.175  -2.160 -17.355  0.00  0.00     0.066 H 
ENDBRANCH  32  35
ENDBRANCH  28  31
ENDBRANCH   4  27
TORSDOF 4
ENDMDL
MODEL 5
REMARK VINA RESULT:      -6.2      7.878     15.828
REMARK  4 active torsions:
REMARK  status: ('A' for Active; 'I' for Inactive)
REMARK    1  A    between atoms: C_8  and  C_12 
REMARK    2  A    between atoms: C_15  and  N_18 
REMARK       I    between atoms: N_18  and  C_19 
REMARK    3  A    between atoms: C_19  and  C_21 
REMARK    4  A    between atoms: C_22  and  C_23 
ROOT
ATOM      1  C   LIG d   1       9.355   3.114  -3.802  0.00  0.00    -0.011 A 
ATOM      2  C   LIG d   1       8.969   4.183  -4.612  0.00  0.00    -0.052 A 
ATOM      3  C   LIG d   1       9.388   5.461  -4.308  0.00  0.00    -0.040 A 
ATOM      4  C   LIG d   1      10.192   5.684  -3.196  0.00  0.00     0.034 A 
ATOM      5  C   LIG d   1      10.582   4.619  -2.391  0.00  0.00    -0.040 A 
ATOM      6  C   LIG d   1      10.163   3.341  -2.688  0.00  0.00    -0.052 A 
ATOM      7  H   LIG d   1       8.344   4.009  -5.475  0.00  0.00     0.062 H 
ATOM      8  H   LIG d   1       9.089   6.289  -4.934  0.00  0.00     0.064 H 
ATOM      9  H   LIG d   1      11.211   4.795  -1.531  0.00  0.00     0.064 H 
ATOM     10  H   LIG d   1      10.461   2.514  -2.060  0.00  0.00     0.062 H 
ENDROOT
BRANCH   1  11
ATOM     11  C   LIG d   1       8.907   1.738  -4.127  0.00  0.00     0.067 A 
ATOM     12  C   LIG d   1       7.736   1.250  -3.617  0.00  0.00    -0.036 A 
ATOM     13  C   LIG d   1       7.341  -0.115  -3.971  0.00  0.00     0.018 A 
ATOM     14  H   LIG d   1       7.118   1.854  -2.969  0.00  0.00     0.063 H 
ATOM     15  C   LIG d   1       8.165  -0.879  -4.816  0.00  0.00     0.139 A 
ATOM     16  C   LIG d   1       6.152  -0.663  -3.475  0.00  0.00    -0.051 A 
ATOM     17  C   LIG d   1       7.784  -2.173  -5.147  0.00  0.00    -0.019 A 
ATOM     18  O   LIG d   1       9.315  -0.364  -5.301  0.00  0.00    -0.422 OA
ATOM     19  C   LIG d   1       6.608  -2.694  -4.649  0.00  0.00    -0.058 A 
ATOM     20  H   LIG d   1       8.408  -2.771  -5.796  0.00  0.00     0.065 H 
ATOM     21  C   LIG d   1       5.797  -1.937  -3.814  0.00  0.00    -0.061 A 
ATOM     22  H   LIG d   1       6.316  -3.700  -4.910  0.00  0.00     0.062 H 
ATOM     23  H   LIG d   1       4.880  -2.360  -3.431  0.00  0.00     0.062 H 
ATOM     24  C   LIG d   1       9.711   0.884  -5.007  0.00  0.00     0.345 A 
ATOM     25  O   LIG d   1      10.753   1.310  -5.471  0.00  0.00    -0.244 OA
ATOM     26  H   LIG d   1       5.516  -0.079  -2.824  0.00  0.00     0.062 H 
ENDBRANCH   1  11
BRANCH   4  27
ATOM     27  N   LIG d   1      10.614   6.980  -2.890  0.00  0.00    -0.282 N 
ATOM     28  C   LIG d   1       9.943   7.711  -1.978  0.00  0.00     0.241 C 
ATOM     29  O   LIG d   1       9.020   7.211  -1.358  0.00  0.00    -0.271 OA
ATOM     30  H   LIG d   1      11.391   7.355  -3.334  0.00  0.00     0.155 HD
BRANCH  28  31
ATOM     31  C   LIG d   1      10.310   9.055  -1.739  0.00  0.00     0.004 C 
ATOM     32  C   LIG d   1       9.727   9.748  -0.727  0.00  0.00    -0.014 C 
ATOM     33  H   LIG d   1       8.984   9.272  -0.105  0.00  0.00     0.066 H 
ATOM     34  H   LIG d   1      11.053   9.531  -2.361  0.00  0.00     0.067 H 
BRANCH  32  35
ATOM     35  C   LIG d   1      10.095  11.094  -0.488  0.00  0.00     0.128 A 
ATOM     36  O   LIG d   1      10.203  11.687   0.718  0.00  0.00    -0.464 OA
ATOM     37  C   LIG d   1      10.572  12.965   0.556  0.00  0.00     0.092 A 
ATOM     38  C   LIG d   1      10.708  13.221  -0.765  0.00  0.00    -0.023 A 
ATOM     39  H   LIG d   1      10.735  13.678   1.352  0.00  0.00     0.103 H 
ATOM     40  C   LIG d   1      10.413  12.032  -1.450  0.00  0.00    -0.017 A 
ATOM     41  H   LIG d   1      10.995  14.162  -1.209  0.00  0.00     0.065 H 
ATOM     42  H   LIG d   1      10.428  11.881  -2.519  0.00  0.00     0.066 H 
ENDBRANCH  32  35
ENDBRANCH  28  31
ENDBRANCH   4  27
TORSDOF 4
ENDMDL
MODEL 6
REMARK VINA RESULT:      -6.2      7.456     14.972
REMARK  4 active torsions:
REMARK  status: ('A' for Active; 'I' for Inactive)
REMARK    1  A    between atoms: C_8  and  C_12 
REMARK    2  A    between atoms: C_15  and  N_18 
REMARK       I    between atoms: N_18  and  C_19 
REMARK    3  A    between atoms: C_19  and  C_21 
REMARK    4  A    between atoms: C_22  and  C_23 
ROOT
ATOM      1  C   LIG d   1       8.675   2.317  -4.062  0.00  0.00    -0.011 A 
ATOM      2  C   LIG d   1       8.511   3.195  -5.134  0.00  0.00    -0.052 A 
ATOM      3  C   LIG d   1       9.356   4.275  -5.273  0.00  0.00    -0.040 A 
ATOM      4  C   LIG d   1      10.371   4.489  -4.347  0.00  0.00     0.034 A 
ATOM      5  C   LIG d   1      10.540   3.612  -3.282  0.00  0.00    -0.040 A 
ATOM      6  C   LIG d   1       9.695   2.534  -3.135  0.00  0.00    -0.052 A 
ATOM      7  H   LIG d   1       7.722   3.029  -5.852  0.00  0.00     0.062 H 
ATOM      8  H   LIG d   1       9.229   4.956  -6.102  0.00  0.00     0.064 H 
ATOM      9  H   LIG d   1      11.332   3.778  -2.567  0.00  0.00     0.064 H 
ATOM     10  H   LIG d   1       9.823   1.855  -2.305  0.00  0.00     0.062 H 
ENDROOT
BRANCH   1  11
ATOM     11  C   LIG d   1       7.769   1.154  -3.910  0.00  0.00     0.067 A 
ATOM     12  C   LIG d   1       6.620   1.260  -3.174  0.00  0.00    -0.036 A 
ATOM     13  C   LIG d   1       5.760   0.081  -3.057  0.00  0.00     0.018 A 
ATOM     14  H   LIG d   1       6.354   2.189  -2.691  0.00  0.00     0.063 H 
ATOM     15  C   LIG d   1       6.132  -1.115  -3.697  0.00  0.00     0.139 A 
ATOM     16  C   LIG d   1       4.574   0.135  -2.316  0.00  0.00    -0.051 A 
ATOM     17  C   LIG d   1       5.311  -2.230  -3.582  0.00  0.00    -0.019 A 
ATOM     18  O   LIG d   1       7.273  -1.183  -4.415  0.00  0.00    -0.422 OA
ATOM     19  C   LIG d   1       4.146  -2.155  -2.847  0.00  0.00    -0.058 A 
ATOM     20  H   LIG d   1       5.584  -3.155  -4.068  0.00  0.00     0.065 H 
ATOM     21  C   LIG d   1       3.783  -0.973  -2.216  0.00  0.00    -0.061 A 
ATOM     22  H   LIG d   1       3.512  -3.024  -2.760  0.00  0.00     0.062 H 
ATOM     23  H   LIG d   1       2.868  -0.931  -1.644  0.00  0.00     0.062 H 
ATOM     24  C   LIG d   1       8.086  -0.125  -4.553  0.00  0.00     0.345 A 
ATOM     25  O   LIG d   1       9.103  -0.229  -5.214  0.00  0.00    -0.244 OA
ATOM     26  H   LIG d   1       4.286   1.052  -1.822  0.00  0.00     0.062 H 
ENDBRANCH   1  11
BRANCH   4  27
ATOM     27  N   LIG d   1      11.226   5.585  -4.491  0.00  0.00    -0.282 N 
ATOM     28  C   LIG d   1      10.888   6.778  -3.962  0.00  0.00     0.241 C 
ATOM     29  O   LIG d   1       9.878   6.880  -3.287  0.00  0.00    -0.271 OA
ATOM     30  H   LIG d   1      12.062   5.488  -4.971  0.00  0.00     0.155 HD
BRANCH  28  31
ATOM     31  C   LIG d   1      11.705   7.910  -4.190  0.00  0.00     0.004 C 
ATOM     32  C   LIG d   1      11.165   9.044  -4.705  0.00  0.00    -0.014 C 
ATOM     33  H   LIG d   1      10.112   9.082  -4.940  0.00  0.00     0.066 H 
ATOM     34  H   LIG d   1      12.758   7.871  -3.955  0.00  0.00     0.067 H 
BRANCH  32  35
ATOM     35  C   LIG d   1      11.983  10.176  -4.933  0.00  0.00     0.128 A 
ATOM     36  O   LIG d   1      11.557  11.445  -5.098  0.00  0.00    -0.464 OA
ATOM     37  C   LIG d   1      12.613  12.248  -5.291  0.00  0.00     0.092 A 
ATOM     38  C   LIG d   1      13.743  11.508  -5.254  0.00  0.00    -0.023 A 
ATOM     39  H   LIG d   1      12.568  13.316  -5.450  0.00  0.00     0.103 H 
ATOM     40  C   LIG d   1      13.360  10.179  -5.020  0.00  0.00    -0.017 A 
ATOM     41  H   LIG d   1      14.752  11.873  -5.378  0.00  0.00     0.065 H 
ATOM     42  H   LIG d   1      14.015   9.324  -4.927  0.00  0.00     0.066 H 
ENDBRANCH  32  35
ENDBRANCH  28  31
ENDBRANCH   4  27
TORSDOF 4
ENDMDL
MODEL 7
REMARK VINA RESULT:      -6.1      7.221     11.389
REMARK  4 active torsions:
REMARK  status: ('A' for Active; 'I' for Inactive)
REMARK    1  A    between atoms: C_8  and  C_12 
REMARK    2  A    between atoms: C_15  and  N_18 
REMARK       I    between atoms: N_18  and  C_19 
REMARK    3  A    between atoms: C_19  and  C_21 
REMARK    4  A    between atoms: C_22  and  C_23 
ROOT
ATOM      1  C   LIG d   1      10.243   5.460  -3.065  0.00  0.00    -0.011 A 
ATOM      2  C   LIG d   1       9.514   5.365  -4.251  0.00  0.00    -0.052 A 
ATOM      3  C   LIG d   1       9.132   4.128  -4.725  0.00  0.00    -0.040 A 
ATOM      4  C   LIG d   1       9.471   2.978  -4.022  0.00  0.00     0.034 A 
ATOM      5  C   LIG d   1      10.192   3.071  -2.837  0.00  0.00    -0.040 A 
ATOM      6  C   LIG d   1      10.581   4.305  -2.361  0.00  0.00    -0.052 A 
ATOM      7  H   LIG d   1       9.251   6.258  -4.797  0.00  0.00     0.062 H 
ATOM      8  H   LIG d   1       8.568   4.054  -5.643  0.00  0.00     0.064 H 
ATOM      9  H   LIG d   1      10.450   2.176  -2.291  0.00  0.00     0.064 H 
ATOM     10  H   LIG d   1      11.145   4.377  -1.443  0.00  0.00     0.062 H 
ENDROOT
BRANCH   1  11
ATOM     11  C   LIG d   1      10.654   6.789  -2.552  0.00  0.00     0.067 A 
ATOM     12  C   LIG d   1       9.841   7.489  -1.703  0.00  0.00    -0.036 A 
ATOM     13  C   LIG d   1      10.296   8.796  -1.226  0.00  0.00     0.018 A 
ATOM     14  H   LIG d   1       8.886   7.088  -1.393  0.00  0.00     0.063 H 
ATOM     15  C   LIG d   1      11.543   9.292  -1.648  0.00  0.00     0.139 A 
ATOM     16  C   LIG d   1       9.502   9.553  -0.357  0.00  0.00    -0.051 A 
ATOM     17  C   LIG d   1      11.969  10.533  -1.191  0.00  0.00    -0.019 A 
ATOM     18  O   LIG d   1      12.320   8.574  -2.486  0.00  0.00    -0.422 OA
ATOM     19  C   LIG d   1      11.172  11.263  -0.334  0.00  0.00    -0.058 A 
ATOM     20  H   LIG d   1      12.925  10.926  -1.506  0.00  0.00     0.065 H 
ATOM     21  C   LIG d   1       9.941  10.770   0.079  0.00  0.00    -0.061 A 
ATOM     22  H   LIG d   1      11.507  12.227   0.018  0.00  0.00     0.062 H 
ATOM     23  H   LIG d   1       9.328  11.354   0.749  0.00  0.00     0.062 H 
ATOM     24  C   LIG d   1      11.943   7.369  -2.942  0.00  0.00     0.345 A 
ATOM     25  O   LIG d   1      12.677   6.753  -3.692  0.00  0.00    -0.244 OA
ATOM     26  H   LIG d   1       8.543   9.175  -0.032  0.00  0.00     0.062 H 
ENDBRANCH   1  11
BRANCH   4  27
ATOM     27  N   LIG d   1       9.082   1.726  -4.505  0.00  0.00    -0.282 N 
ATOM     28  C   LIG d   1       7.927   1.171  -4.086  0.00  0.00     0.241 C 
ATOM     29  O   LIG d   1       7.182   1.797  -3.353  0.00  0.00    -0.271 OA
ATOM     30  H   LIG d   1       9.643   1.255  -5.141  0.00  0.00     0.155 HD
BRANCH  28  31
ATOM     31  C   LIG d   1       7.580  -0.137  -4.499  0.00  0.00     0.004 C 
ATOM     32  C   LIG d   1       6.515  -0.765  -3.939  0.00  0.00    -0.014 C 
ATOM     33  H   LIG d   1       5.932  -0.266  -3.180  0.00  0.00     0.066 H 
ATOM     34  H   LIG d   1       8.163  -0.636  -5.259  0.00  0.00     0.067 H 
BRANCH  32  35
ATOM     35  C   LIG d   1       6.168  -2.073  -4.353  0.00  0.00     0.128 A 
ATOM     36  O   LIG d   1       6.974  -2.946  -4.991  0.00  0.00    -0.464 OA
ATOM     37  C   LIG d   1       6.306  -4.084  -5.222  0.00  0.00     0.092 A 
ATOM     38  C   LIG d   1       5.051  -3.966  -4.735  0.00  0.00    -0.023 A 
ATOM     39  H   LIG d   1       6.706  -4.957  -5.718  0.00  0.00     0.103 H 
ATOM     40  C   LIG d   1       4.945  -2.686  -4.168  0.00  0.00    -0.017 A 
ATOM     41  H   LIG d   1       4.276  -4.717  -4.770  0.00  0.00     0.065 H 
ATOM     42  H   LIG d   1       4.077  -2.263  -3.685  0.00  0.00     0.066 H 
ENDBRANCH  32  35
ENDBRANCH  28  31
ENDBRANCH   4  27
TORSDOF 4
ENDMDL
MODEL 8
REMARK VINA RESULT:      -6.0      2.678      2.945
REMARK  4 active torsions:
REMARK  status: ('A' for Active; 'I' for Inactive)
REMARK    1  A    between atoms: C_8  and  C_12 
REMARK    2  A    between atoms: C_15  and  N_18 
REMARK       I    between atoms: N_18  and  C_19 
REMARK    3  A    between atoms: C_19  and  C_21 
REMARK    4  A    between atoms: C_22  and  C_23 
ROOT
ATOM      1  C   LIG d   1       5.448  -4.346  -5.186  0.00  0.00    -0.011 A 
ATOM      2  C   LIG d   1       4.520  -5.375  -5.350  0.00  0.00    -0.052 A 
ATOM      3  C   LIG d   1       4.950  -6.640  -5.686  0.00  0.00    -0.040 A 
ATOM      4  C   LIG d   1       6.306  -6.892  -5.861  0.00  0.00     0.034 A 
ATOM      5  C   LIG d   1       7.232  -5.869  -5.693  0.00  0.00    -0.040 A 
ATOM      6  C   LIG d   1       6.808  -4.601  -5.361  0.00  0.00    -0.052 A 
ATOM      7  H   LIG d   1       3.467  -5.179  -5.215  0.00  0.00     0.062 H 
ATOM      8  H   LIG d   1       4.232  -7.437  -5.814  0.00  0.00     0.064 H 
ATOM      9  H   LIG d   1       8.285  -6.068  -5.824  0.00  0.00     0.064 H 
ATOM     10  H   LIG d   1       7.527  -3.805  -5.235  0.00  0.00     0.062 H 
ENDROOT
BRANCH   1  11
ATOM     11  C   LIG d   1       4.989  -2.984  -4.823  0.00  0.00     0.067 A 
ATOM     12  C   LIG d   1       5.064  -2.546  -3.529  0.00  0.00    -0.036 A 
ATOM     13  C   LIG d   1       4.597  -1.193  -3.226  0.00  0.00     0.018 A 
ATOM     14  H   LIG d   1       5.456  -3.184  -2.750  0.00  0.00     0.063 H 
ATOM     15  C   LIG d   1       4.091  -0.386  -4.260  0.00  0.00     0.139 A 
ATOM     16  C   LIG d   1       4.652  -0.697  -1.917  0.00  0.00    -0.051 A 
ATOM     17  C   LIG d   1       3.650   0.899  -3.965  0.00  0.00    -0.019 A 
ATOM     18  O   LIG d   1       4.031  -0.850  -5.526  0.00  0.00    -0.422 OA
ATOM     19  C   LIG d   1       3.712   1.368  -2.670  0.00  0.00    -0.058 A 
ATOM     20  H   LIG d   1       3.258   1.529  -4.750  0.00  0.00     0.065 H 
ATOM     21  C   LIG d   1       4.213   0.568  -1.651  0.00  0.00    -0.061 A 
ATOM     22  H   LIG d   1       3.369   2.367  -2.446  0.00  0.00     0.062 H 
ATOM     23  H   LIG d   1       4.254   0.950  -0.642  0.00  0.00     0.062 H 
ATOM     24  C   LIG d   1       4.454  -2.082  -5.848  0.00  0.00     0.345 A 
ATOM     25  O   LIG d   1       4.387  -2.458  -7.004  0.00  0.00    -0.244 OA
ATOM     26  H   LIG d   1       5.040  -1.314  -1.120  0.00  0.00     0.062 H 
ENDBRANCH   1  11
BRANCH   4  27
ATOM     27  N   LIG d   1       6.738  -8.176  -6.202  0.00  0.00    -0.282 N 
ATOM     28  C   LIG d   1       7.085  -9.049  -5.236  0.00  0.00     0.241 C 
ATOM     29  O   LIG d   1       6.940  -8.748  -4.064  0.00  0.00    -0.271 OA
ATOM     30  H   LIG d   1       6.790  -8.439  -7.134  0.00  0.00     0.155 HD
BRANCH  28  31
ATOM     31  C   LIG d   1       7.614 -10.314  -5.582  0.00  0.00     0.004 C 
ATOM     32  C   LIG d   1       7.812 -10.633  -6.886  0.00  0.00    -0.014 C 
ATOM     33  H   LIG d   1       7.567  -9.921  -7.660  0.00  0.00     0.066 H 
ATOM     34  H   LIG d   1       7.860 -11.027  -4.809  0.00  0.00     0.067 H 
BRANCH  32  35
ATOM     35  C   LIG d   1       8.342 -11.900  -7.232  0.00  0.00     0.128 A 
ATOM     36  O   LIG d   1       9.077 -12.183  -8.327  0.00  0.00    -0.464 OA
ATOM     37  C   LIG d   1       9.402 -13.483  -8.322  0.00  0.00     0.092 A 
ATOM     38  C   LIG d   1       8.880 -14.064  -7.219  0.00  0.00    -0.023 A 
ATOM     39  H   LIG d   1       9.989 -13.986  -9.077  0.00  0.00     0.103 H 
ATOM     40  C   LIG d   1       8.202 -13.064  -6.505  0.00  0.00    -0.017 A 
ATOM     41  H   LIG d   1       8.972 -15.103  -6.937  0.00  0.00     0.065 H 
ATOM     42  H   LIG d   1       7.672 -13.183  -5.571  0.00  0.00     0.066 H 
ENDBRANCH  32  35
ENDBRANCH  28  31
ENDBRANCH   4  27
TORSDOF 4
ENDMDL
MODEL 9
REMARK VINA RESULT:      -5.9      6.470      9.347
REMARK  4 active torsions:
REMARK  status: ('A' for Active; 'I' for Inactive)
REMARK    1  A    between atoms: C_8  and  C_12 
REMARK    2  A    between atoms: C_15  and  N_18 
REMARK       I    between atoms: N_18  and  C_19 
REMARK    3  A    between atoms: C_19  and  C_21 
REMARK    4  A    between atoms: C_22  and  C_23 
ROOT
ATOM      1  C   LIG d   1       8.430  -2.988  -3.867  0.00  0.00    -0.011 A 
ATOM      2  C   LIG d   1       8.939  -3.778  -2.836  0.00  0.00    -0.052 A 
ATOM      3  C   LIG d   1      10.212  -4.297  -2.932  0.00  0.00    -0.040 A 
ATOM      4  C   LIG d   1      10.989  -4.033  -4.055  0.00  0.00     0.034 A 
ATOM      5  C   LIG d   1      10.486  -3.240  -5.081  0.00  0.00    -0.040 A 
ATOM      6  C   LIG d   1       9.212  -2.724  -4.992  0.00  0.00    -0.052 A 
ATOM      7  H   LIG d   1       8.335  -3.984  -1.965  0.00  0.00     0.062 H 
ATOM      8  H   LIG d   1      10.606  -4.909  -2.135  0.00  0.00     0.064 H 
ATOM      9  H   LIG d   1      11.094  -3.033  -5.949  0.00  0.00     0.064 H 
ATOM     10  H   LIG d   1       8.820  -2.112  -5.791  0.00  0.00     0.062 H 
ENDROOT
BRANCH   1  11
ATOM     11  C   LIG d   1       7.061  -2.428  -3.767  0.00  0.00     0.067 A 
ATOM     12  C   LIG d   1       6.830  -1.282  -3.056  0.00  0.00    -0.036 A 
ATOM     13  C   LIG d   1       5.460  -0.772  -2.989  0.00  0.00     0.018 A 
ATOM     14  H   LIG d   1       7.637  -0.767  -2.555  0.00  0.00     0.063 H 
ATOM     15  C   LIG d   1       4.429  -1.464  -3.649  0.00  0.00     0.139 A 
ATOM     16  C   LIG d   1       5.168   0.396  -2.274  0.00  0.00    -0.051 A 
ATOM     17  C   LIG d   1       3.130  -0.974  -3.582  0.00  0.00    -0.019 A 
ATOM     18  O   LIG d   1       4.694  -2.592  -4.342  0.00  0.00    -0.422 OA
ATOM     19  C   LIG d   1       2.865   0.179  -2.873  0.00  0.00    -0.058 A 
ATOM     20  H   LIG d   1       2.329  -1.496  -4.085  0.00  0.00     0.065 H 
ATOM     21  C   LIG d   1       3.885   0.859  -2.221  0.00  0.00    -0.061 A 
ATOM     22  H   LIG d   1       1.855   0.556  -2.823  0.00  0.00     0.062 H 
ATOM     23  H   LIG d   1       3.661   1.760  -1.669  0.00  0.00     0.062 H 
ATOM     24  C   LIG d   1       5.936  -3.090  -4.434  0.00  0.00     0.345 A 
ATOM     25  O   LIG d   1       6.131  -4.107  -5.073  0.00  0.00    -0.244 OA
ATOM     26  H   LIG d   1       5.958   0.930  -1.764  0.00  0.00     0.062 H 
ENDBRANCH   1  11
BRANCH   4  27
ATOM     27  N   LIG d   1      12.280  -4.560  -4.149  0.00  0.00    -0.282 N 
ATOM     28  C   LIG d   1      13.346  -3.789  -3.855  0.00  0.00     0.241 C 
ATOM     29  O   LIG d   1      13.181  -2.661  -3.425  0.00  0.00    -0.271 OA
ATOM     30  H   LIG d   1      12.409  -5.480  -4.427  0.00  0.00     0.155 HD
BRANCH  28  31
ATOM     31  C   LIG d   1      14.655  -4.291  -4.043  0.00  0.00     0.004 C 
ATOM     32  C   LIG d   1      15.605  -4.077  -3.098  0.00  0.00    -0.014 C 
ATOM     33  H   LIG d   1      15.362  -3.526  -2.202  0.00  0.00     0.066 H 
ATOM     34  H   LIG d   1      14.898  -4.843  -4.938  0.00  0.00     0.067 H 
BRANCH  32  35
ATOM     35  C   LIG d   1      16.915  -4.579  -3.287  0.00  0.00     0.128 A 
ATOM     36  O   LIG d   1      17.451  -5.655  -2.674  0.00  0.00    -0.464 OA
ATOM     37  C   LIG d   1      18.710  -5.830  -3.100  0.00  0.00     0.092 A 
ATOM     38  C   LIG d   1      19.010  -4.865  -3.998  0.00  0.00    -0.023 A 
ATOM     39  H   LIG d   1      19.378  -6.616  -2.778  0.00  0.00     0.103 H 
ATOM     40  C   LIG d   1      17.871  -4.058  -4.135  0.00  0.00    -0.017 A 
ATOM     41  H   LIG d   1      19.950  -4.742  -4.516  0.00  0.00     0.065 H 
ATOM     42  H   LIG d   1      17.763  -3.196  -4.777  0.00  0.00     0.066 H 
ENDBRANCH  32  35
ENDBRANCH  28  31
ENDBRANCH   4  27
TORSDOF 4
ENDMDL
MODEL 10
REMARK VINA RESULT:      -5.9      9.639     16.052
REMARK  4 active torsions:
REMARK  status: ('A' for Active; 'I' for Inactive)
REMARK    1  A    between atoms: C_8  and  C_12 
REMARK    2  A    between atoms: C_15  and  N_18 
REMARK       I    between atoms: N_18  and  C_19 
REMARK    3  A    between atoms: C_19  and  C_21 
REMARK    4  A    between atoms: C_22  and  C_23 
ROOT
ATOM      1  C   LIG d   1       9.447   4.122  -4.456  0.00  0.00    -0.011 A 
ATOM      2  C   LIG d   1       9.355   5.500  -4.655  0.00  0.00    -0.052 A 
ATOM      3  C   LIG d   1       9.808   6.366  -3.683  0.00  0.00    -0.040 A 
ATOM      4  C   LIG d   1      10.356   5.867  -2.507  0.00  0.00     0.034 A 
ATOM      5  C   LIG d   1      10.454   4.495  -2.309  0.00  0.00    -0.040 A 
ATOM      6  C   LIG d   1       9.998   3.625  -3.276  0.00  0.00    -0.052 A 
ATOM      7  H   LIG d   1       8.929   5.887  -5.568  0.00  0.00     0.062 H 
ATOM      8  H   LIG d   1       9.737   7.433  -3.836  0.00  0.00     0.064 H 
ATOM      9  H   LIG d   1      10.885   4.111  -1.397  0.00  0.00     0.064 H 
ATOM     10  H   LIG d   1      10.070   2.558  -3.120  0.00  0.00     0.062 H 
ENDROOT
BRANCH   1  11
ATOM     11  C   LIG d   1       8.962   3.188  -5.500  0.00  0.00     0.067 A 
ATOM     12  C   LIG d   1       9.464   3.245  -6.772  0.00  0.00    -0.036 A 
ATOM     13  C   LIG d   1       8.950   2.299  -7.763  0.00  0.00     0.018 A 
ATOM     14  H   LIG d   1      10.219   3.970  -7.038  0.00  0.00     0.063 H 
ATOM     15  C   LIG d   1       7.966   1.367  -7.388  0.00  0.00     0.139 A 
ATOM     16  C   LIG d   1       9.429   2.315  -9.079  0.00  0.00    -0.051 A 
ATOM     17  C   LIG d   1       7.483   0.472  -8.335  0.00  0.00    -0.019 A 
ATOM     18  O   LIG d   1       7.493   1.339  -6.124  0.00  0.00    -0.422 OA
ATOM     19  C   LIG d   1       7.968   0.504  -9.625  0.00  0.00    -0.058 A 
ATOM     20  H   LIG d   1       6.727  -0.250  -8.060  0.00  0.00     0.065 H 
ATOM     21  C   LIG d   1       8.939   1.427  -9.992  0.00  0.00    -0.061 A 
ATOM     22  H   LIG d   1       7.590  -0.193 -10.357  0.00  0.00     0.062 H 
ATOM     23  H   LIG d   1       9.309   1.440 -11.007  0.00  0.00     0.062 H 
ATOM     24  C   LIG d   1       7.941   2.184  -5.183  0.00  0.00     0.345 A 
ATOM     25  O   LIG d   1       7.491   2.120  -4.054  0.00  0.00    -0.244 OA
ATOM     26  H   LIG d   1      10.184   3.031  -9.371  0.00  0.00     0.062 H 
ENDBRANCH   1  11
BRANCH   4  27
ATOM     27  N   LIG d   1      10.815   6.748  -1.524  0.00  0.00    -0.282 N 
ATOM     28  C   LIG d   1       9.943   7.542  -0.870  0.00  0.00     0.241 C 
ATOM     29  O   LIG d   1       8.747   7.431  -1.076  0.00  0.00    -0.271 OA
ATOM     30  H   LIG d   1      11.760   6.789  -1.311  0.00  0.00     0.155 HD
BRANCH  28  31
ATOM     31  C   LIG d   1      10.416   8.501   0.055  0.00  0.00     0.004 C 
ATOM     32  C   LIG d   1      11.401   8.172   0.930  0.00  0.00    -0.014 C 
ATOM     33  H   LIG d   1      11.823   7.179   0.919  0.00  0.00     0.066 H 
ATOM     34  H   LIG d   1       9.994   9.495   0.066  0.00  0.00     0.067 H 
BRANCH  32  35
ATOM     35  C   LIG d   1      11.873   9.133   1.856  0.00  0.00     0.128 A 
ATOM     36  O   LIG d   1      12.193   8.904   3.147  0.00  0.00    -0.464 OA
ATOM     37  C   LIG d   1      12.603  10.046   3.714  0.00  0.00     0.092 A 
ATOM     38  C   LIG d   1      12.554  11.037   2.796  0.00  0.00    -0.023 A 
ATOM     39  H   LIG d   1      12.922  10.158   4.741  0.00  0.00     0.103 H 
ATOM     40  C   LIG d   1      12.095  10.470   1.598  0.00  0.00    -0.017 A 
ATOM     41  H   LIG d   1      12.823  12.071   2.955  0.00  0.00     0.065 H 
ATOM     42  H   LIG d   1      11.942  10.980   0.658  0.00  0.00     0.066 H 
ENDBRANCH  32  35
ENDBRANCH  28  31
ENDBRANCH   4  27
TORSDOF 4
ENDMDL
