MODEL 1
REMARK VINA RESULT:      -6.4      0.000      0.000
REMARK  4 active torsions:
REMARK  status: ('A' for Active; 'I' for Inactive)
REMARK    1  A    between atoms: C_1  and  C_2 
REMARK    2  A    between atoms: C_5  and  C_8 
REMARK    3  A    between atoms: C_11  and  C_22 
REMARK    4  A    between atoms: C_17  and  N_21 
ROOT
ATOM      1  C   LIG d   1       4.327  -1.557  -5.564  0.00  0.00     0.056 C 
ATOM      2  H   LIG d   1       3.352  -1.881  -5.198  0.00  0.00     0.046 H 
ATOM      3  C   LIG d   1       5.127  -0.969  -4.431  0.00  0.00     0.058 A 
ATOM      4  C   LIG d   1       4.749  -0.027  -3.485  0.00  0.00     0.173 A 
ATOM      5  N   LIG d   1       5.772   0.187  -2.692  0.00  0.00    -0.167 NA
ATOM      6  N   LIG d   1       6.839  -0.620  -3.116  0.00  0.00    -0.246 N 
ATOM      7  H   LIG d   1       7.719  -0.664  -2.711  0.00  0.00     0.192 HD
ATOM      8  C   LIG d   1       6.424  -1.323  -4.182  0.00  0.00     0.223 A 
ATOM      9  O   LIG d   1       7.091  -2.234  -4.935  0.00  0.00    -0.423 OA
ATOM     10  C   LIG d   1       6.368  -2.997  -5.777  0.00  0.00     0.200 C 
ATOM     11  C   LIG d   1       5.083  -2.743  -6.111  0.00  0.00     0.098 C 
ATOM     12  C   LIG d   1       4.415  -3.630  -7.014  0.00  0.00     0.101 C 
ATOM     13  N   LIG d   1       3.884  -4.335  -7.731  0.00  0.00    -0.191 NA
ENDROOT
BRANCH   1  14
ATOM     14  C   LIG d   1       4.146  -0.526  -6.648  0.00  0.00    -0.035 A 
ATOM     15  C   LIG d   1       5.246  -0.027  -7.318  0.00  0.00    -0.057 A 
ATOM     16  C   LIG d   1       5.080   0.917  -8.314  0.00  0.00    -0.059 A 
ATOM     17  H   LIG d   1       6.237  -0.375  -7.065  0.00  0.00     0.062 H 
ATOM     18  C   LIG d   1       3.812   1.362  -8.639  0.00  0.00    -0.050 A 
ATOM     19  H   LIG d   1       5.940   1.308  -8.837  0.00  0.00     0.062 H 
ATOM     20  C   LIG d   1       2.712   0.866  -7.965  0.00  0.00    -0.059 A 
ATOM     21  C   LIG d   1       2.878  -0.082  -6.973  0.00  0.00    -0.057 A 
ATOM     22  H   LIG d   1       1.721   1.217  -8.216  0.00  0.00     0.062 H 
ATOM     23  H   LIG d   1       2.018  -0.472  -6.449  0.00  0.00     0.062 H 
BRANCH  18  24
ATOM     24  C   LIG d   1       3.630   2.392  -9.724  0.00  0.00    -0.040 C 
ATOM     25  H   LIG d   1       2.580   2.676  -9.784  0.00  0.00     0.028 H 
ATOM     26  H   LIG d   1       4.233   3.271  -9.495  0.00  0.00     0.028 H 
ATOM     27  H   LIG d   1       3.949   1.973 -10.679  0.00  0.00     0.028 H 
ENDBRANCH  18  24
ENDBRANCH   1  14
BRANCH  10  28
ATOM     28  N   LIG d   1       6.974  -4.099  -6.332  0.00  0.00    -0.328 N 
ATOM     29  H   LIG d   1       7.554  -4.657  -5.791  0.00  0.00     0.145 HD
ATOM     30  H   LIG d   1       6.820  -4.319  -7.264  0.00  0.00     0.145 HD
ENDBRANCH  10  28
BRANCH   4  31
ATOM     31  C   LIG d   1       3.400   0.635  -3.385  0.00  0.00     0.436 C 
ATOM     32  F   LIG d   1       2.395  -0.328  -3.537  0.00  0.00    -0.164 F 
ATOM     33  F   LIG d   1       3.271   1.247  -2.134  0.00  0.00    -0.164 F 
ATOM     34  F   LIG d   1       3.276   1.599  -4.391  0.00  0.00    -0.164 F 
ENDBRANCH   4  31
TORSDOF 4
ENDMDL
MODEL 2
REMARK VINA RESULT:      -6.4      2.871      3.826
REMARK  4 active torsions:
REMARK  status: ('A' for Active; 'I' for Inactive)
REMARK    1  A    between atoms: C_1  and  C_2 
REMARK    2  A    between atoms: C_5  and  C_8 
REMARK    3  A    between atoms: C_11  and  C_22 
REMARK    4  A    between atoms: C_17  and  N_21 
ROOT
ATOM      1  C   LIG d   1       6.437  -2.272  -3.897  0.00  0.00     0.056 C 
ATOM      2  H   LIG d   1       6.166  -2.802  -2.983  0.00  0.00     0.046 H 
ATOM      3  C   LIG d   1       6.109  -0.808  -3.753  0.00  0.00     0.058 A 
ATOM      4  C   LIG d   1       4.940  -0.210  -3.303  0.00  0.00     0.173 A 
ATOM      5  N   LIG d   1       5.105   1.091  -3.348  0.00  0.00    -0.167 NA
ATOM      6  N   LIG d   1       6.395   1.358  -3.833  0.00  0.00    -0.246 N 
ATOM      7  H   LIG d   1       6.784   2.236  -3.969  0.00  0.00     0.192 HD
ATOM      8  C   LIG d   1       6.995   0.181  -4.073  0.00  0.00     0.223 A 
ATOM      9  O   LIG d   1       8.241  -0.077  -4.544  0.00  0.00    -0.423 OA
ATOM     10  C   LIG d   1       8.701  -1.339  -4.437  0.00  0.00     0.200 C 
ATOM     11  C   LIG d   1       7.920  -2.402  -4.138  0.00  0.00     0.098 C 
ATOM     12  C   LIG d   1       8.523  -3.697  -4.046  0.00  0.00     0.101 C 
ATOM     13  N   LIG d   1       9.002  -4.726  -3.972  0.00  0.00    -0.191 NA
ENDROOT
BRANCH   1  14
ATOM     14  C   LIG d   1       5.680  -2.851  -5.064  0.00  0.00    -0.035 A 
ATOM     15  C   LIG d   1       5.623  -2.162  -6.260  0.00  0.00    -0.057 A 
ATOM     16  C   LIG d   1       4.929  -2.693  -7.332  0.00  0.00    -0.059 A 
ATOM     17  H   LIG d   1       6.121  -1.208  -6.360  0.00  0.00     0.062 H 
ATOM     18  C   LIG d   1       4.293  -3.914  -7.206  0.00  0.00    -0.050 A 
ATOM     19  H   LIG d   1       4.885  -2.156  -8.267  0.00  0.00     0.062 H 
ATOM     20  C   LIG d   1       4.346  -4.600  -6.007  0.00  0.00    -0.059 A 
ATOM     21  C   LIG d   1       5.043  -4.071  -4.937  0.00  0.00    -0.057 A 
ATOM     22  H   LIG d   1       3.844  -5.552  -5.906  0.00  0.00     0.062 H 
ATOM     23  H   LIG d   1       5.088  -4.609  -4.002  0.00  0.00     0.062 H 
BRANCH  18  24
ATOM     24  C   LIG d   1       3.536  -4.494  -8.373  0.00  0.00    -0.040 C 
ATOM     25  H   LIG d   1       3.441  -3.741  -9.155  0.00  0.00     0.028 H 
ATOM     26  H   LIG d   1       4.076  -5.357  -8.764  0.00  0.00     0.028 H 
ATOM     27  H   LIG d   1       2.544  -4.804  -8.045  0.00  0.00     0.028 H 
ENDBRANCH  18  24
ENDBRANCH   1  14
BRANCH  10  28
ATOM     28  N   LIG d   1      10.040  -1.559  -4.645  0.00  0.00    -0.328 N 
ATOM     29  H   LIG d   1      10.516  -2.206  -4.101  0.00  0.00     0.145 HD
ATOM     30  H   LIG d   1      10.511  -1.067  -5.336  0.00  0.00     0.145 HD
ENDBRANCH  10  28
BRANCH   4  31
ATOM     31  C   LIG d   1       3.699  -0.929  -2.843  0.00  0.00     0.436 C 
ATOM     32  F   LIG d   1       2.793  -0.004  -2.312  0.00  0.00    -0.164 F 
ATOM     33  F   LIG d   1       3.110  -1.585  -3.929  0.00  0.00    -0.164 F 
ATOM     34  F   LIG d   1       4.037  -1.865  -1.860  0.00  0.00    -0.164 F 
ENDBRANCH   4  31
TORSDOF 4
ENDMDL
MODEL 3
REMARK VINA RESULT:      -6.2      2.656      4.786
REMARK  4 active torsions:
REMARK  status: ('A' for Active; 'I' for Inactive)
REMARK    1  A    between atoms: C_1  and  C_2 
REMARK    2  A    between atoms: C_5  and  C_8 
REMARK    3  A    between atoms: C_11  and  C_22 
REMARK    4  A    between atoms: C_17  and  N_21 
ROOT
ATOM      1  C   LIG d   1       5.591  -1.437  -5.498  0.00  0.00     0.056 C 
ATOM      2  H   LIG d   1       6.424  -1.231  -4.825  0.00  0.00     0.046 H 
ATOM      3  C   LIG d   1       4.321  -0.862  -4.928  0.00  0.00     0.058 A 
ATOM      4  C   LIG d   1       3.804  -0.973  -3.645  0.00  0.00     0.173 A 
ATOM      5  N   LIG d   1       2.673  -0.310  -3.602  0.00  0.00    -0.167 NA
ATOM      6  N   LIG d   1       2.437   0.246  -4.868  0.00  0.00    -0.246 N 
ATOM      7  H   LIG d   1       1.673   0.787  -5.122  0.00  0.00     0.192 HD
ATOM      8  C   LIG d   1       3.458  -0.102  -5.667  0.00  0.00     0.223 A 
ATOM      9  O   LIG d   1       3.680   0.197  -6.972  0.00  0.00    -0.423 OA
ATOM     10  C   LIG d   1       4.911  -0.041  -7.466  0.00  0.00     0.200 C 
ATOM     11  C   LIG d   1       5.846  -0.787  -6.835  0.00  0.00     0.098 C 
ATOM     12  C   LIG d   1       7.123  -0.967  -7.457  0.00  0.00     0.101 C 
ATOM     13  N   LIG d   1       8.136  -1.109  -7.951  0.00  0.00    -0.191 NA
ENDROOT
BRANCH   1  14
ATOM     14  C   LIG d   1       5.440  -2.926  -5.677  0.00  0.00    -0.035 A 
ATOM     15  C   LIG d   1       4.322  -3.436  -6.307  0.00  0.00    -0.057 A 
ATOM     16  C   LIG d   1       4.184  -4.802  -6.473  0.00  0.00    -0.059 A 
ATOM     17  H   LIG d   1       3.554  -2.768  -6.672  0.00  0.00     0.062 H 
ATOM     18  C   LIG d   1       5.166  -5.657  -6.008  0.00  0.00    -0.050 A 
ATOM     19  H   LIG d   1       3.310  -5.201  -6.966  0.00  0.00     0.062 H 
ATOM     20  C   LIG d   1       6.282  -5.146  -5.373  0.00  0.00    -0.059 A 
ATOM     21  C   LIG d   1       6.422  -3.780  -5.211  0.00  0.00    -0.057 A 
ATOM     22  H   LIG d   1       7.047  -5.814  -5.004  0.00  0.00     0.062 H 
ATOM     23  H   LIG d   1       7.296  -3.381  -4.719  0.00  0.00     0.062 H 
BRANCH  18  24
ATOM     24  C   LIG d   1       5.015  -7.146  -6.188  0.00  0.00    -0.040 C 
ATOM     25  H   LIG d   1       5.152  -7.400  -7.238  0.00  0.00     0.028 H 
ATOM     26  H   LIG d   1       5.765  -7.662  -5.588  0.00  0.00     0.028 H 
ATOM     27  H   LIG d   1       4.019  -7.451  -5.867  0.00  0.00     0.028 H 
ENDBRANCH  18  24
ENDBRANCH   1  14
BRANCH  10  28
ATOM     28  N   LIG d   1       5.235   0.506  -8.684  0.00  0.00    -0.328 N 
ATOM     29  H   LIG d   1       4.602   1.079  -9.142  0.00  0.00     0.145 HD
ATOM     30  H   LIG d   1       6.099   0.318  -9.085  0.00  0.00     0.145 HD
ENDBRANCH  10  28
BRANCH   4  31
ATOM     31  C   LIG d   1       4.433  -1.725  -2.500  0.00  0.00     0.436 C 
ATOM     32  F   LIG d   1       4.201  -1.035  -1.305  0.00  0.00    -0.164 F 
ATOM     33  F   LIG d   1       3.869  -3.003  -2.416  0.00  0.00    -0.164 F 
ATOM     34  F   LIG d   1       5.810  -1.836  -2.714  0.00  0.00    -0.164 F 
ENDBRANCH   4  31
TORSDOF 4
ENDMDL
MODEL 4
REMARK VINA RESULT:      -5.9      2.496      3.378
REMARK  4 active torsions:
REMARK  status: ('A' for Active; 'I' for Inactive)
REMARK    1  A    between atoms: C_1  and  C_2 
REMARK    2  A    between atoms: C_5  and  C_8 
REMARK    3  A    between atoms: C_11  and  C_22 
REMARK    4  A    between atoms: C_17  and  N_21 
ROOT
ATOM      1  C   LIG d   1       6.129  -0.893  -5.156  0.00  0.00     0.056 C 
ATOM      2  H   LIG d   1       6.423  -1.928  -4.975  0.00  0.00     0.046 H 
ATOM      3  C   LIG d   1       5.632  -0.273  -3.876  0.00  0.00     0.058 A 
ATOM      4  C   LIG d   1       4.719  -0.769  -2.956  0.00  0.00     0.173 A 
ATOM      5  N   LIG d   1       4.590   0.114  -1.994  0.00  0.00    -0.167 NA
ATOM      6  N   LIG d   1       5.426   1.204  -2.278  0.00  0.00    -0.246 N 
ATOM      7  H   LIG d   1       5.530   2.001  -1.735  0.00  0.00     0.192 HD
ATOM      8  C   LIG d   1       6.058   0.948  -3.434  0.00  0.00     0.223 A 
ATOM      9  O   LIG d   1       6.963   1.697  -4.113  0.00  0.00    -0.423 OA
ATOM     10  C   LIG d   1       7.652   1.097  -5.104  0.00  0.00     0.200 C 
ATOM     11  C   LIG d   1       7.322  -0.103  -5.632  0.00  0.00     0.098 C 
ATOM     12  C   LIG d   1       8.134  -0.643  -6.680  0.00  0.00     0.101 C 
ATOM     13  N   LIG d   1       8.779  -1.072  -7.512  0.00  0.00    -0.191 NA
ENDROOT
BRANCH   1  14
ATOM     14  C   LIG d   1       5.041  -0.850  -6.198  0.00  0.00    -0.035 A 
ATOM     15  C   LIG d   1       4.206   0.248  -6.279  0.00  0.00    -0.057 A 
ATOM     16  C   LIG d   1       3.209   0.289  -7.236  0.00  0.00    -0.059 A 
ATOM     17  H   LIG d   1       4.331   1.075  -5.595  0.00  0.00     0.062 H 
ATOM     18  C   LIG d   1       3.049  -0.768  -8.112  0.00  0.00    -0.050 A 
ATOM     19  H   LIG d   1       2.556   1.146  -7.299  0.00  0.00     0.062 H 
ATOM     20  C   LIG d   1       3.882  -1.868  -8.027  0.00  0.00    -0.059 A 
ATOM     21  C   LIG d   1       4.881  -1.907  -7.073  0.00  0.00    -0.057 A 
ATOM     22  H   LIG d   1       3.753  -2.697  -8.709  0.00  0.00     0.062 H 
ATOM     23  H   LIG d   1       5.534  -2.765  -7.010  0.00  0.00     0.062 H 
BRANCH  18  24
ATOM     24  C   LIG d   1       1.962  -0.724  -9.155  0.00  0.00    -0.040 C 
ATOM     25  H   LIG d   1       1.797   0.307  -9.466  0.00  0.00     0.028 H 
ATOM     26  H   LIG d   1       2.261  -1.320 -10.017  0.00  0.00     0.028 H 
ATOM     27  H   LIG d   1       1.040  -1.129  -8.736  0.00  0.00     0.028 H 
ENDBRANCH  18  24
ENDBRANCH   1  14
BRANCH  10  28
ATOM     28  N   LIG d   1       8.754   1.745  -5.608  0.00  0.00    -0.328 N 
ATOM     29  H   LIG d   1       8.655   2.608  -6.038  0.00  0.00     0.145 HD
ATOM     30  H   LIG d   1       9.632   1.337  -5.533  0.00  0.00     0.145 HD
ENDBRANCH  10  28
BRANCH   4  31
ATOM     31  C   LIG d   1       3.999  -2.089  -3.047  0.00  0.00     0.436 C 
ATOM     32  F   LIG d   1       2.896  -1.963  -3.898  0.00  0.00    -0.164 F 
ATOM     33  F   LIG d   1       4.869  -3.060  -3.555  0.00  0.00    -0.164 F 
ATOM     34  F   LIG d   1       3.565  -2.474  -1.775  0.00  0.00    -0.164 F 
ENDBRANCH   4  31
TORSDOF 4
ENDMDL
MODEL 5
REMARK VINA RESULT:      -5.8      2.934      4.569
REMARK  4 active torsions:
REMARK  status: ('A' for Active; 'I' for Inactive)
REMARK    1  A    between atoms: C_1  and  C_2 
REMARK    2  A    between atoms: C_5  and  C_8 
REMARK    3  A    between atoms: C_11  and  C_22 
REMARK    4  A    between atoms: C_17  and  N_21 
ROOT
ATOM      1  C   LIG d   1       5.782  -1.317  -5.339  0.00  0.00     0.056 C 
ATOM      2  H   LIG d   1       6.854  -1.202  -5.501  0.00  0.00     0.046 H 
ATOM      3  C   LIG d   1       5.403  -2.771  -5.445  0.00  0.00     0.058 A 
ATOM      4  C   LIG d   1       5.737  -3.698  -6.423  0.00  0.00     0.173 A 
ATOM      5  N   LIG d   1       5.183  -4.844  -6.105  0.00  0.00    -0.167 NA
ATOM      6  N   LIG d   1       4.476  -4.676  -4.904  0.00  0.00    -0.246 N 
ATOM      7  H   LIG d   1       3.971  -5.361  -4.439  0.00  0.00     0.192 HD
ATOM      8  C   LIG d   1       4.624  -3.400  -4.514  0.00  0.00     0.223 A 
ATOM      9  O   LIG d   1       4.132  -2.765  -3.421  0.00  0.00    -0.423 OA
ATOM     10  C   LIG d   1       4.649  -1.558  -3.115  0.00  0.00     0.200 C 
ATOM     11  C   LIG d   1       5.423  -0.835  -3.955  0.00  0.00     0.098 C 
ATOM     12  C   LIG d   1       5.920   0.434  -3.517  0.00  0.00     0.101 C 
ATOM     13  N   LIG d   1       6.316   1.441  -3.168  0.00  0.00    -0.191 NA
ENDROOT
BRANCH   1  14
ATOM     14  C   LIG d   1       5.024  -0.517  -6.368  0.00  0.00    -0.035 A 
ATOM     15  C   LIG d   1       5.707   0.125  -7.383  0.00  0.00    -0.057 A 
ATOM     16  C   LIG d   1       5.013   0.857  -8.327  0.00  0.00    -0.059 A 
ATOM     17  H   LIG d   1       6.784   0.055  -7.439  0.00  0.00     0.062 H 
ATOM     18  C   LIG d   1       3.635   0.946  -8.257  0.00  0.00    -0.050 A 
ATOM     19  H   LIG d   1       5.546   1.359  -9.121  0.00  0.00     0.062 H 
ATOM     20  C   LIG d   1       2.953   0.308  -7.238  0.00  0.00    -0.059 A 
ATOM     21  C   LIG d   1       3.647  -0.428  -6.296  0.00  0.00    -0.057 A 
ATOM     22  H   LIG d   1       1.876   0.381  -7.179  0.00  0.00     0.062 H 
ATOM     23  H   LIG d   1       3.114  -0.930  -5.502  0.00  0.00     0.062 H 
BRANCH  18  24
ATOM     24  C   LIG d   1       2.877   1.745  -9.286  0.00  0.00    -0.040 C 
ATOM     25  H   LIG d   1       1.992   2.184  -8.827  0.00  0.00     0.028 H 
ATOM     26  H   LIG d   1       3.517   2.538  -9.674  0.00  0.00     0.028 H 
ATOM     27  H   LIG d   1       2.575   1.089 -10.104  0.00  0.00     0.028 H 
ENDBRANCH  18  24
ENDBRANCH   1  14
BRANCH  10  28
ATOM     28  N   LIG d   1       4.373  -1.033  -1.877  0.00  0.00    -0.328 N 
ATOM     29  H   LIG d   1       3.512  -0.620  -1.706  0.00  0.00     0.145 HD
ATOM     30  H   LIG d   1       5.039  -1.075  -1.172  0.00  0.00     0.145 HD
ENDBRANCH  10  28
BRANCH   4  31
ATOM     31  C   LIG d   1       6.586  -3.433  -7.639  0.00  0.00     0.436 C 
ATOM     32  F   LIG d   1       7.075  -4.644  -8.141  0.00  0.00    -0.164 F 
ATOM     33  F   LIG d   1       5.813  -2.801  -8.620  0.00  0.00    -0.164 F 
ATOM     34  F   LIG d   1       7.659  -2.607  -7.288  0.00  0.00    -0.164 F 
ENDBRANCH   4  31
TORSDOF 4
ENDMDL
MODEL 6
REMARK VINA RESULT:      -5.7      3.634      5.415
REMARK  4 active torsions:
REMARK  status: ('A' for Active; 'I' for Inactive)
REMARK    1  A    between atoms: C_1  and  C_2 
REMARK    2  A    between atoms: C_5  and  C_8 
REMARK    3  A    between atoms: C_11  and  C_22 
REMARK    4  A    between atoms: C_17  and  N_21 
ROOT
ATOM      1  C   LIG d   1       4.456  -0.971  -8.443  0.00  0.00     0.056 C 
ATOM      2  H   LIG d   1       5.342  -1.482  -8.820  0.00  0.00     0.046 H 
ATOM      3  C   LIG d   1       4.513   0.489  -8.812  0.00  0.00     0.058 A 
ATOM      4  C   LIG d   1       5.558   1.391  -8.670  0.00  0.00     0.173 A 
ATOM      5  N   LIG d   1       5.158   2.554  -9.127  0.00  0.00    -0.167 NA
ATOM      6  N   LIG d   1       3.835   2.421  -9.578  0.00  0.00    -0.246 N 
ATOM      7  H   LIG d   1       3.291   3.124  -9.966  0.00  0.00     0.192 HD
ATOM      8  C   LIG d   1       3.458   1.149  -9.378  0.00  0.00     0.223 A 
ATOM      9  O   LIG d   1       2.277   0.540  -9.654  0.00  0.00    -0.423 OA
ATOM     10  C   LIG d   1       2.244  -0.807  -9.612  0.00  0.00     0.200 C 
ATOM     11  C   LIG d   1       3.220  -1.568  -9.068  0.00  0.00     0.098 C 
ATOM     12  C   LIG d   1       3.076  -2.992  -9.086  0.00  0.00     0.101 C 
ATOM     13  N   LIG d   1       2.962  -4.123  -9.101  0.00  0.00    -0.191 NA
ENDROOT
BRANCH   1  14
ATOM     14  C   LIG d   1       4.387  -1.114  -6.944  0.00  0.00    -0.035 A 
ATOM     15  C   LIG d   1       5.127  -2.092  -6.309  0.00  0.00    -0.057 A 
ATOM     16  C   LIG d   1       5.066  -2.223  -4.934  0.00  0.00    -0.059 A 
ATOM     17  H   LIG d   1       5.755  -2.756  -6.886  0.00  0.00     0.062 H 
ATOM     18  C   LIG d   1       4.263  -1.374  -4.195  0.00  0.00    -0.050 A 
ATOM     19  H   LIG d   1       5.644  -2.988  -4.437  0.00  0.00     0.062 H 
ATOM     20  C   LIG d   1       3.519  -0.399  -4.831  0.00  0.00    -0.059 A 
ATOM     21  C   LIG d   1       3.584  -0.265  -6.205  0.00  0.00    -0.057 A 
ATOM     22  H   LIG d   1       2.888   0.262  -4.254  0.00  0.00     0.062 H 
ATOM     23  H   LIG d   1       3.006   0.500  -6.702  0.00  0.00     0.062 H 
BRANCH  18  24
ATOM     24  C   LIG d   1       4.196  -1.516  -2.696  0.00  0.00    -0.040 C 
ATOM     25  H   LIG d   1       4.992  -2.178  -2.357  0.00  0.00     0.028 H 
ATOM     26  H   LIG d   1       4.315  -0.537  -2.232  0.00  0.00     0.028 H 
ATOM     27  H   LIG d   1       3.229  -1.936  -2.415  0.00  0.00     0.028 H 
ENDBRANCH  18  24
ENDBRANCH   1  14
BRANCH  10  28
ATOM     28  N   LIG d   1       1.153  -1.443 -10.153  0.00  0.00    -0.328 N 
ATOM     29  H   LIG d   1       0.812  -1.169 -11.018  0.00  0.00     0.145 HD
ATOM     30  H   LIG d   1       0.725  -2.167  -9.668  0.00  0.00     0.145 HD
ENDBRANCH  10  28
BRANCH   4  31
ATOM     31  C   LIG d   1       6.915   1.088  -8.090  0.00  0.00     0.436 C 
ATOM     32  F   LIG d   1       7.469  -0.014  -8.749  0.00  0.00    -0.164 F 
ATOM     33  F   LIG d   1       7.752   2.198  -8.255  0.00  0.00    -0.164 F 
ATOM     34  F   LIG d   1       6.788   0.801  -6.727  0.00  0.00    -0.164 F 
ENDBRANCH   4  31
TORSDOF 4
ENDMDL
MODEL 7
REMARK VINA RESULT:      -5.6      2.989      5.117
REMARK  4 active torsions:
REMARK  status: ('A' for Active; 'I' for Inactive)
REMARK    1  A    between atoms: C_1  and  C_2 
REMARK    2  A    between atoms: C_5  and  C_8 
REMARK    3  A    between atoms: C_11  and  C_22 
REMARK    4  A    between atoms: C_17  and  N_21 
ROOT
ATOM      1  C   LIG d   1       6.049  -3.315  -6.083  0.00  0.00     0.056 C 
ATOM      2  H   LIG d   1       6.897  -2.857  -6.593  0.00  0.00     0.046 H 
ATOM      3  C   LIG d   1       4.890  -3.445  -7.037  0.00  0.00     0.058 A 
ATOM      4  C   LIG d   1       4.347  -2.498  -7.894  0.00  0.00     0.173 A 
ATOM      5  N   LIG d   1       3.347  -3.054  -8.535  0.00  0.00    -0.167 NA
ATOM      6  N   LIG d   1       3.226  -4.382  -8.100  0.00  0.00    -0.246 N 
ATOM      7  H   LIG d   1       2.569  -5.027  -8.407  0.00  0.00     0.192 HD
ATOM      8  C   LIG d   1       4.181  -4.604  -7.183  0.00  0.00     0.223 A 
ATOM      9  O   LIG d   1       4.466  -5.730  -6.482  0.00  0.00    -0.423 OA
ATOM     10  C   LIG d   1       5.644  -5.776  -5.827  0.00  0.00     0.200 C 
ATOM     11  C   LIG d   1       6.428  -4.696  -5.609  0.00  0.00     0.098 C 
ATOM     12  C   LIG d   1       7.662  -4.870  -4.904  0.00  0.00     0.101 C 
ATOM     13  N   LIG d   1       8.642  -5.007  -4.345  0.00  0.00    -0.191 NA
ENDROOT
BRANCH   1  14
ATOM     14  C   LIG d   1       5.646  -2.466  -4.905  0.00  0.00    -0.035 A 
ATOM     15  C   LIG d   1       6.359  -1.323  -4.601  0.00  0.00    -0.057 A 
ATOM     16  C   LIG d   1       5.989  -0.543  -3.521  0.00  0.00    -0.059 A 
ATOM     17  H   LIG d   1       7.207  -1.036  -5.208  0.00  0.00     0.062 H 
ATOM     18  C   LIG d   1       4.905  -0.908  -2.745  0.00  0.00    -0.050 A 
ATOM     19  H   LIG d   1       6.546   0.351  -3.284  0.00  0.00     0.062 H 
ATOM     20  C   LIG d   1       4.195  -2.055  -3.046  0.00  0.00    -0.059 A 
ATOM     21  C   LIG d   1       4.562  -2.832  -4.129  0.00  0.00    -0.057 A 
ATOM     22  H   LIG d   1       3.350  -2.344  -2.437  0.00  0.00     0.062 H 
ATOM     23  H   LIG d   1       4.005  -3.726  -4.366  0.00  0.00     0.062 H 
BRANCH  18  24
ATOM     24  C   LIG d   1       4.501  -0.059  -1.568  0.00  0.00    -0.040 C 
ATOM     25  H   LIG d   1       3.600   0.502  -1.816  0.00  0.00     0.028 H 
ATOM     26  H   LIG d   1       4.305  -0.699  -0.708  0.00  0.00     0.028 H 
ATOM     27  H   LIG d   1       5.307   0.635  -1.328  0.00  0.00     0.028 H 
ENDBRANCH  18  24
ENDBRANCH   1  14
BRANCH  10  28
ATOM     28  N   LIG d   1       6.071  -6.992  -5.352  0.00  0.00    -0.328 N 
ATOM     29  H   LIG d   1       6.998  -7.113  -5.093  0.00  0.00     0.145 HD
ATOM     30  H   LIG d   1       5.445  -7.730  -5.276  0.00  0.00     0.145 HD
ENDBRANCH  10  28
BRANCH   4  31
ATOM     31  C   LIG d   1       4.823  -1.078  -8.059  0.00  0.00     0.436 C 
ATOM     32  F   LIG d   1       4.325  -0.554  -9.256  0.00  0.00    -0.164 F 
ATOM     33  F   LIG d   1       4.364  -0.304  -6.987  0.00  0.00    -0.164 F 
ATOM     34  F   LIG d   1       6.221  -1.053  -8.085  0.00  0.00    -0.164 F 
ENDBRANCH   4  31
TORSDOF 4
ENDMDL
MODEL 8
REMARK VINA RESULT:      -5.5      3.021      4.127
REMARK  4 active torsions:
REMARK  status: ('A' for Active; 'I' for Inactive)
REMARK    1  A    between atoms: C_1  and  C_2 
REMARK    2  A    between atoms: C_5  and  C_8 
REMARK    3  A    between atoms: C_11  and  C_22 
REMARK    4  A    between atoms: C_17  and  N_21 
ROOT
ATOM      1  C   LIG d   1       5.943  -1.326  -5.894  0.00  0.00     0.056 C 
ATOM      2  H   LIG d   1       6.701  -2.004  -6.288  0.00  0.00     0.046 H 
ATOM      3  C   LIG d   1       5.264  -1.955  -4.705  0.00  0.00     0.058 A 
ATOM      4  C   LIG d   1       4.736  -3.231  -4.568  0.00  0.00     0.173 A 
ATOM      5  N   LIG d   1       4.243  -3.340  -3.357  0.00  0.00    -0.167 NA
ATOM      6  N   LIG d   1       4.446  -2.125  -2.685  0.00  0.00    -0.246 N 
ATOM      7  H   LIG d   1       4.180  -1.925  -1.774  0.00  0.00     0.192 HD
ATOM      8  C   LIG d   1       5.075  -1.289  -3.526  0.00  0.00     0.223 A 
ATOM      9  O   LIG d   1       5.485  -0.010  -3.334  0.00  0.00    -0.423 OA
ATOM     10  C   LIG d   1       6.334   0.516  -4.239  0.00  0.00     0.200 C 
ATOM     11  C   LIG d   1       6.594  -0.042  -5.443  0.00  0.00     0.098 C 
ATOM     12  C   LIG d   1       7.520   0.607  -6.320  0.00  0.00     0.101 C 
ATOM     13  N   LIG d   1       8.256   1.122  -7.016  0.00  0.00    -0.191 NA
ENDROOT
BRANCH   1  14
ATOM     14  C   LIG d   1       4.923  -1.029  -6.964  0.00  0.00    -0.035 A 
ATOM     15  C   LIG d   1       3.765  -0.346  -6.644  0.00  0.00    -0.057 A 
ATOM     16  C   LIG d   1       2.831  -0.073  -7.625  0.00  0.00    -0.059 A 
ATOM     17  H   LIG d   1       3.590  -0.025  -5.628  0.00  0.00     0.062 H 
ATOM     18  C   LIG d   1       3.055  -0.483  -8.927  0.00  0.00    -0.050 A 
ATOM     19  H   LIG d   1       1.926   0.461  -7.376  0.00  0.00     0.062 H 
ATOM     20  C   LIG d   1       4.211  -1.171  -9.245  0.00  0.00    -0.059 A 
ATOM     21  C   LIG d   1       5.147  -1.440  -8.265  0.00  0.00    -0.057 A 
ATOM     22  H   LIG d   1       4.384  -1.496 -10.261  0.00  0.00     0.062 H 
ATOM     23  H   LIG d   1       6.052  -1.974  -8.514  0.00  0.00     0.062 H 
BRANCH  18  24
ATOM     24  C   LIG d   1       2.036  -0.185  -9.997  0.00  0.00    -0.040 C 
ATOM     25  H   LIG d   1       1.960   0.892 -10.137  0.00  0.00     0.028 H 
ATOM     26  H   LIG d   1       2.343  -0.653 -10.932  0.00  0.00     0.028 H 
ATOM     27  H   LIG d   1       1.066  -0.582  -9.694  0.00  0.00     0.028 H 
ENDBRANCH  18  24
ENDBRANCH   1  14
BRANCH  10  28
ATOM     28  N   LIG d   1       6.972   1.689  -3.919  0.00  0.00    -0.328 N 
ATOM     29  H   LIG d   1       7.859   1.869  -4.267  0.00  0.00     0.145 HD
ATOM     30  H   LIG d   1       6.535   2.338  -3.345  0.00  0.00     0.145 HD
ENDBRANCH  10  28
BRANCH   4  31
ATOM     31  C   LIG d   1       4.730  -4.304  -5.626  0.00  0.00     0.436 C 
ATOM     32  F   LIG d   1       4.386  -5.530  -5.046  0.00  0.00    -0.164 F 
ATOM     33  F   LIG d   1       3.795  -3.979  -6.615  0.00  0.00    -0.164 F 
ATOM     34  F   LIG d   1       6.001  -4.401  -6.201  0.00  0.00    -0.164 F 
ENDBRANCH   4  31
TORSDOF 4
ENDMDL
MODEL 9
REMARK VINA RESULT:      -5.5      2.924      4.559
REMARK  4 active torsions:
REMARK  status: ('A' for Active; 'I' for Inactive)
REMARK    1  A    between atoms: C_1  and  C_2 
REMARK    2  A    between atoms: C_5  and  C_8 
REMARK    3  A    between atoms: C_11  and  C_22 
REMARK    4  A    between atoms: C_17  and  N_21 
ROOT
ATOM      1  C   LIG d   1       5.420  -0.551  -5.978  0.00  0.00     0.056 C 
ATOM      2  H   LIG d   1       4.911   0.275  -5.479  0.00  0.00     0.046 H 
ATOM      3  C   LIG d   1       4.917  -1.863  -5.432  0.00  0.00     0.058 A 
ATOM      4  C   LIG d   1       4.756  -2.262  -4.113  0.00  0.00     0.173 A 
ATOM      5  N   LIG d   1       4.291  -3.488  -4.112  0.00  0.00    -0.167 NA
ATOM      6  N   LIG d   1       4.141  -3.907  -5.443  0.00  0.00    -0.246 N 
ATOM      7  H   LIG d   1       3.815  -4.772  -5.736  0.00  0.00     0.192 HD
ATOM      8  C   LIG d   1       4.529  -2.897  -6.238  0.00  0.00     0.223 A 
ATOM      9  O   LIG d   1       4.563  -2.822  -7.592  0.00  0.00    -0.423 OA
ATOM     10  C   LIG d   1       4.731  -1.605  -8.146  0.00  0.00     0.200 C 
ATOM     11  C   LIG d   1       5.124  -0.511  -7.457  0.00  0.00     0.098 C 
ATOM     12  C   LIG d   1       5.263   0.732  -8.154  0.00  0.00     0.101 C 
ATOM     13  N   LIG d   1       5.374   1.719  -8.707  0.00  0.00    -0.191 NA
ENDROOT
BRANCH   1  14
ATOM     14  C   LIG d   1       6.906  -0.443  -5.754  0.00  0.00    -0.035 A 
ATOM     15  C   LIG d   1       7.425   0.644  -5.077  0.00  0.00    -0.057 A 
ATOM     16  C   LIG d   1       8.788   0.743  -4.869  0.00  0.00    -0.059 A 
ATOM     17  H   LIG d   1       6.765   1.416  -4.708  0.00  0.00     0.062 H 
ATOM     18  C   LIG d   1       9.632  -0.246  -5.340  0.00  0.00    -0.050 A 
ATOM     19  H   LIG d   1       9.194   1.592  -4.340  0.00  0.00     0.062 H 
ATOM     20  C   LIG d   1       9.113  -1.330  -6.023  0.00  0.00    -0.059 A 
ATOM     21  C   LIG d   1       7.749  -1.431  -6.225  0.00  0.00    -0.057 A 
ATOM     22  H   LIG d   1       9.772  -2.100  -6.395  0.00  0.00     0.062 H 
ATOM     23  H   LIG d   1       7.343  -2.280  -6.755  0.00  0.00     0.062 H 
BRANCH  18  24
ATOM     24  C   LIG d   1      11.118  -0.138  -5.115  0.00  0.00    -0.040 C 
ATOM     25  H   LIG d   1      11.487   0.786  -5.560  0.00  0.00     0.028 H 
ATOM     26  H   LIG d   1      11.324  -0.134  -4.045  0.00  0.00     0.028 H 
ATOM     27  H   LIG d   1      11.618  -0.989  -5.578  0.00  0.00     0.028 H 
ENDBRANCH  18  24
ENDBRANCH   1  14
BRANCH  10  28
ATOM     28  N   LIG d   1       4.490  -1.469  -9.492  0.00  0.00    -0.328 N 
ATOM     29  H   LIG d   1       3.801  -0.862  -9.802  0.00  0.00     0.145 HD
ATOM     30  H   LIG d   1       5.011  -1.981 -10.131  0.00  0.00     0.145 HD
ENDBRANCH  10  28
BRANCH   4  31
ATOM     31  C   LIG d   1       5.063  -1.431  -2.894  0.00  0.00     0.436 C 
ATOM     32  F   LIG d   1       6.445  -1.413  -2.677  0.00  0.00    -0.164 F 
ATOM     33  F   LIG d   1       4.607  -0.123  -3.093  0.00  0.00    -0.164 F 
ATOM     34  F   LIG d   1       4.423  -1.982  -1.779  0.00  0.00    -0.164 F 
ENDBRANCH   4  31
TORSDOF 4
ENDMDL
MODEL 10
REMARK VINA RESULT:      -5.5      8.791      9.782
REMARK  4 active torsions:
REMARK  status: ('A' for Active; 'I' for Inactive)
REMARK    1  A    between atoms: C_1  and  C_2 
REMARK    2  A    between atoms: C_5  and  C_8 
REMARK    3  A    between atoms: C_11  and  C_22 
REMARK    4  A    between atoms: C_17  and  N_21 
ROOT
ATOM      1  C   LIG d   1       9.672   6.004  -2.665  0.00  0.00     0.056 C 
ATOM      2  H   LIG d   1       8.597   6.079  -2.500  0.00  0.00     0.046 H 
ATOM      3  C   LIG d   1      10.411   6.487  -1.444  0.00  0.00     0.058 A 
ATOM      4  C   LIG d   1      10.224   7.648  -0.706  0.00  0.00     0.173 A 
ATOM      5  N   LIG d   1      11.097   7.653   0.273  0.00  0.00    -0.167 NA
ATOM      6  N   LIG d   1      11.869   6.485   0.184  0.00  0.00    -0.246 N 
ATOM      7  H   LIG d   1      12.590   6.230   0.782  0.00  0.00     0.192 HD
ATOM      8  C   LIG d   1      11.433   5.782  -0.873  0.00  0.00     0.223 A 
ATOM      9  O   LIG d   1      11.861   4.590  -1.359  0.00  0.00    -0.423 OA
ATOM     10  C   LIG d   1      11.080   3.968  -2.264  0.00  0.00     0.200 C 
ATOM     11  C   LIG d   1      10.048   4.563  -2.905  0.00  0.00     0.098 C 
ATOM     12  C   LIG d   1       9.285   3.798  -3.844  0.00  0.00     0.101 C 
ATOM     13  N   LIG d   1       8.679   3.190  -4.589  0.00  0.00    -0.191 NA
ENDROOT
BRANCH   1  14
ATOM     14  C   LIG d   1      10.062   6.836  -3.859  0.00  0.00    -0.035 A 
ATOM     15  C   LIG d   1      11.380   7.214  -4.037  0.00  0.00    -0.057 A 
ATOM     16  C   LIG d   1      11.738   7.976  -5.133  0.00  0.00    -0.059 A 
ATOM     17  H   LIG d   1      12.130   6.912  -3.321  0.00  0.00     0.062 H 
ATOM     18  C   LIG d   1      10.778   8.361  -6.051  0.00  0.00    -0.050 A 
ATOM     19  H   LIG d   1      12.767   8.271  -5.273  0.00  0.00     0.062 H 
ATOM     20  C   LIG d   1       9.460   7.988  -5.869  0.00  0.00    -0.059 A 
ATOM     21  C   LIG d   1       9.102   7.222  -4.776  0.00  0.00    -0.057 A 
ATOM     22  H   LIG d   1       8.708   8.293  -6.583  0.00  0.00     0.062 H 
ATOM     23  H   LIG d   1       8.073   6.927  -4.636  0.00  0.00     0.062 H 
BRANCH  18  24
ATOM     24  C   LIG d   1      11.169   9.193  -7.245  0.00  0.00    -0.040 C 
ATOM     25  H   LIG d   1      10.281   9.666  -7.665  0.00  0.00     0.028 H 
ATOM     26  H   LIG d   1      11.878   9.961  -6.937  0.00  0.00     0.028 H 
ATOM     27  H   LIG d   1      11.630   8.553  -7.998  0.00  0.00     0.028 H 
ENDBRANCH  18  24
ENDBRANCH   1  14
BRANCH  10  28
ATOM     28  N   LIG d   1      11.349   2.653  -2.554  0.00  0.00    -0.328 N 
ATOM     29  H   LIG d   1      11.818   2.422  -3.371  0.00  0.00     0.145 HD
ATOM     30  H   LIG d   1      11.071   1.955  -1.940  0.00  0.00     0.145 HD
ENDBRANCH  10  28
BRANCH   4  31
ATOM     31  C   LIG d   1       9.198   8.716  -0.983  0.00  0.00     0.436 C 
ATOM     32  F   LIG d   1       7.924   8.140  -1.025  0.00  0.00    -0.164 F 
ATOM     33  F   LIG d   1       9.240   9.678   0.033  0.00  0.00    -0.164 F 
ATOM     34  F   LIG d   1       9.476   9.324  -2.211  0.00  0.00    -0.164 F 
ENDBRANCH   4  31
TORSDOF 4
ENDMDL
