MODEL 1
REMARK VINA RESULT:      -5.4      0.000      0.000
REMARK  5 active torsions:
REMARK  status: ('A' for Active; 'I' for Inactive)
REMARK    1  A    between atoms: C_1  and  C_2 
REMARK    2  A    between atoms: C_2  and  O_3 
REMARK    3  A    between atoms: O_3  and  C_4 
REMARK    4  A    between atoms: C_4  and  C_6 
REMARK    5  A    between atoms: N_16  and  C_17 
ROOT
ATOM      1  C   LIG d   1       3.789  -0.980  -6.895  0.00  0.00     0.131 A 
ATOM      2  C   LIG d   1       3.123   0.178  -6.651  0.00  0.00     0.016 A 
ATOM      3  C   LIG d   1       2.983   0.648  -5.318  0.00  0.00     0.190 A 
ATOM      4  O   LIG d   1       2.389   1.685  -5.075  0.00  0.00    -0.287 OA
ATOM      5  C   LIG d   1       3.579  -0.156  -4.238  0.00  0.00     0.045 A 
ATOM      6  C   LIG d   1       3.485   0.237  -2.902  0.00  0.00    -0.049 A 
ATOM      7  C   LIG d   1       4.051  -0.536  -1.928  0.00  0.00    -0.061 A 
ATOM      8  C   LIG d   1       4.717  -1.710  -2.255  0.00  0.00    -0.060 A 
ATOM      9  C   LIG d   1       4.827  -2.114  -3.567  0.00  0.00    -0.037 A 
ATOM     10  C   LIG d   1       4.253  -1.345  -4.577  0.00  0.00     0.053 A 
ATOM     11  N   LIG d   1       4.342  -1.726  -5.895  0.00  0.00    -0.338 N 
ATOM     12  H   LIG d   1       2.699   0.740  -7.471  0.00  0.00     0.068 H 
ATOM     13  H   LIG d   1       2.968   1.148  -2.640  0.00  0.00     0.062 H 
ATOM     14  H   LIG d   1       3.978  -0.232  -0.894  0.00  0.00     0.062 H 
ATOM     15  H   LIG d   1       5.160  -2.309  -1.473  0.00  0.00     0.062 H 
ATOM     16  H   LIG d   1       5.351  -3.025  -3.811  0.00  0.00     0.064 H 
ENDROOT
BRANCH   1  17
ATOM     17  C   LIG d   1       3.920  -1.448  -8.295  0.00  0.00     0.356 C 
ATOM     18  O   LIG d   1       4.862  -1.088  -8.971  0.00  0.00    -0.243 OA
BRANCH  17  19
ATOM     19  O   LIG d   1       2.992  -2.275  -8.817  0.00  0.00    -0.460 OA
BRANCH  19  20
ATOM     20  C   LIG d   1       2.423  -1.899 -10.098  0.00  0.00     0.090 C 
ATOM     21  H   LIG d   1       3.221  -1.600 -10.777  0.00  0.00     0.070 H 
ATOM     22  H   LIG d   1       1.886  -2.749 -10.521  0.00  0.00     0.070 H 
BRANCH  20  23
ATOM     23  C   LIG d   1       1.454  -0.731  -9.903  0.00  0.00    -0.031 C 
ATOM     24  H   LIG d   1       0.541  -0.918 -10.469  0.00  0.00     0.026 H 
ATOM     25  H   LIG d   1       1.211  -0.633  -8.845  0.00  0.00     0.026 H 
ATOM     26  H   LIG d   1       1.919   0.189 -10.255  0.00  0.00     0.026 H 
ENDBRANCH  20  23
ENDBRANCH  19  20
ENDBRANCH  17  19
ENDBRANCH   1  17
BRANCH  11  27
ATOM     27  C   LIG d   1       5.047  -2.965  -6.235  0.00  0.00     0.013 C 
ATOM     28  H   LIG d   1       4.930  -3.169  -7.298  0.00  0.00     0.046 H 
ATOM     29  H   LIG d   1       6.106  -2.856  -6.000  0.00  0.00     0.046 H 
ATOM     30  H   LIG d   1       4.630  -3.789  -5.657  0.00  0.00     0.046 H 
ENDBRANCH  11  27
TORSDOF 5
ENDMDL
MODEL 2
REMARK VINA RESULT:      -5.4      2.322      3.208
REMARK  5 active torsions:
REMARK  status: ('A' for Active; 'I' for Inactive)
REMARK    1  A    between atoms: C_1  and  C_2 
REMARK    2  A    between atoms: C_2  and  O_3 
REMARK    3  A    between atoms: O_3  and  C_4 
REMARK    4  A    between atoms: C_4  and  C_6 
REMARK    5  A    between atoms: N_16  and  C_17 
ROOT
ATOM      1  C   LIG d   1       5.393  -0.347  -6.691  0.00  0.00     0.131 A 
ATOM      2  C   LIG d   1       6.574  -0.794  -6.193  0.00  0.00     0.016 A 
ATOM      3  C   LIG d   1       6.643  -1.274  -4.858  0.00  0.00     0.190 A 
ATOM      4  O   LIG d   1       7.693  -1.681  -4.389  0.00  0.00    -0.287 OA
ATOM      5  C   LIG d   1       5.408  -1.266  -4.058  0.00  0.00     0.045 A 
ATOM      6  C   LIG d   1       5.393  -1.720  -2.738  0.00  0.00    -0.049 A 
ATOM      7  C   LIG d   1       4.226  -1.695  -2.027  0.00  0.00    -0.061 A 
ATOM      8  C   LIG d   1       3.056  -1.222  -2.606  0.00  0.00    -0.060 A 
ATOM      9  C   LIG d   1       3.046  -0.774  -3.908  0.00  0.00    -0.037 A 
ATOM     10  C   LIG d   1       4.225  -0.784  -4.650  0.00  0.00     0.053 A 
ATOM     11  N   LIG d   1       4.247  -0.338  -5.951  0.00  0.00    -0.338 N 
ATOM     12  H   LIG d   1       7.459  -0.785  -6.812  0.00  0.00     0.068 H 
ATOM     13  H   LIG d   1       6.299  -2.089  -2.282  0.00  0.00     0.062 H 
ATOM     14  H   LIG d   1       4.214  -2.047  -1.006  0.00  0.00     0.062 H 
ATOM     15  H   LIG d   1       2.142  -1.211  -2.030  0.00  0.00     0.062 H 
ATOM     16  H   LIG d   1       2.130  -0.412  -4.350  0.00  0.00     0.064 H 
ENDROOT
BRANCH   1  17
ATOM     17  C   LIG d   1       5.348   0.150  -8.087  0.00  0.00     0.356 C 
ATOM     18  O   LIG d   1       5.112  -0.618  -8.998  0.00  0.00    -0.243 OA
BRANCH  17  19
ATOM     19  O   LIG d   1       5.568   1.454  -8.345  0.00  0.00    -0.460 OA
BRANCH  19  20
ATOM     20  C   LIG d   1       4.960   2.000  -9.544  0.00  0.00     0.090 C 
ATOM     21  H   LIG d   1       5.595   2.788  -9.947  0.00  0.00     0.070 H 
ATOM     22  H   LIG d   1       4.845   1.210 -10.286  0.00  0.00     0.070 H 
BRANCH  20  23
ATOM     23  C   LIG d   1       3.586   2.579  -9.199  0.00  0.00    -0.031 C 
ATOM     24  H   LIG d   1       3.148   2.011  -8.379  0.00  0.00     0.026 H 
ATOM     25  H   LIG d   1       3.695   3.622  -8.901  0.00  0.00     0.026 H 
ATOM     26  H   LIG d   1       2.936   2.518 -10.073  0.00  0.00     0.026 H 
ENDBRANCH  20  23
ENDBRANCH  19  20
ENDBRANCH  17  19
ENDBRANCH   1  17
BRANCH  11  27
ATOM     27  C   LIG d   1       3.009   0.160  -6.556  0.00  0.00     0.013 C 
ATOM     28  H   LIG d   1       2.941  -0.191  -7.585  0.00  0.00     0.046 H 
ATOM     29  H   LIG d   1       2.153  -0.209  -5.990  0.00  0.00     0.046 H 
ATOM     30  H   LIG d   1       3.011   1.250  -6.543  0.00  0.00     0.046 H 
ENDBRANCH  11  27
TORSDOF 5
ENDMDL
MODEL 3
REMARK VINA RESULT:      -5.1      1.763      2.855
REMARK  5 active torsions:
REMARK  status: ('A' for Active; 'I' for Inactive)
REMARK    1  A    between atoms: C_1  and  C_2 
REMARK    2  A    between atoms: C_2  and  O_3 
REMARK    3  A    between atoms: O_3  and  C_4 
REMARK    4  A    between atoms: C_4  and  C_6 
REMARK    5  A    between atoms: N_16  and  C_17 
ROOT
ATOM      1  C   LIG d   1       4.238  -1.292  -6.814  0.00  0.00     0.131 A 
ATOM      2  C   LIG d   1       5.048  -2.289  -6.375  0.00  0.00     0.016 A 
ATOM      3  C   LIG d   1       5.312  -2.427  -4.986  0.00  0.00     0.190 A 
ATOM      4  O   LIG d   1       6.036  -3.316  -4.568  0.00  0.00    -0.287 OA
ATOM      5  C   LIG d   1       4.684  -1.465  -4.066  0.00  0.00     0.045 A 
ATOM      6  C   LIG d   1       4.894  -1.534  -2.688  0.00  0.00    -0.049 A 
ATOM      7  C   LIG d   1       4.293  -0.621  -1.866  0.00  0.00    -0.061 A 
ATOM      8  C   LIG d   1       3.477   0.372  -2.390  0.00  0.00    -0.060 A 
ATOM      9  C   LIG d   1       3.252   0.455  -3.746  0.00  0.00    -0.037 A 
ATOM     10  C   LIG d   1       3.858  -0.460  -4.604  0.00  0.00     0.053 A 
ATOM     11  N   LIG d   1       3.656  -0.399  -5.963  0.00  0.00    -0.338 N 
ATOM     12  H   LIG d   1       5.491  -2.976  -7.082  0.00  0.00     0.068 H 
ATOM     13  H   LIG d   1       5.527  -2.303  -2.274  0.00  0.00     0.062 H 
ATOM     14  H   LIG d   1       4.455  -0.674  -0.800  0.00  0.00     0.062 H 
ATOM     15  H   LIG d   1       3.009   1.084  -1.726  0.00  0.00     0.062 H 
ATOM     16  H   LIG d   1       2.612   1.228  -4.143  0.00  0.00     0.064 H 
ENDROOT
BRANCH   1  17
ATOM     17  C   LIG d   1       3.980  -1.169  -8.268  0.00  0.00     0.356 C 
ATOM     18  O   LIG d   1       3.118  -1.845  -8.792  0.00  0.00    -0.243 OA
BRANCH  17  19
ATOM     19  O   LIG d   1       4.703  -0.306  -9.010  0.00  0.00    -0.460 OA
BRANCH  19  20
ATOM     20  C   LIG d   1       4.058   0.254 -10.183  0.00  0.00     0.090 C 
ATOM     21  H   LIG d   1       4.661   0.041 -11.066  0.00  0.00     0.070 H 
ATOM     22  H   LIG d   1       3.070  -0.191 -10.303  0.00  0.00     0.070 H 
BRANCH  20  23
ATOM     23  C   LIG d   1       3.918   1.768 -10.015  0.00  0.00    -0.031 C 
ATOM     24  H   LIG d   1       3.924   2.245 -10.995  0.00  0.00     0.026 H 
ATOM     25  H   LIG d   1       2.979   1.992  -9.509  0.00  0.00     0.026 H 
ATOM     26  H   LIG d   1       4.750   2.146  -9.421  0.00  0.00     0.026 H 
ENDBRANCH  20  23
ENDBRANCH  19  20
ENDBRANCH  17  19
ENDBRANCH   1  17
BRANCH  11  27
ATOM     27  C   LIG d   1       2.793   0.651  -6.510  0.00  0.00     0.013 C 
ATOM     28  H   LIG d   1       1.887   0.203  -6.915  0.00  0.00     0.046 H 
ATOM     29  H   LIG d   1       2.528   1.354  -5.719  0.00  0.00     0.046 H 
ATOM     30  H   LIG d   1       3.323   1.180  -7.302  0.00  0.00     0.046 H 
ENDBRANCH  11  27
TORSDOF 5
ENDMDL
MODEL 4
REMARK VINA RESULT:      -4.9      1.683      2.336
REMARK  5 active torsions:
REMARK  status: ('A' for Active; 'I' for Inactive)
REMARK    1  A    between atoms: C_1  and  C_2 
REMARK    2  A    between atoms: C_2  and  O_3 
REMARK    3  A    between atoms: O_3  and  C_4 
REMARK    4  A    between atoms: C_4  and  C_6 
REMARK    5  A    between atoms: N_16  and  C_17 
ROOT
ATOM      1  C   LIG d   1       4.404  -2.172  -6.670  0.00  0.00     0.131 A 
ATOM      2  C   LIG d   1       3.862  -0.981  -7.033  0.00  0.00     0.016 A 
ATOM      3  C   LIG d   1       3.510  -0.030  -6.039  0.00  0.00     0.190 A 
ATOM      4  O   LIG d   1       3.023   1.046  -6.341  0.00  0.00    -0.287 OA
ATOM      5  C   LIG d   1       3.752  -0.384  -4.631  0.00  0.00     0.045 A 
ATOM      6  C   LIG d   1       3.433   0.495  -3.595  0.00  0.00    -0.049 A 
ATOM      7  C   LIG d   1       3.672   0.130  -2.299  0.00  0.00    -0.061 A 
ATOM      8  C   LIG d   1       4.229  -1.108  -2.006  0.00  0.00    -0.060 A 
ATOM      9  C   LIG d   1       4.557  -1.989  -3.012  0.00  0.00    -0.037 A 
ATOM     10  C   LIG d   1       4.317  -1.641  -4.340  0.00  0.00     0.053 A 
ATOM     11  N   LIG d   1       4.628  -2.502  -5.365  0.00  0.00    -0.338 N 
ATOM     12  H   LIG d   1       3.700  -0.758  -8.078  0.00  0.00     0.068 H 
ATOM     13  H   LIG d   1       2.999   1.459  -3.816  0.00  0.00     0.062 H 
ATOM     14  H   LIG d   1       3.425   0.811  -1.498  0.00  0.00     0.062 H 
ATOM     15  H   LIG d   1       4.412  -1.380  -0.976  0.00  0.00     0.062 H 
ATOM     16  H   LIG d   1       4.993  -2.946  -2.773  0.00  0.00     0.064 H 
ENDROOT
BRANCH   1  17
ATOM     17  C   LIG d   1       4.762  -3.147  -7.727  0.00  0.00     0.356 C 
ATOM     18  O   LIG d   1       5.826  -3.055  -8.303  0.00  0.00    -0.243 OA
BRANCH  17  19
ATOM     19  O   LIG d   1       3.905  -4.136  -8.048  0.00  0.00    -0.460 OA
BRANCH  19  20
ATOM     20  C   LIG d   1       4.479  -5.356  -8.586  0.00  0.00     0.090 C 
ATOM     21  H   LIG d   1       3.957  -5.630  -9.503  0.00  0.00     0.070 H 
ATOM     22  H   LIG d   1       5.535  -5.197  -8.804  0.00  0.00     0.070 H 
BRANCH  20  23
ATOM     23  C   LIG d   1       4.334  -6.483  -7.561  0.00  0.00    -0.031 C 
ATOM     24  H   LIG d   1       4.830  -6.196  -6.634  0.00  0.00     0.026 H 
ATOM     25  H   LIG d   1       3.277  -6.663  -7.366  0.00  0.00     0.026 H 
ATOM     26  H   LIG d   1       4.792  -7.391  -7.952  0.00  0.00     0.026 H 
ENDBRANCH  20  23
ENDBRANCH  19  20
ENDBRANCH  17  19
ENDBRANCH   1  17
BRANCH  11  27
ATOM     27  C   LIG d   1       5.216  -3.806  -5.049  0.00  0.00     0.013 C 
ATOM     28  H   LIG d   1       4.695  -4.584  -5.605  0.00  0.00     0.046 H 
ATOM     29  H   LIG d   1       6.271  -3.806  -5.326  0.00  0.00     0.046 H 
ATOM     30  H   LIG d   1       5.122  -3.997  -3.980  0.00  0.00     0.046 H 
ENDBRANCH  11  27
TORSDOF 5
ENDMDL
MODEL 5
REMARK VINA RESULT:      -4.5      1.931      5.535
REMARK  5 active torsions:
REMARK  status: ('A' for Active; 'I' for Inactive)
REMARK    1  A    between atoms: C_1  and  C_2 
REMARK    2  A    between atoms: C_2  and  O_3 
REMARK    3  A    between atoms: O_3  and  C_4 
REMARK    4  A    between atoms: C_4  and  C_6 
REMARK    5  A    between atoms: N_16  and  C_17 
ROOT
ATOM      1  C   LIG d   1       3.751  -0.330  -6.789  0.00  0.00     0.131 A 
ATOM      2  C   LIG d   1       3.214   0.824  -7.261  0.00  0.00     0.016 A 
ATOM      3  C   LIG d   1       2.790   0.907  -8.614  0.00  0.00     0.190 A 
ATOM      4  O   LIG d   1       2.305   1.933  -9.060  0.00  0.00    -0.287 OA
ATOM      5  C   LIG d   1       2.954  -0.286  -9.461  0.00  0.00     0.045 A 
ATOM      6  C   LIG d   1       2.563  -0.284 -10.801  0.00  0.00    -0.049 A 
ATOM      7  C   LIG d   1       2.733  -1.411 -11.556  0.00  0.00    -0.061 A 
ATOM      8  C   LIG d   1       3.291  -2.556 -11.002  0.00  0.00    -0.060 A 
ATOM      9  C   LIG d   1       3.679  -2.581  -9.681  0.00  0.00    -0.037 A 
ATOM     10  C   LIG d   1       3.521  -1.442  -8.893  0.00  0.00     0.053 A 
ATOM     11  N   LIG d   1       3.904  -1.436  -7.573  0.00  0.00    -0.338 N 
ATOM     12  H   LIG d   1       3.110   1.679  -6.607  0.00  0.00     0.068 H 
ATOM     13  H   LIG d   1       2.129   0.602 -11.239  0.00  0.00     0.062 H 
ATOM     14  H   LIG d   1       2.430  -1.411 -12.593  0.00  0.00     0.062 H 
ATOM     15  H   LIG d   1       3.416  -3.438 -11.612  0.00  0.00     0.062 H 
ATOM     16  H   LIG d   1       4.107  -3.477  -9.259  0.00  0.00     0.064 H 
ENDROOT
BRANCH   1  17
ATOM     17  C   LIG d   1       4.186  -0.389  -5.373  0.00  0.00     0.356 C 
ATOM     18  O   LIG d   1       5.284   0.021  -5.057  0.00  0.00    -0.243 OA
BRANCH  17  19
ATOM     19  O   LIG d   1       3.362  -0.898  -4.436  0.00  0.00    -0.460 OA
BRANCH  19  20
ATOM     20  C   LIG d   1       3.752  -0.721  -3.050  0.00  0.00     0.090 C 
ATOM     21  H   LIG d   1       4.721  -0.226  -3.005  0.00  0.00     0.070 H 
ATOM     22  H   LIG d   1       3.008  -0.111  -2.537  0.00  0.00     0.070 H 
BRANCH  20  23
ATOM     23  C   LIG d   1       3.846  -2.088  -2.369  0.00  0.00    -0.031 C 
ATOM     24  H   LIG d   1       3.274  -2.819  -2.940  0.00  0.00     0.026 H 
ATOM     25  H   LIG d   1       4.890  -2.400  -2.323  0.00  0.00     0.026 H 
ATOM     26  H   LIG d   1       3.443  -2.020  -1.358  0.00  0.00     0.026 H 
ENDBRANCH  20  23
ENDBRANCH  19  20
ENDBRANCH  17  19
ENDBRANCH   1  17
BRANCH  11  27
ATOM     27  C   LIG d   1       4.492  -2.646  -6.993  0.00  0.00     0.013 C 
ATOM     28  H   LIG d   1       4.346  -2.640  -5.914  0.00  0.00     0.046 H 
ATOM     29  H   LIG d   1       4.008  -3.526  -7.420  0.00  0.00     0.046 H 
ATOM     30  H   LIG d   1       5.558  -2.675  -7.217  0.00  0.00     0.046 H 
ENDBRANCH  11  27
TORSDOF 5
ENDMDL
MODEL 6
REMARK VINA RESULT:      -4.5      3.162      5.103
REMARK  5 active torsions:
REMARK  status: ('A' for Active; 'I' for Inactive)
REMARK    1  A    between atoms: C_1  and  C_2 
REMARK    2  A    between atoms: C_2  and  O_3 
REMARK    3  A    between atoms: O_3  and  C_4 
REMARK    4  A    between atoms: C_4  and  C_6 
REMARK    5  A    between atoms: N_16  and  C_17 
ROOT
ATOM      1  C   LIG d   1       6.431  -2.090  -4.269  0.00  0.00     0.131 A 
ATOM      2  C   LIG d   1       5.978  -1.890  -3.004  0.00  0.00     0.016 A 
ATOM      3  C   LIG d   1       4.778  -1.162  -2.789  0.00  0.00     0.190 A 
ATOM      4  O   LIG d   1       4.352  -0.969  -1.662  0.00  0.00    -0.287 OA
ATOM      5  C   LIG d   1       4.063  -0.647  -3.968  0.00  0.00     0.045 A 
ATOM      6  C   LIG d   1       2.878   0.078  -3.840  0.00  0.00    -0.049 A 
ATOM      7  C   LIG d   1       2.243   0.541  -4.960  0.00  0.00    -0.061 A 
ATOM      8  C   LIG d   1       2.769   0.296  -6.222  0.00  0.00    -0.060 A 
ATOM      9  C   LIG d   1       3.934  -0.422  -6.371  0.00  0.00    -0.037 A 
ATOM     10  C   LIG d   1       4.601  -0.899  -5.245  0.00  0.00     0.053 A 
ATOM     11  N   LIG d   1       5.770  -1.613  -5.363  0.00  0.00    -0.338 N 
ATOM     12  H   LIG d   1       6.531  -2.284  -2.164  0.00  0.00     0.068 H 
ATOM     13  H   LIG d   1       2.464   0.273  -2.863  0.00  0.00     0.062 H 
ATOM     14  H   LIG d   1       1.326   1.102  -4.861  0.00  0.00     0.062 H 
ATOM     15  H   LIG d   1       2.254   0.667  -7.095  0.00  0.00     0.062 H 
ATOM     16  H   LIG d   1       4.331  -0.611  -7.357  0.00  0.00     0.064 H 
ENDROOT
BRANCH   1  17
ATOM     17  C   LIG d   1       7.686  -2.853  -4.466  0.00  0.00     0.356 C 
ATOM     18  O   LIG d   1       8.748  -2.268  -4.537  0.00  0.00    -0.243 OA
BRANCH  17  19
ATOM     19  O   LIG d   1       7.649  -4.196  -4.566  0.00  0.00    -0.460 OA
BRANCH  19  20
ATOM     20  C   LIG d   1       8.827  -4.922  -4.126  0.00  0.00     0.090 C 
ATOM     21  H   LIG d   1       9.712  -4.499  -4.599  0.00  0.00     0.070 H 
ATOM     22  H   LIG d   1       8.920  -4.842  -3.043  0.00  0.00     0.070 H 
BRANCH  20  23
ATOM     23  C   LIG d   1       8.693  -6.395  -4.518  0.00  0.00    -0.031 C 
ATOM     24  H   LIG d   1       9.670  -6.784  -4.806  0.00  0.00     0.026 H 
ATOM     25  H   LIG d   1       8.311  -6.964  -3.671  0.00  0.00     0.026 H 
ATOM     26  H   LIG d   1       8.004  -6.487  -5.357  0.00  0.00     0.026 H 
ENDBRANCH  20  23
ENDBRANCH  19  20
ENDBRANCH  17  19
ENDBRANCH   1  17
BRANCH  11  27
ATOM     27  C   LIG d   1       6.319  -1.870  -6.697  0.00  0.00     0.013 C 
ATOM     28  H   LIG d   1       6.040  -2.872  -7.018  0.00  0.00     0.046 H 
ATOM     29  H   LIG d   1       5.920  -1.138  -7.401  0.00  0.00     0.046 H 
ATOM     30  H   LIG d   1       7.405  -1.787  -6.664  0.00  0.00     0.046 H 
ENDBRANCH  11  27
TORSDOF 5
ENDMDL
MODEL 7
REMARK VINA RESULT:      -4.4      9.267     11.419
REMARK  5 active torsions:
REMARK  status: ('A' for Active; 'I' for Inactive)
REMARK    1  A    between atoms: C_1  and  C_2 
REMARK    2  A    between atoms: C_2  and  O_3 
REMARK    3  A    between atoms: O_3  and  C_4 
REMARK    4  A    between atoms: C_4  and  C_6 
REMARK    5  A    between atoms: N_16  and  C_17 
ROOT
ATOM      1  C   LIG d   1       9.950   6.374  -2.405  0.00  0.00     0.131 A 
ATOM      2  C   LIG d   1       9.870   5.031  -2.221  0.00  0.00     0.016 A 
ATOM      3  C   LIG d   1       9.818   4.164  -3.345  0.00  0.00     0.190 A 
ATOM      4  O   LIG d   1       9.746   2.955  -3.205  0.00  0.00    -0.287 OA
ATOM      5  C   LIG d   1       9.853   4.771  -4.685  0.00  0.00     0.045 A 
ATOM      6  C   LIG d   1       9.804   3.988  -5.840  0.00  0.00    -0.049 A 
ATOM      7  C   LIG d   1       9.838   4.589  -7.067  0.00  0.00    -0.061 A 
ATOM      8  C   LIG d   1       9.920   5.971  -7.175  0.00  0.00    -0.060 A 
ATOM      9  C   LIG d   1       9.974   6.763  -6.049  0.00  0.00    -0.037 A 
ATOM     10  C   LIG d   1       9.935   6.173  -4.788  0.00  0.00     0.053 A 
ATOM     11  N   LIG d   1       9.982   6.938  -3.646  0.00  0.00    -0.338 N 
ATOM     12  H   LIG d   1       9.847   4.623  -1.221  0.00  0.00     0.068 H 
ATOM     13  H   LIG d   1       9.740   2.913  -5.763  0.00  0.00     0.062 H 
ATOM     14  H   LIG d   1       9.801   3.983  -7.960  0.00  0.00     0.062 H 
ATOM     15  H   LIG d   1       9.947   6.430  -8.152  0.00  0.00     0.062 H 
ATOM     16  H   LIG d   1      10.043   7.836  -6.144  0.00  0.00     0.064 H 
ENDROOT
BRANCH   1  17
ATOM     17  C   LIG d   1      10.003   7.256  -1.215  0.00  0.00     0.356 C 
ATOM     18  O   LIG d   1       8.989   7.780  -0.802  0.00  0.00    -0.243 OA
BRANCH  17  19
ATOM     19  O   LIG d   1      11.177   7.475  -0.591  0.00  0.00    -0.460 OA
BRANCH  19  20
ATOM     20  C   LIG d   1      11.192   7.335   0.853  0.00  0.00     0.090 C 
ATOM     21  H   LIG d   1      12.104   7.780   1.252  0.00  0.00     0.070 H 
ATOM     22  H   LIG d   1      10.325   7.842   1.277  0.00  0.00     0.070 H 
BRANCH  20  23
ATOM     23  C   LIG d   1      11.146   5.851   1.222  0.00  0.00    -0.031 C 
ATOM     24  H   LIG d   1      11.952   5.624   1.920  0.00  0.00     0.026 H 
ATOM     25  H   LIG d   1      10.187   5.622   1.687  0.00  0.00     0.026 H 
ATOM     26  H   LIG d   1      11.265   5.249   0.321  0.00  0.00     0.026 H 
ENDBRANCH  20  23
ENDBRANCH  19  20
ENDBRANCH  17  19
ENDBRANCH   1  17
BRANCH  11  27
ATOM     27  C   LIG d   1      10.069   8.396  -3.766  0.00  0.00     0.013 C 
ATOM     28  H   LIG d   1       9.856   8.853  -2.801  0.00  0.00     0.046 H 
ATOM     29  H   LIG d   1      11.074   8.675  -4.086  0.00  0.00     0.046 H 
ATOM     30  H   LIG d   1       9.345   8.743  -4.502  0.00  0.00     0.046 H 
ENDBRANCH  11  27
TORSDOF 5
ENDMDL
MODEL 8
REMARK VINA RESULT:      -4.3     10.108     11.482
REMARK  5 active torsions:
REMARK  status: ('A' for Active; 'I' for Inactive)
REMARK    1  A    between atoms: C_1  and  C_2 
REMARK    2  A    between atoms: C_2  and  O_3 
REMARK    3  A    between atoms: O_3  and  C_4 
REMARK    4  A    between atoms: C_4  and  C_6 
REMARK    5  A    between atoms: N_16  and  C_17 
ROOT
ATOM      1  C   LIG d   1      10.721   5.603  -1.554  0.00  0.00     0.131 A 
ATOM      2  C   LIG d   1      11.074   5.530  -0.245  0.00  0.00     0.016 A 
ATOM      3  C   LIG d   1      11.078   6.706   0.554  0.00  0.00     0.190 A 
ATOM      4  O   LIG d   1      11.391   6.665   1.732  0.00  0.00    -0.287 OA
ATOM      5  C   LIG d   1      10.692   7.974  -0.085  0.00  0.00     0.045 A 
ATOM      6  C   LIG d   1      10.672   9.172   0.631  0.00  0.00    -0.049 A 
ATOM      7  C   LIG d   1      10.309  10.330   0.002  0.00  0.00    -0.061 A 
ATOM      8  C   LIG d   1       9.961  10.325  -1.343  0.00  0.00    -0.060 A 
ATOM      9  C   LIG d   1       9.968   9.154  -2.067  0.00  0.00    -0.037 A 
ATOM     10  C   LIG d   1      10.341   7.962  -1.448  0.00  0.00     0.053 A 
ATOM     11  N   LIG d   1      10.363   6.778  -2.147  0.00  0.00    -0.338 N 
ATOM     12  H   LIG d   1      11.351   4.580   0.189  0.00  0.00     0.068 H 
ATOM     13  H   LIG d   1      10.942   9.183   1.676  0.00  0.00     0.062 H 
ATOM     14  H   LIG d   1      10.292  11.257   0.556  0.00  0.00     0.062 H 
ATOM     15  H   LIG d   1       9.675  11.249  -1.824  0.00  0.00     0.062 H 
ATOM     16  H   LIG d   1       9.691   9.159  -3.110  0.00  0.00     0.064 H 
ENDROOT
BRANCH   1  17
ATOM     17  C   LIG d   1      10.725   4.362  -2.365  0.00  0.00     0.356 C 
ATOM     18  O   LIG d   1      11.775   3.901  -2.764  0.00  0.00    -0.243 OA
BRANCH  17  19
ATOM     19  O   LIG d   1       9.563   3.746  -2.659  0.00  0.00    -0.460 OA
BRANCH  19  20
ATOM     20  C   LIG d   1       9.596   2.748  -3.711  0.00  0.00     0.090 C 
ATOM     21  H   LIG d   1       9.783   3.234  -4.668  0.00  0.00     0.070 H 
ATOM     22  H   LIG d   1      10.389   2.029  -3.508  0.00  0.00     0.070 H 
BRANCH  20  23
ATOM     23  C   LIG d   1       8.251   2.020  -3.765  0.00  0.00    -0.031 C 
ATOM     24  H   LIG d   1       7.560   2.579  -4.395  0.00  0.00     0.026 H 
ATOM     25  H   LIG d   1       8.394   1.022  -4.179  0.00  0.00     0.026 H 
ATOM     26  H   LIG d   1       7.841   1.940  -2.758  0.00  0.00     0.026 H 
ENDBRANCH  20  23
ENDBRANCH  19  20
ENDBRANCH  17  19
ENDBRANCH   1  17
BRANCH  11  27
ATOM     27  C   LIG d   1       9.994   6.778  -3.565  0.00  0.00     0.013 C 
ATOM     28  H   LIG d   1      10.763   6.264  -4.141  0.00  0.00     0.046 H 
ATOM     29  H   LIG d   1       9.041   6.265  -3.693  0.00  0.00     0.046 H 
ATOM     30  H   LIG d   1       9.903   7.806  -3.916  0.00  0.00     0.046 H 
ENDBRANCH  11  27
TORSDOF 5
ENDMDL
MODEL 9
REMARK VINA RESULT:      -4.3     10.111     12.238
REMARK  5 active torsions:
REMARK  status: ('A' for Active; 'I' for Inactive)
REMARK    1  A    between atoms: C_1  and  C_2 
REMARK    2  A    between atoms: C_2  and  O_3 
REMARK    3  A    between atoms: O_3  and  C_4 
REMARK    4  A    between atoms: C_4  and  C_6 
REMARK    5  A    between atoms: N_16  and  C_17 
ROOT
ATOM      1  C   LIG d   1       9.785   7.247  -2.956  0.00  0.00     0.131 A 
ATOM      2  C   LIG d   1       9.637   6.032  -3.543  0.00  0.00     0.016 A 
ATOM      3  C   LIG d   1       9.562   5.933  -4.958  0.00  0.00     0.190 A 
ATOM      4  O   LIG d   1       9.430   4.853  -5.508  0.00  0.00    -0.287 OA
ATOM      5  C   LIG d   1       9.648   7.177  -5.740  0.00  0.00     0.045 A 
ATOM      6  C   LIG d   1       9.580   7.165  -7.134  0.00  0.00    -0.049 A 
ATOM      7  C   LIG d   1       9.664   8.341  -7.826  0.00  0.00    -0.061 A 
ATOM      8  C   LIG d   1       9.814   9.547  -7.154  0.00  0.00    -0.060 A 
ATOM      9  C   LIG d   1       9.887   9.582  -5.779  0.00  0.00    -0.037 A 
ATOM     10  C   LIG d   1       9.799   8.396  -5.053  0.00  0.00     0.053 A 
ATOM     11  N   LIG d   1       9.864   8.400  -3.679  0.00  0.00    -0.338 N 
ATOM     12  H   LIG d   1       9.578   5.141  -2.934  0.00  0.00     0.068 H 
ATOM     13  H   LIG d   1       9.464   6.231  -7.664  0.00  0.00     0.062 H 
ATOM     14  H   LIG d   1       9.612   8.332  -8.905  0.00  0.00     0.062 H 
ATOM     15  H   LIG d   1       9.879  10.467  -7.716  0.00  0.00     0.062 H 
ATOM     16  H   LIG d   1      10.009  10.524  -5.267  0.00  0.00     0.064 H 
ENDROOT
BRANCH   1  17
ATOM     17  C   LIG d   1       9.860   7.321  -1.477  0.00  0.00     0.356 C 
ATOM     18  O   LIG d   1       8.867   7.585  -0.831  0.00  0.00    -0.243 OA
BRANCH  17  19
ATOM     19  O   LIG d   1      11.032   7.096  -0.851  0.00  0.00    -0.460 OA
BRANCH  19  20
ATOM     20  C   LIG d   1      11.046   7.244   0.593  0.00  0.00     0.090 C 
ATOM     21  H   LIG d   1      11.915   7.832   0.889  0.00  0.00     0.070 H 
ATOM     22  H   LIG d   1      10.137   7.751   0.916  0.00  0.00     0.070 H 
BRANCH  20  23
ATOM     23  C   LIG d   1      11.119   5.862   1.246  0.00  0.00    -0.031 C 
ATOM     24  H   LIG d   1      10.251   5.274   0.948  0.00  0.00     0.026 H 
ATOM     25  H   LIG d   1      12.029   5.356   0.925  0.00  0.00     0.026 H 
ATOM     26  H   LIG d   1      11.128   5.973   2.330  0.00  0.00     0.026 H 
ENDBRANCH  20  23
ENDBRANCH  19  20
ENDBRANCH  17  19
ENDBRANCH   1  17
BRANCH  11  27
ATOM     27  C   LIG d   1      10.023   9.676  -2.976  0.00  0.00     0.013 C 
ATOM     28  H   LIG d   1      10.995   9.700  -2.483  0.00  0.00     0.046 H 
ATOM     29  H   LIG d   1       9.958  10.496  -3.691  0.00  0.00     0.046 H 
ATOM     30  H   LIG d   1       9.235   9.779  -2.231  0.00  0.00     0.046 H 
ENDBRANCH  11  27
TORSDOF 5
ENDMDL
MODEL 10
REMARK VINA RESULT:      -4.2      8.540     10.490
REMARK  5 active torsions:
REMARK  status: ('A' for Active; 'I' for Inactive)
REMARK    1  A    between atoms: C_1  and  C_2 
REMARK    2  A    between atoms: C_2  and  O_3 
REMARK    3  A    between atoms: O_3  and  C_4 
REMARK    4  A    between atoms: C_4  and  C_6 
REMARK    5  A    between atoms: N_16  and  C_17 
ROOT
ATOM      1  C   LIG d   1       8.158  -8.846  -2.449  0.00  0.00     0.131 A 
ATOM      2  C   LIG d   1       7.721  -9.580  -1.393  0.00  0.00     0.016 A 
ATOM      3  C   LIG d   1       6.526 -10.340  -1.505  0.00  0.00     0.190 A 
ATOM      4  O   LIG d   1       6.114 -11.006  -0.570  0.00  0.00    -0.287 OA
ATOM      5  C   LIG d   1       5.800 -10.298  -2.784  0.00  0.00     0.045 A 
ATOM      6  C   LIG d   1       4.618 -11.015  -2.973  0.00  0.00    -0.049 A 
ATOM      7  C   LIG d   1       3.972 -10.950  -4.176  0.00  0.00    -0.061 A 
ATOM      8  C   LIG d   1       4.481 -10.176  -5.211  0.00  0.00    -0.060 A 
ATOM      9  C   LIG d   1       5.648  -9.464  -5.048  0.00  0.00    -0.037 A 
ATOM     10  C   LIG d   1       6.321  -9.511  -3.829  0.00  0.00     0.053 A 
ATOM     11  N   LIG d   1       7.486  -8.806  -3.635  0.00  0.00    -0.338 N 
ATOM     12  H   LIG d   1       8.282  -9.585  -0.470  0.00  0.00     0.068 H 
ATOM     13  H   LIG d   1       4.216 -11.619  -2.173  0.00  0.00     0.062 H 
ATOM     14  H   LIG d   1       3.057 -11.506  -4.323  0.00  0.00     0.062 H 
ATOM     15  H   LIG d   1       3.958 -10.137  -6.155  0.00  0.00     0.062 H 
ATOM     16  H   LIG d   1       6.038  -8.870  -5.860  0.00  0.00     0.064 H 
ENDROOT
BRANCH   1  17
ATOM     17  C   LIG d   1       9.407  -8.062  -2.306  0.00  0.00     0.356 C 
ATOM     18  O   LIG d   1      10.477  -8.568  -2.577  0.00  0.00    -0.243 OA
BRANCH  17  19
ATOM     19  O   LIG d   1       9.355  -6.786  -1.875  0.00  0.00    -0.460 OA
BRANCH  19  20
ATOM     20  C   LIG d   1      10.200  -5.824  -2.560  0.00  0.00     0.090 C 
ATOM     21  H   LIG d   1      11.235  -5.963  -2.249  0.00  0.00     0.070 H 
ATOM     22  H   LIG d   1      10.121  -5.973  -3.637  0.00  0.00     0.070 H 
BRANCH  20  23
ATOM     23  C   LIG d   1       9.747  -4.406  -2.207  0.00  0.00    -0.031 C 
ATOM     24  H   LIG d   1       8.722  -4.257  -2.547  0.00  0.00     0.026 H 
ATOM     25  H   LIG d   1       9.795  -4.267  -1.127  0.00  0.00     0.026 H 
ATOM     26  H   LIG d   1      10.401  -3.684  -2.696  0.00  0.00     0.026 H 
ENDBRANCH  20  23
ENDBRANCH  19  20
ENDBRANCH  17  19
ENDBRANCH   1  17
BRANCH  11  27
ATOM     27  C   LIG d   1       8.018  -7.992  -4.731  0.00  0.00     0.013 C 
ATOM     28  H   LIG d   1       8.667  -8.604  -5.356  0.00  0.00     0.046 H 
ATOM     29  H   LIG d   1       7.194  -7.606  -5.331  0.00  0.00     0.046 H 
ATOM     30  H   LIG d   1       8.588  -7.159  -4.320  0.00  0.00     0.046 H 
ENDBRANCH  11  27
TORSDOF 5
ENDMDL
