MODEL 1
REMARK VINA RESULT:      -7.3      0.000      0.000
REMARK  5 active torsions:
REMARK  status: ('A' for Active; 'I' for Inactive)
REMARK    1  A    between atoms: C_1  and  C_2 
REMARK    2  A    between atoms: C_6  and  C_29 
REMARK    3  A    between atoms: C_12  and  C_13 
REMARK    4  A    between atoms: N_15  and  C_22 
REMARK    5  A    between atoms: C_22  and  C_23 
ROOT
ATOM      1  C   LIG d   1       2.962  -0.679  -9.872  0.00  0.00     0.080 C 
ATOM      2  C   LIG d   1       4.024  -1.749  -9.579  0.00  0.00    -0.016 C 
ATOM      3  N   LIG d   1       4.840  -1.344  -8.432  0.00  0.00     0.253 N 
ATOM      4  C   LIG d   1       5.583  -0.113  -8.706  0.00  0.00    -0.016 C 
ATOM      5  C   LIG d   1       4.605   1.047  -8.952  0.00  0.00     0.080 C 
ATOM      6  C   LIG d   1       3.714   0.627 -10.115  0.00  0.00     0.158 C 
ATOM      7  O   LIG d   1       3.627   1.256 -11.142  0.00  0.00    -0.296 OA
ATOM      8  C   LIG d   1       3.692   1.174  -7.722  0.00  0.00     0.021 C 
ATOM      9  N   LIG d   1       3.015  -0.108  -7.490  0.00  0.00    -0.255 N 
ATOM     10  C   LIG d   1       2.103  -0.461  -8.615  0.00  0.00     0.021 C 
ATOM     11  C   LIG d   1       3.997  -1.174  -7.244  0.00  0.00     0.064 C 
ATOM     12  H   LIG d   1       3.532  -2.696  -9.356  0.00  0.00     0.083 H 
ATOM     13  H   LIG d   1       4.664  -1.873 -10.452  0.00  0.00     0.083 H 
ATOM     14  H   LIG d   1       6.218   0.124  -7.853  0.00  0.00     0.083 H 
ATOM     15  H   LIG d   1       6.205  -0.255  -9.590  0.00  0.00     0.083 H 
ATOM     16  H   LIG d   1       4.291   1.434  -6.849  0.00  0.00     0.044 H 
ATOM     17  H   LIG d   1       2.948   1.952  -7.899  0.00  0.00     0.044 H 
ATOM     18  H   LIG d   1       1.384   0.337  -8.799  0.00  0.00     0.044 H 
ATOM     19  H   LIG d   1       1.573  -1.382  -8.372  0.00  0.00     0.044 H 
ATOM     20  H   LIG d   1       3.476  -2.107  -7.031  0.00  0.00     0.109 H 
ATOM     21  H   LIG d   1       5.509  -2.075  -8.244  0.00  0.00     0.205 HD
ENDROOT
BRANCH  11  22
ATOM     22  C   LIG d   1       4.860  -0.800  -6.066  0.00  0.00     0.041 A 
ATOM     23  C   LIG d   1       4.393  -0.391  -4.739  0.00  0.00     0.010 A 
ATOM     24  C   LIG d   1       5.551  -0.148  -3.978  0.00  0.00     0.050 A 
ATOM     25  C   LIG d   1       3.133  -0.223  -4.163  0.00  0.00    -0.052 A 
ATOM     26  N   LIG d   1       6.633  -0.387  -4.796  0.00  0.00    -0.342 N 
ATOM     27  C   LIG d   1       5.423   0.257  -2.653  0.00  0.00    -0.038 A 
ATOM     28  C   LIG d   1       6.201  -0.774  -6.035  0.00  0.00     0.016 A 
ATOM     29  H   LIG d   1       6.846  -1.021  -6.866  0.00  0.00     0.081 H 
ATOM     30  C   LIG d   1       4.169   0.426  -2.107  0.00  0.00    -0.060 A 
ATOM     31  H   LIG d   1       6.304   0.451  -2.058  0.00  0.00     0.064 H 
ATOM     32  C   LIG d   1       3.030   0.182  -2.862  0.00  0.00    -0.061 A 
ATOM     33  H   LIG d   1       4.072   0.746  -1.080  0.00  0.00     0.062 H 
ATOM     34  H   LIG d   1       2.055   0.312  -2.417  0.00  0.00     0.062 H 
ATOM     35  H   LIG d   1       2.242  -0.410  -4.744  0.00  0.00     0.062 H 
BRANCH  26  36
ATOM     36  C   LIG d   1       8.036  -0.246  -4.398  0.00  0.00     0.048 C 
ATOM     37  H   LIG d   1       8.131  -0.432  -3.329  0.00  0.00     0.054 H 
ATOM     38  H   LIG d   1       8.643  -0.965  -4.947  0.00  0.00     0.054 H 
BRANCH  36  39
ATOM     39  C   LIG d   1       8.508   1.151  -4.709  0.00  0.00    -0.028 A 
ATOM     40  C   LIG d   1       8.673   2.068  -3.687  0.00  0.00    -0.057 A 
ATOM     41  C   LIG d   1       9.110   3.348  -3.971  0.00  0.00    -0.061 A 
ATOM     42  H   LIG d   1       8.464   1.783  -2.666  0.00  0.00     0.062 H 
ATOM     43  C   LIG d   1       9.372   3.714  -5.278  0.00  0.00    -0.062 A 
ATOM     44  H   LIG d   1       9.244   4.063  -3.172  0.00  0.00     0.062 H 
ATOM     45  C   LIG d   1       9.202   2.799  -6.300  0.00  0.00    -0.061 A 
ATOM     46  H   LIG d   1       9.713   4.715  -5.500  0.00  0.00     0.062 H 
ATOM     47  C   LIG d   1       8.770   1.518  -6.015  0.00  0.00    -0.057 A 
ATOM     48  H   LIG d   1       9.408   3.086  -7.321  0.00  0.00     0.062 H 
ATOM     49  H   LIG d   1       8.636   0.804  -6.814  0.00  0.00     0.062 H 
ENDBRANCH  36  39
ENDBRANCH  26  36
ENDBRANCH  11  22
BRANCH   1  50
ATOM     50  C   LIG d   1       2.100  -1.062 -11.077  0.00  0.00    -0.047 C 
ATOM     51  H   LIG d   1       2.273  -2.109 -11.328  0.00  0.00     0.024 H 
ATOM     52  H   LIG d   1       1.048  -0.915 -10.834  0.00  0.00     0.024 H 
ATOM     53  H   LIG d   1       2.368  -0.436 -11.928  0.00  0.00     0.024 H 
ENDBRANCH   1  50
BRANCH   5  54
ATOM     54  C   LIG d   1       5.349   2.349  -9.259  0.00  0.00    -0.047 C 
ATOM     55  H   LIG d   1       6.398   2.243  -8.981  0.00  0.00     0.024 H 
ATOM     56  H   LIG d   1       5.276   2.567 -10.324  0.00  0.00     0.024 H 
ATOM     57  H   LIG d   1       4.903   3.165  -8.689  0.00  0.00     0.024 H 
ENDBRANCH   5  54
TORSDOF 5
ENDMDL
MODEL 2
REMARK VINA RESULT:      -7.3      2.969      5.716
REMARK  5 active torsions:
REMARK  status: ('A' for Active; 'I' for Inactive)
REMARK    1  A    between atoms: C_1  and  C_2 
REMARK    2  A    between atoms: C_6  and  C_29 
REMARK    3  A    between atoms: C_12  and  C_13 
REMARK    4  A    between atoms: N_15  and  C_22 
REMARK    5  A    between atoms: C_22  and  C_23 
ROOT
ATOM      1  C   LIG d   1       8.757  -4.065  -4.706  0.00  0.00     0.080 C 
ATOM      2  C   LIG d   1       8.421  -3.269  -3.436  0.00  0.00    -0.016 C 
ATOM      3  N   LIG d   1       7.420  -2.244  -3.739  0.00  0.00     0.253 N 
ATOM      4  C   LIG d   1       7.927  -1.261  -4.699  0.00  0.00    -0.016 C 
ATOM      5  C   LIG d   1       8.237  -1.948  -6.038  0.00  0.00     0.080 C 
ATOM      6  C   LIG d   1       9.245  -3.053  -5.739  0.00  0.00     0.158 C 
ATOM      7  O   LIG d   1      10.336  -3.109  -6.255  0.00  0.00    -0.296 OA
ATOM      8  C   LIG d   1       6.957  -2.644  -6.530  0.00  0.00     0.021 C 
ATOM      9  N   LIG d   1       6.491  -3.579  -5.499  0.00  0.00    -0.255 N 
ATOM     10  C   LIG d   1       7.468  -4.682  -5.273  0.00  0.00     0.021 C 
ATOM     11  C   LIG d   1       6.194  -2.865  -4.249  0.00  0.00     0.064 C 
ATOM     12  H   LIG d   1       8.027  -3.947  -2.679  0.00  0.00     0.083 H 
ATOM     13  H   LIG d   1       9.324  -2.792  -3.058  0.00  0.00     0.083 H 
ATOM     14  H   LIG d   1       7.177  -0.487  -4.855  0.00  0.00     0.083 H 
ATOM     15  H   LIG d   1       8.837  -0.807  -4.306  0.00  0.00     0.083 H 
ATOM     16  H   LIG d   1       6.187  -1.896  -6.719  0.00  0.00     0.044 H 
ATOM     17  H   LIG d   1       7.169  -3.190  -7.449  0.00  0.00     0.044 H 
ATOM     18  H   LIG d   1       7.692  -5.201  -6.205  0.00  0.00     0.044 H 
ATOM     19  H   LIG d   1       7.054  -5.387  -4.552  0.00  0.00     0.044 H 
ATOM     20  H   LIG d   1       5.808  -3.569  -3.511  0.00  0.00     0.109 H 
ATOM     21  H   LIG d   1       7.197  -1.755  -2.885  0.00  0.00     0.205 HD
ENDROOT
BRANCH  11  22
ATOM     22  C   LIG d   1       5.162  -1.798  -4.513  0.00  0.00     0.041 A 
ATOM     23  C   LIG d   1       4.741  -0.745  -3.585  0.00  0.00     0.010 A 
ATOM     24  C   LIG d   1       3.769   0.008  -4.269  0.00  0.00     0.050 A 
ATOM     25  C   LIG d   1       5.101  -0.399  -2.282  0.00  0.00    -0.052 A 
ATOM     26  N   LIG d   1       3.616  -0.560  -5.514  0.00  0.00    -0.342 N 
ATOM     27  C   LIG d   1       3.179   1.096  -3.634  0.00  0.00    -0.038 A 
ATOM     28  C   LIG d   1       4.454  -1.634  -5.641  0.00  0.00     0.016 A 
ATOM     29  H   LIG d   1       4.533  -2.258  -6.519  0.00  0.00     0.081 H 
ATOM     30  C   LIG d   1       3.543   1.415  -2.344  0.00  0.00    -0.060 A 
ATOM     31  H   LIG d   1       2.429   1.681  -4.146  0.00  0.00     0.064 H 
ATOM     32  C   LIG d   1       4.504   0.670  -1.675  0.00  0.00    -0.061 A 
ATOM     33  H   LIG d   1       3.080   2.256  -1.850  0.00  0.00     0.062 H 
ATOM     34  H   LIG d   1       4.783   0.937  -0.666  0.00  0.00     0.062 H 
ATOM     35  H   LIG d   1       5.847  -0.975  -1.755  0.00  0.00     0.062 H 
BRANCH  26  36
ATOM     36  C   LIG d   1       2.693  -0.085  -6.548  0.00  0.00     0.048 C 
ATOM     37  H   LIG d   1       2.226  -0.939  -7.038  0.00  0.00     0.054 H 
ATOM     38  H   LIG d   1       1.924   0.537  -6.092  0.00  0.00     0.054 H 
BRANCH  36  39
ATOM     39  C   LIG d   1       3.454   0.724  -7.567  0.00  0.00    -0.028 A 
ATOM     40  C   LIG d   1       2.844   1.795  -8.194  0.00  0.00    -0.057 A 
ATOM     41  C   LIG d   1       3.543   2.540  -9.126  0.00  0.00    -0.061 A 
ATOM     42  H   LIG d   1       1.823   2.052  -7.953  0.00  0.00     0.062 H 
ATOM     43  C   LIG d   1       4.848   2.207  -9.437  0.00  0.00    -0.062 A 
ATOM     44  H   LIG d   1       3.068   3.380  -9.611  0.00  0.00     0.062 H 
ATOM     45  C   LIG d   1       5.456   1.133  -8.815  0.00  0.00    -0.061 A 
ATOM     46  H   LIG d   1       5.394   2.789 -10.166  0.00  0.00     0.062 H 
ATOM     47  C   LIG d   1       4.758   0.392  -7.880  0.00  0.00    -0.057 A 
ATOM     48  H   LIG d   1       6.476   0.874  -9.058  0.00  0.00     0.062 H 
ATOM     49  H   LIG d   1       5.233  -0.448  -7.394  0.00  0.00     0.062 H 
ENDBRANCH  36  39
ENDBRANCH  26  36
ENDBRANCH  11  22
BRANCH   1  50
ATOM     50  C   LIG d   1       9.814  -5.136  -4.430  0.00  0.00    -0.047 C 
ATOM     51  H   LIG d   1      10.388  -5.324  -5.338  0.00  0.00     0.024 H 
ATOM     52  H   LIG d   1      10.484  -4.792  -3.642  0.00  0.00     0.024 H 
ATOM     53  H   LIG d   1       9.324  -6.057  -4.114  0.00  0.00     0.024 H 
ENDBRANCH   1  50
BRANCH   5  54
ATOM     54  C   LIG d   1       8.786  -0.953  -7.063  0.00  0.00    -0.047 C 
ATOM     55  H   LIG d   1       8.091  -0.872  -7.899  0.00  0.00     0.024 H 
ATOM     56  H   LIG d   1       8.905   0.023  -6.594  0.00  0.00     0.024 H 
ATOM     57  H   LIG d   1       9.752  -1.302  -7.427  0.00  0.00     0.024 H 
ENDBRANCH   5  54
TORSDOF 5
ENDMDL
MODEL 3
REMARK VINA RESULT:      -7.2      3.311      5.797
REMARK  5 active torsions:
REMARK  status: ('A' for Active; 'I' for Inactive)
REMARK    1  A    between atoms: C_1  and  C_2 
REMARK    2  A    between atoms: C_6  and  C_29 
REMARK    3  A    between atoms: C_12  and  C_13 
REMARK    4  A    between atoms: N_15  and  C_22 
REMARK    5  A    between atoms: C_22  and  C_23 
ROOT
ATOM      1  C   LIG d   1       6.395  -4.827  -7.374  0.00  0.00     0.080 C 
ATOM      2  C   LIG d   1       4.864  -4.933  -7.308  0.00  0.00    -0.016 C 
ATOM      3  N   LIG d   1       4.289  -3.643  -6.920  0.00  0.00     0.253 N 
ATOM      4  C   LIG d   1       4.716  -3.244  -5.578  0.00  0.00    -0.016 C 
ATOM      5  C   LIG d   1       6.240  -3.047  -5.549  0.00  0.00     0.080 C 
ATOM      6  C   LIG d   1       6.859  -4.366  -5.995  0.00  0.00     0.158 C 
ATOM      7  O   LIG d   1       7.629  -4.999  -5.312  0.00  0.00    -0.296 OA
ATOM      8  C   LIG d   1       6.610  -2.004  -6.616  0.00  0.00     0.021 C 
ATOM      9  N   LIG d   1       6.114  -2.457  -7.923  0.00  0.00    -0.255 N 
ATOM     10  C   LIG d   1       6.783  -3.714  -8.361  0.00  0.00     0.021 C 
ATOM     11  C   LIG d   1       4.652  -2.611  -7.896  0.00  0.00     0.064 C 
ATOM     12  H   LIG d   1       4.480  -5.221  -8.287  0.00  0.00     0.083 H 
ATOM     13  H   LIG d   1       4.585  -5.690  -6.575  0.00  0.00     0.083 H 
ATOM     14  H   LIG d   1       4.225  -2.311  -5.304  0.00  0.00     0.083 H 
ATOM     15  H   LIG d   1       4.438  -4.021  -4.864  0.00  0.00     0.083 H 
ATOM     16  H   LIG d   1       6.153  -1.047  -6.364  0.00  0.00     0.044 H 
ATOM     17  H   LIG d   1       7.694  -1.892  -6.656  0.00  0.00     0.044 H 
ATOM     18  H   LIG d   1       7.867  -3.596  -8.369  0.00  0.00     0.044 H 
ATOM     19  H   LIG d   1       6.436  -3.976  -9.360  0.00  0.00     0.044 H 
ATOM     20  H   LIG d   1       4.299  -2.904  -8.884  0.00  0.00     0.109 H 
ATOM     21  H   LIG d   1       3.284  -3.733  -6.912  0.00  0.00     0.205 HD
ENDROOT
BRANCH  11  22
ATOM     22  C   LIG d   1       4.016  -1.302  -7.502  0.00  0.00     0.041 A 
ATOM     23  C   LIG d   1       3.816  -0.136  -8.366  0.00  0.00     0.010 A 
ATOM     24  C   LIG d   1       3.186   0.835  -7.567  0.00  0.00     0.050 A 
ATOM     25  C   LIG d   1       4.110   0.144  -9.701  0.00  0.00    -0.052 A 
ATOM     26  N   LIG d   1       3.029   0.290  -6.312  0.00  0.00    -0.342 N 
ATOM     27  C   LIG d   1       2.861   2.068  -8.123  0.00  0.00    -0.038 A 
ATOM     28  C   LIG d   1       3.529  -0.983  -6.293  0.00  0.00     0.016 A 
ATOM     29  H   LIG d   1       3.532  -1.635  -5.432  0.00  0.00     0.081 H 
ATOM     30  C   LIG d   1       3.168   2.327  -9.441  0.00  0.00    -0.060 A 
ATOM     31  H   LIG d   1       2.380   2.825  -7.519  0.00  0.00     0.064 H 
ATOM     32  C   LIG d   1       3.786   1.364 -10.225  0.00  0.00    -0.061 A 
ATOM     33  H   LIG d   1       2.919   3.287  -9.869  0.00  0.00     0.062 H 
ATOM     34  H   LIG d   1       4.014   1.580 -11.258  0.00  0.00     0.062 H 
ATOM     35  H   LIG d   1       4.592  -0.600 -10.318  0.00  0.00     0.062 H 
BRANCH  26  36
ATOM     36  C   LIG d   1       2.418   0.972  -5.168  0.00  0.00     0.048 C 
ATOM     37  H   LIG d   1       2.548   2.049  -5.275  0.00  0.00     0.054 H 
ATOM     38  H   LIG d   1       1.355   0.737  -5.130  0.00  0.00     0.054 H 
BRANCH  36  39
ATOM     39  C   LIG d   1       3.081   0.511  -3.896  0.00  0.00    -0.028 A 
ATOM     40  C   LIG d   1       2.937  -0.798  -3.477  0.00  0.00    -0.057 A 
ATOM     41  C   LIG d   1       3.549  -1.223  -2.312  0.00  0.00    -0.061 A 
ATOM     42  H   LIG d   1       2.349  -1.491  -4.061  0.00  0.00     0.062 H 
ATOM     43  C   LIG d   1       4.297  -0.335  -1.562  0.00  0.00    -0.062 A 
ATOM     44  H   LIG d   1       3.440  -2.247  -1.987  0.00  0.00     0.062 H 
ATOM     45  C   LIG d   1       4.437   0.976  -1.978  0.00  0.00    -0.061 A 
ATOM     46  H   LIG d   1       4.774  -0.666  -0.651  0.00  0.00     0.062 H 
ATOM     47  C   LIG d   1       3.829   1.398  -3.145  0.00  0.00    -0.057 A 
ATOM     48  H   LIG d   1       5.022   1.669  -1.392  0.00  0.00     0.062 H 
ATOM     49  H   LIG d   1       3.938   2.423  -3.470  0.00  0.00     0.062 H 
ENDBRANCH  36  39
ENDBRANCH  26  36
ENDBRANCH  11  22
BRANCH   1  50
ATOM     50  C   LIG d   1       7.031  -6.164  -7.761  0.00  0.00    -0.047 C 
ATOM     51  H   LIG d   1       8.079  -6.006  -8.020  0.00  0.00     0.024 H 
ATOM     52  H   LIG d   1       6.964  -6.855  -6.921  0.00  0.00     0.024 H 
ATOM     53  H   LIG d   1       6.504  -6.581  -8.619  0.00  0.00     0.024 H 
ENDBRANCH   1  50
BRANCH   5  54
ATOM     54  C   LIG d   1       6.724  -2.644  -4.154  0.00  0.00    -0.047 C 
ATOM     55  H   LIG d   1       5.995  -2.966  -3.409  0.00  0.00     0.024 H 
ATOM     56  H   LIG d   1       7.684  -3.119  -3.952  0.00  0.00     0.024 H 
ATOM     57  H   LIG d   1       6.838  -1.561  -4.107  0.00  0.00     0.024 H 
ENDBRANCH   5  54
TORSDOF 5
ENDMDL
MODEL 4
REMARK VINA RESULT:      -7.2      3.074      5.999
REMARK  5 active torsions:
REMARK  status: ('A' for Active; 'I' for Inactive)
REMARK    1  A    between atoms: C_1  and  C_2 
REMARK    2  A    between atoms: C_6  and  C_29 
REMARK    3  A    between atoms: C_12  and  C_13 
REMARK    4  A    between atoms: N_15  and  C_22 
REMARK    5  A    between atoms: C_22  and  C_23 
ROOT
ATOM      1  C   LIG d   1       8.483  -4.015  -5.589  0.00  0.00     0.080 C 
ATOM      2  C   LIG d   1       8.288  -3.074  -6.788  0.00  0.00    -0.016 C 
ATOM      3  N   LIG d   1       6.993  -2.397  -6.687  0.00  0.00     0.253 N 
ATOM      4  C   LIG d   1       5.882  -3.348  -6.746  0.00  0.00    -0.016 C 
ATOM      5  C   LIG d   1       5.945  -4.304  -5.545  0.00  0.00     0.080 C 
ATOM      6  C   LIG d   1       7.307  -4.987  -5.603  0.00  0.00     0.158 C 
ATOM      7  O   LIG d   1       7.443  -6.185  -5.676  0.00  0.00    -0.296 OA
ATOM      8  C   LIG d   1       5.931  -3.463  -4.259  0.00  0.00     0.021 C 
ATOM      9  N   LIG d   1       7.048  -2.510  -4.294  0.00  0.00    -0.255 N 
ATOM     10  C   LIG d   1       8.366  -3.206  -4.287  0.00  0.00     0.021 C 
ATOM     11  C   LIG d   1       6.925  -1.611  -5.451  0.00  0.00     0.064 C 
ATOM     12  H   LIG d   1       9.086  -2.330  -6.797  0.00  0.00     0.083 H 
ATOM     13  H   LIG d   1       8.324  -3.651  -7.711  0.00  0.00     0.083 H 
ATOM     14  H   LIG d   1       4.938  -2.803  -6.725  0.00  0.00     0.083 H 
ATOM     15  H   LIG d   1       5.945  -3.923  -7.670  0.00  0.00     0.083 H 
ATOM     16  H   LIG d   1       4.989  -2.918  -4.190  0.00  0.00     0.044 H 
ATOM     17  H   LIG d   1       6.038  -4.118  -3.393  0.00  0.00     0.044 H 
ATOM     18  H   LIG d   1       8.447  -3.878  -3.432  0.00  0.00     0.044 H 
ATOM     19  H   LIG d   1       9.164  -2.464  -4.246  0.00  0.00     0.044 H 
ATOM     20  H   LIG d   1       7.738  -0.885  -5.436  0.00  0.00     0.109 H 
ATOM     21  H   LIG d   1       6.903  -1.766  -7.469  0.00  0.00     0.205 HD
ENDROOT
BRANCH  11  22
ATOM     22  C   LIG d   1       5.603  -0.889  -5.388  0.00  0.00     0.041 A 
ATOM     23  C   LIG d   1       5.045  -0.195  -4.225  0.00  0.00     0.010 A 
ATOM     24  C   LIG d   1       3.805   0.324  -4.641  0.00  0.00     0.050 A 
ATOM     25  C   LIG d   1       5.486   0.018  -2.918  0.00  0.00    -0.052 A 
ATOM     26  N   LIG d   1       3.633  -0.042  -5.957  0.00  0.00    -0.342 N 
ATOM     27  C   LIG d   1       3.033   1.049  -3.739  0.00  0.00    -0.038 A 
ATOM     28  C   LIG d   1       4.714  -0.764  -6.384  0.00  0.00     0.016 A 
ATOM     29  H   LIG d   1       4.832  -1.173  -7.377  0.00  0.00     0.081 H 
ATOM     30  C   LIG d   1       3.483   1.240  -2.451  0.00  0.00    -0.060 A 
ATOM     31  H   LIG d   1       2.077   1.450  -4.045  0.00  0.00     0.064 H 
ATOM     32  C   LIG d   1       4.708   0.728  -2.047  0.00  0.00    -0.061 A 
ATOM     33  H   LIG d   1       2.880   1.798  -1.751  0.00  0.00     0.062 H 
ATOM     34  H   LIG d   1       5.050   0.892  -1.036  0.00  0.00     0.062 H 
ATOM     35  H   LIG d   1       6.437  -0.378  -2.595  0.00  0.00     0.062 H 
BRANCH  26  36
ATOM     36  C   LIG d   1       2.465   0.291  -6.777  0.00  0.00     0.048 C 
ATOM     37  H   LIG d   1       1.815  -0.580  -6.854  0.00  0.00     0.054 H 
ATOM     38  H   LIG d   1       1.919   1.113  -6.315  0.00  0.00     0.054 H 
BRANCH  36  39
ATOM     39  C   LIG d   1       2.920   0.702  -8.155  0.00  0.00    -0.028 A 
ATOM     40  C   LIG d   1       3.263   2.017  -8.405  0.00  0.00    -0.057 A 
ATOM     41  C   LIG d   1       3.684   2.393  -9.667  0.00  0.00    -0.061 A 
ATOM     42  H   LIG d   1       3.207   2.750  -7.614  0.00  0.00     0.062 H 
ATOM     43  C   LIG d   1       3.752   1.455 -10.680  0.00  0.00    -0.062 A 
ATOM     44  H   LIG d   1       3.958   3.420  -9.862  0.00  0.00     0.062 H 
ATOM     45  C   LIG d   1       3.403   0.141 -10.431  0.00  0.00    -0.061 A 
ATOM     46  H   LIG d   1       4.079   1.749 -11.667  0.00  0.00     0.062 H 
ATOM     47  C   LIG d   1       2.987  -0.235  -9.168  0.00  0.00    -0.057 A 
ATOM     48  H   LIG d   1       3.456  -0.592 -11.223  0.00  0.00     0.062 H 
ATOM     49  H   LIG d   1       2.714  -1.262  -8.974  0.00  0.00     0.062 H 
ENDBRANCH  36  39
ENDBRANCH  26  36
ENDBRANCH  11  22
BRANCH   1  50
ATOM     50  C   LIG d   1       9.821  -4.753  -5.670  0.00  0.00    -0.047 C 
ATOM     51  H   LIG d   1      10.031  -5.230  -4.713  0.00  0.00     0.024 H 
ATOM     52  H   LIG d   1       9.772  -5.510  -6.452  0.00  0.00     0.024 H 
ATOM     53  H   LIG d   1      10.614  -4.041  -5.902  0.00  0.00     0.024 H 
ENDBRANCH   1  50
BRANCH   5  54
ATOM     54  C   LIG d   1       4.806  -5.324  -5.582  0.00  0.00    -0.047 C 
ATOM     55  H   LIG d   1       4.206  -5.168  -6.480  0.00  0.00     0.024 H 
ATOM     56  H   LIG d   1       5.220  -6.332  -5.594  0.00  0.00     0.024 H 
ATOM     57  H   LIG d   1       4.177  -5.200  -4.700  0.00  0.00     0.024 H 
ENDBRANCH   5  54
TORSDOF 5
ENDMDL
MODEL 5
REMARK VINA RESULT:      -7.1      2.250      6.098
REMARK  5 active torsions:
REMARK  status: ('A' for Active; 'I' for Inactive)
REMARK    1  A    between atoms: C_1  and  C_2 
REMARK    2  A    between atoms: C_6  and  C_29 
REMARK    3  A    between atoms: C_12  and  C_13 
REMARK    4  A    between atoms: N_15  and  C_22 
REMARK    5  A    between atoms: C_22  and  C_23 
ROOT
ATOM      1  C   LIG d   1      10.910   1.173  -5.058  0.00  0.00     0.080 C 
ATOM      2  C   LIG d   1      10.009   1.714  -3.937  0.00  0.00    -0.016 C 
ATOM      3  N   LIG d   1       8.601   1.524  -4.291  0.00  0.00     0.253 N 
ATOM      4  C   LIG d   1       8.239   2.281  -5.490  0.00  0.00    -0.016 C 
ATOM      5  C   LIG d   1       9.043   1.771  -6.696  0.00  0.00     0.080 C 
ATOM      6  C   LIG d   1      10.517   1.917  -6.331  0.00  0.00     0.158 C 
ATOM      7  O   LIG d   1      11.295   2.577  -6.976  0.00  0.00    -0.296 OA
ATOM      8  C   LIG d   1       8.776   0.265  -6.850  0.00  0.00     0.021 C 
ATOM      9  N   LIG d   1       9.125  -0.416  -5.597  0.00  0.00    -0.255 N 
ATOM     10  C   LIG d   1      10.582  -0.310  -5.299  0.00  0.00     0.021 C 
ATOM     11  C   LIG d   1       8.313   0.099  -4.485  0.00  0.00     0.064 C 
ATOM     12  H   LIG d   1      10.225   1.181  -3.011  0.00  0.00     0.083 H 
ATOM     13  H   LIG d   1      10.207   2.776  -3.795  0.00  0.00     0.083 H 
ATOM     14  H   LIG d   1       7.174   2.159  -5.688  0.00  0.00     0.083 H 
ATOM     15  H   LIG d   1       8.457   3.338  -5.331  0.00  0.00     0.083 H 
ATOM     16  H   LIG d   1       7.721   0.103  -7.072  0.00  0.00     0.044 H 
ATOM     17  H   LIG d   1       9.385  -0.132  -7.663  0.00  0.00     0.044 H 
ATOM     18  H   LIG d   1      11.178  -0.685  -6.131  0.00  0.00     0.044 H 
ATOM     19  H   LIG d   1      10.807  -0.884  -4.400  0.00  0.00     0.044 H 
ATOM     20  H   LIG d   1       8.555  -0.448  -3.573  0.00  0.00     0.109 H 
ATOM     21  H   LIG d   1       8.033   1.861  -3.528  0.00  0.00     0.205 HD
ENDROOT
BRANCH  11  22
ATOM     22  C   LIG d   1       6.851  -0.079  -4.805  0.00  0.00     0.041 A 
ATOM     23  C   LIG d   1       5.725   0.176  -3.904  0.00  0.00     0.010 A 
ATOM     24  C   LIG d   1       4.564  -0.125  -4.640  0.00  0.00     0.050 A 
ATOM     25  C   LIG d   1       5.618   0.621  -2.586  0.00  0.00    -0.052 A 
ATOM     26  N   LIG d   1       4.970  -0.539  -5.889  0.00  0.00    -0.342 N 
ATOM     27  C   LIG d   1       3.318   0.028  -4.039  0.00  0.00    -0.038 A 
ATOM     28  C   LIG d   1       6.335  -0.505  -5.968  0.00  0.00     0.016 A 
ATOM     29  H   LIG d   1       6.912  -0.781  -6.839  0.00  0.00     0.081 H 
ATOM     30  C   LIG d   1       3.236   0.460  -2.733  0.00  0.00    -0.060 A 
ATOM     31  H   LIG d   1       2.418  -0.204  -4.592  0.00  0.00     0.064 H 
ATOM     32  C   LIG d   1       4.384   0.758  -2.014  0.00  0.00    -0.061 A 
ATOM     33  H   LIG d   1       2.269   0.573  -2.267  0.00  0.00     0.062 H 
ATOM     34  H   LIG d   1       4.303   1.102  -0.993  0.00  0.00     0.062 H 
ATOM     35  H   LIG d   1       6.507   0.855  -2.019  0.00  0.00     0.062 H 
BRANCH  26  36
ATOM     36  C   LIG d   1       4.073  -0.955  -6.970  0.00  0.00     0.048 C 
ATOM     37  H   LIG d   1       4.491  -1.826  -7.474  0.00  0.00     0.054 H 
ATOM     38  H   LIG d   1       3.097  -1.208  -6.557  0.00  0.00     0.054 H 
BRANCH  36  39
ATOM     39  C   LIG d   1       3.923   0.173  -7.959  0.00  0.00    -0.028 A 
ATOM     40  C   LIG d   1       4.745   0.232  -9.069  0.00  0.00    -0.057 A 
ATOM     41  C   LIG d   1       4.604   1.264  -9.979  0.00  0.00    -0.061 A 
ATOM     42  H   LIG d   1       5.494  -0.529  -9.228  0.00  0.00     0.062 H 
ATOM     43  C   LIG d   1       3.648   2.241  -9.773  0.00  0.00    -0.062 A 
ATOM     44  H   LIG d   1       5.243   1.307 -10.849  0.00  0.00     0.062 H 
ATOM     45  C   LIG d   1       2.830   2.184  -8.660  0.00  0.00    -0.061 A 
ATOM     46  H   LIG d   1       3.539   3.048 -10.483  0.00  0.00     0.062 H 
ATOM     47  C   LIG d   1       2.968   1.150  -7.754  0.00  0.00    -0.057 A 
ATOM     48  H   LIG d   1       2.082   2.948  -8.500  0.00  0.00     0.062 H 
ATOM     49  H   LIG d   1       2.328   1.106  -6.884  0.00  0.00     0.062 H 
ENDBRANCH  36  39
ENDBRANCH  26  36
ENDBRANCH  11  22
BRANCH   1  50
ATOM     50  C   LIG d   1      12.391   1.370  -4.728  0.00  0.00    -0.047 C 
ATOM     51  H   LIG d   1      12.972   0.559  -5.167  0.00  0.00     0.024 H 
ATOM     52  H   LIG d   1      12.730   2.322  -5.136  0.00  0.00     0.024 H 
ATOM     53  H   LIG d   1      12.525   1.369  -3.647  0.00  0.00     0.024 H 
ENDBRANCH   1  50
BRANCH   5  54
ATOM     54  C   LIG d   1       8.702   2.552  -7.966  0.00  0.00    -0.047 C 
ATOM     55  H   LIG d   1       9.435   2.324  -8.742  0.00  0.00     0.024 H 
ATOM     56  H   LIG d   1       7.708   2.270  -8.311  0.00  0.00     0.024 H 
ATOM     57  H   LIG d   1       8.722   3.621  -7.753  0.00  0.00     0.024 H 
ENDBRANCH   5  54
TORSDOF 5
ENDMDL
MODEL 6
REMARK VINA RESULT:      -7.1      2.524      6.018
REMARK  5 active torsions:
REMARK  status: ('A' for Active; 'I' for Inactive)
REMARK    1  A    between atoms: C_1  and  C_2 
REMARK    2  A    between atoms: C_6  and  C_29 
REMARK    3  A    between atoms: C_12  and  C_13 
REMARK    4  A    between atoms: N_15  and  C_22 
REMARK    5  A    between atoms: C_22  and  C_23 
ROOT
ATOM      1  C   LIG d   1       9.892  -1.129  -6.965  0.00  0.00     0.080 C 
ATOM      2  C   LIG d   1       8.883  -2.250  -6.678  0.00  0.00    -0.016 C 
ATOM      3  N   LIG d   1       7.554  -1.680  -6.445  0.00  0.00     0.253 N 
ATOM      4  C   LIG d   1       7.536  -0.820  -5.261  0.00  0.00    -0.016 C 
ATOM      5  C   LIG d   1       8.473   0.380  -5.470  0.00  0.00     0.080 C 
ATOM      6  C   LIG d   1       9.856  -0.192  -5.761  0.00  0.00     0.158 C 
ATOM      7  O   LIG d   1      10.828   0.056  -5.088  0.00  0.00    -0.296 OA
ATOM      8  C   LIG d   1       8.028   1.121  -6.741  0.00  0.00     0.021 C 
ATOM      9  N   LIG d   1       8.034   0.184  -7.871  0.00  0.00    -0.255 N 
ATOM     10  C   LIG d   1       9.408  -0.309  -8.172  0.00  0.00     0.021 C 
ATOM     11  C   LIG d   1       7.109  -0.931  -7.624  0.00  0.00     0.064 C 
ATOM     12  H   LIG d   1       8.842  -2.927  -7.532  0.00  0.00     0.083 H 
ATOM     13  H   LIG d   1       9.199  -2.805  -5.795  0.00  0.00     0.083 H 
ATOM     14  H   LIG d   1       6.522  -0.461  -5.089  0.00  0.00     0.083 H 
ATOM     15  H   LIG d   1       7.868  -1.391  -4.393  0.00  0.00     0.083 H 
ATOM     16  H   LIG d   1       7.022   1.516  -6.599  0.00  0.00     0.044 H 
ATOM     17  H   LIG d   1       8.717   1.942  -6.944  0.00  0.00     0.044 H 
ATOM     18  H   LIG d   1      10.091   0.523  -8.345  0.00  0.00     0.044 H 
ATOM     19  H   LIG d   1       9.376  -0.946  -9.055  0.00  0.00     0.044 H 
ATOM     20  H   LIG d   1       7.094  -1.591  -8.491  0.00  0.00     0.109 H 
ATOM     21  H   LIG d   1       6.906  -2.438  -6.287  0.00  0.00     0.205 HD
ENDROOT
BRANCH  11  22
ATOM     22  C   LIG d   1       5.723  -0.389  -7.380  0.00  0.00     0.041 A 
ATOM     23  C   LIG d   1       4.950   0.464  -8.286  0.00  0.00     0.010 A 
ATOM     24  C   LIG d   1       3.725   0.708  -7.637  0.00  0.00     0.050 A 
ATOM     25  C   LIG d   1       5.193   1.013  -9.545  0.00  0.00    -0.052 A 
ATOM     26  N   LIG d   1       3.769   0.054  -6.426  0.00  0.00    -0.342 N 
ATOM     27  C   LIG d   1       2.767   1.497  -8.266  0.00  0.00    -0.038 A 
ATOM     28  C   LIG d   1       4.966  -0.594  -6.291  0.00  0.00     0.016 A 
ATOM     29  H   LIG d   1       5.258  -1.182  -5.434  0.00  0.00     0.081 H 
ATOM     30  C   LIG d   1       3.031   2.037  -9.505  0.00  0.00    -0.060 A 
ATOM     31  H   LIG d   1       1.824   1.696  -7.777  0.00  0.00     0.064 H 
ATOM     32  C   LIG d   1       4.239   1.790 -10.142  0.00  0.00    -0.061 A 
ATOM     33  H   LIG d   1       2.288   2.654  -9.989  0.00  0.00     0.062 H 
ATOM     34  H   LIG d   1       4.428   2.215 -11.116  0.00  0.00     0.062 H 
ATOM     35  H   LIG d   1       6.131   0.826 -10.047  0.00  0.00     0.062 H 
BRANCH  26  36
ATOM     36  C   LIG d   1       2.693   0.053  -5.431  0.00  0.00     0.048 C 
ATOM     37  H   LIG d   1       2.126   0.980  -5.508  0.00  0.00     0.054 H 
ATOM     38  H   LIG d   1       2.032  -0.794  -5.611  0.00  0.00     0.054 H 
BRANCH  36  39
ATOM     39  C   LIG d   1       3.287  -0.058  -4.050  0.00  0.00    -0.028 A 
ATOM     40  C   LIG d   1       3.649   1.084  -3.360  0.00  0.00    -0.057 A 
ATOM     41  C   LIG d   1       4.190   0.983  -2.092  0.00  0.00    -0.061 A 
ATOM     42  H   LIG d   1       3.505   2.056  -3.810  0.00  0.00     0.062 H 
ATOM     43  C   LIG d   1       4.378  -0.260  -1.518  0.00  0.00    -0.062 A 
ATOM     44  H   LIG d   1       4.467   1.876  -1.550  0.00  0.00     0.062 H 
ATOM     45  C   LIG d   1       4.022  -1.402  -2.211  0.00  0.00    -0.061 A 
ATOM     46  H   LIG d   1       4.802  -0.339  -0.528  0.00  0.00     0.062 H 
ATOM     47  C   LIG d   1       3.477  -1.300  -3.477  0.00  0.00    -0.057 A 
ATOM     48  H   LIG d   1       4.169  -2.374  -1.762  0.00  0.00     0.062 H 
ATOM     49  H   LIG d   1       3.199  -2.193  -4.018  0.00  0.00     0.062 H 
ENDBRANCH  36  39
ENDBRANCH  26  36
ENDBRANCH  11  22
BRANCH   1  50
ATOM     50  C   LIG d   1      11.297  -1.688  -7.197  0.00  0.00    -0.047 C 
ATOM     51  H   LIG d   1      11.860  -1.004  -7.833  0.00  0.00     0.024 H 
ATOM     52  H   LIG d   1      11.808  -1.799  -6.241  0.00  0.00     0.024 H 
ATOM     53  H   LIG d   1      11.225  -2.660  -7.685  0.00  0.00     0.024 H 
ENDBRANCH   1  50
BRANCH   5  54
ATOM     54  C   LIG d   1       8.492   1.294  -4.243  0.00  0.00    -0.047 C 
ATOM     55  H   LIG d   1       9.524   1.464  -3.932  0.00  0.00     0.024 H 
ATOM     56  H   LIG d   1       8.026   2.247  -4.492  0.00  0.00     0.024 H 
ATOM     57  H   LIG d   1       7.941   0.823  -3.429  0.00  0.00     0.024 H 
ENDBRANCH   5  54
TORSDOF 5
ENDMDL
MODEL 7
REMARK VINA RESULT:      -7.0      1.920      4.340
REMARK  5 active torsions:
REMARK  status: ('A' for Active; 'I' for Inactive)
REMARK    1  A    between atoms: C_1  and  C_2 
REMARK    2  A    between atoms: C_6  and  C_29 
REMARK    3  A    between atoms: C_12  and  C_13 
REMARK    4  A    between atoms: N_15  and  C_22 
REMARK    5  A    between atoms: C_22  and  C_23 
ROOT
ATOM      1  C   LIG d   1       2.172  -1.222 -10.895  0.00  0.00     0.080 C 
ATOM      2  C   LIG d   1       1.713  -1.080  -9.436  0.00  0.00    -0.016 C 
ATOM      3  N   LIG d   1       2.872  -1.102  -8.542  0.00  0.00     0.253 N 
ATOM      4  C   LIG d   1       3.583  -2.380  -8.611  0.00  0.00    -0.016 C 
ATOM      5  C   LIG d   1       4.145  -2.592 -10.026  0.00  0.00     0.080 C 
ATOM      6  C   LIG d   1       2.958  -2.527 -10.980  0.00  0.00     0.158 C 
ATOM      7  O   LIG d   1       2.654  -3.433 -11.720  0.00  0.00    -0.296 OA
ATOM      8  C   LIG d   1       5.050  -1.398 -10.368  0.00  0.00     0.021 C 
ATOM      9  N   LIG d   1       4.277  -0.156 -10.237  0.00  0.00    -0.255 N 
ATOM     10  C   LIG d   1       3.163  -0.093 -11.225  0.00  0.00     0.021 C 
ATOM     11  C   LIG d   1       3.782   0.003  -8.862  0.00  0.00     0.064 C 
ATOM     12  H   LIG d   1       1.180  -0.137  -9.315  0.00  0.00     0.083 H 
ATOM     13  H   LIG d   1       1.046  -1.905  -9.185  0.00  0.00     0.083 H 
ATOM     14  H   LIG d   1       4.403  -2.378  -7.893  0.00  0.00     0.083 H 
ATOM     15  H   LIG d   1       2.895  -3.191  -8.370  0.00  0.00     0.083 H 
ATOM     16  H   LIG d   1       5.897  -1.375  -9.682  0.00  0.00     0.044 H 
ATOM     17  H   LIG d   1       5.411  -1.496 -11.392  0.00  0.00     0.044 H 
ATOM     18  H   LIG d   1       3.536  -0.221 -12.242  0.00  0.00     0.044 H 
ATOM     19  H   LIG d   1       2.660   0.870 -11.138  0.00  0.00     0.044 H 
ATOM     20  H   LIG d   1       3.249   0.950  -8.774  0.00  0.00     0.109 H 
ATOM     21  H   LIG d   1       2.546  -0.980  -7.595  0.00  0.00     0.205 HD
ENDROOT
BRANCH  11  22
ATOM     22  C   LIG d   1       4.945  -0.011  -7.904  0.00  0.00     0.041 A 
ATOM     23  C   LIG d   1       6.161   0.800  -7.998  0.00  0.00     0.010 A 
ATOM     24  C   LIG d   1       6.950   0.448  -6.888  0.00  0.00     0.050 A 
ATOM     25  C   LIG d   1       6.620   1.759  -8.903  0.00  0.00    -0.052 A 
ATOM     26  N   LIG d   1       6.257  -0.511  -6.185  0.00  0.00    -0.342 N 
ATOM     27  C   LIG d   1       8.182   1.067  -6.704  0.00  0.00    -0.038 A 
ATOM     28  C   LIG d   1       5.066  -0.772  -6.805  0.00  0.00     0.016 A 
ATOM     29  H   LIG d   1       4.331  -1.485  -6.461  0.00  0.00     0.081 H 
ATOM     30  C   LIG d   1       8.620   2.005  -7.613  0.00  0.00    -0.060 A 
ATOM     31  H   LIG d   1       8.800   0.804  -5.857  0.00  0.00     0.064 H 
ATOM     32  C   LIG d   1       7.837   2.351  -8.705  0.00  0.00    -0.061 A 
ATOM     33  H   LIG d   1       9.579   2.480  -7.471  0.00  0.00     0.062 H 
ATOM     34  H   LIG d   1       8.191   3.093  -9.405  0.00  0.00     0.062 H 
ATOM     35  H   LIG d   1       6.017   2.033  -9.755  0.00  0.00     0.062 H 
BRANCH  26  36
ATOM     36  C   LIG d   1       6.726  -1.158  -4.956  0.00  0.00     0.048 C 
ATOM     37  H   LIG d   1       6.621  -2.238  -5.051  0.00  0.00     0.054 H 
ATOM     38  H   LIG d   1       7.773  -0.908  -4.791  0.00  0.00     0.054 H 
BRANCH  36  39
ATOM     39  C   LIG d   1       5.903  -0.674  -3.789  0.00  0.00    -0.028 A 
ATOM     40  C   LIG d   1       5.904   0.666  -3.452  0.00  0.00    -0.057 A 
ATOM     41  C   LIG d   1       5.146   1.111  -2.384  0.00  0.00    -0.061 A 
ATOM     42  H   LIG d   1       6.492   1.368  -4.025  0.00  0.00     0.062 H 
ATOM     43  C   LIG d   1       4.396   0.212  -1.648  0.00  0.00    -0.062 A 
ATOM     44  H   LIG d   1       5.142   2.159  -2.124  0.00  0.00     0.062 H 
ATOM     45  C   LIG d   1       4.401  -1.129  -1.982  0.00  0.00    -0.061 A 
ATOM     46  H   LIG d   1       3.806   0.559  -0.813  0.00  0.00     0.062 H 
ATOM     47  C   LIG d   1       5.154  -1.572  -3.052  0.00  0.00    -0.057 A 
ATOM     48  H   LIG d   1       3.814  -1.830  -1.406  0.00  0.00     0.062 H 
ATOM     49  H   LIG d   1       5.158  -2.620  -3.312  0.00  0.00     0.062 H 
ENDBRANCH  36  39
ENDBRANCH  26  36
ENDBRANCH  11  22
BRANCH   1  50
ATOM     50  C   LIG d   1       0.983  -1.220 -11.858  0.00  0.00    -0.047 C 
ATOM     51  H   LIG d   1       0.102  -0.833 -11.345  0.00  0.00     0.024 H 
ATOM     52  H   LIG d   1       1.211  -0.588 -12.717  0.00  0.00     0.024 H 
ATOM     53  H   LIG d   1       0.789  -2.237 -12.196  0.00  0.00     0.024 H 
ENDBRANCH   1  50
BRANCH   5  54
ATOM     54  C   LIG d   1       4.882  -3.928 -10.139  0.00  0.00    -0.047 C 
ATOM     55  H   LIG d   1       4.156  -4.738 -10.222  0.00  0.00     0.024 H 
ATOM     56  H   LIG d   1       5.517  -3.919 -11.024  0.00  0.00     0.024 H 
ATOM     57  H   LIG d   1       5.497  -4.081  -9.252  0.00  0.00     0.024 H 
ENDBRANCH   5  54
TORSDOF 5
ENDMDL
MODEL 8
REMARK VINA RESULT:      -7.0      2.194      5.567
REMARK  5 active torsions:
REMARK  status: ('A' for Active; 'I' for Inactive)
REMARK    1  A    between atoms: C_1  and  C_2 
REMARK    2  A    between atoms: C_6  and  C_29 
REMARK    3  A    between atoms: C_12  and  C_13 
REMARK    4  A    between atoms: N_15  and  C_22 
REMARK    5  A    between atoms: C_22  and  C_23 
ROOT
ATOM      1  C   LIG d   1      10.143  -0.561  -6.612  0.00  0.00     0.080 C 
ATOM      2  C   LIG d   1       9.750  -0.123  -5.194  0.00  0.00    -0.016 C 
ATOM      3  N   LIG d   1       8.330   0.234  -5.156  0.00  0.00     0.253 N 
ATOM      4  C   LIG d   1       8.037   1.379  -6.019  0.00  0.00    -0.016 C 
ATOM      5  C   LIG d   1       8.338   1.022  -7.483  0.00  0.00     0.080 C 
ATOM      6  C   LIG d   1       9.803   0.602  -7.538  0.00  0.00     0.158 C 
ATOM      7  O   LIG d   1      10.622   1.154  -8.234  0.00  0.00    -0.296 OA
ATOM      8  C   LIG d   1       7.511  -0.220  -7.855  0.00  0.00     0.021 C 
ATOM      9  N   LIG d   1       7.830  -1.307  -6.921  0.00  0.00    -0.255 N 
ATOM     10  C   LIG d   1       9.252  -1.738  -7.043  0.00  0.00     0.021 C 
ATOM     11  C   LIG d   1       7.506  -0.916  -5.542  0.00  0.00     0.064 C 
ATOM     12  H   LIG d   1       9.936  -0.940  -4.497  0.00  0.00     0.083 H 
ATOM     13  H   LIG d   1      10.347   0.741  -4.903  0.00  0.00     0.083 H 
ATOM     14  H   LIG d   1       6.986   1.648  -5.921  0.00  0.00     0.083 H 
ATOM     15  H   LIG d   1       8.655   2.226  -5.719  0.00  0.00     0.083 H 
ATOM     16  H   LIG d   1       6.449   0.017  -7.790  0.00  0.00     0.044 H 
ATOM     17  H   LIG d   1       7.754  -0.529  -8.872  0.00  0.00     0.044 H 
ATOM     18  H   LIG d   1       9.488  -2.017  -8.070  0.00  0.00     0.044 H 
ATOM     19  H   LIG d   1       9.427  -2.588  -6.383  0.00  0.00     0.044 H 
ATOM     20  H   LIG d   1       7.709  -1.751  -4.870  0.00  0.00     0.109 H 
ATOM     21  H   LIG d   1       8.092   0.491  -4.209  0.00  0.00     0.205 HD
ENDROOT
BRANCH  11  22
ATOM     22  C   LIG d   1       6.049  -0.542  -5.454  0.00  0.00     0.041 A 
ATOM     23  C   LIG d   1       5.340  -0.073  -4.261  0.00  0.00     0.010 A 
ATOM     24  C   LIG d   1       4.011   0.152  -4.663  0.00  0.00     0.050 A 
ATOM     25  C   LIG d   1       5.718   0.164  -2.939  0.00  0.00    -0.052 A 
ATOM     26  N   LIG d   1       3.930  -0.168  -6.000  0.00  0.00    -0.342 N 
ATOM     27  C   LIG d   1       3.086   0.614  -3.732  0.00  0.00    -0.038 A 
ATOM     28  C   LIG d   1       5.154  -0.580  -6.453  0.00  0.00     0.016 A 
ATOM     29  H   LIG d   1       5.367  -0.889  -7.466  0.00  0.00     0.081 H 
ATOM     30  C   LIG d   1       3.478   0.833  -2.429  0.00  0.00    -0.060 A 
ATOM     31  H   LIG d   1       2.061   0.787  -4.026  0.00  0.00     0.064 H 
ATOM     32  C   LIG d   1       4.791   0.612  -2.039  0.00  0.00    -0.061 A 
ATOM     33  H   LIG d   1       2.758   1.187  -1.706  0.00  0.00     0.062 H 
ATOM     34  H   LIG d   1       5.085   0.796  -1.016  0.00  0.00     0.062 H 
ATOM     35  H   LIG d   1       6.737  -0.006  -2.627  0.00  0.00     0.062 H 
BRANCH  26  36
ATOM     36  C   LIG d   1       2.716  -0.082  -6.815  0.00  0.00     0.048 C 
ATOM     37  H   LIG d   1       2.293  -1.078  -6.943  0.00  0.00     0.054 H 
ATOM     38  H   LIG d   1       1.989   0.559  -6.317  0.00  0.00     0.054 H 
BRANCH  36  39
ATOM     39  C   LIG d   1       3.056   0.497  -8.164  0.00  0.00    -0.028 A 
ATOM     40  C   LIG d   1       3.288   1.853  -8.295  0.00  0.00    -0.057 A 
ATOM     41  C   LIG d   1       3.604   2.384  -9.532  0.00  0.00    -0.061 A 
ATOM     42  H   LIG d   1       3.226   2.499  -7.431  0.00  0.00     0.062 H 
ATOM     43  C   LIG d   1       3.679   1.559 -10.639  0.00  0.00    -0.062 A 
ATOM     44  H   LIG d   1       3.791   3.443  -9.634  0.00  0.00     0.062 H 
ATOM     45  C   LIG d   1       3.442   0.204 -10.508  0.00  0.00    -0.061 A 
ATOM     46  H   LIG d   1       3.925   1.974 -11.605  0.00  0.00     0.062 H 
ATOM     47  C   LIG d   1       3.130  -0.327  -9.271  0.00  0.00    -0.057 A 
ATOM     48  H   LIG d   1       3.501  -0.440 -11.374  0.00  0.00     0.062 H 
ATOM     49  H   LIG d   1       2.944  -1.386  -9.170  0.00  0.00     0.062 H 
ENDBRANCH  36  39
ENDBRANCH  26  36
ENDBRANCH  11  22
BRANCH   1  50
ATOM     50  C   LIG d   1      11.627  -0.926  -6.693  0.00  0.00    -0.047 C 
ATOM     51  H   LIG d   1      12.120  -0.280  -7.420  0.00  0.00     0.024 H 
ATOM     52  H   LIG d   1      12.088  -0.791  -5.714  0.00  0.00     0.024 H 
ATOM     53  H   LIG d   1      11.729  -1.966  -7.003  0.00  0.00     0.024 H 
ENDBRANCH   1  50
BRANCH   5  54
ATOM     54  C   LIG d   1       8.059   2.203  -8.415  0.00  0.00    -0.047 C 
ATOM     55  H   LIG d   1       8.988   2.741  -8.609  0.00  0.00     0.024 H 
ATOM     56  H   LIG d   1       7.649   1.836  -9.355  0.00  0.00     0.024 H 
ATOM     57  H   LIG d   1       7.342   2.876  -7.944  0.00  0.00     0.024 H 
ENDBRANCH   5  54
TORSDOF 5
ENDMDL
MODEL 9
REMARK VINA RESULT:      -7.0      1.473      4.138
REMARK  5 active torsions:
REMARK  status: ('A' for Active; 'I' for Inactive)
REMARK    1  A    between atoms: C_1  and  C_2 
REMARK    2  A    between atoms: C_6  and  C_29 
REMARK    3  A    between atoms: C_12  and  C_13 
REMARK    4  A    between atoms: N_15  and  C_22 
REMARK    5  A    between atoms: C_22  and  C_23 
ROOT
ATOM      1  C   LIG d   1       3.776  -0.620 -10.626  0.00  0.00     0.080 C 
ATOM      2  C   LIG d   1       4.680   0.619 -10.713  0.00  0.00    -0.016 C 
ATOM      3  N   LIG d   1       5.330   0.855  -9.422  0.00  0.00     0.253 N 
ATOM      4  C   LIG d   1       4.354   1.150  -8.372  0.00  0.00    -0.016 C 
ATOM      5  C   LIG d   1       3.432  -0.061  -8.158  0.00  0.00     0.080 C 
ATOM      6  C   LIG d   1       2.778  -0.354  -9.503  0.00  0.00     0.158 C 
ATOM      7  O   LIG d   1       1.582  -0.354  -9.670  0.00  0.00    -0.296 OA
ATOM      8  C   LIG d   1       4.308  -1.279  -7.821  0.00  0.00     0.021 C 
ATOM      9  N   LIG d   1       5.283  -1.483  -8.899  0.00  0.00    -0.255 N 
ATOM     10  C   LIG d   1       4.617  -1.830 -10.187  0.00  0.00     0.021 C 
ATOM     11  C   LIG d   1       6.147  -0.303  -9.046  0.00  0.00     0.064 C 
ATOM     12  H   LIG d   1       5.440   0.459 -11.478  0.00  0.00     0.083 H 
ATOM     13  H   LIG d   1       4.078   1.488 -10.979  0.00  0.00     0.083 H 
ATOM     14  H   LIG d   1       4.878   1.374  -7.443  0.00  0.00     0.083 H 
ATOM     15  H   LIG d   1       3.756   2.013  -8.665  0.00  0.00     0.083 H 
ATOM     16  H   LIG d   1       4.833  -1.101  -6.882  0.00  0.00     0.044 H 
ATOM     17  H   LIG d   1       3.679  -2.165  -7.725  0.00  0.00     0.044 H 
ATOM     18  H   LIG d   1       3.971  -2.700 -10.069  0.00  0.00     0.044 H 
ATOM     19  H   LIG d   1       5.377  -2.038 -10.940  0.00  0.00     0.044 H 
ATOM     20  H   LIG d   1       6.892  -0.490  -9.820  0.00  0.00     0.109 H 
ATOM     21  H   LIG d   1       5.938   1.656  -9.514  0.00  0.00     0.205 HD
ENDROOT
BRANCH  11  22
ATOM     22  C   LIG d   1       6.842  -0.023  -7.737  0.00  0.00     0.041 A 
ATOM     23  C   LIG d   1       7.731   1.105  -7.447  0.00  0.00     0.010 A 
ATOM     24  C   LIG d   1       8.131   0.948  -6.107  0.00  0.00     0.050 A 
ATOM     25  C   LIG d   1       8.195   2.191  -8.190  0.00  0.00    -0.052 A 
ATOM     26  N   LIG d   1       7.530  -0.197  -5.635  0.00  0.00    -0.342 N 
ATOM     27  C   LIG d   1       8.988   1.885  -5.539  0.00  0.00    -0.038 A 
ATOM     28  C   LIG d   1       6.766  -0.761  -6.620  0.00  0.00     0.016 A 
ATOM     29  H   LIG d   1       6.189  -1.668  -6.513  0.00  0.00     0.081 H 
ATOM     30  C   LIG d   1       9.442   2.945  -6.293  0.00  0.00    -0.060 A 
ATOM     31  H   LIG d   1       9.306   1.775  -4.511  0.00  0.00     0.064 H 
ATOM     32  C   LIG d   1       9.041   3.096  -7.613  0.00  0.00    -0.061 A 
ATOM     33  H   LIG d   1      10.111   3.668  -5.851  0.00  0.00     0.062 H 
ATOM     34  H   LIG d   1       9.400   3.936  -8.189  0.00  0.00     0.062 H 
ATOM     35  H   LIG d   1       7.889   2.315  -9.218  0.00  0.00     0.062 H 
BRANCH  26  36
ATOM     36  C   LIG d   1       7.686  -0.731  -4.279  0.00  0.00     0.048 C 
ATOM     37  H   LIG d   1       7.836  -1.810  -4.329  0.00  0.00     0.054 H 
ATOM     38  H   LIG d   1       8.548  -0.266  -3.802  0.00  0.00     0.054 H 
BRANCH  36  39
ATOM     39  C   LIG d   1       6.445  -0.434  -3.476  0.00  0.00    -0.028 A 
ATOM     40  C   LIG d   1       5.652  -1.471  -3.022  0.00  0.00    -0.057 A 
ATOM     41  C   LIG d   1       4.516  -1.198  -2.281  0.00  0.00    -0.061 A 
ATOM     42  H   LIG d   1       5.921  -2.494  -3.241  0.00  0.00     0.062 H 
ATOM     43  C   LIG d   1       4.170   0.111  -2.005  0.00  0.00    -0.062 A 
ATOM     44  H   LIG d   1       3.899  -2.008  -1.921  0.00  0.00     0.062 H 
ATOM     45  C   LIG d   1       4.961   1.148  -2.464  0.00  0.00    -0.061 A 
ATOM     46  H   LIG d   1       3.282   0.324  -1.428  0.00  0.00     0.062 H 
ATOM     47  C   LIG d   1       6.098   0.874  -3.200  0.00  0.00    -0.057 A 
ATOM     48  H   LIG d   1       4.690   2.171  -2.247  0.00  0.00     0.062 H 
ATOM     49  H   LIG d   1       6.716   1.685  -3.559  0.00  0.00     0.062 H 
ENDBRANCH  36  39
ENDBRANCH  26  36
ENDBRANCH  11  22
BRANCH   1  50
ATOM     50  C   LIG d   1       3.066  -0.887 -11.955  0.00  0.00    -0.047 C 
ATOM     51  H   LIG d   1       2.019  -1.127 -11.766  0.00  0.00     0.024 H 
ATOM     52  H   LIG d   1       3.128  -0.000 -12.585  0.00  0.00     0.024 H 
ATOM     53  H   LIG d   1       3.544  -1.726 -12.460  0.00  0.00     0.024 H 
ENDBRANCH   1  50
BRANCH   5  54
ATOM     54  C   LIG d   1       2.387   0.217  -7.076  0.00  0.00    -0.047 C 
ATOM     55  H   LIG d   1       2.701   1.074  -6.478  0.00  0.00     0.024 H 
ATOM     56  H   LIG d   1       1.427   0.434  -7.544  0.00  0.00     0.024 H 
ATOM     57  H   LIG d   1       2.287  -0.657  -6.432  0.00  0.00     0.024 H 
ENDBRANCH   5  54
TORSDOF 5
ENDMDL
MODEL 10
REMARK VINA RESULT:      -6.8      2.250      3.932
REMARK  5 active torsions:
REMARK  status: ('A' for Active; 'I' for Inactive)
REMARK    1  A    between atoms: C_1  and  C_2 
REMARK    2  A    between atoms: C_6  and  C_29 
REMARK    3  A    between atoms: C_12  and  C_13 
REMARK    4  A    between atoms: N_15  and  C_22 
REMARK    5  A    between atoms: C_22  and  C_23 
ROOT
ATOM      1  C   LIG d   1       2.650  -1.252 -10.575  0.00  0.00     0.080 C 
ATOM      2  C   LIG d   1       3.123  -2.710 -10.481  0.00  0.00    -0.016 C 
ATOM      3  N   LIG d   1       4.170  -2.833  -9.465  0.00  0.00     0.253 N 
ATOM      4  C   LIG d   1       5.358  -2.054  -9.817  0.00  0.00    -0.016 C 
ATOM      5  C   LIG d   1       5.007  -0.559  -9.874  0.00  0.00     0.080 C 
ATOM      6  C   LIG d   1       3.884  -0.413 -10.895  0.00  0.00     0.158 C 
ATOM      7  O   LIG d   1       3.971   0.284 -11.878  0.00  0.00    -0.296 OA
ATOM      8  C   LIG d   1       4.419  -0.151  -8.514  0.00  0.00     0.021 C 
ATOM      9  N   LIG d   1       3.260  -1.002  -8.216  0.00  0.00    -0.255 N 
ATOM     10  C   LIG d   1       2.156  -0.791  -9.194  0.00  0.00     0.021 C 
ATOM     11  C   LIG d   1       3.659  -2.416  -8.156  0.00  0.00     0.064 C 
ATOM     12  H   LIG d   1       2.280  -3.347 -10.212  0.00  0.00     0.083 H 
ATOM     13  H   LIG d   1       3.517  -3.025 -11.447  0.00  0.00     0.083 H 
ATOM     14  H   LIG d   1       6.132  -2.215  -9.068  0.00  0.00     0.083 H 
ATOM     15  H   LIG d   1       5.727  -2.376 -10.791  0.00  0.00     0.083 H 
ATOM     16  H   LIG d   1       5.174  -0.277  -7.738  0.00  0.00     0.044 H 
ATOM     17  H   LIG d   1       4.105   0.893  -8.551  0.00  0.00     0.044 H 
ATOM     18  H   LIG d   1       1.871   0.260  -9.240  0.00  0.00     0.044 H 
ATOM     19  H   LIG d   1       1.294  -1.390  -8.897  0.00  0.00     0.044 H 
ATOM     20  H   LIG d   1       2.795  -3.026  -7.890  0.00  0.00     0.109 H 
ATOM     21  H   LIG d   1       4.442  -3.803  -9.405  0.00  0.00     0.205 HD
ENDROOT
BRANCH  11  22
ATOM     22  C   LIG d   1       4.737  -2.590  -7.117  0.00  0.00     0.041 A 
ATOM     23  C   LIG d   1       5.398  -3.845  -6.750  0.00  0.00     0.010 A 
ATOM     24  C   LIG d   1       6.328  -3.515  -5.747  0.00  0.00     0.050 A 
ATOM     25  C   LIG d   1       5.277  -5.167  -7.181  0.00  0.00    -0.052 A 
ATOM     26  N   LIG d   1       6.223  -2.160  -5.525  0.00  0.00    -0.342 N 
ATOM     27  C   LIG d   1       7.120  -4.517  -5.197  0.00  0.00    -0.038 A 
ATOM     28  C   LIG d   1       5.270  -1.627  -6.350  0.00  0.00     0.016 A 
ATOM     29  H   LIG d   1       4.990  -0.585  -6.379  0.00  0.00     0.081 H 
ATOM     30  C   LIG d   1       6.979  -5.818  -5.631  0.00  0.00    -0.060 A 
ATOM     31  H   LIG d   1       7.836  -4.279  -4.423  0.00  0.00     0.064 H 
ATOM     32  C   LIG d   1       6.062  -6.137  -6.622  0.00  0.00    -0.061 A 
ATOM     33  H   LIG d   1       7.592  -6.595  -5.198  0.00  0.00     0.062 H 
ATOM     34  H   LIG d   1       5.969  -7.160  -6.956  0.00  0.00     0.062 H 
ATOM     35  H   LIG d   1       4.566  -5.424  -7.952  0.00  0.00     0.062 H 
BRANCH  26  36
ATOM     36  C   LIG d   1       7.012  -1.404  -4.551  0.00  0.00     0.048 C 
ATOM     37  H   LIG d   1       7.689  -2.079  -4.028  0.00  0.00     0.054 H 
ATOM     38  H   LIG d   1       7.590  -0.638  -5.066  0.00  0.00     0.054 H 
BRANCH  36  39
ATOM     39  C   LIG d   1       6.088  -0.750  -3.555  0.00  0.00    -0.028 A 
ATOM     40  C   LIG d   1       6.086   0.625  -3.414  0.00  0.00    -0.057 A 
ATOM     41  C   LIG d   1       5.235   1.225  -2.504  0.00  0.00    -0.061 A 
ATOM     42  H   LIG d   1       6.745   1.231  -4.017  0.00  0.00     0.062 H 
ATOM     43  C   LIG d   1       4.394   0.448  -1.729  0.00  0.00    -0.062 A 
ATOM     44  H   LIG d   1       5.230   2.300  -2.397  0.00  0.00     0.062 H 
ATOM     45  C   LIG d   1       4.401  -0.927  -1.866  0.00  0.00    -0.061 A 
ATOM     46  H   LIG d   1       3.731   0.917  -1.017  0.00  0.00     0.062 H 
ATOM     47  C   LIG d   1       5.248  -1.526  -2.779  0.00  0.00    -0.057 A 
ATOM     48  H   LIG d   1       3.743  -1.533  -1.260  0.00  0.00     0.062 H 
ATOM     49  H   LIG d   1       5.253  -2.601  -2.886  0.00  0.00     0.062 H 
ENDBRANCH  36  39
ENDBRANCH  26  36
ENDBRANCH  11  22
BRANCH   1  50
ATOM     50  C   LIG d   1       1.566  -1.083 -11.641  0.00  0.00    -0.047 C 
ATOM     51  H   LIG d   1       1.399  -2.036 -12.143  0.00  0.00     0.024 H 
ATOM     52  H   LIG d   1       0.640  -0.753 -11.169  0.00  0.00     0.024 H 
ATOM     53  H   LIG d   1       1.887  -0.340 -12.371  0.00  0.00     0.024 H 
ENDBRANCH   1  50
BRANCH   5  54
ATOM     54  C   LIG d   1       6.224   0.286 -10.257  0.00  0.00    -0.047 C 
ATOM     55  H   LIG d   1       7.073   0.006  -9.632  0.00  0.00     0.024 H 
ATOM     56  H   LIG d   1       6.471   0.115 -11.304  0.00  0.00     0.024 H 
ATOM     57  H   LIG d   1       5.996   1.342 -10.106  0.00  0.00     0.024 H 
ENDBRANCH   5  54
TORSDOF 5
ENDMDL
