MODEL 1
REMARK VINA RESULT:      -5.9      0.000      0.000
REMARK  4 active torsions:
REMARK  status: ('A' for Active; 'I' for Inactive)
REMARK    1  A    between atoms: C_1  and  O_2 
REMARK    2  A    between atoms: O_2  and  C_3 
REMARK    3  A    between atoms: C_16  and  O_17 
REMARK    4  A    between atoms: O_17  and  C_18 
ROOT
ATOM      1  C   LIG d   1       4.305  -0.360  -8.497  0.00  0.00     0.131 A 
ATOM      2  C   LIG d   1       3.866   0.660  -9.329  0.00  0.00    -0.019 A 
ATOM      3  C   LIG d   1       3.016   1.630  -8.834  0.00  0.00    -0.058 A 
ATOM      4  C   LIG d   1       2.592   1.591  -7.518  0.00  0.00    -0.057 A 
ATOM      5  C   LIG d   1       3.013   0.581  -6.671  0.00  0.00    -0.029 A 
ATOM      6  C   LIG d   1       3.879  -0.396  -7.163  0.00  0.00     0.067 A 
ATOM      7  C   LIG d   1       4.360  -1.465  -6.264  0.00  0.00     0.201 C 
ATOM      8  O   LIG d   1       4.853  -2.484  -6.707  0.00  0.00    -0.286 OA
ATOM      9  C   LIG d   1       4.220  -1.254  -4.809  0.00  0.00     0.067 A 
ATOM     10  C   LIG d   1       3.348  -0.274  -4.334  0.00  0.00    -0.029 A 
ATOM     11  C   LIG d   1       3.244  -0.072  -2.969  0.00  0.00    -0.057 A 
ATOM     12  C   LIG d   1       3.987  -0.835  -2.086  0.00  0.00    -0.058 A 
ATOM     13  C   LIG d   1       4.847  -1.811  -2.550  0.00  0.00    -0.019 A 
ATOM     14  C   LIG d   1       4.971  -2.029  -3.914  0.00  0.00     0.131 A 
ATOM     15  C   LIG d   1       2.519   0.567  -5.257  0.00  0.00    -0.001 C 
ATOM     16  H   LIG d   1       4.192   0.699 -10.358  0.00  0.00     0.065 H 
ATOM     17  H   LIG d   1       2.679   2.426  -9.482  0.00  0.00     0.062 H 
ATOM     18  H   LIG d   1       1.927   2.357  -7.147  0.00  0.00     0.062 H 
ATOM     19  H   LIG d   1       2.577   0.686  -2.590  0.00  0.00     0.062 H 
ATOM     20  H   LIG d   1       3.896  -0.665  -1.024  0.00  0.00     0.062 H 
ATOM     21  H   LIG d   1       5.422  -2.403  -1.853  0.00  0.00     0.065 H 
ATOM     22  H   LIG d   1       2.510   1.590  -4.881  0.00  0.00     0.036 H 
ATOM     23  H   LIG d   1       1.497   0.185  -5.249  0.00  0.00     0.036 H 
ENDROOT
BRANCH   1  24
ATOM     24  O   LIG d   1       5.141  -1.316  -8.973  0.00  0.00    -0.494 OA
BRANCH  24  25
ATOM     25  C   LIG d   1       4.817  -1.888 -10.241  0.00  0.00     0.079 C 
ATOM     26  H   LIG d   1       4.680  -1.093 -10.974  0.00  0.00     0.066 H 
ATOM     27  H   LIG d   1       5.628  -2.542 -10.562  0.00  0.00     0.066 H 
ATOM     28  H   LIG d   1       3.897  -2.466 -10.155  0.00  0.00     0.066 H 
ENDBRANCH  24  25
ENDBRANCH   1  24
BRANCH  14  29
ATOM     29  O   LIG d   1       5.811  -2.986  -4.380  0.00  0.00    -0.494 OA
BRANCH  29  30
ATOM     30  C   LIG d   1       7.202  -2.818  -4.101  0.00  0.00     0.079 C 
ATOM     31  H   LIG d   1       7.326  -2.439  -3.087  0.00  0.00     0.066 H 
ATOM     32  H   LIG d   1       7.710  -3.779  -4.195  0.00  0.00     0.066 H 
ATOM     33  H   LIG d   1       7.632  -2.110  -4.809  0.00  0.00     0.066 H 
ENDBRANCH  29  30
ENDBRANCH  14  29
TORSDOF 4
ENDMDL
MODEL 2
REMARK VINA RESULT:      -5.6      1.447      5.114
REMARK  4 active torsions:
REMARK  status: ('A' for Active; 'I' for Inactive)
REMARK    1  A    between atoms: C_1  and  O_2 
REMARK    2  A    between atoms: O_2  and  C_3 
REMARK    3  A    between atoms: C_16  and  O_17 
REMARK    4  A    between atoms: O_17  and  C_18 
ROOT
ATOM      1  C   LIG d   1       5.632  -1.181  -3.677  0.00  0.00     0.131 A 
ATOM      2  C   LIG d   1       5.001  -1.506  -2.485  0.00  0.00    -0.019 A 
ATOM      3  C   LIG d   1       3.642  -1.295  -2.351  0.00  0.00    -0.058 A 
ATOM      4  C   LIG d   1       2.905  -0.759  -3.391  0.00  0.00    -0.057 A 
ATOM      5  C   LIG d   1       3.514  -0.423  -4.587  0.00  0.00    -0.029 A 
ATOM      6  C   LIG d   1       4.884  -0.643  -4.732  0.00  0.00     0.067 A 
ATOM      7  C   LIG d   1       5.544  -0.316  -6.013  0.00  0.00     0.201 C 
ATOM      8  O   LIG d   1       6.752  -0.201  -6.086  0.00  0.00    -0.286 OA
ATOM      9  C   LIG d   1       4.686  -0.134  -7.201  0.00  0.00     0.067 A 
ATOM     10  C   LIG d   1       3.318   0.086  -7.038  0.00  0.00    -0.029 A 
ATOM     11  C   LIG d   1       2.523   0.232  -8.160  0.00  0.00    -0.057 A 
ATOM     12  C   LIG d   1       3.075   0.169  -9.427  0.00  0.00    -0.058 A 
ATOM     13  C   LIG d   1       4.430  -0.041  -9.595  0.00  0.00    -0.019 A 
ATOM     14  C   LIG d   1       5.246  -0.194  -8.484  0.00  0.00     0.131 A 
ATOM     15  C   LIG d   1       2.682   0.169  -5.683  0.00  0.00    -0.001 C 
ATOM     16  H   LIG d   1       5.568  -1.926  -1.668  0.00  0.00     0.065 H 
ATOM     17  H   LIG d   1       3.151  -1.552  -1.423  0.00  0.00     0.062 H 
ATOM     18  H   LIG d   1       1.843  -0.601  -3.268  0.00  0.00     0.062 H 
ATOM     19  H   LIG d   1       1.463   0.397  -8.047  0.00  0.00     0.062 H 
ATOM     20  H   LIG d   1       2.441   0.285 -10.294  0.00  0.00     0.062 H 
ATOM     21  H   LIG d   1       4.852  -0.086 -10.588  0.00  0.00     0.065 H 
ATOM     22  H   LIG d   1       1.726  -0.352  -5.715  0.00  0.00     0.036 H 
ATOM     23  H   LIG d   1       2.498   1.219  -5.452  0.00  0.00     0.036 H 
ENDROOT
BRANCH   1  24
ATOM     24  O   LIG d   1       6.965  -1.386  -3.820  0.00  0.00    -0.494 OA
BRANCH  24  25
ATOM     25  C   LIG d   1       7.417  -2.741  -3.823  0.00  0.00     0.079 C 
ATOM     26  H   LIG d   1       6.849  -3.315  -3.091  0.00  0.00     0.066 H 
ATOM     27  H   LIG d   1       7.269  -3.171  -4.815  0.00  0.00     0.066 H 
ATOM     28  H   LIG d   1       8.476  -2.772  -3.568  0.00  0.00     0.066 H 
ENDBRANCH  24  25
ENDBRANCH   1  24
BRANCH  14  29
ATOM     29  O   LIG d   1       6.578  -0.400  -8.638  0.00  0.00    -0.494 OA
BRANCH  29  30
ATOM     30  C   LIG d   1       7.250   0.408  -9.606  0.00  0.00     0.079 C 
ATOM     31  H   LIG d   1       8.249   0.653  -9.244  0.00  0.00     0.066 H 
ATOM     32  H   LIG d   1       7.328  -0.140 -10.546  0.00  0.00     0.066 H 
ATOM     33  H   LIG d   1       6.687   1.327  -9.767  0.00  0.00     0.066 H 
ENDBRANCH  29  30
ENDBRANCH  14  29
TORSDOF 4
ENDMDL
MODEL 3
REMARK VINA RESULT:      -5.5      3.177      5.014
REMARK  4 active torsions:
REMARK  status: ('A' for Active; 'I' for Inactive)
REMARK    1  A    between atoms: C_1  and  O_2 
REMARK    2  A    between atoms: O_2  and  C_3 
REMARK    3  A    between atoms: C_16  and  O_17 
REMARK    4  A    between atoms: O_17  and  C_18 
ROOT
ATOM      1  C   LIG d   1       5.866   0.670  -3.611  0.00  0.00     0.131 A 
ATOM      2  C   LIG d   1       5.371   1.147  -2.406  0.00  0.00    -0.019 A 
ATOM      3  C   LIG d   1       4.536   0.351  -1.646  0.00  0.00    -0.058 A 
ATOM      4  C   LIG d   1       4.183  -0.915  -2.076  0.00  0.00    -0.057 A 
ATOM      5  C   LIG d   1       4.660  -1.409  -3.277  0.00  0.00    -0.029 A 
ATOM      6  C   LIG d   1       5.512  -0.614  -4.045  0.00  0.00     0.067 A 
ATOM      7  C   LIG d   1       6.052  -1.139  -5.316  0.00  0.00     0.201 C 
ATOM      8  O   LIG d   1       6.534  -0.395  -6.149  0.00  0.00    -0.286 OA
ATOM      9  C   LIG d   1       5.987  -2.598  -5.541  0.00  0.00     0.067 A 
ATOM     10  C   LIG d   1       5.129  -3.377  -4.765  0.00  0.00    -0.029 A 
ATOM     11  C   LIG d   1       5.095  -4.745  -4.971  0.00  0.00    -0.057 A 
ATOM     12  C   LIG d   1       5.893  -5.332  -5.937  0.00  0.00    -0.058 A 
ATOM     13  C   LIG d   1       6.739  -4.564  -6.713  0.00  0.00    -0.019 A 
ATOM     14  C   LIG d   1       6.793  -3.191  -6.521  0.00  0.00     0.131 A 
ATOM     15  C   LIG d   1       4.242  -2.780  -3.715  0.00  0.00    -0.001 C 
ATOM     16  H   LIG d   1       5.642   2.134  -2.061  0.00  0.00     0.065 H 
ATOM     17  H   LIG d   1       4.155   0.722  -0.705  0.00  0.00     0.062 H 
ATOM     18  H   LIG d   1       3.529  -1.523  -1.469  0.00  0.00     0.062 H 
ATOM     19  H   LIG d   1       4.439  -5.359  -4.374  0.00  0.00     0.062 H 
ATOM     20  H   LIG d   1       5.855  -6.401  -6.085  0.00  0.00     0.062 H 
ATOM     21  H   LIG d   1       7.357  -5.030  -7.466  0.00  0.00     0.065 H 
ATOM     22  H   LIG d   1       4.240  -3.438  -2.845  0.00  0.00     0.036 H 
ATOM     23  H   LIG d   1       3.227  -2.724  -4.110  0.00  0.00     0.036 H 
ENDROOT
BRANCH   1  24
ATOM     24  O   LIG d   1       6.688   1.442  -4.365  0.00  0.00    -0.494 OA
BRANCH  24  25
ATOM     25  C   LIG d   1       7.957   1.780  -3.801  0.00  0.00     0.079 C 
ATOM     26  H   LIG d   1       8.662   0.969  -3.982  0.00  0.00     0.066 H 
ATOM     27  H   LIG d   1       8.328   2.694  -4.265  0.00  0.00     0.066 H 
ATOM     28  H   LIG d   1       7.848   1.935  -2.728  0.00  0.00     0.066 H 
ENDBRANCH  24  25
ENDBRANCH   1  24
BRANCH  14  29
ATOM     29  O   LIG d   1       7.619  -2.427  -7.278  0.00  0.00    -0.494 OA
BRANCH  29  30
ATOM     30  C   LIG d   1       9.015  -2.727  -7.218  0.00  0.00     0.079 C 
ATOM     31  H   LIG d   1       9.451  -2.251  -6.339  0.00  0.00     0.066 H 
ATOM     32  H   LIG d   1       9.153  -3.807  -7.152  0.00  0.00     0.066 H 
ATOM     33  H   LIG d   1       9.507  -2.352  -8.115  0.00  0.00     0.066 H 
ENDBRANCH  29  30
ENDBRANCH  14  29
TORSDOF 4
ENDMDL
MODEL 4
REMARK VINA RESULT:      -5.5      1.981      5.858
REMARK  4 active torsions:
REMARK  status: ('A' for Active; 'I' for Inactive)
REMARK    1  A    between atoms: C_1  and  O_2 
REMARK    2  A    between atoms: O_2  and  C_3 
REMARK    3  A    between atoms: C_16  and  O_17 
REMARK    4  A    between atoms: O_17  and  C_18 
ROOT
ATOM      1  C   LIG d   1       4.576  -0.171  -3.962  0.00  0.00     0.131 A 
ATOM      2  C   LIG d   1       5.320  -0.813  -2.983  0.00  0.00    -0.019 A 
ATOM      3  C   LIG d   1       5.806  -2.085  -3.216  0.00  0.00    -0.058 A 
ATOM      4  C   LIG d   1       5.554  -2.728  -4.415  0.00  0.00    -0.057 A 
ATOM      5  C   LIG d   1       4.810  -2.109  -5.404  0.00  0.00    -0.029 A 
ATOM      6  C   LIG d   1       4.325  -0.821  -5.178  0.00  0.00     0.067 A 
ATOM      7  C   LIG d   1       3.554  -0.135  -6.235  0.00  0.00     0.201 C 
ATOM      8  O   LIG d   1       2.865   0.835  -5.982  0.00  0.00    -0.286 OA
ATOM      9  C   LIG d   1       3.647  -0.668  -7.610  0.00  0.00     0.067 A 
ATOM     10  C   LIG d   1       4.133  -1.959  -7.817  0.00  0.00    -0.029 A 
ATOM     11  C   LIG d   1       4.236  -2.437  -9.111  0.00  0.00    -0.057 A 
ATOM     12  C   LIG d   1       3.856  -1.651 -10.185  0.00  0.00    -0.058 A 
ATOM     13  C   LIG d   1       3.367  -0.375  -9.985  0.00  0.00    -0.019 A 
ATOM     14  C   LIG d   1       3.259   0.127  -8.696  0.00  0.00     0.131 A 
ATOM     15  C   LIG d   1       4.547  -2.845  -6.682  0.00  0.00    -0.001 C 
ATOM     16  H   LIG d   1       5.523  -0.319  -2.044  0.00  0.00     0.065 H 
ATOM     17  H   LIG d   1       6.389  -2.582  -2.455  0.00  0.00     0.062 H 
ATOM     18  H   LIG d   1       5.941  -3.722  -4.580  0.00  0.00     0.062 H 
ATOM     19  H   LIG d   1       4.616  -3.432  -9.285  0.00  0.00     0.062 H 
ATOM     20  H   LIG d   1       3.943  -2.038 -11.189  0.00  0.00     0.062 H 
ATOM     21  H   LIG d   1       3.070   0.230 -10.829  0.00  0.00     0.065 H 
ATOM     22  H   LIG d   1       5.454  -3.379  -6.969  0.00  0.00     0.036 H 
ATOM     23  H   LIG d   1       3.756  -3.575  -6.506  0.00  0.00     0.036 H 
ENDROOT
BRANCH   1  24
ATOM     24  O   LIG d   1       4.096   1.078  -3.744  0.00  0.00    -0.494 OA
BRANCH  24  25
ATOM     25  C   LIG d   1       3.748   1.414  -2.400  0.00  0.00     0.079 C 
ATOM     26  H   LIG d   1       2.741   1.055  -2.184  0.00  0.00     0.066 H 
ATOM     27  H   LIG d   1       4.455   0.946  -1.714  0.00  0.00     0.066 H 
ATOM     28  H   LIG d   1       3.783   2.496  -2.274  0.00  0.00     0.066 H 
ENDBRANCH  24  25
ENDBRANCH   1  24
BRANCH  14  29
ATOM     29  O   LIG d   1       2.778   1.378  -8.488  0.00  0.00    -0.494 OA
BRANCH  29  30
ATOM     30  C   LIG d   1       3.462   2.451  -9.139  0.00  0.00     0.079 C 
ATOM     31  H   LIG d   1       4.421   2.094  -9.517  0.00  0.00     0.066 H 
ATOM     32  H   LIG d   1       2.857   2.817  -9.969  0.00  0.00     0.066 H 
ATOM     33  H   LIG d   1       3.631   3.259  -8.428  0.00  0.00     0.066 H 
ENDBRANCH  29  30
ENDBRANCH  14  29
TORSDOF 4
ENDMDL
MODEL 5
REMARK VINA RESULT:      -5.4      3.604      4.677
REMARK  4 active torsions:
REMARK  status: ('A' for Active; 'I' for Inactive)
REMARK    1  A    between atoms: C_1  and  O_2 
REMARK    2  A    between atoms: O_2  and  C_3 
REMARK    3  A    between atoms: C_16  and  O_17 
REMARK    4  A    between atoms: O_17  and  C_18 
ROOT
ATOM      1  C   LIG d   1       9.353   0.143  -5.289  0.00  0.00     0.131 A 
ATOM      2  C   LIG d   1      10.213   1.208  -5.064  0.00  0.00    -0.019 A 
ATOM      3  C   LIG d   1       9.811   2.254  -4.257  0.00  0.00    -0.058 A 
ATOM      4  C   LIG d   1       8.556   2.255  -3.675  0.00  0.00    -0.057 A 
ATOM      5  C   LIG d   1       7.680   1.206  -3.889  0.00  0.00    -0.029 A 
ATOM      6  C   LIG d   1       8.084   0.142  -4.695  0.00  0.00     0.067 A 
ATOM      7  C   LIG d   1       7.171  -0.999  -4.911  0.00  0.00     0.201 C 
ATOM      8  O   LIG d   1       7.346  -1.782  -5.824  0.00  0.00    -0.286 OA
ATOM      9  C   LIG d   1       6.036  -1.157  -3.977  0.00  0.00     0.067 A 
ATOM     10  C   LIG d   1       5.644  -0.082  -3.179  0.00  0.00    -0.029 A 
ATOM     11  C   LIG d   1       4.595  -0.251  -2.294  0.00  0.00    -0.057 A 
ATOM     12  C   LIG d   1       3.937  -1.464  -2.205  0.00  0.00    -0.058 A 
ATOM     13  C   LIG d   1       4.316  -2.530  -2.998  0.00  0.00    -0.019 A 
ATOM     14  C   LIG d   1       5.368  -2.385  -3.890  0.00  0.00     0.131 A 
ATOM     15  C   LIG d   1       6.325   1.252  -3.252  0.00  0.00    -0.001 C 
ATOM     16  H   LIG d   1      11.195   1.217  -5.514  0.00  0.00     0.065 H 
ATOM     17  H   LIG d   1      10.483   3.081  -4.080  0.00  0.00     0.062 H 
ATOM     18  H   LIG d   1       8.258   3.081  -3.047  0.00  0.00     0.062 H 
ATOM     19  H   LIG d   1       4.286   0.572  -1.668  0.00  0.00     0.062 H 
ATOM     20  H   LIG d   1       3.120  -1.581  -1.508  0.00  0.00     0.062 H 
ATOM     21  H   LIG d   1       3.795  -3.473  -2.922  0.00  0.00     0.065 H 
ATOM     22  H   LIG d   1       6.429   1.645  -2.240  0.00  0.00     0.036 H 
ATOM     23  H   LIG d   1       5.693   1.931  -3.825  0.00  0.00     0.036 H 
ENDROOT
BRANCH   1  24
ATOM     24  O   LIG d   1       9.738  -0.890  -6.078  0.00  0.00    -0.494 OA
BRANCH  24  25
ATOM     25  C   LIG d   1      10.909  -1.607  -5.682  0.00  0.00     0.079 C 
ATOM     26  H   LIG d   1      11.317  -2.140  -6.540  0.00  0.00     0.066 H 
ATOM     27  H   LIG d   1      11.652  -0.907  -5.301  0.00  0.00     0.066 H 
ATOM     28  H   LIG d   1      10.650  -2.322  -4.900  0.00  0.00     0.066 H 
ENDBRANCH  24  25
ENDBRANCH   1  24
BRANCH  14  29
ATOM     29  O   LIG d   1       5.747  -3.425  -4.673  0.00  0.00    -0.494 OA
BRANCH  29  30
ATOM     30  C   LIG d   1       4.726  -4.058  -5.448  0.00  0.00     0.079 C 
ATOM     31  H   LIG d   1       5.184  -4.750  -6.155  0.00  0.00     0.066 H 
ATOM     32  H   LIG d   1       4.055  -4.606  -4.786  0.00  0.00     0.066 H 
ATOM     33  H   LIG d   1       4.162  -3.302  -5.993  0.00  0.00     0.066 H 
ENDBRANCH  29  30
ENDBRANCH  14  29
TORSDOF 4
ENDMDL
MODEL 6
REMARK VINA RESULT:      -5.4      3.119      3.890
REMARK  4 active torsions:
REMARK  status: ('A' for Active; 'I' for Inactive)
REMARK    1  A    between atoms: C_1  and  O_2 
REMARK    2  A    between atoms: O_2  and  C_3 
REMARK    3  A    between atoms: C_16  and  O_17 
REMARK    4  A    between atoms: O_17  and  C_18 
ROOT
ATOM      1  C   LIG d   1       6.036  -2.931  -7.040  0.00  0.00     0.131 A 
ATOM      2  C   LIG d   1       5.461  -4.086  -7.551  0.00  0.00    -0.019 A 
ATOM      3  C   LIG d   1       4.611  -4.835  -6.761  0.00  0.00    -0.058 A 
ATOM      4  C   LIG d   1       4.330  -4.448  -5.463  0.00  0.00    -0.057 A 
ATOM      5  C   LIG d   1       4.896  -3.303  -4.931  0.00  0.00    -0.029 A 
ATOM      6  C   LIG d   1       5.748  -2.537  -5.728  0.00  0.00     0.067 A 
ATOM      7  C   LIG d   1       6.337  -1.296  -5.184  0.00  0.00     0.201 C 
ATOM      8  O   LIG d   1       7.300  -0.774  -5.711  0.00  0.00    -0.286 OA
ATOM      9  C   LIG d   1       5.717  -0.713  -3.976  0.00  0.00     0.067 A 
ATOM     10  C   LIG d   1       4.869  -1.493  -3.191  0.00  0.00    -0.029 A 
ATOM     11  C   LIG d   1       4.277  -0.926  -2.076  0.00  0.00    -0.057 A 
ATOM     12  C   LIG d   1       4.528   0.392  -1.739  0.00  0.00    -0.058 A 
ATOM     13  C   LIG d   1       5.373   1.167  -2.509  0.00  0.00    -0.019 A 
ATOM     14  C   LIG d   1       5.974   0.621  -3.633  0.00  0.00     0.131 A 
ATOM     15  C   LIG d   1       4.578  -2.927  -3.516  0.00  0.00    -0.001 C 
ATOM     16  H   LIG d   1       5.673  -4.396  -8.564  0.00  0.00     0.065 H 
ATOM     17  H   LIG d   1       4.161  -5.731  -7.161  0.00  0.00     0.062 H 
ATOM     18  H   LIG d   1       3.663  -5.045  -4.859  0.00  0.00     0.062 H 
ATOM     19  H   LIG d   1       3.615  -1.518  -1.463  0.00  0.00     0.062 H 
ATOM     20  H   LIG d   1       4.059   0.820  -0.865  0.00  0.00     0.062 H 
ATOM     21  H   LIG d   1       5.565   2.194  -2.236  0.00  0.00     0.065 H 
ATOM     22  H   LIG d   1       3.520  -3.117  -3.334  0.00  0.00     0.036 H 
ATOM     23  H   LIG d   1       5.164  -3.559  -2.848  0.00  0.00     0.036 H 
ENDROOT
BRANCH   1  24
ATOM     24  O   LIG d   1       6.871  -2.188  -7.808  0.00  0.00    -0.494 OA
BRANCH  24  25
ATOM     25  C   LIG d   1       7.611  -2.878  -8.817  0.00  0.00     0.079 C 
ATOM     26  H   LIG d   1       6.970  -3.054  -9.681  0.00  0.00     0.066 H 
ATOM     27  H   LIG d   1       8.467  -2.274  -9.117  0.00  0.00     0.066 H 
ATOM     28  H   LIG d   1       7.960  -3.832  -8.423  0.00  0.00     0.066 H 
ENDBRANCH  24  25
ENDBRANCH   1  24
BRANCH  14  29
ATOM     29  O   LIG d   1       6.806   1.373  -4.396  0.00  0.00    -0.494 OA
BRANCH  29  30
ATOM     30  C   LIG d   1       7.980   1.886  -3.761  0.00  0.00     0.079 C 
ATOM     31  H   LIG d   1       8.620   1.058  -3.457  0.00  0.00     0.066 H 
ATOM     32  H   LIG d   1       8.520   2.526  -4.460  0.00  0.00     0.066 H 
ATOM     33  H   LIG d   1       7.695   2.466  -2.884  0.00  0.00     0.066 H 
ENDBRANCH  29  30
ENDBRANCH  14  29
TORSDOF 4
ENDMDL
MODEL 7
REMARK VINA RESULT:      -5.2      3.644      5.245
REMARK  4 active torsions:
REMARK  status: ('A' for Active; 'I' for Inactive)
REMARK    1  A    between atoms: C_1  and  O_2 
REMARK    2  A    between atoms: O_2  and  C_3 
REMARK    3  A    between atoms: C_16  and  O_17 
REMARK    4  A    between atoms: O_17  and  C_18 
ROOT
ATOM      1  C   LIG d   1       5.226  -2.281  -3.694  0.00  0.00     0.131 A 
ATOM      2  C   LIG d   1       4.028  -2.237  -2.996  0.00  0.00    -0.019 A 
ATOM      3  C   LIG d   1       3.650  -1.072  -2.358  0.00  0.00    -0.058 A 
ATOM      4  C   LIG d   1       4.457   0.051  -2.403  0.00  0.00    -0.057 A 
ATOM      5  C   LIG d   1       5.658   0.029  -3.089  0.00  0.00    -0.029 A 
ATOM      6  C   LIG d   1       6.040  -1.142  -3.744  0.00  0.00     0.067 A 
ATOM      7  C   LIG d   1       7.307  -1.174  -4.504  0.00  0.00     0.201 C 
ATOM      8  O   LIG d   1       7.823  -2.227  -4.824  0.00  0.00    -0.286 OA
ATOM      9  C   LIG d   1       7.925   0.120  -4.863  0.00  0.00     0.067 A 
ATOM     10  C   LIG d   1       7.531   1.281  -4.197  0.00  0.00    -0.029 A 
ATOM     11  C   LIG d   1       8.103   2.488  -4.559  0.00  0.00    -0.057 A 
ATOM     12  C   LIG d   1       9.056   2.544  -5.560  0.00  0.00    -0.058 A 
ATOM     13  C   LIG d   1       9.455   1.396  -6.218  0.00  0.00    -0.019 A 
ATOM     14  C   LIG d   1       8.893   0.175  -5.874  0.00  0.00     0.131 A 
ATOM     15  C   LIG d   1       6.509   1.262  -3.102  0.00  0.00    -0.001 C 
ATOM     16  H   LIG d   1       3.391  -3.108  -2.956  0.00  0.00     0.065 H 
ATOM     17  H   LIG d   1       2.715  -1.037  -1.819  0.00  0.00     0.062 H 
ATOM     18  H   LIG d   1       4.145   0.954  -1.899  0.00  0.00     0.062 H 
ATOM     19  H   LIG d   1       7.803   3.393  -4.055  0.00  0.00     0.062 H 
ATOM     20  H   LIG d   1       9.493   3.493  -5.832  0.00  0.00     0.062 H 
ATOM     21  H   LIG d   1      10.202   1.449  -6.996  0.00  0.00     0.065 H 
ATOM     22  H   LIG d   1       5.861   2.131  -3.215  0.00  0.00     0.036 H 
ATOM     23  H   LIG d   1       7.026   1.337  -2.145  0.00  0.00     0.036 H 
ENDROOT
BRANCH   1  24
ATOM     24  O   LIG d   1       5.606  -3.420  -4.325  0.00  0.00    -0.494 OA
BRANCH  24  25
ATOM     25  C   LIG d   1       4.783  -3.869  -5.403  0.00  0.00     0.079 C 
ATOM     26  H   LIG d   1       5.217  -4.768  -5.842  0.00  0.00     0.066 H 
ATOM     27  H   LIG d   1       3.785  -4.094  -5.028  0.00  0.00     0.066 H 
ATOM     28  H   LIG d   1       4.719  -3.089  -6.162  0.00  0.00     0.066 H 
ENDBRANCH  24  25
ENDBRANCH   1  24
BRANCH  14  29
ATOM     29  O   LIG d   1       9.279  -0.958  -6.513  0.00  0.00    -0.494 OA
BRANCH  29  30
ATOM     30  C   LIG d   1       9.138  -0.980  -7.934  0.00  0.00     0.079 C 
ATOM     31  H   LIG d   1       8.726  -1.942  -8.243  0.00  0.00     0.066 H 
ATOM     32  H   LIG d   1       8.465  -0.180  -8.246  0.00  0.00     0.066 H 
ATOM     33  H   LIG d   1      10.113  -0.837  -8.399  0.00  0.00     0.066 H 
ENDBRANCH  29  30
ENDBRANCH  14  29
TORSDOF 4
ENDMDL
MODEL 8
REMARK VINA RESULT:      -5.2      1.254      5.057
REMARK  4 active torsions:
REMARK  status: ('A' for Active; 'I' for Inactive)
REMARK    1  A    between atoms: C_1  and  O_2 
REMARK    2  A    between atoms: O_2  and  C_3 
REMARK    3  A    between atoms: C_16  and  O_17 
REMARK    4  A    between atoms: O_17  and  C_18 
ROOT
ATOM      1  C   LIG d   1       4.420  -1.508  -4.822  0.00  0.00     0.131 A 
ATOM      2  C   LIG d   1       3.586  -1.514  -3.713  0.00  0.00    -0.019 A 
ATOM      3  C   LIG d   1       2.525  -0.632  -3.650  0.00  0.00    -0.058 A 
ATOM      4  C   LIG d   1       2.287   0.261  -4.679  0.00  0.00    -0.057 A 
ATOM      5  C   LIG d   1       3.109   0.289  -5.792  0.00  0.00    -0.029 A 
ATOM      6  C   LIG d   1       4.176  -0.606  -5.866  0.00  0.00     0.067 A 
ATOM      7  C   LIG d   1       5.045  -0.609  -7.061  0.00  0.00     0.201 C 
ATOM      8  O   LIG d   1       6.140  -1.137  -7.041  0.00  0.00    -0.286 OA
ATOM      9  C   LIG d   1       4.539   0.054  -8.280  0.00  0.00     0.067 A 
ATOM     10  C   LIG d   1       3.471   0.947  -8.188  0.00  0.00    -0.029 A 
ATOM     11  C   LIG d   1       2.992   1.542  -9.341  0.00  0.00    -0.057 A 
ATOM     12  C   LIG d   1       3.568   1.264 -10.568  0.00  0.00    -0.058 A 
ATOM     13  C   LIG d   1       4.630   0.386 -10.665  0.00  0.00    -0.019 A 
ATOM     14  C   LIG d   1       5.124  -0.226  -9.522  0.00  0.00     0.131 A 
ATOM     15  C   LIG d   1       2.826   1.282  -6.877  0.00  0.00    -0.001 C 
ATOM     16  H   LIG d   1       3.763  -2.208  -2.905  0.00  0.00     0.065 H 
ATOM     17  H   LIG d   1       1.874  -0.641  -2.788  0.00  0.00     0.062 H 
ATOM     18  H   LIG d   1       1.453   0.944  -4.612  0.00  0.00     0.062 H 
ATOM     19  H   LIG d   1       2.164   2.231  -9.283  0.00  0.00     0.062 H 
ATOM     20  H   LIG d   1       3.183   1.736 -11.460  0.00  0.00     0.062 H 
ATOM     21  H   LIG d   1       5.074   0.177 -11.627  0.00  0.00     0.065 H 
ATOM     22  H   LIG d   1       1.747   1.339  -7.025  0.00  0.00     0.036 H 
ATOM     23  H   LIG d   1       3.184   2.260  -6.556  0.00  0.00     0.036 H 
ENDROOT
BRANCH   1  24
ATOM     24  O   LIG d   1       5.464  -2.370  -4.895  0.00  0.00    -0.494 OA
BRANCH  24  25
ATOM     25  C   LIG d   1       5.153  -3.765  -4.904  0.00  0.00     0.079 C 
ATOM     26  H   LIG d   1       4.994  -4.108  -3.882  0.00  0.00     0.066 H 
ATOM     27  H   LIG d   1       4.248  -3.932  -5.488  0.00  0.00     0.066 H 
ATOM     28  H   LIG d   1       5.980  -4.319  -5.349  0.00  0.00     0.066 H 
ENDBRANCH  24  25
ENDBRANCH   1  24
BRANCH  14  29
ATOM     29  O   LIG d   1       6.167  -1.088  -9.606  0.00  0.00    -0.494 OA
BRANCH  29  30
ATOM     30  C   LIG d   1       6.121  -2.062 -10.651  0.00  0.00     0.079 C 
ATOM     31  H   LIG d   1       5.725  -1.603 -11.558  0.00  0.00     0.066 H 
ATOM     32  H   LIG d   1       7.126  -2.438 -10.842  0.00  0.00     0.066 H 
ATOM     33  H   LIG d   1       5.475  -2.887 -10.351  0.00  0.00     0.066 H 
ENDBRANCH  29  30
ENDBRANCH  14  29
TORSDOF 4
ENDMDL
MODEL 9
REMARK VINA RESULT:      -4.8     11.455     13.024
REMARK  4 active torsions:
REMARK  status: ('A' for Active; 'I' for Inactive)
REMARK    1  A    between atoms: C_1  and  O_2 
REMARK    2  A    between atoms: O_2  and  C_3 
REMARK    3  A    between atoms: C_16  and  O_17 
REMARK    4  A    between atoms: O_17  and  C_18 
ROOT
ATOM      1  C   LIG d   1      11.005   8.649   0.134  0.00  0.00     0.131 A 
ATOM      2  C   LIG d   1      11.374   7.764   1.136  0.00  0.00    -0.019 A 
ATOM      3  C   LIG d   1      11.208   6.406   0.946  0.00  0.00    -0.058 A 
ATOM      4  C   LIG d   1      10.670   5.919  -0.232  0.00  0.00    -0.057 A 
ATOM      5  C   LIG d   1      10.290   6.784  -1.243  0.00  0.00    -0.029 A 
ATOM      6  C   LIG d   1      10.465   8.156  -1.060  0.00  0.00     0.067 A 
ATOM      7  C   LIG d   1      10.090   9.090  -2.142  0.00  0.00     0.201 C 
ATOM      8  O   LIG d   1       9.937  10.276  -1.923  0.00  0.00    -0.286 OA
ATOM      9  C   LIG d   1       9.907   8.534  -3.498  0.00  0.00     0.067 A 
ATOM     10  C   LIG d   1       9.733   7.160  -3.663  0.00  0.00    -0.029 A 
ATOM     11  C   LIG d   1       9.585   6.650  -4.941  0.00  0.00    -0.057 A 
ATOM     12  C   LIG d   1       9.603   7.490  -6.040  0.00  0.00    -0.058 A 
ATOM     13  C   LIG d   1       9.769   8.852  -5.883  0.00  0.00    -0.019 A 
ATOM     14  C   LIG d   1       9.922   9.385  -4.611  0.00  0.00     0.131 A 
ATOM     15  C   LIG d   1       9.698   6.217  -2.498  0.00  0.00    -0.001 C 
ATOM     16  H   LIG d   1      11.796   8.134   2.059  0.00  0.00     0.065 H 
ATOM     17  H   LIG d   1      11.500   5.717   1.725  0.00  0.00     0.062 H 
ATOM     18  H   LIG d   1      10.547   4.854  -0.364  0.00  0.00     0.062 H 
ATOM     19  H   LIG d   1       9.454   5.589  -5.081  0.00  0.00     0.062 H 
ATOM     20  H   LIG d   1       9.487   7.077  -7.031  0.00  0.00     0.062 H 
ATOM     21  H   LIG d   1       9.779   9.500  -6.747  0.00  0.00     0.065 H 
ATOM     22  H   LIG d   1      10.248   5.314  -2.765  0.00  0.00     0.036 H 
ATOM     23  H   LIG d   1       8.660   5.947  -2.302  0.00  0.00     0.036 H 
ENDROOT
BRANCH   1  24
ATOM     24  O   LIG d   1      11.166   9.984   0.310  0.00  0.00    -0.494 OA
BRANCH  24  25
ATOM     25  C   LIG d   1      11.740  10.411   1.547  0.00  0.00     0.079 C 
ATOM     26  H   LIG d   1      11.033  10.231   2.357  0.00  0.00     0.066 H 
ATOM     27  H   LIG d   1      12.656   9.850   1.734  0.00  0.00     0.066 H 
ATOM     28  H   LIG d   1      11.969  11.475   1.494  0.00  0.00     0.066 H 
ENDBRANCH  24  25
ENDBRANCH   1  24
BRANCH  14  29
ATOM     29  O   LIG d   1      10.084  10.721  -4.446  0.00  0.00    -0.494 OA
BRANCH  29  30
ATOM     30  C   LIG d   1       9.493  11.573  -5.430  0.00  0.00     0.079 C 
ATOM     31  H   LIG d   1      10.245  11.847  -6.171  0.00  0.00     0.066 H 
ATOM     32  H   LIG d   1       8.674  11.047  -5.920  0.00  0.00     0.066 H 
ATOM     33  H   LIG d   1       9.112  12.473  -4.950  0.00  0.00     0.066 H 
ENDBRANCH  29  30
ENDBRANCH  14  29
TORSDOF 4
ENDMDL
MODEL 10
REMARK VINA RESULT:      -4.8      1.823      4.726
REMARK  4 active torsions:
REMARK  status: ('A' for Active; 'I' for Inactive)
REMARK    1  A    between atoms: C_1  and  O_2 
REMARK    2  A    between atoms: O_2  and  C_3 
REMARK    3  A    between atoms: C_16  and  O_17 
REMARK    4  A    between atoms: O_17  and  C_18 
ROOT
ATOM      1  C   LIG d   1       7.415  -3.256  -6.266  0.00  0.00     0.131 A 
ATOM      2  C   LIG d   1       8.419  -4.121  -5.855  0.00  0.00    -0.019 A 
ATOM      3  C   LIG d   1       8.805  -4.141  -4.529  0.00  0.00    -0.058 A 
ATOM      4  C   LIG d   1       8.205  -3.302  -3.607  0.00  0.00    -0.057 A 
ATOM      5  C   LIG d   1       7.205  -2.428  -3.995  0.00  0.00    -0.029 A 
ATOM      6  C   LIG d   1       6.805  -2.410  -5.331  0.00  0.00     0.067 A 
ATOM      7  C   LIG d   1       5.719  -1.502  -5.756  0.00  0.00     0.201 C 
ATOM      8  O   LIG d   1       5.548  -1.232  -6.929  0.00  0.00    -0.286 OA
ATOM      9  C   LIG d   1       4.848  -0.934  -4.707  0.00  0.00     0.067 A 
ATOM     10  C   LIG d   1       5.265  -0.959  -3.376  0.00  0.00    -0.029 A 
ATOM     11  C   LIG d   1       4.429  -0.443  -2.401  0.00  0.00    -0.057 A 
ATOM     12  C   LIG d   1       3.202   0.096  -2.740  0.00  0.00    -0.058 A 
ATOM     13  C   LIG d   1       2.786   0.130  -4.057  0.00  0.00    -0.019 A 
ATOM     14  C   LIG d   1       3.606  -0.384  -5.050  0.00  0.00     0.131 A 
ATOM     15  C   LIG d   1       6.591  -1.526  -2.968  0.00  0.00    -0.001 C 
ATOM     16  H   LIG d   1       8.893  -4.780  -6.567  0.00  0.00     0.065 H 
ATOM     17  H   LIG d   1       9.583  -4.818  -4.209  0.00  0.00     0.062 H 
ATOM     18  H   LIG d   1       8.519  -3.331  -2.574  0.00  0.00     0.062 H 
ATOM     19  H   LIG d   1       4.739  -0.461  -1.367  0.00  0.00     0.062 H 
ATOM     20  H   LIG d   1       2.560   0.495  -1.967  0.00  0.00     0.062 H 
ATOM     21  H   LIG d   1       1.827   0.556  -4.312  0.00  0.00     0.065 H 
ATOM     22  H   LIG d   1       6.460  -2.089  -2.044  0.00  0.00     0.036 H 
ATOM     23  H   LIG d   1       7.277  -0.700  -2.776  0.00  0.00     0.036 H 
ENDROOT
BRANCH   1  24
ATOM     24  O   LIG d   1       7.027  -3.229  -7.566  0.00  0.00    -0.494 OA
BRANCH  24  25
ATOM     25  C   LIG d   1       7.769  -4.040  -8.480  0.00  0.00     0.079 C 
ATOM     26  H   LIG d   1       8.746  -4.266  -8.055  0.00  0.00     0.066 H 
ATOM     27  H   LIG d   1       7.228  -4.968  -8.662  0.00  0.00     0.066 H 
ATOM     28  H   LIG d   1       7.896  -3.503  -9.420  0.00  0.00     0.066 H 
ENDBRANCH  24  25
ENDBRANCH   1  24
BRANCH  14  29
ATOM     29  O   LIG d   1       3.208  -0.355  -6.347  0.00  0.00    -0.494 OA
BRANCH  29  30
ATOM     30  C   LIG d   1       2.829   0.916  -6.879  0.00  0.00     0.079 C 
ATOM     31  H   LIG d   1       2.372   0.777  -7.860  0.00  0.00     0.066 H 
ATOM     32  H   LIG d   1       2.113   1.392  -6.209  0.00  0.00     0.066 H 
ATOM     33  H   LIG d   1       3.712   1.548  -6.977  0.00  0.00     0.066 H 
ENDBRANCH  29  30
ENDBRANCH  14  29
TORSDOF 4
ENDMDL
