MODEL 1
REMARK VINA RESULT:      -5.7      0.000      0.000
REMARK  11 active torsions:
REMARK  status: ('A' for Active; 'I' for Inactive)
REMARK    1  A    between atoms: C_1  and  O_2 
REMARK    2  A    between atoms: O_2  and  C_3 
REMARK    3  A    between atoms: C_3  and  C_4 
REMARK       I    between atoms: N_9  and  C_10 
REMARK    4  A    between atoms: C_10  and  C_12 
REMARK    5  A    between atoms: C_12  and  C_13 
REMARK    6  A    between atoms: C_15  and  O_29 
REMARK    7  A    between atoms: C_17  and  O_28 
REMARK    8  A    between atoms: C_19  and  C_22 
REMARK    9  A    between atoms: C_22  and  N_23 
REMARK   10  A    between atoms: N_23  and  S_24 
REMARK   11  A    between atoms: S_24  and  C_27 
ROOT
ATOM      1  C   LIG d   1       8.986   1.808  -3.668  0.00  0.00     0.096 C 
ATOM      2  H   LIG d   1       8.858   0.997  -2.951  0.00  0.00     0.063 H 
ATOM      3  C   LIG d   1      10.270   1.594  -4.499  0.00  0.00     0.110 C 
ATOM      4  H   LIG d   1      10.136   1.968  -5.514  0.00  0.00     0.065 H 
ATOM      5  C   LIG d   1      11.343   2.421  -3.753  0.00  0.00     0.111 C 
ATOM      6  H   LIG d   1      11.738   3.205  -4.400  0.00  0.00     0.065 H 
ATOM      7  C   LIG d   1      10.579   3.037  -2.560  0.00  0.00     0.102 C 
ATOM      8  H   LIG d   1      10.696   2.416  -1.672  0.00  0.00     0.064 H 
ATOM      9  O   LIG d   1       9.198   3.061  -2.980  0.00  0.00    -0.366 OA
ENDROOT
BRANCH   1  10
ATOM     10  C   LIG d   1       7.767   1.905  -4.586  0.00  0.00     0.053 C 
ATOM     11  H   LIG d   1       7.110   2.702  -4.236  0.00  0.00     0.038 H 
ATOM     12  H   LIG d   1       8.094   2.125  -5.603  0.00  0.00     0.038 H 
BRANCH  10  13
ATOM     13  C   LIG d   1       7.021   0.597  -4.572  0.00  0.00     0.218 C 
ATOM     14  N   LIG d   1       6.036   0.391  -3.675  0.00  0.00    -0.296 N 
ATOM     15  C   LIG d   1       5.227  -0.830  -3.554  0.00  0.00     0.049 C 
ATOM     16  C   LIG d   1       5.587   1.358  -2.656  0.00  0.00     0.015 C 
ATOM     17  H   LIG d   1       4.698  -1.018  -4.489  0.00  0.00     0.052 H 
ATOM     18  C   LIG d   1       4.215  -0.599  -2.413  0.00  0.00    -0.031 C 
ATOM     19  C   LIG d   1       4.128   0.949  -2.336  0.00  0.00    -0.035 C 
ATOM     20  H   LIG d   1       4.585  -1.011  -1.474  0.00  0.00     0.028 H 
ATOM     21  H   LIG d   1       3.245  -1.027  -2.665  0.00  0.00     0.028 H 
ATOM     22  H   LIG d   1       3.840   1.275  -1.337  0.00  0.00     0.028 H 
ATOM     23  H   LIG d   1       3.439   1.339  -3.086  0.00  0.00     0.028 H 
ATOM     24  H   LIG d   1       6.206   1.282  -1.763  0.00  0.00     0.046 H 
ATOM     25  H   LIG d   1       5.618   2.372  -3.056  0.00  0.00     0.046 H 
ATOM     26  O   LIG d   1       7.306  -0.273  -5.367  0.00  0.00    -0.276 OA
BRANCH  15  27
ATOM     27  C   LIG d   1       6.128  -2.019  -3.215  0.00  0.00     0.066 C 
ATOM     28  H   LIG d   1       7.163  -1.683  -3.151  0.00  0.00     0.058 H 
ATOM     29  H   LIG d   1       5.825  -2.445  -2.259  0.00  0.00     0.058 H 
BRANCH  27  30
ATOM     30  O   LIG d   1       6.012  -3.011  -4.237  0.00  0.00    -0.381 OA
BRANCH  30  31
ATOM     31  C   LIG d   1       4.852  -2.866  -5.059  0.00  0.00     0.036 C 
ATOM     32  H   LIG d   1       4.517  -1.829  -5.035  0.00  0.00     0.052 H 
ATOM     33  H   LIG d   1       5.097  -3.146  -6.084  0.00  0.00     0.052 H 
ATOM     34  H   LIG d   1       4.059  -3.512  -4.686  0.00  0.00     0.052 H 
ENDBRANCH  30  31
ENDBRANCH  27  30
ENDBRANCH  15  27
ENDBRANCH  10  13
ENDBRANCH   1  10
BRANCH   3  35
ATOM     35  O   LIG d   1      10.629   0.211  -4.519  0.00  0.00    -0.387 OA
ATOM     36  H   LIG d   1      10.179  -0.322  -3.849  0.00  0.00     0.210 HD
ENDBRANCH   3  35
BRANCH   7  37
ATOM     37  C   LIG d   1      11.077   4.457  -2.285  0.00  0.00     0.046 C 
ATOM     38  H   LIG d   1      12.005   4.629  -2.830  0.00  0.00     0.047 H 
ATOM     39  H   LIG d   1      10.325   5.175  -2.613  0.00  0.00     0.047 H 
BRANCH  37  40
ATOM     40  N   LIG d   1      11.317   4.621  -0.849  0.00  0.00    -0.192 N 
ATOM     41  H   LIG d   1      11.519   3.847  -0.300  0.00  0.00     0.148 HD
BRANCH  40  42
ATOM     42  S   LIG d   1      11.243   6.127  -0.164  0.00  0.00     0.027 S 
ATOM     43  O   LIG d   1       9.930   6.590  -0.449  0.00  0.00    -0.159 OA
ATOM     44  O   LIG d   1      11.670   5.936   1.178  0.00  0.00    -0.159 OA
BRANCH  42  45
ATOM     45  C   LIG d   1      12.464   7.113  -1.073  0.00  0.00     0.070 C 
ATOM     46  H   LIG d   1      13.459   6.700  -0.910  0.00  0.00     0.048 H 
ATOM     47  H   LIG d   1      12.231   7.090  -2.137  0.00  0.00     0.048 H 
ATOM     48  H   LIG d   1      12.436   8.144  -0.718  0.00  0.00     0.048 H 
ENDBRANCH  42  45
ENDBRANCH  40  42
ENDBRANCH  37  40
ENDBRANCH   7  37
BRANCH   5  49
ATOM     49  O   LIG d   1      12.396   1.573  -3.291  0.00  0.00    -0.387 OA
ATOM     50  H   LIG d   1      12.564   0.808  -3.858  0.00  0.00     0.210 HD
ENDBRANCH   5  49
TORSDOF 11
ENDMDL
MODEL 2
REMARK VINA RESULT:      -5.7      5.442      9.090
REMARK  11 active torsions:
REMARK  status: ('A' for Active; 'I' for Inactive)
REMARK    1  A    between atoms: C_1  and  O_2 
REMARK    2  A    between atoms: O_2  and  C_3 
REMARK    3  A    between atoms: C_3  and  C_4 
REMARK       I    between atoms: N_9  and  C_10 
REMARK    4  A    between atoms: C_10  and  C_12 
REMARK    5  A    between atoms: C_12  and  C_13 
REMARK    6  A    between atoms: C_15  and  O_29 
REMARK    7  A    between atoms: C_17  and  O_28 
REMARK    8  A    between atoms: C_19  and  C_22 
REMARK    9  A    between atoms: C_22  and  N_23 
REMARK   10  A    between atoms: N_23  and  S_24 
REMARK   11  A    between atoms: S_24  and  C_27 
ROOT
ATOM      1  C   LIG d   1       9.962   9.223  -2.342  0.00  0.00     0.096 C 
ATOM      2  H   LIG d   1       9.236   8.437  -2.549  0.00  0.00     0.063 H 
ATOM      3  C   LIG d   1       9.258  10.466  -1.757  0.00  0.00     0.110 C 
ATOM      4  H   LIG d   1       9.904  10.969  -1.037  0.00  0.00     0.065 H 
ATOM      5  C   LIG d   1       9.008  11.369  -2.986  0.00  0.00     0.111 C 
ATOM      6  H   LIG d   1       9.532  12.319  -2.875  0.00  0.00     0.065 H 
ATOM      7  C   LIG d   1       9.591  10.565  -4.168  0.00  0.00     0.102 C 
ATOM      8  H   LIG d   1       8.809   9.985  -4.657  0.00  0.00     0.064 H 
ATOM      9  O   LIG d   1      10.568   9.686  -3.569  0.00  0.00    -0.366 OA
ENDROOT
BRANCH   1  10
ATOM     10  C   LIG d   1      11.036   8.715  -1.378  0.00  0.00     0.053 C 
ATOM     11  H   LIG d   1      12.022   8.976  -1.762  0.00  0.00     0.038 H 
ATOM     12  H   LIG d   1      10.893   9.176  -0.400  0.00  0.00     0.038 H 
BRANCH  10  13
ATOM     13  C   LIG d   1      10.927   7.218  -1.247  0.00  0.00     0.218 C 
ATOM     14  N   LIG d   1      11.754   6.418  -1.949  0.00  0.00    -0.296 N 
ATOM     15  C   LIG d   1      11.761   4.948  -1.912  0.00  0.00     0.049 C 
ATOM     16  C   LIG d   1      12.806   6.872  -2.877  0.00  0.00     0.015 C 
ATOM     17  H   LIG d   1      11.954   4.604  -0.896  0.00  0.00     0.052 H 
ATOM     18  C   LIG d   1      12.887   4.471  -2.853  0.00  0.00    -0.031 C 
ATOM     19  C   LIG d   1      13.825   5.706  -2.924  0.00  0.00    -0.035 C 
ATOM     20  H   LIG d   1      12.493   4.229  -3.840  0.00  0.00     0.028 H 
ATOM     21  H   LIG d   1      13.410   3.615  -2.426  0.00  0.00     0.028 H 
ATOM     22  H   LIG d   1      14.388   5.716  -3.857  0.00  0.00     0.028 H 
ATOM     23  H   LIG d   1      14.495   5.738  -2.065  0.00  0.00     0.028 H 
ATOM     24  H   LIG d   1      12.388   7.050  -3.867  0.00  0.00     0.046 H 
ATOM     25  H   LIG d   1      13.282   7.777  -2.497  0.00  0.00     0.046 H 
ATOM     26  O   LIG d   1      10.096   6.732  -0.510  0.00  0.00    -0.276 OA
BRANCH  15  27
ATOM     27  C   LIG d   1      10.415   4.410  -2.401  0.00  0.00     0.066 C 
ATOM     28  H   LIG d   1       9.636   4.681  -1.688  0.00  0.00     0.058 H 
ATOM     29  H   LIG d   1      10.182   4.839  -3.375  0.00  0.00     0.058 H 
BRANCH  27  30
ATOM     30  O   LIG d   1      10.484   2.986  -2.511  0.00  0.00    -0.381 OA
BRANCH  30  31
ATOM     31  C   LIG d   1       9.635   2.440  -3.523  0.00  0.00     0.036 C 
ATOM     32  H   LIG d   1       8.837   3.148  -3.749  0.00  0.00     0.052 H 
ATOM     33  H   LIG d   1      10.220   2.251  -4.424  0.00  0.00     0.052 H 
ATOM     34  H   LIG d   1       9.201   1.506  -3.169  0.00  0.00     0.052 H 
ENDBRANCH  30  31
ENDBRANCH  27  30
ENDBRANCH  15  27
ENDBRANCH  10  13
ENDBRANCH   1  10
BRANCH   3  35
ATOM     35  O   LIG d   1       8.020  10.099  -1.145  0.00  0.00    -0.387 OA
ATOM     36  H   LIG d   1       7.312   9.905  -1.775  0.00  0.00     0.210 HD
ENDBRANCH   3  35
BRANCH   7  37
ATOM     37  C   LIG d   1      10.264  11.504  -5.171  0.00  0.00     0.046 C 
ATOM     38  H   LIG d   1      10.858  12.243  -4.635  0.00  0.00     0.047 H 
ATOM     39  H   LIG d   1      10.912  10.926  -5.831  0.00  0.00     0.047 H 
BRANCH  37  40
ATOM     40  N   LIG d   1       9.238  12.184  -5.966  0.00  0.00    -0.192 N 
ATOM     41  H   LIG d   1       8.316  11.889  -5.922  0.00  0.00     0.148 HD
BRANCH  40  42
ATOM     42  S   LIG d   1       9.655  13.457  -6.941  0.00  0.00     0.027 S 
ATOM     43  O   LIG d   1       9.095  13.142  -8.208  0.00  0.00    -0.159 OA
ATOM     44  O   LIG d   1       9.235  14.612  -6.228  0.00  0.00    -0.159 OA
BRANCH  42  45
ATOM     45  C   LIG d   1      11.466  13.403  -7.029  0.00  0.00     0.070 C 
ATOM     46  H   LIG d   1      11.862  12.967  -6.112  0.00  0.00     0.048 H 
ATOM     47  H   LIG d   1      11.771  12.794  -7.880  0.00  0.00     0.048 H 
ATOM     48  H   LIG d   1      11.855  14.414  -7.149  0.00  0.00     0.048 H 
ENDBRANCH  42  45
ENDBRANCH  40  42
ENDBRANCH  37  40
ENDBRANCH   7  37
BRANCH   5  49
ATOM     49  O   LIG d   1       7.607  11.587  -3.170  0.00  0.00    -0.387 OA
ATOM     50  H   LIG d   1       7.074  10.783  -3.121  0.00  0.00     0.210 HD
ENDBRANCH   5  49
TORSDOF 11
ENDMDL
MODEL 3
REMARK VINA RESULT:      -5.5      1.413      2.197
REMARK  11 active torsions:
REMARK  status: ('A' for Active; 'I' for Inactive)
REMARK    1  A    between atoms: C_1  and  O_2 
REMARK    2  A    between atoms: O_2  and  C_3 
REMARK    3  A    between atoms: C_3  and  C_4 
REMARK       I    between atoms: N_9  and  C_10 
REMARK    4  A    between atoms: C_10  and  C_12 
REMARK    5  A    between atoms: C_12  and  C_13 
REMARK    6  A    between atoms: C_15  and  O_29 
REMARK    7  A    between atoms: C_17  and  O_28 
REMARK    8  A    between atoms: C_19  and  C_22 
REMARK    9  A    between atoms: C_22  and  N_23 
REMARK   10  A    between atoms: N_23  and  S_24 
REMARK   11  A    between atoms: S_24  and  C_27 
ROOT
ATOM      1  C   LIG d   1       9.355   1.912  -3.579  0.00  0.00     0.096 C 
ATOM      2  H   LIG d   1       9.286   1.054  -2.910  0.00  0.00     0.063 H 
ATOM      3  C   LIG d   1      10.659   1.848  -4.403  0.00  0.00     0.110 C 
ATOM      4  H   LIG d   1      10.504   2.266  -5.398  0.00  0.00     0.065 H 
ATOM      5  C   LIG d   1      11.655   2.714  -3.598  0.00  0.00     0.111 C 
ATOM      6  H   LIG d   1      11.991   3.563  -4.195  0.00  0.00     0.065 H 
ATOM      7  C   LIG d   1      10.833   3.199  -2.384  0.00  0.00     0.102 C 
ATOM      8  H   LIG d   1      10.991   2.541  -1.530  0.00  0.00     0.064 H 
ATOM      9  O   LIG d   1       9.458   3.137  -2.820  0.00  0.00    -0.366 OA
ENDROOT
BRANCH   1  10
ATOM     10  C   LIG d   1       8.140   1.963  -4.507  0.00  0.00     0.053 C 
ATOM     11  H   LIG d   1       7.788   2.991  -4.590  0.00  0.00     0.038 H 
ATOM     12  H   LIG d   1       8.421   1.595  -5.494  0.00  0.00     0.038 H 
BRANCH  10  13
ATOM     13  C   LIG d   1       7.041   1.099  -3.944  0.00  0.00     0.218 C 
ATOM     14  N   LIG d   1       7.007  -0.218  -4.226  0.00  0.00    -0.296 N 
ATOM     15  C   LIG d   1       6.000  -1.173  -3.740  0.00  0.00     0.049 C 
ATOM     16  C   LIG d   1       7.978  -0.942  -5.065  0.00  0.00     0.015 C 
ATOM     17  H   LIG d   1       6.004  -1.194  -2.650  0.00  0.00     0.052 H 
ATOM     18  C   LIG d   1       6.379  -2.561  -4.296  0.00  0.00    -0.031 C 
ATOM     19  C   LIG d   1       7.896  -2.414  -4.589  0.00  0.00    -0.035 C 
ATOM     20  H   LIG d   1       5.829  -2.778  -5.212  0.00  0.00     0.028 H 
ATOM     21  H   LIG d   1       6.204  -3.337  -3.550  0.00  0.00     0.028 H 
ATOM     22  H   LIG d   1       8.210  -3.098  -5.377  0.00  0.00     0.028 H 
ATOM     23  H   LIG d   1       8.485  -2.566  -3.684  0.00  0.00     0.028 H 
ATOM     24  H   LIG d   1       7.701  -0.868  -6.116  0.00  0.00     0.046 H 
ATOM     25  H   LIG d   1       8.983  -0.548  -4.909  0.00  0.00     0.046 H 
ATOM     26  O   LIG d   1       6.186   1.590  -3.238  0.00  0.00    -0.276 OA
BRANCH  15  27
ATOM     27  C   LIG d   1       4.615  -0.771  -4.251  0.00  0.00     0.066 C 
ATOM     28  H   LIG d   1       4.634   0.270  -4.573  0.00  0.00     0.058 H 
ATOM     29  H   LIG d   1       4.338  -1.406  -5.092  0.00  0.00     0.058 H 
BRANCH  27  30
ATOM     30  O   LIG d   1       3.657  -0.927  -3.201  0.00  0.00    -0.381 OA
BRANCH  30  31
ATOM     31  C   LIG d   1       4.226  -0.932  -1.891  0.00  0.00     0.036 C 
ATOM     32  H   LIG d   1       3.494  -1.314  -1.179  0.00  0.00     0.052 H 
ATOM     33  H   LIG d   1       5.110  -1.570  -1.881  0.00  0.00     0.052 H 
ATOM     34  H   LIG d   1       4.507   0.083  -1.612  0.00  0.00     0.052 H 
ENDBRANCH  30  31
ENDBRANCH  27  30
ENDBRANCH  15  27
ENDBRANCH  10  13
ENDBRANCH   1  10
BRANCH   3  35
ATOM     35  O   LIG d   1      11.128   0.502  -4.495  0.00  0.00    -0.387 OA
ATOM     36  H   LIG d   1      11.481   0.266  -5.364  0.00  0.00     0.210 HD
ENDBRANCH   3  35
BRANCH   7  37
ATOM     37  C   LIG d   1      11.213   4.637  -2.024  0.00  0.00     0.046 C 
ATOM     38  H   LIG d   1      12.073   4.946  -2.618  0.00  0.00     0.047 H 
ATOM     39  H   LIG d   1      10.371   5.298  -2.233  0.00  0.00     0.047 H 
BRANCH  37  40
ATOM     40  N   LIG d   1      11.551   4.711  -0.600  0.00  0.00    -0.192 N 
ATOM     41  H   LIG d   1      11.888   3.927  -0.140  0.00  0.00     0.148 HD
BRANCH  40  42
ATOM     42  S   LIG d   1      11.359   6.135   0.223  0.00  0.00     0.027 S 
ATOM     43  O   LIG d   1      10.688   5.772   1.423  0.00  0.00    -0.159 OA
ATOM     44  O   LIG d   1      12.658   6.709   0.264  0.00  0.00    -0.159 OA
BRANCH  42  45
ATOM     45  C   LIG d   1      10.267   7.135  -0.824  0.00  0.00     0.070 C 
ATOM     46  H   LIG d   1      10.377   6.828  -1.863  0.00  0.00     0.048 H 
ATOM     47  H   LIG d   1       9.232   6.993  -0.511  0.00  0.00     0.048 H 
ATOM     48  H   LIG d   1      10.533   8.188  -0.725  0.00  0.00     0.048 H 
ENDBRANCH  42  45
ENDBRANCH  40  42
ENDBRANCH  37  40
ENDBRANCH   7  37
BRANCH   5  49
ATOM     49  O   LIG d   1      12.768   1.929  -3.170  0.00  0.00    -0.387 OA
ATOM     50  H   LIG d   1      13.377   1.686  -3.881  0.00  0.00     0.210 HD
ENDBRANCH   5  49
TORSDOF 11
ENDMDL
MODEL 4
REMARK VINA RESULT:      -5.5      4.748      6.741
REMARK  11 active torsions:
REMARK  status: ('A' for Active; 'I' for Inactive)
REMARK    1  A    between atoms: C_1  and  O_2 
REMARK    2  A    between atoms: O_2  and  C_3 
REMARK    3  A    between atoms: C_3  and  C_4 
REMARK       I    between atoms: N_9  and  C_10 
REMARK    4  A    between atoms: C_10  and  C_12 
REMARK    5  A    between atoms: C_12  and  C_13 
REMARK    6  A    between atoms: C_15  and  O_29 
REMARK    7  A    between atoms: C_17  and  O_28 
REMARK    8  A    between atoms: C_19  and  C_22 
REMARK    9  A    between atoms: C_22  and  N_23 
REMARK   10  A    between atoms: N_23  and  S_24 
REMARK   11  A    between atoms: S_24  and  C_27 
ROOT
ATOM      1  C   LIG d   1       7.873   0.897  -5.140  0.00  0.00     0.096 C 
ATOM      2  H   LIG d   1       8.054   1.933  -4.855  0.00  0.00     0.063 H 
ATOM      3  C   LIG d   1       9.123   0.302  -5.826  0.00  0.00     0.110 C 
ATOM      4  H   LIG d   1       9.220  -0.758  -5.590  0.00  0.00     0.065 H 
ATOM      5  C   LIG d   1       8.853   0.500  -7.335  0.00  0.00     0.111 C 
ATOM      6  H   LIG d   1       8.815  -0.463  -7.845  0.00  0.00     0.065 H 
ATOM      7  C   LIG d   1       7.472   1.191  -7.382  0.00  0.00     0.102 C 
ATOM      8  H   LIG d   1       7.590   2.273  -7.442  0.00  0.00     0.064 H 
ATOM      9  O   LIG d   1       6.833   0.823  -6.141  0.00  0.00    -0.366 OA
ENDROOT
BRANCH   1  10
ATOM     10  C   LIG d   1       7.492   0.066  -3.914  0.00  0.00     0.053 C 
ATOM     11  H   LIG d   1       7.393  -0.981  -4.200  0.00  0.00     0.038 H 
ATOM     12  H   LIG d   1       8.267   0.163  -3.154  0.00  0.00     0.038 H 
BRANCH  10  13
ATOM     13  C   LIG d   1       6.181   0.560  -3.360  0.00  0.00     0.218 C 
ATOM     14  N   LIG d   1       5.157  -0.298  -3.183  0.00  0.00    -0.296 N 
ATOM     15  C   LIG d   1       3.831   0.047  -2.648  0.00  0.00     0.049 C 
ATOM     16  C   LIG d   1       5.182  -1.740  -3.487  0.00  0.00     0.015 C 
ATOM     17  H   LIG d   1       3.933   0.458  -1.643  0.00  0.00     0.052 H 
ATOM     18  C   LIG d   1       3.002  -1.253  -2.604  0.00  0.00    -0.031 C 
ATOM     19  C   LIG d   1       4.092  -2.358  -2.577  0.00  0.00    -0.035 C 
ATOM     20  H   LIG d   1       2.379  -1.347  -3.494  0.00  0.00     0.028 H 
ATOM     21  H   LIG d   1       2.392  -1.291  -1.702  0.00  0.00     0.028 H 
ATOM     22  H   LIG d   1       3.713  -3.290  -2.997  0.00  0.00     0.028 H 
ATOM     23  H   LIG d   1       4.467  -2.511  -1.565  0.00  0.00     0.028 H 
ATOM     24  H   LIG d   1       4.941  -1.911  -4.536  0.00  0.00     0.046 H 
ATOM     25  H   LIG d   1       6.159  -2.161  -3.248  0.00  0.00     0.046 H 
ATOM     26  O   LIG d   1       6.046   1.731  -3.073  0.00  0.00    -0.276 OA
BRANCH  15  27
ATOM     27  C   LIG d   1       3.151   1.066  -3.564  0.00  0.00     0.066 C 
ATOM     28  H   LIG d   1       2.561   1.758  -2.962  0.00  0.00     0.058 H 
ATOM     29  H   LIG d   1       3.907   1.621  -4.118  0.00  0.00     0.058 H 
BRANCH  27  30
ATOM     30  O   LIG d   1       2.293   0.384  -4.481  0.00  0.00    -0.381 OA
BRANCH  30  31
ATOM     31  C   LIG d   1       2.797   0.326  -5.816  0.00  0.00     0.036 C 
ATOM     32  H   LIG d   1       2.850   1.334  -6.228  0.00  0.00     0.052 H 
ATOM     33  H   LIG d   1       3.793  -0.117  -5.809  0.00  0.00     0.052 H 
ATOM     34  H   LIG d   1       2.134  -0.282  -6.430  0.00  0.00     0.052 H 
ENDBRANCH  30  31
ENDBRANCH  27  30
ENDBRANCH  15  27
ENDBRANCH  10  13
ENDBRANCH   1  10
BRANCH   3  35
ATOM     35  O   LIG d   1      10.297   1.012  -5.430  0.00  0.00    -0.387 OA
ATOM     36  H   LIG d   1      10.259   1.365  -4.531  0.00  0.00     0.210 HD
ENDBRANCH   3  35
BRANCH   7  37
ATOM     37  C   LIG d   1       6.660   0.677  -8.572  0.00  0.00     0.046 C 
ATOM     38  H   LIG d   1       7.336   0.302  -9.340  0.00  0.00     0.047 H 
ATOM     39  H   LIG d   1       6.003  -0.129  -8.243  0.00  0.00     0.047 H 
BRANCH  37  40
ATOM     40  N   LIG d   1       5.855   1.770  -9.122  0.00  0.00    -0.192 N 
ATOM     41  H   LIG d   1       6.263   2.632  -9.300  0.00  0.00     0.148 HD
BRANCH  40  42
ATOM     42  S   LIG d   1       4.246   1.535  -9.439  0.00  0.00     0.027 S 
ATOM     43  O   LIG d   1       3.567   2.302  -8.455  0.00  0.00    -0.159 OA
ATOM     44  O   LIG d   1       4.102   1.836 -10.821  0.00  0.00    -0.159 OA
BRANCH  42  45
ATOM     45  C   LIG d   1       3.968  -0.234  -9.154  0.00  0.00     0.070 C 
ATOM     46  H   LIG d   1       3.577  -0.383  -8.148  0.00  0.00     0.048 H 
ATOM     47  H   LIG d   1       3.250  -0.611  -9.882  0.00  0.00     0.048 H 
ATOM     48  H   LIG d   1       4.911  -0.772  -9.261  0.00  0.00     0.048 H 
ENDBRANCH  42  45
ENDBRANCH  40  42
ENDBRANCH  37  40
ENDBRANCH   7  37
BRANCH   5  49
ATOM     49  O   LIG d   1       9.854   1.338  -7.916  0.00  0.00    -0.387 OA
ATOM     50  H   LIG d   1       9.530   2.206  -8.190  0.00  0.00     0.210 HD
ENDBRANCH   5  49
TORSDOF 11
ENDMDL
MODEL 5
REMARK VINA RESULT:      -5.4      4.452      6.994
REMARK  11 active torsions:
REMARK  status: ('A' for Active; 'I' for Inactive)
REMARK    1  A    between atoms: C_1  and  O_2 
REMARK    2  A    between atoms: O_2  and  C_3 
REMARK    3  A    between atoms: C_3  and  C_4 
REMARK       I    between atoms: N_9  and  C_10 
REMARK    4  A    between atoms: C_10  and  C_12 
REMARK    5  A    between atoms: C_12  and  C_13 
REMARK    6  A    between atoms: C_15  and  O_29 
REMARK    7  A    between atoms: C_17  and  O_28 
REMARK    8  A    between atoms: C_19  and  C_22 
REMARK    9  A    between atoms: C_22  and  N_23 
REMARK   10  A    between atoms: N_23  and  S_24 
REMARK   11  A    between atoms: S_24  and  C_27 
ROOT
ATOM      1  C   LIG d   1       3.722   0.028  -7.704  0.00  0.00     0.096 C 
ATOM      2  H   LIG d   1       3.703  -0.927  -8.230  0.00  0.00     0.063 H 
ATOM      3  C   LIG d   1       3.021   1.119  -8.542  0.00  0.00     0.110 C 
ATOM      4  H   LIG d   1       2.515   1.833  -7.893  0.00  0.00     0.065 H 
ATOM      5  C   LIG d   1       4.175   1.804  -9.309  0.00  0.00     0.111 C 
ATOM      6  H   LIG d   1       4.240   2.858  -9.037  0.00  0.00     0.065 H 
ATOM      7  C   LIG d   1       5.437   1.046  -8.843  0.00  0.00     0.102 C 
ATOM      8  H   LIG d   1       5.682   0.248  -9.543  0.00  0.00     0.064 H 
ATOM      9  O   LIG d   1       5.082   0.494  -7.556  0.00  0.00    -0.366 OA
ENDROOT
BRANCH   1  10
ATOM     10  C   LIG d   1       3.054  -0.105  -6.335  0.00  0.00     0.053 C 
ATOM     11  H   LIG d   1       2.655   0.862  -6.029  0.00  0.00     0.038 H 
ATOM     12  H   LIG d   1       2.242  -0.830  -6.395  0.00  0.00     0.038 H 
BRANCH  10  13
ATOM     13  C   LIG d   1       4.069  -0.572  -5.323  0.00  0.00     0.218 C 
ATOM     14  N   LIG d   1       4.212   0.088  -4.157  0.00  0.00    -0.296 N 
ATOM     15  C   LIG d   1       5.154  -0.261  -3.084  0.00  0.00     0.049 C 
ATOM     16  C   LIG d   1       3.443   1.277  -3.743  0.00  0.00     0.015 C 
ATOM     17  H   LIG d   1       4.951  -1.271  -2.726  0.00  0.00     0.052 H 
ATOM     18  C   LIG d   1       4.944   0.755  -1.941  0.00  0.00    -0.031 C 
ATOM     19  C   LIG d   1       3.502   1.268  -2.195  0.00  0.00    -0.035 C 
ATOM     20  H   LIG d   1       5.662   1.573  -2.011  0.00  0.00     0.028 H 
ATOM     21  H   LIG d   1       5.013   0.264  -0.971  0.00  0.00     0.028 H 
ATOM     22  H   LIG d   1       3.369   2.273  -1.793  0.00  0.00     0.028 H 
ATOM     23  H   LIG d   1       2.764   0.582  -1.780  0.00  0.00     0.028 H 
ATOM     24  H   LIG d   1       3.905   2.182  -4.134  0.00  0.00     0.046 H 
ATOM     25  H   LIG d   1       2.411   1.198  -4.084  0.00  0.00     0.046 H 
ATOM     26  O   LIG d   1       4.757  -1.542  -5.558  0.00  0.00    -0.276 OA
BRANCH  15  27
ATOM     27  C   LIG d   1       6.590  -0.168  -3.603  0.00  0.00     0.066 C 
ATOM     28  H   LIG d   1       7.284  -0.239  -2.765  0.00  0.00     0.058 H 
ATOM     29  H   LIG d   1       6.778  -0.983  -4.301  0.00  0.00     0.058 H 
BRANCH  27  30
ATOM     30  O   LIG d   1       6.776   1.082  -4.269  0.00  0.00    -0.381 OA
BRANCH  30  31
ATOM     31  C   LIG d   1       7.941   1.796  -3.852  0.00  0.00     0.036 C 
ATOM     32  H   LIG d   1       7.848   2.058  -2.798  0.00  0.00     0.052 H 
ATOM     33  H   LIG d   1       8.821   1.170  -3.996  0.00  0.00     0.052 H 
ATOM     34  H   LIG d   1       8.041   2.705  -4.444  0.00  0.00     0.052 H 
ENDBRANCH  30  31
ENDBRANCH  27  30
ENDBRANCH  15  27
ENDBRANCH  10  13
ENDBRANCH   1  10
BRANCH   3  35
ATOM     35  O   LIG d   1       2.093   0.530  -9.455  0.00  0.00    -0.387 OA
ATOM     36  H   LIG d   1       2.031   0.989 -10.304  0.00  0.00     0.210 HD
ENDBRANCH   3  35
BRANCH   7  37
ATOM     37  C   LIG d   1       6.616   2.010  -8.701  0.00  0.00     0.046 C 
ATOM     38  H   LIG d   1       7.268   1.919  -9.570  0.00  0.00     0.047 H 
ATOM     39  H   LIG d   1       6.242   3.033  -8.634  0.00  0.00     0.047 H 
BRANCH  37  40
ATOM     40  N   LIG d   1       7.370   1.685  -7.488  0.00  0.00    -0.192 N 
ATOM     41  H   LIG d   1       7.068   2.012  -6.627  0.00  0.00     0.148 HD
BRANCH  40  42
ATOM     42  S   LIG d   1       8.740   0.759  -7.588  0.00  0.00     0.027 S 
ATOM     43  O   LIG d   1       8.491  -0.350  -6.735  0.00  0.00    -0.159 OA
ATOM     44  O   LIG d   1       8.948   0.570  -8.981  0.00  0.00    -0.159 OA
BRANCH  42  45
ATOM     45  C   LIG d   1      10.056   1.797  -6.896  0.00  0.00     0.070 C 
ATOM     46  H   LIG d   1      10.933   1.184  -6.689  0.00  0.00     0.048 H 
ATOM     47  H   LIG d   1      10.319   2.576  -7.611  0.00  0.00     0.048 H 
ATOM     48  H   LIG d   1       9.707   2.257  -5.970  0.00  0.00     0.048 H 
ENDBRANCH  42  45
ENDBRANCH  40  42
ENDBRANCH  37  40
ENDBRANCH   7  37
BRANCH   5  49
ATOM     49  O   LIG d   1       3.994   1.659 -10.719  0.00  0.00    -0.387 OA
ATOM     50  H   LIG d   1       4.577   1.004 -11.125  0.00  0.00     0.210 HD
ENDBRANCH   5  49
TORSDOF 11
ENDMDL
MODEL 6
REMARK VINA RESULT:      -5.3      4.454      8.578
REMARK  11 active torsions:
REMARK  status: ('A' for Active; 'I' for Inactive)
REMARK    1  A    between atoms: C_1  and  O_2 
REMARK    2  A    between atoms: O_2  and  C_3 
REMARK    3  A    between atoms: C_3  and  C_4 
REMARK       I    between atoms: N_9  and  C_10 
REMARK    4  A    between atoms: C_10  and  C_12 
REMARK    5  A    between atoms: C_12  and  C_13 
REMARK    6  A    between atoms: C_15  and  O_29 
REMARK    7  A    between atoms: C_17  and  O_28 
REMARK    8  A    between atoms: C_19  and  C_22 
REMARK    9  A    between atoms: C_22  and  N_23 
REMARK   10  A    between atoms: N_23  and  S_24 
REMARK   11  A    between atoms: S_24  and  C_27 
ROOT
ATOM      1  C   LIG d   1       5.016  -3.437  -5.658  0.00  0.00     0.096 C 
ATOM      2  H   LIG d   1       6.095  -3.523  -5.782  0.00  0.00     0.063 H 
ATOM      3  C   LIG d   1       4.314  -4.723  -6.147  0.00  0.00     0.110 C 
ATOM      4  H   LIG d   1       3.428  -4.927  -5.545  0.00  0.00     0.065 H 
ATOM      5  C   LIG d   1       3.918  -4.404  -7.606  0.00  0.00     0.111 C 
ATOM      6  H   LIG d   1       2.835  -4.448  -7.726  0.00  0.00     0.065 H 
ATOM      7  C   LIG d   1       4.428  -2.962  -7.827  0.00  0.00     0.102 C 
ATOM      8  H   LIG d   1       5.416  -2.974  -8.285  0.00  0.00     0.064 H 
ATOM      9  O   LIG d   1       4.493  -2.388  -6.503  0.00  0.00    -0.366 OA
ENDROOT
BRANCH   1  10
ATOM     10  C   LIG d   1       4.668  -3.163  -4.194  0.00  0.00     0.053 C 
ATOM     11  H   LIG d   1       3.631  -2.833  -4.122  0.00  0.00     0.038 H 
ATOM     12  H   LIG d   1       4.800  -4.076  -3.613  0.00  0.00     0.038 H 
BRANCH  10  13
ATOM     13  C   LIG d   1       5.576  -2.089  -3.654  0.00  0.00     0.218 C 
ATOM     14  N   LIG d   1       5.075  -0.877  -3.340  0.00  0.00    -0.296 N 
ATOM     15  C   LIG d   1       5.843   0.254  -2.801  0.00  0.00     0.049 C 
ATOM     16  C   LIG d   1       3.665  -0.470  -3.474  0.00  0.00     0.015 C 
ATOM     17  H   LIG d   1       6.307  -0.029  -1.856  0.00  0.00     0.052 H 
ATOM     18  C   LIG d   1       4.852   1.415  -2.575  0.00  0.00    -0.031 C 
ATOM     19  C   LIG d   1       3.487   0.686  -2.459  0.00  0.00    -0.035 C 
ATOM     20  H   LIG d   1       4.853   2.099  -3.424  0.00  0.00     0.028 H 
ATOM     21  H   LIG d   1       5.085   1.947  -1.653  0.00  0.00     0.028 H 
ATOM     22  H   LIG d   1       2.668   1.342  -2.752  0.00  0.00     0.028 H 
ATOM     23  H   LIG d   1       3.335   0.300  -1.450  0.00  0.00     0.028 H 
ATOM     24  H   LIG d   1       3.466  -0.119  -4.486  0.00  0.00     0.046 H 
ATOM     25  H   LIG d   1       3.004  -1.301  -3.223  0.00  0.00     0.046 H 
ATOM     26  O   LIG d   1       6.758  -2.314  -3.502  0.00  0.00    -0.276 OA
BRANCH  15  27
ATOM     27  C   LIG d   1       6.917   0.678  -3.805  0.00  0.00     0.066 C 
ATOM     28  H   LIG d   1       7.726  -0.053  -3.802  0.00  0.00     0.058 H 
ATOM     29  H   LIG d   1       6.482   0.735  -4.802  0.00  0.00     0.058 H 
BRANCH  27  30
ATOM     30  O   LIG d   1       7.434   1.959  -3.437  0.00  0.00    -0.381 OA
BRANCH  30  31
ATOM     31  C   LIG d   1       8.792   2.172  -3.827  0.00  0.00     0.036 C 
ATOM     32  H   LIG d   1       8.819   2.789  -4.726  0.00  0.00     0.052 H 
ATOM     33  H   LIG d   1       9.325   2.679  -3.022  0.00  0.00     0.052 H 
ATOM     34  H   LIG d   1       9.267   1.214  -4.030  0.00  0.00     0.052 H 
ENDBRANCH  30  31
ENDBRANCH  27  30
ENDBRANCH  15  27
ENDBRANCH  10  13
ENDBRANCH   1  10
BRANCH   3  35
ATOM     35  O   LIG d   1       5.213  -5.832  -6.103  0.00  0.00    -0.387 OA
ATOM     36  H   LIG d   1       6.133  -5.586  -5.932  0.00  0.00     0.210 HD
ENDBRANCH   3  35
BRANCH   7  37
ATOM     37  C   LIG d   1       3.446  -2.178  -8.700  0.00  0.00     0.046 C 
ATOM     38  H   LIG d   1       3.096  -2.813  -9.514  0.00  0.00     0.047 H 
ATOM     39  H   LIG d   1       2.596  -1.861  -8.095  0.00  0.00     0.047 H 
BRANCH  37  40
ATOM     40  N   LIG d   1       4.119  -1.000  -9.253  0.00  0.00    -0.192 N 
ATOM     41  H   LIG d   1       4.958  -1.100  -9.728  0.00  0.00     0.148 HD
BRANCH  40  42
ATOM     42  S   LIG d   1       3.445   0.501  -9.067  0.00  0.00     0.027 S 
ATOM     43  O   LIG d   1       2.043   0.271  -9.058  0.00  0.00    -0.159 OA
ATOM     44  O   LIG d   1       4.098   1.052  -7.931  0.00  0.00    -0.159 OA
BRANCH  42  45
ATOM     45  C   LIG d   1       3.918   1.413 -10.562  0.00  0.00     0.070 C 
ATOM     46  H   LIG d   1       4.053   0.714 -11.387  0.00  0.00     0.048 H 
ATOM     47  H   LIG d   1       3.135   2.127 -10.815  0.00  0.00     0.048 H 
ATOM     48  H   LIG d   1       4.852   1.948 -10.382  0.00  0.00     0.048 H 
ENDBRANCH  42  45
ENDBRANCH  40  42
ENDBRANCH  37  40
ENDBRANCH   7  37
BRANCH   5  49
ATOM     49  O   LIG d   1       4.561  -5.307  -8.508  0.00  0.00    -0.387 OA
ATOM     50  H   LIG d   1       5.482  -5.083  -8.699  0.00  0.00     0.210 HD
ENDBRANCH   5  49
TORSDOF 11
ENDMDL
MODEL 7
REMARK VINA RESULT:      -5.1      4.237      6.580
REMARK  11 active torsions:
REMARK  status: ('A' for Active; 'I' for Inactive)
REMARK    1  A    between atoms: C_1  and  O_2 
REMARK    2  A    between atoms: O_2  and  C_3 
REMARK    3  A    between atoms: C_3  and  C_4 
REMARK       I    between atoms: N_9  and  C_10 
REMARK    4  A    between atoms: C_10  and  C_12 
REMARK    5  A    between atoms: C_12  and  C_13 
REMARK    6  A    between atoms: C_15  and  O_29 
REMARK    7  A    between atoms: C_17  and  O_28 
REMARK    8  A    between atoms: C_19  and  C_22 
REMARK    9  A    between atoms: C_22  and  N_23 
REMARK   10  A    between atoms: N_23  and  S_24 
REMARK   11  A    between atoms: S_24  and  C_27 
ROOT
ATOM      1  C   LIG d   1       4.435  -0.621  -5.445  0.00  0.00     0.096 C 
ATOM      2  H   LIG d   1       3.730   0.205  -5.545  0.00  0.00     0.063 H 
ATOM      3  C   LIG d   1       4.048  -1.518  -4.249  0.00  0.00     0.110 C 
ATOM      4  H   LIG d   1       4.296  -2.559  -4.456  0.00  0.00     0.065 H 
ATOM      5  C   LIG d   1       4.903  -0.977  -3.081  0.00  0.00     0.111 C 
ATOM      6  H   LIG d   1       5.576  -1.751  -2.711  0.00  0.00     0.065 H 
ATOM      7  C   LIG d   1       5.707   0.183  -3.710  0.00  0.00     0.102 C 
ATOM      8  H   LIG d   1       5.199   1.132  -3.543  0.00  0.00     0.064 H 
ATOM      9  O   LIG d   1       5.752  -0.123  -5.121  0.00  0.00    -0.366 OA
ENDROOT
BRANCH   1  10
ATOM     10  C   LIG d   1       4.480  -1.441  -6.735  0.00  0.00     0.053 C 
ATOM     11  H   LIG d   1       5.086  -2.334  -6.577  0.00  0.00     0.038 H 
ATOM     12  H   LIG d   1       3.468  -1.734  -7.014  0.00  0.00     0.038 H 
BRANCH  10  13
ATOM     13  C   LIG d   1       5.085  -0.612  -7.838  0.00  0.00     0.218 C 
ATOM     14  N   LIG d   1       4.365   0.369  -8.417  0.00  0.00    -0.296 N 
ATOM     15  C   LIG d   1       4.831   1.254  -9.495  0.00  0.00     0.049 C 
ATOM     16  C   LIG d   1       2.980   0.737  -8.070  0.00  0.00     0.015 C 
ATOM     17  H   LIG d   1       5.709   1.809  -9.164  0.00  0.00     0.052 H 
ATOM     18  C   LIG d   1       3.680   2.229  -9.817  0.00  0.00    -0.031 C 
ATOM     19  C   LIG d   1       2.838   2.214  -8.514  0.00  0.00    -0.035 C 
ATOM     20  H   LIG d   1       3.091   1.870 -10.661  0.00  0.00     0.028 H 
ATOM     21  H   LIG d   1       4.066   3.229 -10.015  0.00  0.00     0.028 H 
ATOM     22  H   LIG d   1       1.797   2.463  -8.719  0.00  0.00     0.028 H 
ATOM     23  H   LIG d   1       3.260   2.889  -7.768  0.00  0.00     0.028 H 
ATOM     24  H   LIG d   1       2.273   0.110  -8.612  0.00  0.00     0.046 H 
ATOM     25  H   LIG d   1       2.822   0.647  -6.995  0.00  0.00     0.046 H 
ATOM     26  O   LIG d   1       6.221  -0.827  -8.205  0.00  0.00    -0.276 OA
BRANCH  15  27
ATOM     27  C   LIG d   1       5.172   0.426 -10.735  0.00  0.00     0.066 C 
ATOM     28  H   LIG d   1       6.114   0.777 -11.158  0.00  0.00     0.058 H 
ATOM     29  H   LIG d   1       5.267  -0.624 -10.458  0.00  0.00     0.058 H 
BRANCH  27  30
ATOM     30  O   LIG d   1       4.133   0.570 -11.705  0.00  0.00    -0.381 OA
BRANCH  30  31
ATOM     31  C   LIG d   1       3.488  -0.656 -12.053  0.00  0.00     0.036 C 
ATOM     32  H   LIG d   1       2.664  -0.451 -12.738  0.00  0.00     0.052 H 
ATOM     33  H   LIG d   1       4.206  -1.319 -12.536  0.00  0.00     0.052 H 
ATOM     34  H   LIG d   1       3.101  -1.132 -11.153  0.00  0.00     0.052 H 
ENDBRANCH  30  31
ENDBRANCH  27  30
ENDBRANCH  15  27
ENDBRANCH  10  13
ENDBRANCH   1  10
BRANCH   3  35
ATOM     35  O   LIG d   1       2.656  -1.385  -3.954  0.00  0.00    -0.387 OA
ATOM     36  H   LIG d   1       2.110  -2.103  -4.302  0.00  0.00     0.210 HD
ENDBRANCH   3  35
BRANCH   7  37
ATOM     37  C   LIG d   1       7.121   0.227  -3.129  0.00  0.00     0.046 C 
ATOM     38  H   LIG d   1       7.208   1.071  -2.446  0.00  0.00     0.047 H 
ATOM     39  H   LIG d   1       7.321  -0.699  -2.588  0.00  0.00     0.047 H 
BRANCH  37  40
ATOM     40  N   LIG d   1       8.091   0.376  -4.217  0.00  0.00    -0.192 N 
ATOM     41  H   LIG d   1       8.335  -0.391  -4.758  0.00  0.00     0.148 HD
BRANCH  40  42
ATOM     42  S   LIG d   1       8.772   1.855  -4.522  0.00  0.00     0.027 S 
ATOM     43  O   LIG d   1       8.100   2.330  -5.680  0.00  0.00    -0.159 OA
ATOM     44  O   LIG d   1       8.680   2.557  -3.290  0.00  0.00    -0.159 OA
BRANCH  42  45
ATOM     45  C   LIG d   1      10.508   1.498  -4.909  0.00  0.00     0.070 C 
ATOM     46  H   LIG d   1      11.152   2.171  -4.345  0.00  0.00     0.048 H 
ATOM     47  H   LIG d   1      10.736   0.467  -4.640  0.00  0.00     0.048 H 
ATOM     48  H   LIG d   1      10.678   1.640  -5.977  0.00  0.00     0.048 H 
ENDBRANCH  42  45
ENDBRANCH  40  42
ENDBRANCH  37  40
ENDBRANCH   7  37
BRANCH   5  49
ATOM     49  O   LIG d   1       4.066  -0.495  -2.029  0.00  0.00    -0.387 OA
ATOM     50  H   LIG d   1       3.512  -1.175  -1.623  0.00  0.00     0.210 HD
ENDBRANCH   5  49
TORSDOF 11
ENDMDL
MODEL 8
REMARK VINA RESULT:      -5.1      7.377      9.492
REMARK  11 active torsions:
REMARK  status: ('A' for Active; 'I' for Inactive)
REMARK    1  A    between atoms: C_1  and  O_2 
REMARK    2  A    between atoms: O_2  and  C_3 
REMARK    3  A    between atoms: C_3  and  C_4 
REMARK       I    between atoms: N_9  and  C_10 
REMARK    4  A    between atoms: C_10  and  C_12 
REMARK    5  A    between atoms: C_12  and  C_13 
REMARK    6  A    between atoms: C_15  and  O_29 
REMARK    7  A    between atoms: C_17  and  O_28 
REMARK    8  A    between atoms: C_19  and  C_22 
REMARK    9  A    between atoms: C_22  and  N_23 
REMARK   10  A    between atoms: N_23  and  S_24 
REMARK   11  A    between atoms: S_24  and  C_27 
ROOT
ATOM      1  C   LIG d   1      10.401   9.622  -2.600  0.00  0.00     0.096 C 
ATOM      2  H   LIG d   1      10.640  10.609  -2.995  0.00  0.00     0.063 H 
ATOM      3  C   LIG d   1       9.204   9.706  -1.629  0.00  0.00     0.110 C 
ATOM      4  H   LIG d   1       8.597   8.802  -1.690  0.00  0.00     0.065 H 
ATOM      5  C   LIG d   1       9.859   9.827  -0.234  0.00  0.00     0.111 C 
ATOM      6  H   LIG d   1       9.578   8.981   0.394  0.00  0.00     0.065 H 
ATOM      7  C   LIG d   1      11.375   9.802  -0.528  0.00  0.00     0.102 C 
ATOM      8  H   LIG d   1      11.765  10.816  -0.604  0.00  0.00     0.064 H 
ATOM      9  O   LIG d   1      11.493   9.121  -1.797  0.00  0.00    -0.366 OA
ENDROOT
BRANCH   1  10
ATOM     10  C   LIG d   1      10.094   8.652  -3.742  0.00  0.00     0.053 C 
ATOM     11  H   LIG d   1      10.963   8.020  -3.926  0.00  0.00     0.038 H 
ATOM     12  H   LIG d   1       9.242   8.029  -3.470  0.00  0.00     0.038 H 
BRANCH  10  13
ATOM     13  C   LIG d   1       9.768   9.431  -4.990  0.00  0.00     0.218 C 
ATOM     14  N   LIG d   1       9.882   8.848  -6.199  0.00  0.00    -0.296 N 
ATOM     15  C   LIG d   1       9.592   9.487  -7.491  0.00  0.00     0.049 C 
ATOM     16  C   LIG d   1      10.314   7.460  -6.445  0.00  0.00     0.015 C 
ATOM     17  H   LIG d   1       8.552   9.814  -7.517  0.00  0.00     0.052 H 
ATOM     18  C   LIG d   1       9.840   8.434  -8.590  0.00  0.00    -0.031 C 
ATOM     19  C   LIG d   1       9.703   7.092  -7.821  0.00  0.00    -0.035 C 
ATOM     20  H   LIG d   1      10.841   8.537  -9.009  0.00  0.00     0.028 H 
ATOM     21  H   LIG d   1       9.086   8.507  -9.373  0.00  0.00     0.028 H 
ATOM     22  H   LIG d   1      10.279   6.304  -8.306  0.00  0.00     0.028 H 
ATOM     23  H   LIG d   1       8.657   6.805  -7.721  0.00  0.00     0.028 H 
ATOM     24  H   LIG d   1      11.401   7.402  -6.486  0.00  0.00     0.046 H 
ATOM     25  H   LIG d   1       9.926   6.799  -5.670  0.00  0.00     0.046 H 
ATOM     26  O   LIG d   1       9.401  10.584  -4.906  0.00  0.00    -0.276 OA
BRANCH  15  27
ATOM     27  C   LIG d   1      10.522  10.684  -7.699  0.00  0.00     0.066 C 
ATOM     28  H   LIG d   1      11.096  10.860  -6.790  0.00  0.00     0.058 H 
ATOM     29  H   LIG d   1      11.203  10.477  -8.525  0.00  0.00     0.058 H 
BRANCH  27  30
ATOM     30  O   LIG d   1       9.745  11.844  -8.003  0.00  0.00    -0.381 OA
BRANCH  30  31
ATOM     31  C   LIG d   1      10.487  13.064  -7.977  0.00  0.00     0.036 C 
ATOM     32  H   LIG d   1      10.917  13.248  -8.962  0.00  0.00     0.052 H 
ATOM     33  H   LIG d   1       9.823  13.887  -7.710  0.00  0.00     0.052 H 
ATOM     34  H   LIG d   1      11.286  12.989  -7.241  0.00  0.00     0.052 H 
ENDBRANCH  30  31
ENDBRANCH  27  30
ENDBRANCH  15  27
ENDBRANCH  10  13
ENDBRANCH   1  10
BRANCH   3  35
ATOM     35  O   LIG d   1       8.410  10.859  -1.911  0.00  0.00    -0.387 OA
ATOM     36  H   LIG d   1       8.369  11.496  -1.184  0.00  0.00     0.210 HD
ENDBRANCH   3  35
BRANCH   7  37
ATOM     37  C   LIG d   1      12.116   9.027   0.563  0.00  0.00     0.046 C 
ATOM     38  H   LIG d   1      12.956   8.490   0.121  0.00  0.00     0.047 H 
ATOM     39  H   LIG d   1      12.486   9.723   1.316  0.00  0.00     0.047 H 
BRANCH  37  40
ATOM     40  N   LIG d   1      11.201   8.069   1.189  0.00  0.00    -0.192 N 
ATOM     41  H   LIG d   1      10.597   8.363   1.889  0.00  0.00     0.148 HD
BRANCH  40  42
ATOM     42  S   LIG d   1      11.197   6.486   0.702  0.00  0.00     0.027 S 
ATOM     43  O   LIG d   1      11.211   5.736   1.909  0.00  0.00    -0.159 OA
ATOM     44  O   LIG d   1      10.105   6.388  -0.201  0.00  0.00    -0.159 OA
BRANCH  42  45
ATOM     45  C   LIG d   1      12.763   6.269  -0.186  0.00  0.00     0.070 C 
ATOM     46  H   LIG d   1      13.477   7.024   0.143  0.00  0.00     0.048 H 
ATOM     47  H   LIG d   1      13.164   5.276   0.021  0.00  0.00     0.048 H 
ATOM     48  H   LIG d   1      12.591   6.374  -1.258  0.00  0.00     0.048 H 
ENDBRANCH  42  45
ENDBRANCH  40  42
ENDBRANCH  37  40
ENDBRANCH   7  37
BRANCH   5  49
ATOM     49  O   LIG d   1       9.489  11.060   0.387  0.00  0.00    -0.387 OA
ATOM     50  H   LIG d   1       9.380  11.001   1.345  0.00  0.00     0.210 HD
ENDBRANCH   5  49
TORSDOF 11
ENDMDL
MODEL 9
REMARK VINA RESULT:      -5.0      3.267      8.068
REMARK  11 active torsions:
REMARK  status: ('A' for Active; 'I' for Inactive)
REMARK    1  A    between atoms: C_1  and  O_2 
REMARK    2  A    between atoms: O_2  and  C_3 
REMARK    3  A    between atoms: C_3  and  C_4 
REMARK       I    between atoms: N_9  and  C_10 
REMARK    4  A    between atoms: C_10  and  C_12 
REMARK    5  A    between atoms: C_12  and  C_13 
REMARK    6  A    between atoms: C_15  and  O_29 
REMARK    7  A    between atoms: C_17  and  O_28 
REMARK    8  A    between atoms: C_19  and  C_22 
REMARK    9  A    between atoms: C_22  and  N_23 
REMARK   10  A    between atoms: N_23  and  S_24 
REMARK   11  A    between atoms: S_24  and  C_27 
ROOT
ATOM      1  C   LIG d   1       8.255   2.234  -4.870  0.00  0.00     0.096 C 
ATOM      2  H   LIG d   1       7.525   3.042  -4.901  0.00  0.00     0.063 H 
ATOM      3  C   LIG d   1       8.106   1.326  -6.110  0.00  0.00     0.110 C 
ATOM      4  H   LIG d   1       9.077   0.938  -6.419  0.00  0.00     0.065 H 
ATOM      5  C   LIG d   1       7.191   0.178  -5.628  0.00  0.00     0.111 C 
ATOM      6  H   LIG d   1       7.710  -0.778  -5.696  0.00  0.00     0.065 H 
ATOM      7  C   LIG d   1       6.895   0.528  -4.153  0.00  0.00     0.102 C 
ATOM      8  H   LIG d   1       5.955   1.074  -4.072  0.00  0.00     0.064 H 
ATOM      9  O   LIG d   1       7.999   1.365  -3.744  0.00  0.00    -0.366 OA
ENDROOT
BRANCH   1  10
ATOM     10  C   LIG d   1       9.673   2.801  -4.792  0.00  0.00     0.053 C 
ATOM     11  H   LIG d   1      10.355   2.029  -4.432  0.00  0.00     0.038 H 
ATOM     12  H   LIG d   1       9.988   3.131  -5.782  0.00  0.00     0.038 H 
BRANCH  10  13
ATOM     13  C   LIG d   1       9.695   3.972  -3.843  0.00  0.00     0.218 C 
ATOM     14  N   LIG d   1       9.799   5.227  -4.323  0.00  0.00    -0.296 N 
ATOM     15  C   LIG d   1       9.826   6.454  -3.514  0.00  0.00     0.049 C 
ATOM     16  C   LIG d   1       9.897   5.596  -5.747  0.00  0.00     0.015 C 
ATOM     17  H   LIG d   1       8.910   6.532  -2.928  0.00  0.00     0.052 H 
ATOM     18  C   LIG d   1       9.929   7.644  -4.491  0.00  0.00    -0.031 C 
ATOM     19  C   LIG d   1       9.377   7.054  -5.816  0.00  0.00    -0.035 C 
ATOM     20  H   LIG d   1      10.966   7.960  -4.612  0.00  0.00     0.028 H 
ATOM     21  H   LIG d   1       9.311   8.476  -4.152  0.00  0.00     0.028 H 
ATOM     22  H   LIG d   1       9.789   7.577  -6.678  0.00  0.00     0.028 H 
ATOM     23  H   LIG d   1       8.287   7.080  -5.830  0.00  0.00     0.028 H 
ATOM     24  H   LIG d   1      10.933   5.549  -6.081  0.00  0.00     0.046 H 
ATOM     25  H   LIG d   1       9.272   4.941  -6.353  0.00  0.00     0.046 H 
ATOM     26  O   LIG d   1       9.620   3.785  -2.647  0.00  0.00    -0.276 OA
BRANCH  15  27
ATOM     27  C   LIG d   1      11.042   6.438  -2.586  0.00  0.00     0.066 C 
ATOM     28  H   LIG d   1      11.384   5.412  -2.453  0.00  0.00     0.058 H 
ATOM     29  H   LIG d   1      11.843   7.034  -3.024  0.00  0.00     0.058 H 
BRANCH  27  30
ATOM     30  O   LIG d   1      10.679   6.987  -1.317  0.00  0.00    -0.381 OA
BRANCH  30  31
ATOM     31  C   LIG d   1      10.787   6.063  -0.232  0.00  0.00     0.036 C 
ATOM     32  H   LIG d   1      10.221   5.161  -0.466  0.00  0.00     0.052 H 
ATOM     33  H   LIG d   1      11.834   5.805  -0.077  0.00  0.00     0.052 H 
ATOM     34  H   LIG d   1      10.387   6.518   0.673  0.00  0.00     0.052 H 
ENDBRANCH  30  31
ENDBRANCH  27  30
ENDBRANCH  15  27
ENDBRANCH  10  13
ENDBRANCH   1  10
BRANCH   3  35
ATOM     35  O   LIG d   1       7.490   2.041  -7.183  0.00  0.00    -0.387 OA
ATOM     36  H   LIG d   1       7.904   2.893  -7.377  0.00  0.00     0.210 HD
ENDBRANCH   3  35
BRANCH   7  37
ATOM     37  C   LIG d   1       6.847  -0.743  -3.303  0.00  0.00     0.046 C 
ATOM     38  H   LIG d   1       7.862  -1.094  -3.116  0.00  0.00     0.047 H 
ATOM     39  H   LIG d   1       6.357  -0.526  -2.353  0.00  0.00     0.047 H 
BRANCH  37  40
ATOM     40  N   LIG d   1       6.095  -1.779  -4.016  0.00  0.00    -0.192 N 
ATOM     41  H   LIG d   1       6.546  -2.353  -4.653  0.00  0.00     0.148 HD
BRANCH  40  42
ATOM     42  S   LIG d   1       4.474  -1.967  -3.733  0.00  0.00     0.027 S 
ATOM     43  O   LIG d   1       3.841  -1.090  -4.655  0.00  0.00    -0.159 OA
ATOM     44  O   LIG d   1       4.256  -3.370  -3.799  0.00  0.00    -0.159 OA
BRANCH  42  45
ATOM     45  C   LIG d   1       4.225  -1.376  -2.037  0.00  0.00     0.070 C 
ATOM     46  H   LIG d   1       4.485  -2.166  -1.334  0.00  0.00     0.048 H 
ATOM     47  H   LIG d   1       4.859  -0.508  -1.857  0.00  0.00     0.048 H 
ATOM     48  H   LIG d   1       3.180  -1.096  -1.899  0.00  0.00     0.048 H 
ENDBRANCH  42  45
ENDBRANCH  40  42
ENDBRANCH  37  40
ENDBRANCH   7  37
BRANCH   5  49
ATOM     49  O   LIG d   1       5.982   0.149  -6.389  0.00  0.00    -0.387 OA
ATOM     50  H   LIG d   1       6.115   0.218  -7.344  0.00  0.00     0.210 HD
ENDBRANCH   5  49
TORSDOF 11
ENDMDL
