MODEL 1
REMARK VINA RESULT:      -6.1      0.000      0.000
REMARK  8 active torsions:
REMARK  status: ('A' for Active; 'I' for Inactive)
REMARK    1  A    between atoms: C_1  and  C_2 
REMARK    2  A    between atoms: C_3  and  C_20 
REMARK    3  A    between atoms: C_4  and  C_10 
REMARK    4  A    between atoms: C_11  and  C_12 
REMARK    5  A    between atoms: C_17  and  O_18 
REMARK    6  A    between atoms: O_18  and  C_19 
REMARK    7  A    between atoms: C_20  and  O_22 
REMARK    8  A    between atoms: O_22  and  C_23 
ROOT
ATOM      1  C   LIG d   1       3.738   0.112 -10.358  0.00  0.00     0.021 A 
ATOM      2  C   LIG d   1       2.965  -0.361  -9.356  0.00  0.00     0.077 A 
ATOM      3  C   LIG d   1       2.716   0.549  -8.170  0.00  0.00     0.077 A 
ATOM      4  H   LIG d   1       1.639   0.684  -8.071  0.00  0.00     0.060 H 
ATOM      5  N   LIG d   1       3.340   1.881  -8.207  0.00  0.00    -0.289 N 
ATOM      6  C   LIG d   1       4.087   2.210  -9.281  0.00  0.00     0.304 A 
ATOM      7  O   LIG d   1       4.607   3.309  -9.321  0.00  0.00    -0.253 OA
ATOM      8  N   LIG d   1       4.279   1.364 -10.301  0.00  0.00    -0.273 N 
ATOM      9  H   LIG d   1       3.217   2.509  -7.478  0.00  0.00     0.151 HD
ATOM     10  H   LIG d   1       4.831   1.660 -11.042  0.00  0.00     0.156 HD
ENDROOT
BRANCH   3  11
ATOM     11  C   LIG d   1       3.206  -0.159  -6.931  0.00  0.00    -0.059 C 
ATOM     12  C   LIG d   1       3.186   0.465  -5.762  0.00  0.00    -0.053 C 
ATOM     13  H   LIG d   1       2.821   1.479  -5.696  0.00  0.00     0.062 H 
ATOM     14  H   LIG d   1       3.572  -1.172  -6.998  0.00  0.00     0.059 H 
BRANCH  12  15
ATOM     15  C   LIG d   1       3.666  -0.227  -4.549  0.00  0.00     0.016 A 
ATOM     16  C   LIG d   1       5.031  -0.238  -4.236  0.00  0.00     0.127 A 
ATOM     17  C   LIG d   1       5.470  -0.885  -3.093  0.00  0.00    -0.019 A 
ATOM     18  C   LIG d   1       4.564  -1.528  -2.270  0.00  0.00    -0.058 A 
ATOM     19  H   LIG d   1       6.521  -0.892  -2.847  0.00  0.00     0.065 H 
ATOM     20  C   LIG d   1       3.215  -1.525  -2.577  0.00  0.00    -0.061 A 
ATOM     21  H   LIG d   1       4.912  -2.035  -1.381  0.00  0.00     0.062 H 
ATOM     22  C   LIG d   1       2.762  -0.879  -3.710  0.00  0.00    -0.051 A 
ATOM     23  H   LIG d   1       2.515  -2.029  -1.929  0.00  0.00     0.062 H 
ATOM     24  H   LIG d   1       1.708  -0.879  -3.946  0.00  0.00     0.062 H 
BRANCH  16  25
ATOM     25  O   LIG d   1       5.921   0.389  -5.049  0.00  0.00    -0.494 OA
BRANCH  25  26
ATOM     26  C   LIG d   1       6.841  -0.438  -5.764  0.00  0.00     0.079 C 
ATOM     27  H   LIG d   1       6.516  -1.476  -5.709  0.00  0.00     0.066 H 
ATOM     28  H   LIG d   1       6.878  -0.123  -6.807  0.00  0.00     0.066 H 
ATOM     29  H   LIG d   1       7.833  -0.343  -5.321  0.00  0.00     0.066 H 
ENDBRANCH  25  26
ENDBRANCH  16  25
ENDBRANCH  12  15
ENDBRANCH   3  11
BRANCH   2  30
ATOM     30  C   LIG d   1       2.409  -1.659  -9.413  0.00  0.00     0.339 C 
ATOM     31  O   LIG d   1       1.292  -1.823  -9.868  0.00  0.00    -0.245 OA
BRANCH  30  32
ATOM     32  O   LIG d   1       3.117  -2.716  -8.963  0.00  0.00    -0.465 OA
BRANCH  32  33
ATOM     33  C   LIG d   1       2.920  -3.962  -9.634  0.00  0.00     0.082 C 
ATOM     34  H   LIG d   1       3.862  -4.290 -10.076  0.00  0.00     0.066 H 
ATOM     35  H   LIG d   1       2.575  -4.709  -8.920  0.00  0.00     0.066 H 
ATOM     36  H   LIG d   1       2.176  -3.839 -10.420  0.00  0.00     0.066 H 
ENDBRANCH  32  33
ENDBRANCH  30  32
ENDBRANCH   2  30
BRANCH   1  37
ATOM     37  C   LIG d   1       4.012  -0.759 -11.557  0.00  0.00    -0.026 C 
ATOM     38  H   LIG d   1       4.979  -0.496 -11.984  0.00  0.00     0.029 H 
ATOM     39  H   LIG d   1       4.020  -1.805 -11.252  0.00  0.00     0.029 H 
ATOM     40  H   LIG d   1       3.232  -0.604 -12.304  0.00  0.00     0.029 H 
ENDBRANCH   1  37
TORSDOF 8
ENDMDL
MODEL 2
REMARK VINA RESULT:      -5.5      3.728      5.498
REMARK  8 active torsions:
REMARK  status: ('A' for Active; 'I' for Inactive)
REMARK    1  A    between atoms: C_1  and  C_2 
REMARK    2  A    between atoms: C_3  and  C_20 
REMARK    3  A    between atoms: C_4  and  C_10 
REMARK    4  A    between atoms: C_11  and  C_12 
REMARK    5  A    between atoms: C_17  and  O_18 
REMARK    6  A    between atoms: O_18  and  C_19 
REMARK    7  A    between atoms: C_20  and  O_22 
REMARK    8  A    between atoms: O_22  and  C_23 
ROOT
ATOM      1  C   LIG d   1       6.334  -4.526  -7.482  0.00  0.00     0.021 A 
ATOM      2  C   LIG d   1       6.191  -4.734  -6.155  0.00  0.00     0.077 A 
ATOM      3  C   LIG d   1       4.783  -4.801  -5.600  0.00  0.00     0.077 A 
ATOM      4  H   LIG d   1       4.661  -5.768  -5.111  0.00  0.00     0.060 H 
ATOM      5  N   LIG d   1       3.679  -4.635  -6.559  0.00  0.00    -0.289 N 
ATOM      6  C   LIG d   1       3.981  -4.434  -7.857  0.00  0.00     0.304 A 
ATOM      7  O   LIG d   1       3.076  -4.295  -8.657  0.00  0.00    -0.253 OA
ATOM      8  N   LIG d   1       5.246  -4.377  -8.293  0.00  0.00    -0.273 N 
ATOM      9  H   LIG d   1       2.755  -4.669  -6.264  0.00  0.00     0.151 HD
ATOM     10  H   LIG d   1       5.397  -4.225  -9.239  0.00  0.00     0.156 HD
ENDROOT
BRANCH   3  11
ATOM     11  C   LIG d   1       4.647  -3.733  -4.545  0.00  0.00    -0.059 C 
ATOM     12  C   LIG d   1       4.604  -2.457  -4.897  0.00  0.00    -0.053 C 
ATOM     13  H   LIG d   1       4.666  -2.181  -5.939  0.00  0.00     0.062 H 
ATOM     14  H   LIG d   1       4.586  -4.009  -3.502  0.00  0.00     0.059 H 
BRANCH  12  15
ATOM     15  C   LIG d   1       4.471  -1.409  -3.864  0.00  0.00     0.016 A 
ATOM     16  C   LIG d   1       4.208  -0.085  -4.233  0.00  0.00     0.127 A 
ATOM     17  C   LIG d   1       4.080   0.889  -3.256  0.00  0.00    -0.019 A 
ATOM     18  C   LIG d   1       4.224   0.556  -1.922  0.00  0.00    -0.058 A 
ATOM     19  H   LIG d   1       3.873   1.911  -3.537  0.00  0.00     0.065 H 
ATOM     20  C   LIG d   1       4.490  -0.751  -1.553  0.00  0.00    -0.061 A 
ATOM     21  H   LIG d   1       4.128   1.319  -1.164  0.00  0.00     0.062 H 
ATOM     22  C   LIG d   1       4.614  -1.734  -2.515  0.00  0.00    -0.051 A 
ATOM     23  H   LIG d   1       4.601  -1.004  -0.509  0.00  0.00     0.062 H 
ATOM     24  H   LIG d   1       4.822  -2.752  -2.222  0.00  0.00     0.062 H 
BRANCH  16  25
ATOM     25  O   LIG d   1       4.072   0.243  -5.544  0.00  0.00    -0.494 OA
BRANCH  25  26
ATOM     26  C   LIG d   1       2.741   0.413  -6.036  0.00  0.00     0.079 C 
ATOM     27  H   LIG d   1       2.173   1.033  -5.343  0.00  0.00     0.066 H 
ATOM     28  H   LIG d   1       2.774   0.895  -7.013  0.00  0.00     0.066 H 
ATOM     29  H   LIG d   1       2.262  -0.562  -6.129  0.00  0.00     0.066 H 
ENDBRANCH  25  26
ENDBRANCH  16  25
ENDBRANCH  12  15
ENDBRANCH   3  11
BRANCH   2  30
ATOM     30  C   LIG d   1       7.318  -4.883  -5.313  0.00  0.00     0.339 C 
ATOM     31  O   LIG d   1       7.709  -5.994  -5.011  0.00  0.00    -0.245 OA
BRANCH  30  32
ATOM     32  O   LIG d   1       7.958  -3.791  -4.845  0.00  0.00    -0.465 OA
BRANCH  32  33
ATOM     33  C   LIG d   1       8.834  -3.980  -3.731  0.00  0.00     0.082 C 
ATOM     34  H   LIG d   1       9.687  -3.308  -3.821  0.00  0.00     0.066 H 
ATOM     35  H   LIG d   1       8.297  -3.765  -2.807  0.00  0.00     0.066 H 
ATOM     36  H   LIG d   1       9.185  -5.012  -3.716  0.00  0.00     0.066 H 
ENDBRANCH  32  33
ENDBRANCH  30  32
ENDBRANCH   2  30
BRANCH   1  37
ATOM     37  C   LIG d   1       7.717  -4.451  -8.076  0.00  0.00    -0.026 C 
ATOM     38  H   LIG d   1       8.358  -3.852  -7.430  0.00  0.00     0.029 H 
ATOM     39  H   LIG d   1       8.128  -5.456  -8.167  0.00  0.00     0.029 H 
ATOM     40  H   LIG d   1       7.663  -3.989  -9.063  0.00  0.00     0.029 H 
ENDBRANCH   1  37
TORSDOF 8
ENDMDL
MODEL 3
REMARK VINA RESULT:      -5.4      9.543     12.344
REMARK  8 active torsions:
REMARK  status: ('A' for Active; 'I' for Inactive)
REMARK    1  A    between atoms: C_1  and  C_2 
REMARK    2  A    between atoms: C_3  and  C_20 
REMARK    3  A    between atoms: C_4  and  C_10 
REMARK    4  A    between atoms: C_11  and  C_12 
REMARK    5  A    between atoms: C_17  and  O_18 
REMARK    6  A    between atoms: O_18  and  C_19 
REMARK    7  A    between atoms: C_20  and  O_22 
REMARK    8  A    between atoms: O_22  and  C_23 
ROOT
ATOM      1  C   LIG d   1      10.722   5.615  -0.967  0.00  0.00     0.021 A 
ATOM      2  C   LIG d   1       9.944   6.371  -1.771  0.00  0.00     0.077 A 
ATOM      3  C   LIG d   1       9.482   5.762  -3.080  0.00  0.00     0.077 A 
ATOM      4  H   LIG d   1       8.392   5.776  -3.089  0.00  0.00     0.060 H 
ATOM      5  N   LIG d   1       9.920   4.386  -3.367  0.00  0.00    -0.289 N 
ATOM      6  C   LIG d   1      10.698   3.758  -2.462  0.00  0.00     0.304 A 
ATOM      7  O   LIG d   1      11.066   2.623  -2.691  0.00  0.00    -0.253 OA
ATOM      8  N   LIG d   1      11.083   4.348  -1.323  0.00  0.00    -0.273 N 
ATOM      9  H   LIG d   1       9.657   3.942  -4.188  0.00  0.00     0.151 HD
ATOM     10  H   LIG d   1      11.646   3.844  -0.715  0.00  0.00     0.156 HD
ENDROOT
BRANCH   3  11
ATOM     11  C   LIG d   1       9.963   6.647  -4.201  0.00  0.00    -0.059 C 
ATOM     12  C   LIG d   1       9.094   7.156  -5.062  0.00  0.00    -0.053 C 
ATOM     13  H   LIG d   1       8.041   6.936  -4.962  0.00  0.00     0.062 H 
ATOM     14  H   LIG d   1      11.016   6.866  -4.302  0.00  0.00     0.059 H 
BRANCH  12  15
ATOM     15  C   LIG d   1       9.564   8.023  -6.161  0.00  0.00     0.016 A 
ATOM     16  C   LIG d   1       9.607   9.412  -5.994  0.00  0.00     0.127 A 
ATOM     17  C   LIG d   1      10.055  10.216  -7.029  0.00  0.00    -0.019 A 
ATOM     18  C   LIG d   1      10.448   9.649  -8.228  0.00  0.00    -0.058 A 
ATOM     19  H   LIG d   1      10.093  11.288  -6.903  0.00  0.00     0.065 H 
ATOM     20  C   LIG d   1      10.402   8.277  -8.399  0.00  0.00    -0.061 A 
ATOM     21  H   LIG d   1      10.793  10.280  -9.033  0.00  0.00     0.062 H 
ATOM     22  C   LIG d   1       9.964   7.462  -7.375  0.00  0.00    -0.051 A 
ATOM     23  H   LIG d   1      10.711   7.841  -9.338  0.00  0.00     0.062 H 
ATOM     24  H   LIG d   1       9.930   6.392  -7.513  0.00  0.00     0.062 H 
BRANCH  16  25
ATOM     25  O   LIG d   1       9.216   9.969  -4.819  0.00  0.00    -0.494 OA
BRANCH  25  26
ATOM     26  C   LIG d   1       9.262  11.395  -4.729  0.00  0.00     0.079 C 
ATOM     27  H   LIG d   1       8.900  11.710  -3.751  0.00  0.00     0.066 H 
ATOM     28  H   LIG d   1      10.290  11.733  -4.863  0.00  0.00     0.066 H 
ATOM     29  H   LIG d   1       8.634  11.828  -5.507  0.00  0.00     0.066 H 
ENDBRANCH  25  26
ENDBRANCH  16  25
ENDBRANCH  12  15
ENDBRANCH   3  11
BRANCH   2  30
ATOM     30  C   LIG d   1       9.574   7.686  -1.405  0.00  0.00     0.339 C 
ATOM     31  O   LIG d   1       8.498   7.891  -0.877  0.00  0.00    -0.245 OA
BRANCH  30  32
ATOM     32  O   LIG d   1      10.416   8.714  -1.643  0.00  0.00    -0.465 OA
BRANCH  32  33
ATOM     33  C   LIG d   1       9.961  10.021  -1.288  0.00  0.00     0.082 C 
ATOM     34  H   LIG d   1      10.135  10.190  -0.225  0.00  0.00     0.066 H 
ATOM     35  H   LIG d   1      10.505  10.766  -1.868  0.00  0.00     0.066 H 
ATOM     36  H   LIG d   1       8.895  10.105  -1.498  0.00  0.00     0.066 H 
ENDBRANCH  32  33
ENDBRANCH  30  32
ENDBRANCH   2  30
BRANCH   1  37
ATOM     37  C   LIG d   1      11.205   6.182   0.343  0.00  0.00    -0.026 C 
ATOM     38  H   LIG d   1      12.270   5.982   0.456  0.00  0.00     0.029 H 
ATOM     39  H   LIG d   1      11.033   7.258   0.359  0.00  0.00     0.029 H 
ATOM     40  H   LIG d   1      10.658   5.716   1.164  0.00  0.00     0.029 H 
ENDBRANCH   1  37
TORSDOF 8
ENDMDL
MODEL 4
REMARK VINA RESULT:      -5.4      4.761      6.279
REMARK  8 active torsions:
REMARK  status: ('A' for Active; 'I' for Inactive)
REMARK    1  A    between atoms: C_1  and  C_2 
REMARK    2  A    between atoms: C_3  and  C_20 
REMARK    3  A    between atoms: C_4  and  C_10 
REMARK    4  A    between atoms: C_11  and  C_12 
REMARK    5  A    between atoms: C_17  and  O_18 
REMARK    6  A    between atoms: O_18  and  C_19 
REMARK    7  A    between atoms: C_20  and  O_22 
REMARK    8  A    between atoms: O_22  and  C_23 
ROOT
ATOM      1  C   LIG d   1       6.743  -6.855  -5.511  0.00  0.00     0.021 A 
ATOM      2  C   LIG d   1       6.126  -5.668  -5.693  0.00  0.00     0.077 A 
ATOM      3  C   LIG d   1       6.982  -4.417  -5.665  0.00  0.00     0.077 A 
ATOM      4  H   LIG d   1       6.850  -3.901  -6.616  0.00  0.00     0.060 H 
ATOM      5  N   LIG d   1       8.425  -4.601  -5.443  0.00  0.00    -0.289 N 
ATOM      6  C   LIG d   1       8.895  -5.854  -5.278  0.00  0.00     0.304 A 
ATOM      7  O   LIG d   1      10.085  -6.017  -5.094  0.00  0.00    -0.253 OA
ATOM      8  N   LIG d   1       8.091  -6.925  -5.306  0.00  0.00    -0.273 N 
ATOM      9  H   LIG d   1       9.025  -3.839  -5.416  0.00  0.00     0.151 HD
ATOM     10  H   LIG d   1       8.490  -7.799  -5.176  0.00  0.00     0.156 HD
ENDROOT
BRANCH   3  11
ATOM     11  C   LIG d   1       6.455  -3.517  -4.577  0.00  0.00    -0.059 C 
ATOM     12  C   LIG d   1       6.072  -2.282  -4.867  0.00  0.00    -0.053 C 
ATOM     13  H   LIG d   1       6.138  -1.920  -5.882  0.00  0.00     0.062 H 
ATOM     14  H   LIG d   1       6.390  -3.879  -3.561  0.00  0.00     0.059 H 
BRANCH  12  15
ATOM     15  C   LIG d   1       5.557  -1.399  -3.801  0.00  0.00     0.016 A 
ATOM     16  C   LIG d   1       6.083  -0.112  -3.637  0.00  0.00     0.127 A 
ATOM     17  C   LIG d   1       5.589   0.710  -2.637  0.00  0.00    -0.019 A 
ATOM     18  C   LIG d   1       4.587   0.257  -1.798  0.00  0.00    -0.058 A 
ATOM     19  H   LIG d   1       5.989   1.705  -2.510  0.00  0.00     0.065 H 
ATOM     20  C   LIG d   1       4.068  -1.016  -1.954  0.00  0.00    -0.061 A 
ATOM     21  H   LIG d   1       4.208   0.900  -1.018  0.00  0.00     0.062 H 
ATOM     22  C   LIG d   1       4.546  -1.845  -2.949  0.00  0.00    -0.051 A 
ATOM     23  H   LIG d   1       3.286  -1.363  -1.295  0.00  0.00     0.062 H 
ATOM     24  H   LIG d   1       4.138  -2.838  -3.067  0.00  0.00     0.062 H 
BRANCH  16  25
ATOM     25  O   LIG d   1       7.070   0.331  -4.458  0.00  0.00    -0.494 OA
BRANCH  25  26
ATOM     26  C   LIG d   1       7.686   1.575  -4.119  0.00  0.00     0.079 C 
ATOM     27  H   LIG d   1       7.729   1.677  -3.036  0.00  0.00     0.066 H 
ATOM     28  H   LIG d   1       8.697   1.603  -4.527  0.00  0.00     0.066 H 
ATOM     29  H   LIG d   1       7.103   2.394  -4.539  0.00  0.00     0.066 H 
ENDBRANCH  25  26
ENDBRANCH  16  25
ENDBRANCH  12  15
ENDBRANCH   3  11
BRANCH   2  30
ATOM     30  C   LIG d   1       4.729  -5.595  -5.900  0.00  0.00     0.339 C 
ATOM     31  O   LIG d   1       3.972  -5.570  -4.948  0.00  0.00    -0.245 OA
BRANCH  30  32
ATOM     32  O   LIG d   1       4.235  -5.553  -7.156  0.00  0.00    -0.465 OA
BRANCH  32  33
ATOM     33  C   LIG d   1       3.873  -4.269  -7.668  0.00  0.00     0.082 C 
ATOM     34  H   LIG d   1       2.976  -4.362  -8.280  0.00  0.00     0.066 H 
ATOM     35  H   LIG d   1       3.678  -3.589  -6.839  0.00  0.00     0.066 H 
ATOM     36  H   LIG d   1       4.687  -3.877  -8.276  0.00  0.00     0.066 H 
ENDBRANCH  32  33
ENDBRANCH  30  32
ENDBRANCH   2  30
BRANCH   1  37
ATOM     37  C   LIG d   1       5.930  -8.124  -5.530  0.00  0.00    -0.026 C 
ATOM     38  H   LIG d   1       5.916  -8.532  -6.540  0.00  0.00     0.029 H 
ATOM     39  H   LIG d   1       6.375  -8.851  -4.851  0.00  0.00     0.029 H 
ATOM     40  H   LIG d   1       4.910  -7.906  -5.212  0.00  0.00     0.029 H 
ENDBRANCH   1  37
TORSDOF 8
ENDMDL
MODEL 5
REMARK VINA RESULT:      -5.3      5.726      7.407
REMARK  8 active torsions:
REMARK  status: ('A' for Active; 'I' for Inactive)
REMARK    1  A    between atoms: C_1  and  C_2 
REMARK    2  A    between atoms: C_3  and  C_20 
REMARK    3  A    between atoms: C_4  and  C_10 
REMARK    4  A    between atoms: C_11  and  C_12 
REMARK    5  A    between atoms: C_17  and  O_18 
REMARK    6  A    between atoms: O_18  and  C_19 
REMARK    7  A    between atoms: C_20  and  O_22 
REMARK    8  A    between atoms: O_22  and  C_23 
ROOT
ATOM      1  C   LIG d   1      11.790   1.867  -3.994  0.00  0.00     0.021 A 
ATOM      2  C   LIG d   1      10.570   1.566  -4.490  0.00  0.00     0.077 A 
ATOM      3  C   LIG d   1       9.401   2.426  -4.054  0.00  0.00     0.077 A 
ATOM      4  H   LIG d   1       8.948   2.855  -4.948  0.00  0.00     0.060 H 
ATOM      5  N   LIG d   1       9.693   3.527  -3.121  0.00  0.00    -0.289 N 
ATOM      6  C   LIG d   1      10.966   3.702  -2.713  0.00  0.00     0.304 A 
ATOM      7  O   LIG d   1      11.217   4.607  -1.942  0.00  0.00    -0.253 OA
ATOM      8  N   LIG d   1      11.961   2.907  -3.126  0.00  0.00    -0.273 N 
ATOM      9  H   LIG d   1       8.986   4.112  -2.805  0.00  0.00     0.151 HD
ATOM     10  H   LIG d   1      12.855   3.083  -2.792  0.00  0.00     0.156 HD
ENDROOT
BRANCH   3  11
ATOM     11  C   LIG d   1       8.378   1.527  -3.407  0.00  0.00    -0.059 C 
ATOM     12  C   LIG d   1       7.146   1.470  -3.892  0.00  0.00    -0.053 C 
ATOM     13  H   LIG d   1       6.874   2.067  -4.750  0.00  0.00     0.062 H 
ATOM     14  H   LIG d   1       8.649   0.930  -2.549  0.00  0.00     0.059 H 
BRANCH  12  15
ATOM     15  C   LIG d   1       6.143   0.590  -3.259  0.00  0.00     0.016 A 
ATOM     16  C   LIG d   1       6.189  -0.794  -3.467  0.00  0.00     0.127 A 
ATOM     17  C   LIG d   1       5.247  -1.612  -2.864  0.00  0.00    -0.019 A 
ATOM     18  C   LIG d   1       4.258  -1.061  -2.070  0.00  0.00    -0.058 A 
ATOM     19  H   LIG d   1       5.282  -2.680  -3.019  0.00  0.00     0.065 H 
ATOM     20  C   LIG d   1       4.206   0.307  -1.866  0.00  0.00    -0.061 A 
ATOM     21  H   LIG d   1       3.523  -1.702  -1.605  0.00  0.00     0.062 H 
ATOM     22  C   LIG d   1       5.141   1.134  -2.455  0.00  0.00    -0.051 A 
ATOM     23  H   LIG d   1       3.431   0.729  -1.244  0.00  0.00     0.062 H 
ATOM     24  H   LIG d   1       5.097   2.200  -2.294  0.00  0.00     0.062 H 
BRANCH  16  25
ATOM     25  O   LIG d   1       7.158  -1.334  -4.252  0.00  0.00    -0.494 OA
BRANCH  25  26
ATOM     26  C   LIG d   1       7.526  -2.689  -3.988  0.00  0.00     0.079 C 
ATOM     27  H   LIG d   1       6.662  -3.336  -4.135  0.00  0.00     0.066 H 
ATOM     28  H   LIG d   1       8.323  -2.987  -4.669  0.00  0.00     0.066 H 
ATOM     29  H   LIG d   1       7.875  -2.777  -2.960  0.00  0.00     0.066 H 
ENDBRANCH  25  26
ENDBRANCH  16  25
ENDBRANCH  12  15
ENDBRANCH   3  11
BRANCH   2  30
ATOM     30  C   LIG d   1      10.391   0.486  -5.385  0.00  0.00     0.339 C 
ATOM     31  O   LIG d   1      10.255   0.698  -6.575  0.00  0.00    -0.245 OA
BRANCH  30  32
ATOM     32  O   LIG d   1      10.372  -0.780  -4.918  0.00  0.00    -0.465 OA
BRANCH  32  33
ATOM     33  C   LIG d   1      10.740  -1.814  -5.833  0.00  0.00     0.082 C 
ATOM     34  H   LIG d   1       9.857  -2.148  -6.378  0.00  0.00     0.066 H 
ATOM     35  H   LIG d   1      11.479  -1.431  -6.536  0.00  0.00     0.066 H 
ATOM     36  H   LIG d   1      11.164  -2.653  -5.281  0.00  0.00     0.066 H 
ENDBRANCH  32  33
ENDBRANCH  30  32
ENDBRANCH   2  30
BRANCH   1  37
ATOM     37  C   LIG d   1      12.981   1.038  -4.400  0.00  0.00    -0.026 C 
ATOM     38  H   LIG d   1      13.712   1.672  -4.900  0.00  0.00     0.029 H 
ATOM     39  H   LIG d   1      13.432   0.591  -3.515  0.00  0.00     0.029 H 
ATOM     40  H   LIG d   1      12.658   0.249  -5.081  0.00  0.00     0.029 H 
ENDBRANCH   1  37
TORSDOF 8
ENDMDL
MODEL 6
REMARK VINA RESULT:      -5.2      8.736     12.092
REMARK  8 active torsions:
REMARK  status: ('A' for Active; 'I' for Inactive)
REMARK    1  A    between atoms: C_1  and  C_2 
REMARK    2  A    between atoms: C_3  and  C_20 
REMARK    3  A    between atoms: C_4  and  C_10 
REMARK    4  A    between atoms: C_11  and  C_12 
REMARK    5  A    between atoms: C_17  and  O_18 
REMARK    6  A    between atoms: O_18  and  C_19 
REMARK    7  A    between atoms: C_20  and  O_22 
REMARK    8  A    between atoms: O_22  and  C_23 
ROOT
ATOM      1  C   LIG d   1      10.783   5.643  -0.869  0.00  0.00     0.021 A 
ATOM      2  C   LIG d   1       9.965   6.402  -1.630  0.00  0.00     0.077 A 
ATOM      3  C   LIG d   1       9.462   5.809  -2.930  0.00  0.00     0.077 A 
ATOM      4  H   LIG d   1       8.372   5.808  -2.899  0.00  0.00     0.060 H 
ATOM      5  N   LIG d   1       9.908   4.445  -3.259  0.00  0.00    -0.289 N 
ATOM      6  C   LIG d   1      10.728   3.812  -2.395  0.00  0.00     0.304 A 
ATOM      7  O   LIG d   1      11.102   2.686  -2.658  0.00  0.00    -0.253 OA
ATOM      8  N   LIG d   1      11.148   4.387  -1.261  0.00  0.00    -0.273 N 
ATOM      9  H   LIG d   1       9.620   4.011  -4.077  0.00  0.00     0.151 HD
ATOM     10  H   LIG d   1      11.740   3.881  -0.684  0.00  0.00     0.156 HD
ENDROOT
BRANCH   3  11
ATOM     11  C   LIG d   1       9.888   6.720  -4.053  0.00  0.00    -0.059 C 
ATOM     12  C   LIG d   1       9.088   6.910  -5.092  0.00  0.00    -0.053 C 
ATOM     13  H   LIG d   1       8.131   6.412  -5.135  0.00  0.00     0.062 H 
ATOM     14  H   LIG d   1      10.846   7.218  -4.010  0.00  0.00     0.059 H 
BRANCH  12  15
ATOM     15  C   LIG d   1       9.505   7.802  -6.192  0.00  0.00     0.016 A 
ATOM     16  C   LIG d   1       9.856   7.268  -7.438  0.00  0.00     0.127 A 
ATOM     17  C   LIG d   1      10.241   8.114  -8.465  0.00  0.00    -0.019 A 
ATOM     18  C   LIG d   1      10.289   9.480  -8.257  0.00  0.00    -0.058 A 
ATOM     19  H   LIG d   1      10.509   7.706  -9.428  0.00  0.00     0.065 H 
ATOM     20  C   LIG d   1       9.947  10.012  -7.026  0.00  0.00    -0.061 A 
ATOM     21  H   LIG d   1      10.593  10.135  -9.060  0.00  0.00     0.062 H 
ATOM     22  C   LIG d   1       9.556   9.182  -5.995  0.00  0.00    -0.051 A 
ATOM     23  H   LIG d   1       9.987  11.080  -6.872  0.00  0.00     0.062 H 
ATOM     24  H   LIG d   1       9.291   9.601  -5.036  0.00  0.00     0.062 H 
BRANCH  16  25
ATOM     25  O   LIG d   1       9.815   5.925  -7.640  0.00  0.00    -0.494 OA
BRANCH  25  26
ATOM     26  C   LIG d   1       9.273   5.473  -8.882  0.00  0.00     0.079 C 
ATOM     27  H   LIG d   1       8.250   5.832  -8.985  0.00  0.00     0.066 H 
ATOM     28  H   LIG d   1       9.878   5.857  -9.703  0.00  0.00     0.066 H 
ATOM     29  H   LIG d   1       9.279   4.383  -8.905  0.00  0.00     0.066 H 
ENDBRANCH  25  26
ENDBRANCH  16  25
ENDBRANCH  12  15
ENDBRANCH   3  11
BRANCH   2  30
ATOM     30  C   LIG d   1       9.592   7.705  -1.226  0.00  0.00     0.339 C 
ATOM     31  O   LIG d   1       8.477   7.910  -0.786  0.00  0.00    -0.245 OA
BRANCH  30  32
ATOM     32  O   LIG d   1      10.474   8.721  -1.330  0.00  0.00    -0.465 OA
BRANCH  32  33
ATOM     33  C   LIG d   1      10.376   9.767  -0.361  0.00  0.00     0.082 C 
ATOM     34  H   LIG d   1      10.024   9.354   0.584  0.00  0.00     0.066 H 
ATOM     35  H   LIG d   1      11.356  10.220  -0.217  0.00  0.00     0.066 H 
ATOM     36  H   LIG d   1       9.673  10.522  -0.711  0.00  0.00     0.066 H 
ENDBRANCH  32  33
ENDBRANCH  30  32
ENDBRANCH   2  30
BRANCH   1  37
ATOM     37  C   LIG d   1      11.308   6.194   0.432  0.00  0.00    -0.026 C 
ATOM     38  H   LIG d   1      11.888   7.095   0.238  0.00  0.00     0.029 H 
ATOM     39  H   LIG d   1      10.472   6.434   1.089  0.00  0.00     0.029 H 
ATOM     40  H   LIG d   1      11.944   5.449   0.911  0.00  0.00     0.029 H 
ENDBRANCH   1  37
TORSDOF 8
ENDMDL
MODEL 7
REMARK VINA RESULT:      -5.1      2.618      6.488
REMARK  8 active torsions:
REMARK  status: ('A' for Active; 'I' for Inactive)
REMARK    1  A    between atoms: C_1  and  C_2 
REMARK    2  A    between atoms: C_3  and  C_20 
REMARK    3  A    between atoms: C_4  and  C_10 
REMARK    4  A    between atoms: C_11  and  C_12 
REMARK    5  A    between atoms: C_17  and  O_18 
REMARK    6  A    between atoms: O_18  and  C_19 
REMARK    7  A    between atoms: C_20  and  O_22 
REMARK    8  A    between atoms: O_22  and  C_23 
ROOT
ATOM      1  C   LIG d   1       6.510  -1.532  -4.583  0.00  0.00     0.021 A 
ATOM      2  C   LIG d   1       6.032  -0.655  -5.493  0.00  0.00     0.077 A 
ATOM      3  C   LIG d   1       4.533  -0.435  -5.539  0.00  0.00     0.077 A 
ATOM      4  H   LIG d   1       4.346   0.626  -5.370  0.00  0.00     0.060 H 
ATOM      5  N   LIG d   1       3.716  -1.198  -4.581  0.00  0.00    -0.289 N 
ATOM      6  C   LIG d   1       4.341  -2.039  -3.732  0.00  0.00     0.304 A 
ATOM      7  O   LIG d   1       3.675  -2.674  -2.938  0.00  0.00    -0.253 OA
ATOM      8  N   LIG d   1       5.670  -2.200  -3.739  0.00  0.00    -0.273 N 
ATOM      9  H   LIG d   1       2.751  -1.100  -4.562  0.00  0.00     0.151 HD
ATOM     10  H   LIG d   1       6.058  -2.823  -3.105  0.00  0.00     0.156 HD
ENDROOT
BRANCH   3  11
ATOM     11  C   LIG d   1       4.056  -0.770  -6.929  0.00  0.00    -0.059 C 
ATOM     12  C   LIG d   1       3.523   0.173  -7.691  0.00  0.00    -0.053 C 
ATOM     13  H   LIG d   1       3.429   1.182  -7.318  0.00  0.00     0.062 H 
ATOM     14  H   LIG d   1       4.149  -1.780  -7.302  0.00  0.00     0.059 H 
BRANCH  12  15
ATOM     15  C   LIG d   1       3.055  -0.156  -9.053  0.00  0.00     0.016 A 
ATOM     16  C   LIG d   1       3.857   0.134 -10.163  0.00  0.00     0.127 A 
ATOM     17  C   LIG d   1       3.411  -0.182 -11.436  0.00  0.00    -0.019 A 
ATOM     18  C   LIG d   1       2.172  -0.772 -11.609  0.00  0.00    -0.058 A 
ATOM     19  H   LIG d   1       4.029   0.036 -12.294  0.00  0.00     0.065 H 
ATOM     20  C   LIG d   1       1.374  -1.056 -10.516  0.00  0.00    -0.061 A 
ATOM     21  H   LIG d   1       1.827  -1.014 -12.604  0.00  0.00     0.062 H 
ATOM     22  C   LIG d   1       1.807  -0.751  -9.241  0.00  0.00    -0.051 A 
ATOM     23  H   LIG d   1       0.408  -1.516 -10.659  0.00  0.00     0.062 H 
ATOM     24  H   LIG d   1       1.181  -0.974  -8.390  0.00  0.00     0.062 H 
BRANCH  16  25
ATOM     25  O   LIG d   1       5.071   0.719  -9.992  0.00  0.00    -0.494 OA
BRANCH  25  26
ATOM     26  C   LIG d   1       6.211  -0.003 -10.462  0.00  0.00     0.079 C 
ATOM     27  H   LIG d   1       6.650  -0.566  -9.639  0.00  0.00     0.066 H 
ATOM     28  H   LIG d   1       5.905  -0.692 -11.250  0.00  0.00     0.066 H 
ATOM     29  H   LIG d   1       6.947   0.696 -10.857  0.00  0.00     0.066 H 
ENDBRANCH  25  26
ENDBRANCH  16  25
ENDBRANCH  12  15
ENDBRANCH   3  11
BRANCH   2  30
ATOM     30  C   LIG d   1       6.901   0.032  -6.371  0.00  0.00     0.339 C 
ATOM     31  O   LIG d   1       7.470  -0.571  -7.261  0.00  0.00    -0.245 OA
BRANCH  30  32
ATOM     32  O   LIG d   1       7.098   1.359  -6.222  0.00  0.00    -0.465 OA
BRANCH  32  33
ATOM     33  C   LIG d   1       8.303   1.767  -5.571  0.00  0.00     0.082 C 
ATOM     34  H   LIG d   1       9.133   1.155  -5.926  0.00  0.00     0.066 H 
ATOM     35  H   LIG d   1       8.502   2.814  -5.797  0.00  0.00     0.066 H 
ATOM     36  H   LIG d   1       8.195   1.641  -4.494  0.00  0.00     0.066 H 
ENDBRANCH  32  33
ENDBRANCH  30  32
ENDBRANCH   2  30
BRANCH   1  37
ATOM     37  C   LIG d   1       7.994  -1.783  -4.504  0.00  0.00    -0.026 C 
ATOM     38  H   LIG d   1       8.210  -2.410  -3.639  0.00  0.00     0.029 H 
ATOM     39  H   LIG d   1       8.326  -2.287  -5.411  0.00  0.00     0.029 H 
ATOM     40  H   LIG d   1       8.517  -0.832  -4.403  0.00  0.00     0.029 H 
ENDBRANCH   1  37
TORSDOF 8
ENDMDL
MODEL 8
REMARK VINA RESULT:      -5.1      4.633      7.294
REMARK  8 active torsions:
REMARK  status: ('A' for Active; 'I' for Inactive)
REMARK    1  A    between atoms: C_1  and  C_2 
REMARK    2  A    between atoms: C_3  and  C_20 
REMARK    3  A    between atoms: C_4  and  C_10 
REMARK    4  A    between atoms: C_11  and  C_12 
REMARK    5  A    between atoms: C_17  and  O_18 
REMARK    6  A    between atoms: O_18  and  C_19 
REMARK    7  A    between atoms: C_20  and  O_22 
REMARK    8  A    between atoms: O_22  and  C_23 
ROOT
ATOM      1  C   LIG d   1       5.410  -1.319  -3.004  0.00  0.00     0.021 A 
ATOM      2  C   LIG d   1       5.538  -0.052  -3.454  0.00  0.00     0.077 A 
ATOM      3  C   LIG d   1       6.536   0.204  -4.564  0.00  0.00     0.077 A 
ATOM      4  H   LIG d   1       5.998   0.644  -5.404  0.00  0.00     0.060 H 
ATOM      5  N   LIG d   1       7.290  -0.957  -5.065  0.00  0.00    -0.289 N 
ATOM      6  C   LIG d   1       7.051  -2.164  -4.513  0.00  0.00     0.304 A 
ATOM      7  O   LIG d   1       7.669  -3.129  -4.920  0.00  0.00    -0.253 OA
ATOM      8  N   LIG d   1       6.160  -2.333  -3.528  0.00  0.00    -0.273 N 
ATOM      9  H   LIG d   1       7.944  -0.857  -5.775  0.00  0.00     0.151 HD
ATOM     10  H   LIG d   1       6.038  -3.226  -3.171  0.00  0.00     0.156 HD
ENDROOT
BRANCH   3  11
ATOM     11  C   LIG d   1       7.530   1.225  -4.070  0.00  0.00    -0.059 C 
ATOM     12  C   LIG d   1       8.248   1.923  -4.937  0.00  0.00    -0.053 C 
ATOM     13  H   LIG d   1       8.123   1.762  -5.997  0.00  0.00     0.062 H 
ATOM     14  H   LIG d   1       7.656   1.385  -3.009  0.00  0.00     0.059 H 
BRANCH  12  15
ATOM     15  C   LIG d   1       9.222   2.923  -4.454  0.00  0.00     0.016 A 
ATOM     16  C   LIG d   1       9.757   3.869  -5.336  0.00  0.00     0.127 A 
ATOM     17  C   LIG d   1      10.665   4.806  -4.872  0.00  0.00    -0.019 A 
ATOM     18  C   LIG d   1      11.051   4.799  -3.544  0.00  0.00    -0.058 A 
ATOM     19  H   LIG d   1      11.077   5.540  -5.548  0.00  0.00     0.065 H 
ATOM     20  C   LIG d   1      10.528   3.863  -2.669  0.00  0.00    -0.061 A 
ATOM     21  H   LIG d   1      11.762   5.529  -3.186  0.00  0.00     0.062 H 
ATOM     22  C   LIG d   1       9.617   2.926  -3.116  0.00  0.00    -0.051 A 
ATOM     23  H   LIG d   1      10.834   3.864  -1.634  0.00  0.00     0.062 H 
ATOM     24  H   LIG d   1       9.212   2.197  -2.430  0.00  0.00     0.062 H 
BRANCH  16  25
ATOM     25  O   LIG d   1       9.382   3.872  -6.642  0.00  0.00    -0.494 OA
BRANCH  25  26
ATOM     26  C   LIG d   1      10.409   3.656  -7.612  0.00  0.00     0.079 C 
ATOM     27  H   LIG d   1      11.354   4.044  -7.234  0.00  0.00     0.066 H 
ATOM     28  H   LIG d   1      10.506   2.587  -7.805  0.00  0.00     0.066 H 
ATOM     29  H   LIG d   1      10.149   4.170  -8.537  0.00  0.00     0.066 H 
ENDBRANCH  25  26
ENDBRANCH  16  25
ENDBRANCH  12  15
ENDBRANCH   3  11
BRANCH   2  30
ATOM     30  C   LIG d   1       4.765   0.998  -2.907  0.00  0.00     0.339 C 
ATOM     31  O   LIG d   1       4.972   1.378  -1.770  0.00  0.00    -0.245 OA
BRANCH  30  32
ATOM     32  O   LIG d   1       3.798   1.580  -3.647  0.00  0.00    -0.465 OA
BRANCH  32  33
ATOM     33  C   LIG d   1       2.844   0.713  -4.265  0.00  0.00     0.082 C 
ATOM     34  H   LIG d   1       1.841   1.116  -4.121  0.00  0.00     0.066 H 
ATOM     35  H   LIG d   1       3.057   0.639  -5.331  0.00  0.00     0.066 H 
ATOM     36  H   LIG d   1       2.905  -0.276  -3.812  0.00  0.00     0.066 H 
ENDBRANCH  32  33
ENDBRANCH  30  32
ENDBRANCH   2  30
BRANCH   1  37
ATOM     37  C   LIG d   1       4.429  -1.619  -1.900  0.00  0.00    -0.026 C 
ATOM     38  H   LIG d   1       3.822  -2.480  -2.177  0.00  0.00     0.029 H 
ATOM     39  H   LIG d   1       4.972  -1.838  -0.981  0.00  0.00     0.029 H 
ATOM     40  H   LIG d   1       3.784  -0.754  -1.744  0.00  0.00     0.029 H 
ENDBRANCH   1  37
TORSDOF 8
ENDMDL
MODEL 9
REMARK VINA RESULT:      -5.0     11.263     13.480
REMARK  8 active torsions:
REMARK  status: ('A' for Active; 'I' for Inactive)
REMARK    1  A    between atoms: C_1  and  C_2 
REMARK    2  A    between atoms: C_3  and  C_20 
REMARK    3  A    between atoms: C_4  and  C_10 
REMARK    4  A    between atoms: C_11  and  C_12 
REMARK    5  A    between atoms: C_17  and  O_18 
REMARK    6  A    between atoms: O_18  and  C_19 
REMARK    7  A    between atoms: C_20  and  O_22 
REMARK    8  A    between atoms: O_22  and  C_23 
ROOT
ATOM      1  C   LIG d   1      10.438  12.509  -1.518  0.00  0.00     0.021 A 
ATOM      2  C   LIG d   1       9.658  11.489  -1.935  0.00  0.00     0.077 A 
ATOM      3  C   LIG d   1       9.407  10.352  -0.964  0.00  0.00     0.077 A 
ATOM      4  H   LIG d   1       8.329  10.267  -0.819  0.00  0.00     0.060 H 
ATOM      5  N   LIG d   1      10.036  10.456   0.362  0.00  0.00    -0.289 N 
ATOM      6  C   LIG d   1      10.791  11.540   0.632  0.00  0.00     0.304 A 
ATOM      7  O   LIG d   1      11.316  11.635   1.724  0.00  0.00    -0.253 OA
ATOM      8  N   LIG d   1      10.985  12.514  -0.267  0.00  0.00    -0.273 N 
ATOM      9  H   LIG d   1       9.913   9.760   1.027  0.00  0.00     0.151 HD
ATOM     10  H   LIG d   1      11.542  13.266  -0.013  0.00  0.00     0.156 HD
ENDROOT
BRANCH   3  11
ATOM     11  C   LIG d   1       9.886   9.076  -1.608  0.00  0.00    -0.059 C 
ATOM     12  C   LIG d   1       9.169   7.967  -1.493  0.00  0.00    -0.053 C 
ATOM     13  H   LIG d   1       8.243   7.977  -0.938  0.00  0.00     0.062 H 
ATOM     14  H   LIG d   1      10.813   9.066  -2.162  0.00  0.00     0.059 H 
BRANCH  12  15
ATOM     15  C   LIG d   1       9.638   6.716  -2.123  0.00  0.00     0.016 A 
ATOM     16  C   LIG d   1      10.260   5.728  -1.350  0.00  0.00     0.127 A 
ATOM     17  C   LIG d   1      10.692   4.556  -1.949  0.00  0.00    -0.019 A 
ATOM     18  C   LIG d   1      10.519   4.369  -3.308  0.00  0.00    -0.058 A 
ATOM     19  H   LIG d   1      11.168   3.791  -1.356  0.00  0.00     0.065 H 
ATOM     20  C   LIG d   1       9.909   5.344  -4.077  0.00  0.00    -0.061 A 
ATOM     21  H   LIG d   1      10.860   3.455  -3.772  0.00  0.00     0.062 H 
ATOM     22  C   LIG d   1       9.469   6.515  -3.493  0.00  0.00    -0.051 A 
ATOM     23  H   LIG d   1       9.778   5.190  -5.137  0.00  0.00     0.062 H 
ATOM     24  H   LIG d   1       8.994   7.274  -4.096  0.00  0.00     0.062 H 
BRANCH  16  25
ATOM     25  O   LIG d   1      10.435   5.916  -0.016  0.00  0.00    -0.494 OA
BRANCH  25  26
ATOM     26  C   LIG d   1      11.768   5.804   0.486  0.00  0.00     0.079 C 
ATOM     27  H   LIG d   1      12.347   6.675   0.179  0.00  0.00     0.066 H 
ATOM     28  H   LIG d   1      11.743   5.750   1.575  0.00  0.00     0.066 H 
ATOM     29  H   LIG d   1      12.231   4.901   0.088  0.00  0.00     0.066 H 
ENDBRANCH  25  26
ENDBRANCH  16  25
ENDBRANCH  12  15
ENDBRANCH   3  11
BRANCH   2  30
ATOM     30  C   LIG d   1       9.095  11.481  -3.232  0.00  0.00     0.339 C 
ATOM     31  O   LIG d   1       7.931  11.792  -3.393  0.00  0.00    -0.245 OA
BRANCH  30  32
ATOM     32  O   LIG d   1       9.852  11.128  -4.293  0.00  0.00    -0.465 OA
BRANCH  32  33
ATOM     33  C   LIG d   1       9.528  11.727  -5.549  0.00  0.00     0.082 C 
ATOM     34  H   LIG d   1      10.011  12.701  -5.622  0.00  0.00     0.066 H 
ATOM     35  H   LIG d   1       9.879  11.086  -6.358  0.00  0.00     0.066 H 
ATOM     36  H   LIG d   1       8.448  11.850  -5.625  0.00  0.00     0.066 H 
ENDBRANCH  32  33
ENDBRANCH  30  32
ENDBRANCH   2  30
BRANCH   1  37
ATOM     37  C   LIG d   1      10.715  13.660  -2.451  0.00  0.00    -0.026 C 
ATOM     38  H   LIG d   1      11.465  14.314  -2.009  0.00  0.00     0.029 H 
ATOM     39  H   LIG d   1      11.082  13.276  -3.403  0.00  0.00     0.029 H 
ATOM     40  H   LIG d   1       9.795  14.222  -2.617  0.00  0.00     0.029 H 
ENDBRANCH   1  37
TORSDOF 8
ENDMDL
MODEL 10
REMARK VINA RESULT:      -5.0      5.066      7.081
REMARK  8 active torsions:
REMARK  status: ('A' for Active; 'I' for Inactive)
REMARK    1  A    between atoms: C_1  and  C_2 
REMARK    2  A    between atoms: C_3  and  C_20 
REMARK    3  A    between atoms: C_4  and  C_10 
REMARK    4  A    between atoms: C_11  and  C_12 
REMARK    5  A    between atoms: C_17  and  O_18 
REMARK    6  A    between atoms: O_18  and  C_19 
REMARK    7  A    between atoms: C_20  and  O_22 
REMARK    8  A    between atoms: O_22  and  C_23 
ROOT
ATOM      1  C   LIG d   1       4.881  -1.530  -3.426  0.00  0.00     0.021 A 
ATOM      2  C   LIG d   1       6.171  -1.136  -3.501  0.00  0.00     0.077 A 
ATOM      3  C   LIG d   1       6.515   0.248  -2.989  0.00  0.00     0.077 A 
ATOM      4  H   LIG d   1       7.266   0.139  -2.206  0.00  0.00     0.060 H 
ATOM      5  N   LIG d   1       5.409   1.054  -2.448  0.00  0.00    -0.289 N 
ATOM      6  C   LIG d   1       4.170   0.522  -2.441  0.00  0.00     0.304 A 
ATOM      7  O   LIG d   1       3.250   1.180  -1.997  0.00  0.00    -0.253 OA
ATOM      8  N   LIG d   1       3.921  -0.707  -2.912  0.00  0.00    -0.273 N 
ATOM      9  H   LIG d   1       5.566   1.948  -2.106  0.00  0.00     0.151 HD
ATOM     10  H   LIG d   1       3.007  -1.031  -2.883  0.00  0.00     0.156 HD
ENDROOT
BRANCH   3  11
ATOM     11  C   LIG d   1       7.142   1.020  -4.122  0.00  0.00    -0.059 C 
ATOM     12  C   LIG d   1       8.111   1.890  -3.874  0.00  0.00    -0.053 C 
ATOM     13  H   LIG d   1       8.450   2.047  -2.861  0.00  0.00     0.062 H 
ATOM     14  H   LIG d   1       6.802   0.864  -5.135  0.00  0.00     0.059 H 
BRANCH  12  15
ATOM     15  C   LIG d   1       8.725   2.647  -4.983  0.00  0.00     0.016 A 
ATOM     16  C   LIG d   1       9.394   3.851  -4.730  0.00  0.00     0.127 A 
ATOM     17  C   LIG d   1       9.971   4.551  -5.776  0.00  0.00    -0.019 A 
ATOM     18  C   LIG d   1       9.878   4.068  -7.068  0.00  0.00    -0.058 A 
ATOM     19  H   LIG d   1      10.491   5.477  -5.584  0.00  0.00     0.065 H 
ATOM     20  C   LIG d   1       9.214   2.881  -7.324  0.00  0.00    -0.061 A 
ATOM     21  H   LIG d   1      10.326   4.618  -7.882  0.00  0.00     0.062 H 
ATOM     22  C   LIG d   1       8.638   2.169  -6.291  0.00  0.00    -0.051 A 
ATOM     23  H   LIG d   1       9.145   2.510  -8.336  0.00  0.00     0.062 H 
ATOM     24  H   LIG d   1       8.120   1.244  -6.495  0.00  0.00     0.062 H 
BRANCH  16  25
ATOM     25  O   LIG d   1       9.480   4.328  -3.460  0.00  0.00    -0.494 OA
BRANCH  25  26
ATOM     26  C   LIG d   1      10.757   4.806  -3.033  0.00  0.00     0.079 C 
ATOM     27  H   LIG d   1      10.900   4.570  -1.979  0.00  0.00     0.066 H 
ATOM     28  H   LIG d   1      11.540   4.327  -3.622  0.00  0.00     0.066 H 
ATOM     29  H   LIG d   1      10.806   5.886  -3.174  0.00  0.00     0.066 H 
ENDBRANCH  25  26
ENDBRANCH  16  25
ENDBRANCH  12  15
ENDBRANCH   3  11
BRANCH   2  30
ATOM     30  C   LIG d   1       7.165  -1.987  -4.038  0.00  0.00     0.339 C 
ATOM     31  O   LIG d   1       7.871  -2.642  -3.296  0.00  0.00    -0.245 OA
BRANCH  30  32
ATOM     32  O   LIG d   1       7.330  -2.070  -5.375  0.00  0.00    -0.465 OA
BRANCH  32  33
ATOM     33  C   LIG d   1       8.648  -1.853  -5.881  0.00  0.00     0.082 C 
ATOM     34  H   LIG d   1       9.155  -2.811  -5.998  0.00  0.00     0.066 H 
ATOM     35  H   LIG d   1       8.588  -1.353  -6.847  0.00  0.00     0.066 H 
ATOM     36  H   LIG d   1       9.207  -1.230  -5.183  0.00  0.00     0.066 H 
ENDBRANCH  32  33
ENDBRANCH  30  32
ENDBRANCH   2  30
BRANCH   1  37
ATOM     37  C   LIG d   1       4.494  -2.899  -3.924  0.00  0.00    -0.026 C 
ATOM     38  H   LIG d   1       3.427  -3.055  -3.766  0.00  0.00     0.029 H 
ATOM     39  H   LIG d   1       4.719  -2.975  -4.988  0.00  0.00     0.029 H 
ATOM     40  H   LIG d   1       5.057  -3.656  -3.378  0.00  0.00     0.029 H 
ENDBRANCH   1  37
TORSDOF 8
ENDMDL
