MODEL 1
REMARK VINA RESULT:      -7.3      0.000      0.000
REMARK  6 active torsions:
REMARK  status: ('A' for Active; 'I' for Inactive)
REMARK    1  A    between atoms: C_1  and  C_2 
REMARK       I    between atoms: C_2  and  N_4 
REMARK    2  A    between atoms: N_7  and  C_10 
REMARK    3  A    between atoms: C_12  and  O_35 
REMARK    4  A    between atoms: C_14  and  N_23 
REMARK    5  A    between atoms: N_23  and  C_24 
REMARK    6  A    between atoms: C_24  and  C_25 
ROOT
ATOM      1  C   LIG d   1       3.933  -4.195  -7.202  0.00  0.00     0.093 C 
ATOM      2  H   LIG d   1       2.863  -3.995  -7.046  0.00  0.00     0.054 H 
ATOM      3  C   LIG d   1       4.605  -4.623  -5.893  0.00  0.00     0.120 C 
ATOM      4  H   LIG d   1       4.555  -3.826  -5.135  0.00  0.00     0.067 H 
ATOM      5  C   LIG d   1       6.055  -5.033  -6.179  0.00  0.00     0.035 C 
ATOM      6  H   LIG d   1       6.538  -5.435  -5.276  0.00  0.00     0.090 H 
ATOM      7  C   LIG d   1       6.055  -6.064  -7.319  0.00  0.00     0.130 C 
ATOM      8  H   LIG d   1       7.058  -6.487  -7.474  0.00  0.00     0.068 H 
ATOM      9  C   LIG d   1       4.936  -7.091  -7.025  0.00  0.00     0.082 C 
ATOM     10  O   LIG d   1       3.744  -6.553  -7.672  0.00  0.00    -0.347 OA
ATOM     11  C   LIG d   1       4.144  -5.297  -8.251  0.00  0.00     0.178 C 
ATOM     12  H   LIG d   1       3.593  -5.128  -9.189  0.00  0.00     0.093 H 
ATOM     13  O   LIG d   1       5.563  -5.391  -8.504  0.00  0.00    -0.339 OA
ATOM     14  H   LIG d   1       5.217  -8.068  -7.445  0.00  0.00     0.059 H 
ATOM     15  H   LIG d   1       4.800  -7.183  -5.938  0.00  0.00     0.059 H 
ENDROOT
BRANCH   5  16
ATOM     16  N   LIG d   1       6.831  -3.853  -6.581  0.00  0.00     0.236 N 
ATOM     17  H   LIG d   1       7.407  -4.085  -7.489  0.00  0.00     0.202 HD
ATOM     18  H   LIG d   1       6.147  -3.016  -6.785  0.00  0.00     0.202 HD
BRANCH  16  19
ATOM     19  C   LIG d   1       7.765  -3.450  -5.521  0.00  0.00    -0.006 C 
ATOM     20  H   LIG d   1       7.892  -4.280  -4.809  0.00  0.00     0.087 H 
ATOM     21  H   LIG d   1       8.739  -3.199  -5.967  0.00  0.00     0.087 H 
BRANCH  19  22
ATOM     22  C   LIG d   1       7.217  -2.247  -4.798  0.00  0.00     0.016 A 
ATOM     23  C   LIG d   1       7.729  -0.980  -5.068  0.00  0.00     0.036 A 
ATOM     24  N   LIG d   1       7.271   0.091  -4.464  0.00  0.00    -0.255 NA
ATOM     25  H   LIG d   1       8.518  -0.875  -5.796  0.00  0.00     0.083 H 
ATOM     26  C   LIG d   1       6.299   0.012  -3.550  0.00  0.00     0.071 A 
ATOM     27  C   LIG d   1       5.739  -1.248  -3.224  0.00  0.00     0.001 A 
ATOM     28  C   LIG d   1       5.818   1.162  -2.900  0.00  0.00    -0.036 A 
ATOM     29  C   LIG d   1       6.221  -2.399  -3.875  0.00  0.00    -0.043 A 
ATOM     30  C   LIG d   1       4.717  -1.326  -2.264  0.00  0.00    -0.053 A 
ATOM     31  H   LIG d   1       5.816  -3.374  -3.650  0.00  0.00     0.063 H 
ATOM     32  C   LIG d   1       4.279  -0.190  -1.655  0.00  0.00    -0.061 A 
ATOM     33  H   LIG d   1       4.283  -2.281  -2.008  0.00  0.00     0.062 H 
ATOM     34  C   LIG d   1       4.828   1.050  -1.974  0.00  0.00    -0.060 A 
ATOM     35  H   LIG d   1       3.493  -0.250  -0.915  0.00  0.00     0.062 H 
ATOM     36  H   LIG d   1       4.462   1.937  -1.478  0.00  0.00     0.062 H 
ATOM     37  H   LIG d   1       6.234   2.131  -3.135  0.00  0.00     0.064 H 
ENDBRANCH  19  22
ENDBRANCH  16  19
ENDBRANCH   5  16
BRANCH   3  38
ATOM     38  O   LIG d   1       3.898  -5.732  -5.333  0.00  0.00    -0.384 OA
ATOM     39  H   LIG d   1       4.143  -6.756  -5.649  0.00  0.00     0.210 HD
ENDBRANCH   3  38
BRANCH   1  40
ATOM     40  N   LIG d   1       4.533  -2.942  -7.676  0.00  0.00    -0.290 N 
ATOM     41  C   LIG d   1       4.167  -1.818  -6.803  0.00  0.00     0.015 C 
ATOM     42  C   LIG d   1       4.954  -0.571  -7.223  0.00  0.00     0.028 C 
ATOM     43  H   LIG d   1       4.409  -2.070  -5.760  0.00  0.00     0.044 H 
ATOM     44  H   LIG d   1       3.089  -1.619  -6.892  0.00  0.00     0.044 H 
ATOM     45  N   LIG d   1       4.732  -0.341  -8.658  0.00  0.00    -0.299 N 
ATOM     46  H   LIG d   1       6.027  -0.724  -7.037  0.00  0.00     0.048 H 
ATOM     47  H   LIG d   1       4.604   0.301  -6.653  0.00  0.00     0.048 H 
ATOM     48  C   LIG d   1       4.343   0.867  -9.113  0.00  0.00     0.212 C 
ATOM     49  C   LIG d   1       4.948  -1.462  -9.585  0.00  0.00     0.028 C 
ATOM     50  O   LIG d   1       4.073   1.752  -8.328  0.00  0.00    -0.276 OA
ATOM     51  C   LIG d   1       4.161  -2.674  -9.072  0.00  0.00     0.015 C 
ATOM     52  H   LIG d   1       4.593  -1.183 -10.587  0.00  0.00     0.048 H 
ATOM     53  H   LIG d   1       6.020  -1.702  -9.628  0.00  0.00     0.048 H 
ATOM     54  H   LIG d   1       4.398  -3.554  -9.689  0.00  0.00     0.044 H 
ATOM     55  H   LIG d   1       3.084  -2.465  -9.131  0.00  0.00     0.044 H 
BRANCH  48  56
ATOM     56  C   LIG d   1       4.244   1.118 -10.596  0.00  0.00     0.012 C 
ATOM     57  H   LIG d   1       5.227   1.422 -10.982  0.00  0.00     0.032 H 
ATOM     58  H   LIG d   1       3.512   1.916 -10.784  0.00  0.00     0.032 H 
ATOM     59  H   LIG d   1       3.919   0.197 -11.102  0.00  0.00     0.032 H 
ENDBRANCH  48  56
ENDBRANCH   1  40
TORSDOF 6
ENDMDL
MODEL 2
REMARK VINA RESULT:      -6.7      3.223      7.053
REMARK  6 active torsions:
REMARK  status: ('A' for Active; 'I' for Inactive)
REMARK    1  A    between atoms: C_1  and  C_2 
REMARK       I    between atoms: C_2  and  N_4 
REMARK    2  A    between atoms: N_7  and  C_10 
REMARK    3  A    between atoms: C_12  and  O_35 
REMARK    4  A    between atoms: C_14  and  N_23 
REMARK    5  A    between atoms: N_23  and  C_24 
REMARK    6  A    between atoms: C_24  and  C_25 
ROOT
ATOM      1  C   LIG d   1       5.560  -0.880  -4.164  0.00  0.00     0.093 C 
ATOM      2  H   LIG d   1       6.227  -1.642  -3.735  0.00  0.00     0.054 H 
ATOM      3  C   LIG d   1       4.428  -1.533  -4.963  0.00  0.00     0.120 C 
ATOM      4  H   LIG d   1       4.818  -2.107  -5.818  0.00  0.00     0.067 H 
ATOM      5  C   LIG d   1       3.441  -0.452  -5.419  0.00  0.00     0.035 C 
ATOM      6  H   LIG d   1       2.567  -0.899  -5.916  0.00  0.00     0.090 H 
ATOM      7  C   LIG d   1       3.024   0.377  -4.193  0.00  0.00     0.130 C 
ATOM      8  H   LIG d   1       2.218   1.082  -4.444  0.00  0.00     0.068 H 
ATOM      9  C   LIG d   1       2.715  -0.608  -3.041  0.00  0.00     0.082 C 
ATOM     10  O   LIG d   1       3.983  -0.788  -2.341  0.00  0.00    -0.347 OA
ATOM     11  C   LIG d   1       4.946   0.001  -3.064  0.00  0.00     0.178 C 
ATOM     12  H   LIG d   1       5.686   0.417  -2.365  0.00  0.00     0.093 H 
ATOM     13  O   LIG d   1       4.210   1.060  -3.716  0.00  0.00    -0.339 OA
ATOM     14  H   LIG d   1       1.948  -0.173  -2.384  0.00  0.00     0.059 H 
ATOM     15  H   LIG d   1       2.346  -1.556  -3.459  0.00  0.00     0.059 H 
ENDROOT
BRANCH   5  16
ATOM     16  N   LIG d   1       4.086   0.421  -6.408  0.00  0.00     0.236 N 
ATOM     17  H   LIG d   1       4.637   1.218  -5.889  0.00  0.00     0.202 HD
ATOM     18  H   LIG d   1       4.785  -0.171  -7.018  0.00  0.00     0.202 HD
BRANCH  16  19
ATOM     19  C   LIG d   1       3.092   1.036  -7.297  0.00  0.00    -0.006 C 
ATOM     20  H   LIG d   1       2.086   0.681  -7.024  0.00  0.00     0.087 H 
ATOM     21  H   LIG d   1       3.134   2.130  -7.192  0.00  0.00     0.087 H 
BRANCH  19  22
ATOM     22  C   LIG d   1       3.388   0.656  -8.724  0.00  0.00     0.016 A 
ATOM     23  C   LIG d   1       4.548   1.118  -9.342  0.00  0.00     0.036 A 
ATOM     24  N   LIG d   1       4.842   0.802 -10.580  0.00  0.00    -0.255 NA
ATOM     25  H   LIG d   1       5.224   1.748  -8.785  0.00  0.00     0.083 H 
ATOM     26  C   LIG d   1       4.033   0.029 -11.312  0.00  0.00     0.071 A 
ATOM     27  C   LIG d   1       2.834  -0.469 -10.746  0.00  0.00     0.001 A 
ATOM     28  C   LIG d   1       4.351  -0.300 -12.641  0.00  0.00    -0.036 A 
ATOM     29  C   LIG d   1       2.517  -0.138  -9.415  0.00  0.00    -0.043 A 
ATOM     30  C   LIG d   1       1.988  -1.281 -11.518  0.00  0.00    -0.053 A 
ATOM     31  H   LIG d   1       1.611  -0.502  -8.954  0.00  0.00     0.063 H 
ATOM     32  C   LIG d   1       2.328  -1.578 -12.803  0.00  0.00    -0.061 A 
ATOM     33  H   LIG d   1       1.071  -1.667 -11.097  0.00  0.00     0.062 H 
ATOM     34  C   LIG d   1       3.507  -1.089 -13.361  0.00  0.00    -0.060 A 
ATOM     35  H   LIG d   1       1.676  -2.202 -13.397  0.00  0.00     0.062 H 
ATOM     36  H   LIG d   1       3.756  -1.339 -14.381  0.00  0.00     0.062 H 
ATOM     37  H   LIG d   1       5.261   0.072 -13.089  0.00  0.00     0.064 H 
ENDBRANCH  19  22
ENDBRANCH  16  19
ENDBRANCH   5  16
BRANCH   3  38
ATOM     38  O   LIG d   1       3.748  -2.483  -4.140  0.00  0.00    -0.384 OA
ATOM     39  H   LIG d   1       2.727  -2.801  -4.396  0.00  0.00     0.210 HD
ENDBRANCH   3  38
BRANCH   1  40
ATOM     40  N   LIG d   1       6.380  -0.052  -5.057  0.00  0.00    -0.290 N 
ATOM     41  C   LIG d   1       7.072  -0.880  -6.055  0.00  0.00     0.015 C 
ATOM     42  C   LIG d   1       7.768   0.029  -7.074  0.00  0.00     0.028 C 
ATOM     43  H   LIG d   1       6.341  -1.519  -6.572  0.00  0.00     0.044 H 
ATOM     44  H   LIG d   1       7.820  -1.511  -5.554  0.00  0.00     0.044 H 
ATOM     45  N   LIG d   1       8.628   0.974  -6.346  0.00  0.00    -0.299 N 
ATOM     46  H   LIG d   1       7.018   0.586  -7.654  0.00  0.00     0.048 H 
ATOM     47  H   LIG d   1       8.383  -0.576  -7.756  0.00  0.00     0.048 H 
ATOM     48  C   LIG d   1       9.923   1.132  -6.684  0.00  0.00     0.212 C 
ATOM     49  C   LIG d   1       8.038   1.742  -5.240  0.00  0.00     0.028 C 
ATOM     50  O   LIG d   1      10.420   0.419  -7.531  0.00  0.00    -0.276 OA
ATOM     51  C   LIG d   1       7.331   0.766  -4.293  0.00  0.00     0.015 C 
ATOM     52  H   LIG d   1       8.832   2.278  -4.701  0.00  0.00     0.048 H 
ATOM     53  H   LIG d   1       7.313   2.466  -5.642  0.00  0.00     0.048 H 
ATOM     54  H   LIG d   1       6.788   1.331  -3.521  0.00  0.00     0.044 H 
ATOM     55  H   LIG d   1       8.075   0.114  -3.815  0.00  0.00     0.044 H 
BRANCH  48  56
ATOM     56  C   LIG d   1      10.753   2.195  -6.011  0.00  0.00     0.012 C 
ATOM     57  H   LIG d   1      10.131   3.082  -5.823  0.00  0.00     0.032 H 
ATOM     58  H   LIG d   1      11.596   2.468  -6.662  0.00  0.00     0.032 H 
ATOM     59  H   LIG d   1      11.139   1.808  -5.056  0.00  0.00     0.032 H 
ENDBRANCH  48  56
ENDBRANCH   1  40
TORSDOF 6
ENDMDL
MODEL 3
REMARK VINA RESULT:      -6.7      1.541      2.012
REMARK  6 active torsions:
REMARK  status: ('A' for Active; 'I' for Inactive)
REMARK    1  A    between atoms: C_1  and  C_2 
REMARK       I    between atoms: C_2  and  N_4 
REMARK    2  A    between atoms: N_7  and  C_10 
REMARK    3  A    between atoms: C_12  and  O_35 
REMARK    4  A    between atoms: C_14  and  N_23 
REMARK    5  A    between atoms: N_23  and  C_24 
REMARK    6  A    between atoms: C_24  and  C_25 
ROOT
ATOM      1  C   LIG d   1       4.137  -4.135  -9.548  0.00  0.00     0.093 C 
ATOM      2  H   LIG d   1       3.746  -3.993 -10.567  0.00  0.00     0.054 H 
ATOM      3  C   LIG d   1       3.251  -5.101  -8.754  0.00  0.00     0.120 C 
ATOM      4  H   LIG d   1       2.232  -4.705  -8.633  0.00  0.00     0.067 H 
ATOM      5  C   LIG d   1       3.905  -5.388  -7.397  0.00  0.00     0.035 C 
ATOM      6  H   LIG d   1       3.342  -6.151  -6.840  0.00  0.00     0.090 H 
ATOM      7  C   LIG d   1       5.357  -5.832  -7.639  0.00  0.00     0.130 C 
ATOM      8  H   LIG d   1       5.830  -6.174  -6.707  0.00  0.00     0.068 H 
ATOM      9  C   LIG d   1       5.351  -6.855  -8.800  0.00  0.00     0.082 C 
ATOM     10  O   LIG d   1       5.516  -6.059 -10.012  0.00  0.00    -0.347 OA
ATOM     11  C   LIG d   1       5.571  -4.687  -9.577  0.00  0.00     0.178 C 
ATOM     12  H   LIG d   1       6.252  -4.118 -10.227  0.00  0.00     0.093 H 
ATOM     13  O   LIG d   1       6.058  -4.702  -8.217  0.00  0.00    -0.339 OA
ATOM     14  H   LIG d   1       6.180  -7.565  -8.666  0.00  0.00     0.059 H 
ATOM     15  H   LIG d   1       4.396  -7.400  -8.802  0.00  0.00     0.059 H 
ENDROOT
BRANCH   5  16
ATOM     16  N   LIG d   1       3.892  -4.172  -6.575  0.00  0.00     0.236 N 
ATOM     17  H   LIG d   1       4.276  -3.326  -7.165  0.00  0.00     0.202 HD
ATOM     18  H   LIG d   1       2.861  -3.956  -6.256  0.00  0.00     0.202 HD
BRANCH  16  19
ATOM     19  C   LIG d   1       4.730  -4.334  -5.380  0.00  0.00    -0.006 C 
ATOM     20  H   LIG d   1       4.185  -4.923  -4.627  0.00  0.00     0.087 H 
ATOM     21  H   LIG d   1       5.659  -4.856  -5.652  0.00  0.00     0.087 H 
BRANCH  19  22
ATOM     22  C   LIG d   1       5.063  -2.979  -4.812  0.00  0.00     0.016 A 
ATOM     23  C   LIG d   1       6.105  -2.232  -5.357  0.00  0.00     0.036 A 
ATOM     24  N   LIG d   1       6.419  -1.046  -4.894  0.00  0.00    -0.255 NA
ATOM     25  H   LIG d   1       6.665  -2.637  -6.186  0.00  0.00     0.083 H 
ATOM     26  C   LIG d   1       5.759  -0.504  -3.865  0.00  0.00     0.071 A 
ATOM     27  C   LIG d   1       4.692  -1.214  -3.260  0.00  0.00     0.001 A 
ATOM     28  C   LIG d   1       6.105   0.764  -3.367  0.00  0.00    -0.036 A 
ATOM     29  C   LIG d   1       4.347  -2.484  -3.759  0.00  0.00    -0.043 A 
ATOM     30  C   LIG d   1       4.001  -0.640  -2.181  0.00  0.00    -0.053 A 
ATOM     31  H   LIG d   1       3.539  -3.051  -3.321  0.00  0.00     0.063 H 
ATOM     32  C   LIG d   1       4.366   0.590  -1.725  0.00  0.00    -0.061 A 
ATOM     33  H   LIG d   1       3.186  -1.173  -1.712  0.00  0.00     0.062 H 
ATOM     34  C   LIG d   1       5.414   1.290  -2.319  0.00  0.00    -0.060 A 
ATOM     35  H   LIG d   1       3.834   1.031  -0.894  0.00  0.00     0.062 H 
ATOM     36  H   LIG d   1       5.684   2.265  -1.941  0.00  0.00     0.062 H 
ATOM     37  H   LIG d   1       6.915   1.320  -3.816  0.00  0.00     0.064 H 
ENDBRANCH  19  22
ENDBRANCH  16  19
ENDBRANCH   5  16
BRANCH   3  38
ATOM     38  O   LIG d   1       3.105  -6.323  -9.481  0.00  0.00    -0.384 OA
ATOM     39  H   LIG d   1       2.110  -6.773  -9.607  0.00  0.00     0.210 HD
ENDBRANCH   3  38
BRANCH   1  40
ATOM     40  N   LIG d   1       4.130  -2.817  -8.903  0.00  0.00    -0.290 N 
ATOM     41  C   LIG d   1       2.834  -2.148  -9.084  0.00  0.00     0.015 C 
ATOM     42  C   LIG d   1       2.803  -0.863  -8.249  0.00  0.00     0.028 C 
ATOM     43  H   LIG d   1       2.026  -2.818  -8.756  0.00  0.00     0.044 H 
ATOM     44  H   LIG d   1       2.694  -1.899 -10.146  0.00  0.00     0.044 H 
ATOM     45  N   LIG d   1       3.977  -0.050  -8.600  0.00  0.00    -0.299 N 
ATOM     46  H   LIG d   1       2.836  -1.112  -7.178  0.00  0.00     0.048 H 
ATOM     47  H   LIG d   1       1.886  -0.297  -8.466  0.00  0.00     0.048 H 
ATOM     48  C   LIG d   1       3.844   1.248  -8.938  0.00  0.00     0.212 C 
ATOM     49  C   LIG d   1       5.301  -0.690  -8.574  0.00  0.00     0.028 C 
ATOM     50  O   LIG d   1       2.737   1.733  -9.053  0.00  0.00    -0.276 OA
ATOM     51  C   LIG d   1       5.233  -1.982  -9.397  0.00  0.00     0.015 C 
ATOM     52  H   LIG d   1       6.047  -0.009  -9.008  0.00  0.00     0.048 H 
ATOM     53  H   LIG d   1       5.576  -0.922  -7.534  0.00  0.00     0.048 H 
ATOM     54  H   LIG d   1       6.180  -2.532  -9.297  0.00  0.00     0.044 H 
ATOM     55  H   LIG d   1       5.062  -1.736 -10.454  0.00  0.00     0.044 H 
BRANCH  48  56
ATOM     56  C   LIG d   1       5.067   2.096  -9.171  0.00  0.00     0.012 C 
ATOM     57  H   LIG d   1       4.846   3.139  -8.905  0.00  0.00     0.032 H 
ATOM     58  H   LIG d   1       5.355   2.041 -10.231  0.00  0.00     0.032 H 
ATOM     59  H   LIG d   1       5.894   1.725  -8.548  0.00  0.00     0.032 H 
ENDBRANCH  48  56
ENDBRANCH   1  40
TORSDOF 6
ENDMDL
MODEL 4
REMARK VINA RESULT:      -6.6      5.634      8.200
REMARK  6 active torsions:
REMARK  status: ('A' for Active; 'I' for Inactive)
REMARK    1  A    between atoms: C_1  and  C_2 
REMARK       I    between atoms: C_2  and  N_4 
REMARK    2  A    between atoms: N_7  and  C_10 
REMARK    3  A    between atoms: C_12  and  O_35 
REMARK    4  A    between atoms: C_14  and  N_23 
REMARK    5  A    between atoms: N_23  and  C_24 
REMARK    6  A    between atoms: C_24  and  C_25 
ROOT
ATOM      1  C   LIG d   1      12.811   2.160  -5.306  0.00  0.00     0.093 C 
ATOM      2  H   LIG d   1      13.305   2.928  -5.919  0.00  0.00     0.054 H 
ATOM      3  C   LIG d   1      12.282   1.019  -6.182  0.00  0.00     0.120 C 
ATOM      4  H   LIG d   1      11.520   1.376  -6.891  0.00  0.00     0.067 H 
ATOM      5  C   LIG d   1      11.734  -0.096  -5.284  0.00  0.00     0.035 C 
ATOM      6  H   LIG d   1      11.432  -0.971  -5.879  0.00  0.00     0.090 H 
ATOM      7  C   LIG d   1      12.811  -0.466  -4.252  0.00  0.00     0.130 C 
ATOM      8  H   LIG d   1      12.517  -1.350  -3.667  0.00  0.00     0.068 H 
ATOM      9  C   LIG d   1      14.161  -0.580  -5.000  0.00  0.00     0.082 C 
ATOM     10  O   LIG d   1      14.740   0.758  -4.948  0.00  0.00    -0.347 OA
ATOM     11  C   LIG d   1      13.776   1.578  -4.262  0.00  0.00     0.178 C 
ATOM     12  H   LIG d   1      14.296   2.341  -3.664  0.00  0.00     0.093 H 
ATOM     13  O   LIG d   1      13.013   0.695  -3.409  0.00  0.00    -0.339 OA
ATOM     14  H   LIG d   1      14.799  -1.318  -4.491  0.00  0.00     0.059 H 
ATOM     15  H   LIG d   1      13.979  -0.903  -6.035  0.00  0.00     0.059 H 
ENDROOT
BRANCH   5  16
ATOM     16  N   LIG d   1      10.528   0.377  -4.591  0.00  0.00     0.236 N 
ATOM     17  H   LIG d   1      10.410  -0.173  -3.645  0.00  0.00     0.202 HD
ATOM     18  H   LIG d   1      10.625   1.452  -4.380  0.00  0.00     0.202 HD
BRANCH  16  19
ATOM     19  C   LIG d   1       9.330   0.164  -5.413  0.00  0.00    -0.006 C 
ATOM     20  H   LIG d   1       9.290   0.924  -6.207  0.00  0.00     0.087 H 
ATOM     21  H   LIG d   1       9.370  -0.837  -5.867  0.00  0.00     0.087 H 
BRANCH  19  22
ATOM     22  C   LIG d   1       8.101   0.274  -4.548  0.00  0.00     0.016 A 
ATOM     23  C   LIG d   1       7.674   1.522  -4.100  0.00  0.00     0.036 A 
ATOM     24  N   LIG d   1       6.606   1.658  -3.353  0.00  0.00    -0.255 NA
ATOM     25  H   LIG d   1       8.235   2.401  -4.379  0.00  0.00     0.083 H 
ATOM     26  C   LIG d   1       5.882   0.599  -2.975  0.00  0.00     0.071 A 
ATOM     27  C   LIG d   1       6.264  -0.700  -3.391  0.00  0.00     0.001 A 
ATOM     28  C   LIG d   1       4.741   0.750  -2.168  0.00  0.00    -0.036 A 
ATOM     29  C   LIG d   1       7.406  -0.850  -4.200  0.00  0.00    -0.043 A 
ATOM     30  C   LIG d   1       5.500  -1.809  -2.994  0.00  0.00    -0.053 A 
ATOM     31  H   LIG d   1       7.725  -1.826  -4.534  0.00  0.00     0.063 H 
ATOM     32  C   LIG d   1       4.403  -1.624  -2.210  0.00  0.00    -0.061 A 
ATOM     33  H   LIG d   1       5.783  -2.805  -3.305  0.00  0.00     0.062 H 
ATOM     34  C   LIG d   1       4.025  -0.347  -1.800  0.00  0.00    -0.060 A 
ATOM     35  H   LIG d   1       3.815  -2.478  -1.903  0.00  0.00     0.062 H 
ATOM     36  H   LIG d   1       3.149  -0.225  -1.180  0.00  0.00     0.062 H 
ATOM     37  H   LIG d   1       4.435   1.733  -1.841  0.00  0.00     0.064 H 
ENDBRANCH  19  22
ENDBRANCH  16  19
ENDBRANCH   5  16
BRANCH   3  38
ATOM     38  O   LIG d   1      13.345   0.504  -6.987  0.00  0.00    -0.384 OA
ATOM     39  H   LIG d   1      13.189   0.335  -8.062  0.00  0.00     0.210 HD
ENDBRANCH   3  38
BRANCH   1  40
ATOM     40  N   LIG d   1      11.688   2.819  -4.626  0.00  0.00    -0.290 N 
ATOM     41  C   LIG d   1      11.007   3.761  -5.524  0.00  0.00     0.015 C 
ATOM     42  C   LIG d   1       9.740   4.289  -4.841  0.00  0.00     0.028 C 
ATOM     43  H   LIG d   1      10.733   3.246  -6.457  0.00  0.00     0.044 H 
ATOM     44  H   LIG d   1      11.678   4.601  -5.753  0.00  0.00     0.044 H 
ATOM     45  N   LIG d   1      10.113   4.840  -3.529  0.00  0.00    -0.299 N 
ATOM     46  H   LIG d   1       9.019   3.471  -4.705  0.00  0.00     0.048 H 
ATOM     47  H   LIG d   1       9.286   5.080  -5.456  0.00  0.00     0.048 H 
ATOM     48  C   LIG d   1       9.729   6.079  -3.165  0.00  0.00     0.212 C 
ATOM     49  C   LIG d   1      10.915   4.002  -2.625  0.00  0.00     0.028 C 
ATOM     50  O   LIG d   1       9.155   6.794  -3.960  0.00  0.00    -0.276 OA
ATOM     51  C   LIG d   1      12.135   3.485  -3.395  0.00  0.00     0.015 C 
ATOM     52  H   LIG d   1      11.243   4.602  -1.764  0.00  0.00     0.048 H 
ATOM     53  H   LIG d   1      10.307   3.155  -2.274  0.00  0.00     0.048 H 
ATOM     54  H   LIG d   1      12.687   2.768  -2.771  0.00  0.00     0.044 H 
ATOM     55  H   LIG d   1      12.792   4.328  -3.653  0.00  0.00     0.044 H 
BRANCH  48  56
ATOM     56  C   LIG d   1      10.011   6.576  -1.771  0.00  0.00     0.012 C 
ATOM     57  H   LIG d   1      10.667   5.862  -1.253  0.00  0.00     0.032 H 
ATOM     58  H   LIG d   1       9.066   6.674  -1.218  0.00  0.00     0.032 H 
ATOM     59  H   LIG d   1      10.507   7.557  -1.825  0.00  0.00     0.032 H 
ENDBRANCH  48  56
ENDBRANCH   1  40
TORSDOF 6
ENDMDL
MODEL 5
REMARK VINA RESULT:      -6.6      2.586      5.698
REMARK  6 active torsions:
REMARK  status: ('A' for Active; 'I' for Inactive)
REMARK    1  A    between atoms: C_1  and  C_2 
REMARK       I    between atoms: C_2  and  N_4 
REMARK    2  A    between atoms: N_7  and  C_10 
REMARK    3  A    between atoms: C_12  and  O_35 
REMARK    4  A    between atoms: C_14  and  N_23 
REMARK    5  A    between atoms: N_23  and  C_24 
REMARK    6  A    between atoms: C_24  and  C_25 
ROOT
ATOM      1  C   LIG d   1       5.524  -6.579  -7.827  0.00  0.00     0.093 C 
ATOM      2  H   LIG d   1       5.957  -7.286  -8.551  0.00  0.00     0.054 H 
ATOM      3  C   LIG d   1       6.270  -5.241  -7.858  0.00  0.00     0.120 C 
ATOM      4  H   LIG d   1       7.325  -5.361  -7.568  0.00  0.00     0.067 H 
ATOM      5  C   LIG d   1       5.550  -4.239  -6.948  0.00  0.00     0.035 C 
ATOM      6  H   LIG d   1       6.005  -3.240  -7.021  0.00  0.00     0.090 H 
ATOM      7  C   LIG d   1       4.063  -4.204  -7.340  0.00  0.00     0.130 C 
ATOM      8  H   LIG d   1       3.528  -3.406  -6.805  0.00  0.00     0.068 H 
ATOM      9  C   LIG d   1       3.984  -4.142  -8.884  0.00  0.00     0.082 C 
ATOM     10  O   LIG d   1       3.945  -5.534  -9.321  0.00  0.00    -0.347 OA
ATOM     11  C   LIG d   1       4.038  -6.325  -8.122  0.00  0.00     0.178 C 
ATOM     12  H   LIG d   1       3.445  -7.245  -8.237  0.00  0.00     0.093 H 
ATOM     13  O   LIG d   1       3.514  -5.513  -7.047  0.00  0.00    -0.339 OA
ATOM     14  H   LIG d   1       3.075  -3.598  -9.182  0.00  0.00     0.059 H 
ATOM     15  H   LIG d   1       4.869  -3.620  -9.275  0.00  0.00     0.059 H 
ENDROOT
BRANCH   5  16
ATOM     16  N   LIG d   1       5.681  -4.660  -5.548  0.00  0.00     0.236 N 
ATOM     17  H   LIG d   1       4.770  -4.387  -4.995  0.00  0.00     0.202 HD
ATOM     18  H   LIG d   1       5.821  -5.750  -5.505  0.00  0.00     0.202 HD
BRANCH  16  19
ATOM     19  C   LIG d   1       6.833  -4.012  -4.908  0.00  0.00    -0.006 C 
ATOM     20  H   LIG d   1       7.254  -4.683  -4.144  0.00  0.00     0.087 H 
ATOM     21  H   LIG d   1       7.599  -3.795  -5.667  0.00  0.00     0.087 H 
BRANCH  19  22
ATOM     22  C   LIG d   1       6.390  -2.727  -4.259  0.00  0.00     0.016 A 
ATOM     23  C   LIG d   1       7.326  -1.740  -3.956  0.00  0.00     0.036 A 
ATOM     24  N   LIG d   1       6.976  -0.607  -3.397  0.00  0.00    -0.255 NA
ATOM     25  H   LIG d   1       8.365  -1.912  -4.192  0.00  0.00     0.083 H 
ATOM     26  C   LIG d   1       5.703  -0.351  -3.081  0.00  0.00     0.071 A 
ATOM     27  C   LIG d   1       4.701  -1.314  -3.356  0.00  0.00     0.001 A 
ATOM     28  C   LIG d   1       5.335   0.863  -2.475  0.00  0.00    -0.036 A 
ATOM     29  C   LIG d   1       5.071  -2.530  -3.962  0.00  0.00    -0.043 A 
ATOM     30  C   LIG d   1       3.365  -1.041  -3.023  0.00  0.00    -0.053 A 
ATOM     31  H   LIG d   1       4.332  -3.285  -4.186  0.00  0.00     0.063 H 
ATOM     32  C   LIG d   1       3.047   0.146  -2.436  0.00  0.00    -0.061 A 
ATOM     33  H   LIG d   1       2.593  -1.768  -3.228  0.00  0.00     0.062 H 
ATOM     34  C   LIG d   1       4.030   1.095  -2.165  0.00  0.00    -0.060 A 
ATOM     35  H   LIG d   1       2.019   0.356  -2.179  0.00  0.00     0.062 H 
ATOM     36  H   LIG d   1       3.754   2.030  -1.700  0.00  0.00     0.062 H 
ATOM     37  H   LIG d   1       6.085   1.610  -2.258  0.00  0.00     0.064 H 
ENDBRANCH  19  22
ENDBRANCH  16  19
ENDBRANCH   5  16
BRANCH   3  38
ATOM     38  O   LIG d   1       6.294  -4.738  -9.196  0.00  0.00    -0.384 OA
ATOM     39  H   LIG d   1       7.047  -3.992  -9.490  0.00  0.00     0.210 HD
ENDBRANCH   3  38
BRANCH   1  40
ATOM     40  N   LIG d   1       5.666  -7.191  -6.500  0.00  0.00    -0.290 N 
ATOM     41  C   LIG d   1       7.062  -7.567  -6.239  0.00  0.00     0.015 C 
ATOM     42  C   LIG d   1       7.200  -8.031  -4.785  0.00  0.00     0.028 C 
ATOM     43  H   LIG d   1       7.714  -6.697  -6.410  0.00  0.00     0.044 H 
ATOM     44  H   LIG d   1       7.356  -8.383  -6.915  0.00  0.00     0.044 H 
ATOM     45  N   LIG d   1       6.214  -9.094  -4.540  0.00  0.00    -0.299 N 
ATOM     46  H   LIG d   1       7.011  -7.190  -4.103  0.00  0.00     0.048 H 
ATOM     47  H   LIG d   1       8.213  -8.423  -4.612  0.00  0.00     0.048 H 
ATOM     48  C   LIG d   1       6.585 -10.270  -3.995  0.00  0.00     0.212 C 
ATOM     49  C   LIG d   1       4.812  -8.841  -4.904  0.00  0.00     0.028 C 
ATOM     50  O   LIG d   1       7.760 -10.501  -3.794  0.00  0.00    -0.276 OA
ATOM     51  C   LIG d   1       4.768  -8.345  -6.353  0.00  0.00     0.015 C 
ATOM     52  H   LIG d   1       4.235  -9.772  -4.810  0.00  0.00     0.048 H 
ATOM     53  H   LIG d   1       4.391  -8.078  -4.233  0.00  0.00     0.048 H 
ATOM     54  H   LIG d   1       3.741  -8.043  -6.607  0.00  0.00     0.044 H 
ATOM     55  H   LIG d   1       5.092  -9.150  -7.028  0.00  0.00     0.044 H 
BRANCH  48  56
ATOM     56  C   LIG d   1       5.543 -11.297  -3.635  0.00  0.00     0.012 C 
ATOM     57  H   LIG d   1       5.557 -12.109  -4.375  0.00  0.00     0.032 H 
ATOM     58  H   LIG d   1       4.550 -10.824  -3.628  0.00  0.00     0.032 H 
ATOM     59  H   LIG d   1       5.760 -11.706  -2.637  0.00  0.00     0.032 H 
ENDBRANCH  48  56
ENDBRANCH   1  40
TORSDOF 6
ENDMDL
MODEL 6
REMARK VINA RESULT:      -6.5      6.006      9.410
REMARK  6 active torsions:
REMARK  status: ('A' for Active; 'I' for Inactive)
REMARK    1  A    between atoms: C_1  and  C_2 
REMARK       I    between atoms: C_2  and  N_4 
REMARK    2  A    between atoms: N_7  and  C_10 
REMARK    3  A    between atoms: C_12  and  O_35 
REMARK    4  A    between atoms: C_14  and  N_23 
REMARK    5  A    between atoms: N_23  and  C_24 
REMARK    6  A    between atoms: C_24  and  C_25 
ROOT
ATOM      1  C   LIG d   1      12.428   4.268  -4.772  0.00  0.00     0.093 C 
ATOM      2  H   LIG d   1      12.866   5.232  -5.069  0.00  0.00     0.054 H 
ATOM      3  C   LIG d   1      11.549   3.701  -5.892  0.00  0.00     0.120 C 
ATOM      4  H   LIG d   1      10.698   4.363  -6.110  0.00  0.00     0.067 H 
ATOM      5  C   LIG d   1      11.077   2.294  -5.502  0.00  0.00     0.035 C 
ATOM      6  H   LIG d   1      10.521   1.821  -6.325  0.00  0.00     0.090 H 
ATOM      7  C   LIG d   1      12.306   1.460  -5.106  0.00  0.00     0.130 C 
ATOM      8  H   LIG d   1      12.037   0.406  -4.942  0.00  0.00     0.068 H 
ATOM      9  C   LIG d   1      13.408   1.711  -6.163  0.00  0.00     0.082 C 
ATOM     10  O   LIG d   1      14.167   2.852  -5.659  0.00  0.00    -0.347 OA
ATOM     11  C   LIG d   1      13.522   3.244  -4.433  0.00  0.00     0.178 C 
ATOM     12  H   LIG d   1      14.272   3.616  -3.721  0.00  0.00     0.093 H 
ATOM     13  O   LIG d   1      12.867   2.065  -3.914  0.00  0.00    -0.339 OA
ATOM     14  H   LIG d   1      14.038   0.815  -6.255  0.00  0.00     0.059 H 
ATOM     15  H   LIG d   1      12.940   1.934  -7.133  0.00  0.00     0.059 H 
ENDROOT
BRANCH   5  16
ATOM     16  N   LIG d   1      10.153   2.381  -4.364  0.00  0.00     0.236 N 
ATOM     17  H   LIG d   1      10.206   1.453  -3.777  0.00  0.00     0.202 HD
ATOM     18  H   LIG d   1      10.433   3.234  -3.728  0.00  0.00     0.202 HD
BRANCH  16  19
ATOM     19  C   LIG d   1       8.770   2.571  -4.822  0.00  0.00    -0.006 C 
ATOM     20  H   LIG d   1       8.374   3.512  -4.413  0.00  0.00     0.087 H 
ATOM     21  H   LIG d   1       8.751   2.613  -5.921  0.00  0.00     0.087 H 
BRANCH  19  22
ATOM     22  C   LIG d   1       7.921   1.420  -4.349  0.00  0.00     0.016 A 
ATOM     23  C   LIG d   1       8.200   0.125  -4.777  0.00  0.00     0.036 A 
ATOM     24  N   LIG d   1       7.488  -0.901  -4.380  0.00  0.00    -0.255 NA
ATOM     25  H   LIG d   1       9.029  -0.039  -5.449  0.00  0.00     0.083 H 
ATOM     26  C   LIG d   1       6.449  -0.749  -3.552  0.00  0.00     0.071 A 
ATOM     27  C   LIG d   1       6.106   0.544  -3.084  0.00  0.00     0.001 A 
ATOM     28  C   LIG d   1       5.684  -1.852  -3.136  0.00  0.00    -0.036 A 
ATOM     29  C   LIG d   1       6.873   1.647  -3.502  0.00  0.00    -0.043 A 
ATOM     30  C   LIG d   1       5.015   0.700  -2.214  0.00  0.00    -0.053 A 
ATOM     31  H   LIG d   1       6.639   2.646  -3.163  0.00  0.00     0.063 H 
ATOM     32  C   LIG d   1       4.296  -0.393  -1.834  0.00  0.00    -0.061 A 
ATOM     33  H   LIG d   1       4.744   1.680  -1.851  0.00  0.00     0.062 H 
ATOM     34  C   LIG d   1       4.632  -1.664  -2.293  0.00  0.00    -0.060 A 
ATOM     35  H   LIG d   1       3.456  -0.272  -1.165  0.00  0.00     0.062 H 
ATOM     36  H   LIG d   1       4.048  -2.516  -1.977  0.00  0.00     0.062 H 
ATOM     37  H   LIG d   1       5.930  -2.845  -3.484  0.00  0.00     0.064 H 
ENDBRANCH  19  22
ENDBRANCH  16  19
ENDBRANCH   5  16
BRANCH   3  38
ATOM     38  O   LIG d   1      12.304   3.631  -7.104  0.00  0.00    -0.384 OA
ATOM     39  H   LIG d   1      12.850   4.515  -7.463  0.00  0.00     0.210 HD
ENDBRANCH   3  38
BRANCH   1  40
ATOM     40  N   LIG d   1      11.606   4.523  -3.583  0.00  0.00    -0.290 N 
ATOM     41  C   LIG d   1      10.694   5.654  -3.805  0.00  0.00     0.015 C 
ATOM     42  C   LIG d   1       9.733   5.772  -2.616  0.00  0.00     0.028 C 
ATOM     43  H   LIG d   1      10.117   5.485  -4.726  0.00  0.00     0.044 H 
ATOM     44  H   LIG d   1      11.275   6.582  -3.901  0.00  0.00     0.044 H 
ATOM     45  N   LIG d   1      10.527   5.848  -1.380  0.00  0.00    -0.299 N 
ATOM     46  H   LIG d   1       9.075   4.893  -2.577  0.00  0.00     0.048 H 
ATOM     47  H   LIG d   1       9.124   6.682  -2.717  0.00  0.00     0.048 H 
ATOM     48  C   LIG d   1      10.315   6.828  -0.481  0.00  0.00     0.212 C 
ATOM     49  C   LIG d   1      11.558   4.824  -1.152  0.00  0.00     0.028 C 
ATOM     50  O   LIG d   1       9.532   7.721  -0.730  0.00  0.00    -0.276 OA
ATOM     51  C   LIG d   1      12.447   4.743  -2.398  0.00  0.00     0.015 C 
ATOM     52  H   LIG d   1      12.164   5.103  -0.278  0.00  0.00     0.048 H 
ATOM     53  H   LIG d   1      11.077   3.852  -0.970  0.00  0.00     0.048 H 
ATOM     54  H   LIG d   1      13.154   3.907  -2.292  0.00  0.00     0.044 H 
ATOM     55  H   LIG d   1      13.006   5.682  -2.514  0.00  0.00     0.044 H 
BRANCH  48  56
ATOM     56  C   LIG d   1      11.050   6.816   0.835  0.00  0.00     0.012 C 
ATOM     57  H   LIG d   1      12.055   7.239   0.697  0.00  0.00     0.032 H 
ATOM     58  H   LIG d   1      11.133   5.782   1.199  0.00  0.00     0.032 H 
ATOM     59  H   LIG d   1      10.496   7.419   1.570  0.00  0.00     0.032 H 
ENDBRANCH  48  56
ENDBRANCH   1  40
TORSDOF 6
ENDMDL
MODEL 7
REMARK VINA RESULT:      -6.5      9.731     14.118
REMARK  6 active torsions:
REMARK  status: ('A' for Active; 'I' for Inactive)
REMARK    1  A    between atoms: C_1  and  C_2 
REMARK       I    between atoms: C_2  and  N_4 
REMARK    2  A    between atoms: N_7  and  C_10 
REMARK    3  A    between atoms: C_12  and  O_35 
REMARK    4  A    between atoms: C_14  and  N_23 
REMARK    5  A    between atoms: N_23  and  C_24 
REMARK    6  A    between atoms: C_24  and  C_25 
ROOT
ATOM      1  C   LIG d   1       9.889  11.425  -2.108  0.00  0.00     0.093 C 
ATOM      2  H   LIG d   1       9.723  11.736  -1.066  0.00  0.00     0.054 H 
ATOM      3  C   LIG d   1       8.661  11.731  -2.971  0.00  0.00     0.120 C 
ATOM      4  H   LIG d   1       7.777  11.172  -2.627  0.00  0.00     0.067 H 
ATOM      5  C   LIG d   1       8.983  11.421  -4.438  0.00  0.00     0.035 C 
ATOM      6  H   LIG d   1       8.153  11.718  -5.097  0.00  0.00     0.090 H 
ATOM      7  C   LIG d   1      10.285  12.146  -4.816  0.00  0.00     0.130 C 
ATOM      8  H   LIG d   1      10.490  12.061  -5.893  0.00  0.00     0.068 H 
ATOM      9  C   LIG d   1      10.198  13.589  -4.265  0.00  0.00     0.082 C 
ATOM     10  O   LIG d   1      10.766  13.519  -2.922  0.00  0.00    -0.347 OA
ATOM     11  C   LIG d   1      11.110  12.137  -2.711  0.00  0.00     0.178 C 
ATOM     12  H   LIG d   1      12.015  12.070  -2.090  0.00  0.00     0.093 H 
ATOM     13  O   LIG d   1      11.345  11.565  -4.017  0.00  0.00    -0.339 OA
ATOM     14  H   LIG d   1      10.774  14.264  -4.913  0.00  0.00     0.059 H 
ATOM     15  H   LIG d   1       9.146  13.909  -4.242  0.00  0.00     0.059 H 
ENDROOT
BRANCH   5  16
ATOM     16  N   LIG d   1       9.157   9.973  -4.610  0.00  0.00     0.236 N 
ATOM     17  H   LIG d   1       9.979   9.624  -3.966  0.00  0.00     0.202 HD
ATOM     18  H   LIG d   1       8.228   9.456  -4.329  0.00  0.00     0.202 HD
BRANCH  16  19
ATOM     19  C   LIG d   1       9.478   9.642  -6.004  0.00  0.00    -0.006 C 
ATOM     20  H   LIG d   1       8.687  10.030  -6.664  0.00  0.00     0.087 H 
ATOM     21  H   LIG d   1      10.440  10.099  -6.278  0.00  0.00     0.087 H 
BRANCH  19  22
ATOM     22  C   LIG d   1       9.571   8.146  -6.158  0.00  0.00     0.016 A 
ATOM     23  C   LIG d   1       9.718   7.583  -7.423  0.00  0.00     0.036 A 
ATOM     24  N   LIG d   1       9.809   6.287  -7.595  0.00  0.00    -0.255 NA
ATOM     25  H   LIG d   1       9.763   8.232  -8.285  0.00  0.00     0.083 H 
ATOM     26  C   LIG d   1       9.753   5.442  -6.560  0.00  0.00     0.071 A 
ATOM     27  C   LIG d   1       9.598   5.949  -5.245  0.00  0.00     0.001 A 
ATOM     28  C   LIG d   1       9.844   4.053  -6.750  0.00  0.00    -0.036 A 
ATOM     29  C   LIG d   1       9.506   7.340  -5.056  0.00  0.00    -0.043 A 
ATOM     30  C   LIG d   1       9.540   5.058  -4.161  0.00  0.00    -0.053 A 
ATOM     31  H   LIG d   1       9.388   7.759  -4.068  0.00  0.00     0.063 H 
ATOM     32  C   LIG d   1       9.630   3.718  -4.385  0.00  0.00    -0.061 A 
ATOM     33  H   LIG d   1       9.422   5.433  -3.155  0.00  0.00     0.062 H 
ATOM     34  C   LIG d   1       9.783   3.219  -5.677  0.00  0.00    -0.060 A 
ATOM     35  H   LIG d   1       9.585   3.033  -3.551  0.00  0.00     0.062 H 
ATOM     36  H   LIG d   1       9.854   2.152  -5.829  0.00  0.00     0.062 H 
ATOM     37  H   LIG d   1       9.962   3.649  -7.745  0.00  0.00     0.064 H 
ENDBRANCH  19  22
ENDBRANCH  16  19
ENDBRANCH   5  16
BRANCH   3  38
ATOM     38  O   LIG d   1       8.317  13.112  -2.841  0.00  0.00    -0.384 OA
ATOM     39  H   LIG d   1       8.837  13.741  -2.103  0.00  0.00     0.210 HD
ENDBRANCH   3  38
BRANCH   1  40
ATOM     40  N   LIG d   1      10.126   9.976  -2.085  0.00  0.00    -0.290 N 
ATOM     41  C   LIG d   1       9.227   9.310  -1.133  0.00  0.00     0.015 C 
ATOM     42  C   LIG d   1       9.377   7.790  -1.269  0.00  0.00     0.028 C 
ATOM     43  H   LIG d   1       8.187   9.596  -1.348  0.00  0.00     0.044 H 
ATOM     44  H   LIG d   1       9.486   9.614  -0.108  0.00  0.00     0.044 H 
ATOM     45  N   LIG d   1      10.800   7.448  -1.125  0.00  0.00    -0.299 N 
ATOM     46  H   LIG d   1       9.020   7.465  -2.257  0.00  0.00     0.048 H 
ATOM     47  H   LIG d   1       8.797   7.285  -0.484  0.00  0.00     0.048 H 
ATOM     48  C   LIG d   1      11.198   6.495  -0.259  0.00  0.00     0.212 C 
ATOM     49  C   LIG d   1      11.778   8.172  -1.951  0.00  0.00     0.028 C 
ATOM     50  O   LIG d   1      10.391   5.978   0.486  0.00  0.00    -0.276 OA
ATOM     51  C   LIG d   1      11.533   9.676  -1.787  0.00  0.00     0.015 C 
ATOM     52  H   LIG d   1      12.796   7.921  -1.619  0.00  0.00     0.048 H 
ATOM     53  H   LIG d   1      11.653   7.884  -3.005  0.00  0.00     0.048 H 
ATOM     54  H   LIG d   1      12.180  10.231  -2.482  0.00  0.00     0.044 H 
ATOM     55  H   LIG d   1      11.761   9.976  -0.755  0.00  0.00     0.044 H 
BRANCH  48  56
ATOM     56  C   LIG d   1      12.643   6.070  -0.217  0.00  0.00     0.012 C 
ATOM     57  H   LIG d   1      12.756   5.222   0.474  0.00  0.00     0.032 H 
ATOM     58  H   LIG d   1      13.262   6.910   0.129  0.00  0.00     0.032 H 
ATOM     59  H   LIG d   1      12.966   5.768  -1.224  0.00  0.00     0.032 H 
ENDBRANCH  48  56
ENDBRANCH   1  40
TORSDOF 6
ENDMDL
MODEL 8
REMARK VINA RESULT:      -6.4      5.822      8.661
REMARK  6 active torsions:
REMARK  status: ('A' for Active; 'I' for Inactive)
REMARK    1  A    between atoms: C_1  and  C_2 
REMARK       I    between atoms: C_2  and  N_4 
REMARK    2  A    between atoms: N_7  and  C_10 
REMARK    3  A    between atoms: C_12  and  O_35 
REMARK    4  A    between atoms: C_14  and  N_23 
REMARK    5  A    between atoms: N_23  and  C_24 
REMARK    6  A    between atoms: C_24  and  C_25 
ROOT
ATOM      1  C   LIG d   1      11.751   4.616  -4.825  0.00  0.00     0.093 C 
ATOM      2  H   LIG d   1      12.777   4.822  -5.164  0.00  0.00     0.054 H 
ATOM      3  C   LIG d   1      11.670   3.256  -4.125  0.00  0.00     0.120 C 
ATOM      4  H   LIG d   1      11.932   2.434  -4.808  0.00  0.00     0.067 H 
ATOM      5  C   LIG d   1      10.264   3.070  -3.540  0.00  0.00     0.035 C 
ATOM      6  H   LIG d   1      10.201   2.145  -2.949  0.00  0.00     0.090 H 
ATOM      7  C   LIG d   1       9.924   4.303  -2.686  0.00  0.00     0.130 C 
ATOM      8  H   LIG d   1       8.981   4.161  -2.139  0.00  0.00     0.068 H 
ATOM      9  C   LIG d   1      11.160   4.626  -1.812  0.00  0.00     0.082 C 
ATOM     10  O   LIG d   1      11.961   5.548  -2.611  0.00  0.00    -0.347 OA
ATOM     11  C   LIG d   1      11.258   5.703  -3.857  0.00  0.00     0.178 C 
ATOM     12  H   LIG d   1      11.392   6.727  -4.235  0.00  0.00     0.093 H 
ATOM     13  O   LIG d   1       9.864   5.440  -3.582  0.00  0.00    -0.339 OA
ATOM     14  H   LIG d   1      10.830   5.088  -0.870  0.00  0.00     0.059 H 
ATOM     15  H   LIG d   1      11.707   3.698  -1.595  0.00  0.00     0.059 H 
ENDROOT
BRANCH   5  16
ATOM     16  N   LIG d   1       9.289   2.941  -4.630  0.00  0.00     0.236 N 
ATOM     17  H   LIG d   1       8.283   3.177  -4.252  0.00  0.00     0.202 HD
ATOM     18  H   LIG d   1       9.549   3.640  -5.439  0.00  0.00     0.202 HD
BRANCH  16  19
ATOM     19  C   LIG d   1       9.282   1.576  -5.172  0.00  0.00    -0.006 C 
ATOM     20  H   LIG d   1       9.101   1.613  -6.257  0.00  0.00     0.087 H 
ATOM     21  H   LIG d   1      10.254   1.100  -4.979  0.00  0.00     0.087 H 
BRANCH  19  22
ATOM     22  C   LIG d   1       8.191   0.777  -4.508  0.00  0.00     0.016 A 
ATOM     23  C   LIG d   1       8.163  -0.609  -4.639  0.00  0.00     0.036 A 
ATOM     24  N   LIG d   1       7.234  -1.337  -4.069  0.00  0.00    -0.255 NA
ATOM     25  H   LIG d   1       8.930  -1.097  -5.221  0.00  0.00     0.083 H 
ATOM     26  C   LIG d   1       6.260  -0.779  -3.344  0.00  0.00     0.071 A 
ATOM     27  C   LIG d   1       6.225   0.628  -3.175  0.00  0.00     0.001 A 
ATOM     28  C   LIG d   1       5.261  -1.564  -2.742  0.00  0.00    -0.036 A 
ATOM     29  C   LIG d   1       7.224   1.413  -3.779  0.00  0.00    -0.043 A 
ATOM     30  C   LIG d   1       5.200   1.210  -2.412  0.00  0.00    -0.053 A 
ATOM     31  H   LIG d   1       7.228   2.487  -3.670  0.00  0.00     0.063 H 
ATOM     32  C   LIG d   1       4.250   0.416  -1.845  0.00  0.00    -0.061 A 
ATOM     33  H   LIG d   1       5.164   2.281  -2.277  0.00  0.00     0.062 H 
ATOM     34  C   LIG d   1       4.283  -0.967  -2.009  0.00  0.00    -0.060 A 
ATOM     35  H   LIG d   1       3.461   0.864  -1.258  0.00  0.00     0.062 H 
ATOM     36  H   LIG d   1       3.518  -1.575  -1.549  0.00  0.00     0.062 H 
ATOM     37  H   LIG d   1       5.272  -2.638  -2.860  0.00  0.00     0.064 H 
ENDBRANCH  19  22
ENDBRANCH  16  19
ENDBRANCH   5  16
BRANCH   3  38
ATOM     38  O   LIG d   1      12.635   3.203  -3.071  0.00  0.00    -0.384 OA
ATOM     39  H   LIG d   1      13.530   2.572  -3.177  0.00  0.00     0.210 HD
ENDBRANCH   3  38
BRANCH   1  40
ATOM     40  N   LIG d   1      10.903   4.603  -6.024  0.00  0.00    -0.290 N 
ATOM     41  C   LIG d   1      11.472   3.734  -7.063  0.00  0.00     0.015 C 
ATOM     42  C   LIG d   1      10.475   3.604  -8.220  0.00  0.00     0.028 C 
ATOM     43  H   LIG d   1      11.674   2.739  -6.639  0.00  0.00     0.044 H 
ATOM     44  H   LIG d   1      12.411   4.170  -7.434  0.00  0.00     0.044 H 
ATOM     45  N   LIG d   1      10.108   4.954  -8.672  0.00  0.00    -0.299 N 
ATOM     46  H   LIG d   1       9.574   3.072  -7.881  0.00  0.00     0.048 H 
ATOM     47  H   LIG d   1      10.936   3.052  -9.051  0.00  0.00     0.048 H 
ATOM     48  C   LIG d   1      10.182   5.292  -9.975  0.00  0.00     0.212 C 
ATOM     49  C   LIG d   1       9.656   5.927  -7.666  0.00  0.00     0.028 C 
ATOM     50  O   LIG d   1      10.651   4.511 -10.777  0.00  0.00    -0.276 OA
ATOM     51  C   LIG d   1      10.686   5.965  -6.531  0.00  0.00     0.015 C 
ATOM     52  H   LIG d   1       9.572   6.921  -8.128  0.00  0.00     0.048 H 
ATOM     53  H   LIG d   1       8.676   5.620  -7.273  0.00  0.00     0.048 H 
ATOM     54  H   LIG d   1      10.311   6.603  -5.716  0.00  0.00     0.044 H 
ATOM     55  H   LIG d   1      11.635   6.372  -6.908  0.00  0.00     0.044 H 
BRANCH  48  56
ATOM     56  C   LIG d   1       9.681   6.636 -10.435  0.00  0.00     0.012 C 
ATOM     57  H   LIG d   1       9.926   7.397  -9.679  0.00  0.00     0.032 H 
ATOM     58  H   LIG d   1       8.592   6.595 -10.574  0.00  0.00     0.032 H 
ATOM     59  H   LIG d   1      10.162   6.900 -11.389  0.00  0.00     0.032 H 
ENDBRANCH  48  56
ENDBRANCH   1  40
TORSDOF 6
ENDMDL
MODEL 9
REMARK VINA RESULT:      -6.1      9.658     13.876
REMARK  6 active torsions:
REMARK  status: ('A' for Active; 'I' for Inactive)
REMARK    1  A    between atoms: C_1  and  C_2 
REMARK       I    between atoms: C_2  and  N_4 
REMARK    2  A    between atoms: N_7  and  C_10 
REMARK    3  A    between atoms: C_12  and  O_35 
REMARK    4  A    between atoms: C_14  and  N_23 
REMARK    5  A    between atoms: N_23  and  C_24 
REMARK    6  A    between atoms: C_24  and  C_25 
ROOT
ATOM      1  C   LIG d   1      10.491   9.129  -0.673  0.00  0.00     0.093 C 
ATOM      2  H   LIG d   1      10.464   8.601   0.291  0.00  0.00     0.054 H 
ATOM      3  C   LIG d   1       9.210   9.943  -0.885  0.00  0.00     0.120 C 
ATOM      4  H   LIG d   1       8.322   9.295  -0.922  0.00  0.00     0.067 H 
ATOM      5  C   LIG d   1       9.346  10.778  -2.165  0.00  0.00     0.035 C 
ATOM      6  H   LIG d   1       8.481  11.445  -2.296  0.00  0.00     0.090 H 
ATOM      7  C   LIG d   1      10.660  11.573  -2.091  0.00  0.00     0.130 C 
ATOM      8  H   LIG d   1      10.742  12.286  -2.925  0.00  0.00     0.068 H 
ATOM      9  C   LIG d   1      10.760  12.188  -0.675  0.00  0.00     0.082 C 
ATOM     10  O   LIG d   1      11.458  11.188   0.127  0.00  0.00    -0.347 OA
ATOM     11  C   LIG d   1      11.699  10.075  -0.754  0.00  0.00     0.178 C 
ATOM     12  H   LIG d   1      12.655   9.597  -0.496  0.00  0.00     0.093 H 
ATOM     13  O   LIG d   1      11.743  10.610  -2.096  0.00  0.00    -0.339 OA
ATOM     14  H   LIG d   1      11.323  13.132  -0.725  0.00  0.00     0.059 H 
ATOM     15  H   LIG d   1       9.749  12.382  -0.288  0.00  0.00     0.059 H 
ENDROOT
BRANCH   5  16
ATOM     16  N   LIG d   1       9.372   9.889  -3.333  0.00  0.00     0.236 N 
ATOM     17  H   LIG d   1      10.271   9.257  -3.293  0.00  0.00     0.202 HD
ATOM     18  H   LIG d   1       8.476   9.251  -3.329  0.00  0.00     0.202 HD
BRANCH  16  19
ATOM     19  C   LIG d   1       9.395  10.661  -4.582  0.00  0.00    -0.006 C 
ATOM     20  H   LIG d   1       8.457  11.229  -4.679  0.00  0.00     0.087 H 
ATOM     21  H   LIG d   1      10.245  11.358  -4.567  0.00  0.00     0.087 H 
BRANCH  19  22
ATOM     22  C   LIG d   1       9.536   9.722  -5.752  0.00  0.00     0.016 A 
ATOM     23  C   LIG d   1       9.639  10.229  -7.045  0.00  0.00     0.036 A 
ATOM     24  N   LIG d   1       9.771   9.443  -8.085  0.00  0.00    -0.255 NA
ATOM     25  H   LIG d   1       9.616  11.298  -7.193  0.00  0.00     0.083 H 
ATOM     26  C   LIG d   1       9.799   8.113  -7.953  0.00  0.00     0.071 A 
ATOM     27  C   LIG d   1       9.693   7.530  -6.666  0.00  0.00     0.001 A 
ATOM     28  C   LIG d   1       9.933   7.274  -9.074  0.00  0.00    -0.036 A 
ATOM     29  C   LIG d   1       9.558   8.371  -5.545  0.00  0.00    -0.043 A 
ATOM     30  C   LIG d   1       9.724   6.133  -6.532  0.00  0.00    -0.053 A 
ATOM     31  H   LIG d   1       9.475   7.960  -4.550  0.00  0.00     0.063 H 
ATOM     32  C   LIG d   1       9.853   5.353  -7.640  0.00  0.00    -0.061 A 
ATOM     33  H   LIG d   1       9.643   5.678  -5.555  0.00  0.00     0.062 H 
ATOM     34  C   LIG d   1       9.958   5.924  -8.907  0.00  0.00    -0.060 A 
ATOM     35  H   LIG d   1       9.876   4.278  -7.537  0.00  0.00     0.062 H 
ATOM     36  H   LIG d   1      10.062   5.285  -9.771  0.00  0.00     0.062 H 
ATOM     37  H   LIG d   1      10.015   7.701 -10.063  0.00  0.00     0.064 H 
ENDBRANCH  19  22
ENDBRANCH  16  19
ENDBRANCH   5  16
BRANCH   3  38
ATOM     38  O   LIG d   1       9.006  10.813   0.231  0.00  0.00    -0.384 OA
ATOM     39  H   LIG d   1       8.370  11.703   0.125  0.00  0.00     0.210 HD
ENDBRANCH   3  38
BRANCH   1  40
ATOM     40  N   LIG d   1      10.599   8.102  -1.716  0.00  0.00    -0.290 N 
ATOM     41  C   LIG d   1       9.610   7.034  -1.510  0.00  0.00     0.015 C 
ATOM     42  C   LIG d   1       9.632   6.082  -2.711  0.00  0.00     0.028 C 
ATOM     43  H   LIG d   1       8.608   7.477  -1.411  0.00  0.00     0.044 H 
ATOM     44  H   LIG d   1       9.856   6.477  -0.595  0.00  0.00     0.044 H 
ATOM     45  N   LIG d   1      11.014   5.619  -2.914  0.00  0.00    -0.299 N 
ATOM     46  H   LIG d   1       9.285   6.607  -3.612  0.00  0.00     0.048 H 
ATOM     47  H   LIG d   1       8.981   5.218  -2.515  0.00  0.00     0.048 H 
ATOM     48  C   LIG d   1      11.294   4.306  -3.024  0.00  0.00     0.212 C 
ATOM     49  C   LIG d   1      12.081   6.628  -2.994  0.00  0.00     0.028 C 
ATOM     50  O   LIG d   1      10.418   3.483  -2.855  0.00  0.00    -0.276 OA
ATOM     51  C   LIG d   1      11.962   7.559  -1.782  0.00  0.00     0.015 C 
ATOM     52  H   LIG d   1      13.060   6.127  -2.987  0.00  0.00     0.048 H 
ATOM     53  H   LIG d   1      11.970   7.206  -3.923  0.00  0.00     0.048 H 
ATOM     54  H   LIG d   1      12.681   8.386  -1.882  0.00  0.00     0.044 H 
ATOM     55  H   LIG d   1      12.178   6.996  -0.863  0.00  0.00     0.044 H 
BRANCH  48  56
ATOM     56  C   LIG d   1      12.694   3.859  -3.357  0.00  0.00     0.012 C 
ATOM     57  H   LIG d   1      13.076   4.451  -4.202  0.00  0.00     0.032 H 
ATOM     58  H   LIG d   1      12.684   2.794  -3.630  0.00  0.00     0.032 H 
ATOM     59  H   LIG d   1      13.344   4.007  -2.482  0.00  0.00     0.032 H 
ENDBRANCH  48  56
ENDBRANCH   1  40
TORSDOF 6
ENDMDL
