MODEL 1
REMARK VINA RESULT:      -7.4      0.000      0.000
REMARK  11 active torsions:
REMARK  status: ('A' for Active; 'I' for Inactive)
REMARK    1  A    between atoms: C_1  and  C_2 
REMARK    2  A    between atoms: C_7  and  C_8 
REMARK    3  A    between atoms: C_8  and  O_9 
REMARK    4  A    between atoms: O_9  and  C_10 
REMARK    5  A    between atoms: C_18  and  C_19 
REMARK    6  A    between atoms: C_21  and  O_29 
REMARK    7  A    between atoms: C_22  and  O_27 
REMARK    8  A    between atoms: C_24  and  O_25 
REMARK    9  A    between atoms: O_25  and  C_26 
REMARK   10  A    between atoms: O_27  and  C_28 
REMARK   11  A    between atoms: O_29  and  C_30 
ROOT
ATOM      1  C   LIG d   1       7.697   0.218  -5.283  0.00  0.00     0.124 A 
ATOM      2  C   LIG d   1       7.805   0.467  -6.649  0.00  0.00    -0.019 A 
ATOM      3  C   LIG d   1       8.395   1.615  -7.094  0.00  0.00    -0.044 A 
ATOM      4  C   LIG d   1       8.902   2.536  -6.177  0.00  0.00     0.068 A 
ATOM      5  C   LIG d   1       8.805   2.294  -4.797  0.00  0.00     0.143 A 
ATOM      6  C   LIG d   1       8.197   1.123  -4.361  0.00  0.00     0.023 A 
ATOM      7  O   LIG d   1       9.362   3.319  -4.116  0.00  0.00    -0.451 OA
ATOM      8  C   LIG d   1       9.847   4.272  -4.947  0.00  0.00     0.176 A 
ATOM      9  C   LIG d   1      10.465   5.424  -4.573  0.00  0.00    -0.005 C 
ATOM     10  C   LIG d   1       9.585   3.835  -6.323  0.00  0.00     0.232 A 
ATOM     11  O   LIG d   1       9.868   4.416  -7.357  0.00  0.00    -0.283 OA
ATOM     12  H   LIG d   1       7.416  -0.249  -7.359  0.00  0.00     0.065 H 
ATOM     13  H   LIG d   1       8.473   1.808  -8.153  0.00  0.00     0.063 H 
ATOM     14  H   LIG d   1       8.113   0.919  -3.304  0.00  0.00     0.069 H 
ATOM     15  H   LIG d   1      10.917   6.061  -5.320  0.00  0.00     0.066 H 
ENDROOT
BRANCH   9  16
ATOM     16  C   LIG d   1      10.517   5.803  -3.160  0.00  0.00     0.024 A 
ATOM     17  C   LIG d   1      11.520   5.281  -2.325  0.00  0.00     0.131 A 
ATOM     18  C   LIG d   1      11.566   5.648  -0.991  0.00  0.00     0.026 A 
ATOM     19  C   LIG d   1      10.618   6.520  -0.476  0.00  0.00     0.165 A 
ATOM     20  H   LIG d   1      12.339   5.251  -0.349  0.00  0.00     0.069 H 
ATOM     21  C   LIG d   1       9.616   7.036  -1.300  0.00  0.00     0.162 A 
ATOM     22  C   LIG d   1       9.562   6.684  -2.631  0.00  0.00    -0.005 A 
ATOM     23  H   LIG d   1       8.786   7.085  -3.266  0.00  0.00     0.066 H 
BRANCH  17  24
ATOM     24  O   LIG d   1      12.446   4.424  -2.827  0.00  0.00    -0.494 OA
BRANCH  24  25
ATOM     25  C   LIG d   1      13.819   4.749  -2.606  0.00  0.00     0.079 C 
ATOM     26  H   LIG d   1      14.127   4.379  -1.629  0.00  0.00     0.066 H 
ATOM     27  H   LIG d   1      14.431   4.286  -3.380  0.00  0.00     0.066 H 
ATOM     28  H   LIG d   1      13.946   5.831  -2.642  0.00  0.00     0.066 H 
ENDBRANCH  24  25
ENDBRANCH  17  24
BRANCH  19  29
ATOM     29  O   LIG d   1      10.665   6.871   0.834  0.00  0.00    -0.491 OA
BRANCH  29  30
ATOM     30  C   LIG d   1      10.993   5.843   1.771  0.00  0.00     0.079 C 
ATOM     31  H   LIG d   1      11.939   5.382   1.487  0.00  0.00     0.066 H 
ATOM     32  H   LIG d   1      11.086   6.275   2.767  0.00  0.00     0.066 H 
ATOM     33  H   LIG d   1      10.208   5.089   1.774  0.00  0.00     0.066 H 
ENDBRANCH  29  30
ENDBRANCH  19  29
BRANCH  21  34
ATOM     34  O   LIG d   1       8.690   7.891  -0.786  0.00  0.00    -0.491 OA
BRANCH  34  35
ATOM     35  C   LIG d   1       8.978   9.288  -0.874  0.00  0.00     0.079 C 
ATOM     36  H   LIG d   1       9.676   9.566  -0.085  0.00  0.00     0.066 H 
ATOM     37  H   LIG d   1       9.422   9.508  -1.845  0.00  0.00     0.066 H 
ATOM     38  H   LIG d   1       8.055   9.857  -0.760  0.00  0.00     0.066 H 
ENDBRANCH  34  35
ENDBRANCH  21  34
ENDBRANCH   9  16
BRANCH   1  39
ATOM     39  O   LIG d   1       7.104  -0.924  -4.852  0.00  0.00    -0.487 OA
BRANCH  39  40
ATOM     40  C   LIG d   1       6.898  -1.056  -3.444  0.00  0.00     0.115 C 
ATOM     41  H   LIG d   1       7.582  -0.395  -2.913  0.00  0.00     0.075 H 
ATOM     42  H   LIG d   1       7.084  -2.088  -3.146  0.00  0.00     0.075 H 
BRANCH  40  43
ATOM     43  C   LIG d   1       5.477  -0.685  -3.107  0.00  0.00    -0.007 A 
ATOM     44  C   LIG d   1       4.454  -1.585  -3.337  0.00  0.00    -0.044 A 
ATOM     45  C   LIG d   1       3.150  -1.242  -3.033  0.00  0.00    -0.059 A 
ATOM     46  C   LIG d   1       2.869  -0.001  -2.494  0.00  0.00    -0.061 A 
ATOM     47  H   LIG d   1       2.349  -1.944  -3.217  0.00  0.00     0.062 H 
ATOM     48  C   LIG d   1       3.893   0.898  -2.260  0.00  0.00    -0.061 A 
ATOM     49  H   LIG d   1       1.850   0.267  -2.257  0.00  0.00     0.062 H 
ATOM     50  C   LIG d   1       5.197   0.556  -2.563  0.00  0.00    -0.055 A 
ATOM     51  H   LIG d   1       3.674   1.868  -1.839  0.00  0.00     0.062 H 
ATOM     52  H   LIG d   1       5.997   1.258  -2.380  0.00  0.00     0.062 H 
BRANCH  44  53
ATOM     53  C   LIG d   1       4.760  -2.939  -3.923  0.00  0.00    -0.039 C 
ATOM     54  H   LIG d   1       4.661  -3.701  -3.150  0.00  0.00     0.028 H 
ATOM     55  H   LIG d   1       4.062  -3.152  -4.732  0.00  0.00     0.028 H 
ATOM     56  H   LIG d   1       5.779  -2.945  -4.311  0.00  0.00     0.028 H 
ENDBRANCH  44  53
ENDBRANCH  40  43
ENDBRANCH  39  40
ENDBRANCH   1  39
TORSDOF 11
ENDMDL
MODEL 2
REMARK VINA RESULT:      -7.0      1.894      3.152
REMARK  11 active torsions:
REMARK  status: ('A' for Active; 'I' for Inactive)
REMARK    1  A    between atoms: C_1  and  C_2 
REMARK    2  A    between atoms: C_7  and  C_8 
REMARK    3  A    between atoms: C_8  and  O_9 
REMARK    4  A    between atoms: O_9  and  C_10 
REMARK    5  A    between atoms: C_18  and  C_19 
REMARK    6  A    between atoms: C_21  and  O_29 
REMARK    7  A    between atoms: C_22  and  O_27 
REMARK    8  A    between atoms: C_24  and  O_25 
REMARK    9  A    between atoms: O_25  and  C_26 
REMARK   10  A    between atoms: O_27  and  C_28 
REMARK   11  A    between atoms: O_29  and  C_30 
ROOT
ATOM      1  C   LIG d   1       8.789   1.460  -4.218  0.00  0.00     0.124 A 
ATOM      2  C   LIG d   1       9.949   0.846  -4.684  0.00  0.00    -0.019 A 
ATOM      3  C   LIG d   1      11.165   1.430  -4.477  0.00  0.00    -0.044 A 
ATOM      4  C   LIG d   1      11.248   2.640  -3.787  0.00  0.00     0.068 A 
ATOM      5  C   LIG d   1      10.086   3.266  -3.307  0.00  0.00     0.143 A 
ATOM      6  C   LIG d   1       8.856   2.661  -3.530  0.00  0.00     0.023 A 
ATOM      7  O   LIG d   1      10.417   4.414  -2.678  0.00  0.00    -0.451 OA
ATOM      8  C   LIG d   1      11.754   4.629  -2.689  0.00  0.00     0.176 A 
ATOM      9  C   LIG d   1      12.402   5.691  -2.141  0.00  0.00    -0.005 C 
ATOM     10  C   LIG d   1      12.377   3.507  -3.401  0.00  0.00     0.232 A 
ATOM     11  O   LIG d   1      13.563   3.330  -3.624  0.00  0.00    -0.283 OA
ATOM     12  H   LIG d   1       9.885  -0.093  -5.214  0.00  0.00     0.065 H 
ATOM     13  H   LIG d   1      12.063   0.954  -4.843  0.00  0.00     0.063 H 
ATOM     14  H   LIG d   1       7.951   3.127  -3.169  0.00  0.00     0.069 H 
ATOM     15  H   LIG d   1      13.482   5.706  -2.106  0.00  0.00     0.066 H 
ENDROOT
BRANCH   9  16
ATOM     16  C   LIG d   1      11.637   6.816  -1.598  0.00  0.00     0.024 A 
ATOM     17  C   LIG d   1      11.400   6.908  -0.215  0.00  0.00     0.131 A 
ATOM     18  C   LIG d   1      10.680   7.976   0.291  0.00  0.00     0.026 A 
ATOM     19  C   LIG d   1      10.184   8.948  -0.564  0.00  0.00     0.165 A 
ATOM     20  H   LIG d   1      10.502   8.050   1.353  0.00  0.00     0.069 H 
ATOM     21  C   LIG d   1      10.410   8.858  -1.939  0.00  0.00     0.162 A 
ATOM     22  C   LIG d   1      11.131   7.803  -2.456  0.00  0.00    -0.005 A 
ATOM     23  H   LIG d   1      11.305   7.736  -3.520  0.00  0.00     0.066 H 
BRANCH  17  24
ATOM     24  O   LIG d   1      11.882   5.954   0.622  0.00  0.00    -0.494 OA
BRANCH  24  25
ATOM     25  C   LIG d   1      11.043   5.562   1.710  0.00  0.00     0.079 C 
ATOM     26  H   LIG d   1      11.307   6.136   2.598  0.00  0.00     0.066 H 
ATOM     27  H   LIG d   1      10.001   5.751   1.451  0.00  0.00     0.066 H 
ATOM     28  H   LIG d   1      11.180   4.499   1.910  0.00  0.00     0.066 H 
ENDBRANCH  24  25
ENDBRANCH  17  24
BRANCH  19  29
ATOM     29  O   LIG d   1       9.473   9.990  -0.062  0.00  0.00    -0.491 OA
BRANCH  29  30
ATOM     30  C   LIG d   1      10.217  11.107   0.429  0.00  0.00     0.079 C 
ATOM     31  H   LIG d   1      10.275  11.054   1.516  0.00  0.00     0.066 H 
ATOM     32  H   LIG d   1      11.224  11.085   0.012  0.00  0.00     0.066 H 
ATOM     33  H   LIG d   1       9.723  12.031   0.136  0.00  0.00     0.066 H 
ENDBRANCH  29  30
ENDBRANCH  19  29
BRANCH  21  34
ATOM     34  O   LIG d   1       9.919   9.817  -2.771  0.00  0.00    -0.491 OA
BRANCH  34  35
ATOM     35  C   LIG d   1      10.018   9.570  -4.176  0.00  0.00     0.079 C 
ATOM     36  H   LIG d   1      10.997   9.149  -4.403  0.00  0.00     0.066 H 
ATOM     37  H   LIG d   1       9.242   8.865  -4.476  0.00  0.00     0.066 H 
ATOM     38  H   LIG d   1       9.889  10.506  -4.719  0.00  0.00     0.066 H 
ENDBRANCH  34  35
ENDBRANCH  21  34
ENDBRANCH   9  16
BRANCH   1  39
ATOM     39  O   LIG d   1       7.584   0.874  -4.433  0.00  0.00    -0.487 OA
BRANCH  39  40
ATOM     40  C   LIG d   1       6.579   1.072  -3.437  0.00  0.00     0.115 C 
ATOM     41  H   LIG d   1       5.931   1.897  -3.733  0.00  0.00     0.075 H 
ATOM     42  H   LIG d   1       7.054   1.307  -2.484  0.00  0.00     0.075 H 
BRANCH  40  43
ATOM     43  C   LIG d   1       5.759  -0.185  -3.293  0.00  0.00    -0.007 A 
ATOM     44  C   LIG d   1       4.666  -0.204  -2.448  0.00  0.00    -0.044 A 
ATOM     45  C   LIG d   1       3.918  -1.359  -2.312  0.00  0.00    -0.059 A 
ATOM     46  C   LIG d   1       4.260  -2.492  -3.026  0.00  0.00    -0.061 A 
ATOM     47  H   LIG d   1       3.066  -1.376  -1.648  0.00  0.00     0.062 H 
ATOM     48  C   LIG d   1       5.351  -2.471  -3.875  0.00  0.00    -0.061 A 
ATOM     49  H   LIG d   1       3.676  -3.394  -2.919  0.00  0.00     0.062 H 
ATOM     50  C   LIG d   1       6.099  -1.317  -4.011  0.00  0.00    -0.055 A 
ATOM     51  H   LIG d   1       5.618  -3.356  -4.432  0.00  0.00     0.062 H 
ATOM     52  H   LIG d   1       6.951  -1.300  -4.675  0.00  0.00     0.062 H 
BRANCH  44  53
ATOM     53  C   LIG d   1       4.293   1.031  -1.671  0.00  0.00    -0.039 C 
ATOM     54  H   LIG d   1       3.812   0.742  -0.736  0.00  0.00     0.028 H 
ATOM     55  H   LIG d   1       5.190   1.610  -1.453  0.00  0.00     0.028 H 
ATOM     56  H   LIG d   1       3.605   1.638  -2.261  0.00  0.00     0.028 H 
ENDBRANCH  44  53
ENDBRANCH  40  43
ENDBRANCH  39  40
ENDBRANCH   1  39
TORSDOF 11
ENDMDL
MODEL 3
REMARK VINA RESULT:      -7.0      6.119     12.321
REMARK  11 active torsions:
REMARK  status: ('A' for Active; 'I' for Inactive)
REMARK    1  A    between atoms: C_1  and  C_2 
REMARK    2  A    between atoms: C_7  and  C_8 
REMARK    3  A    between atoms: C_8  and  O_9 
REMARK    4  A    between atoms: O_9  and  C_10 
REMARK    5  A    between atoms: C_18  and  C_19 
REMARK    6  A    between atoms: C_21  and  O_29 
REMARK    7  A    between atoms: C_22  and  O_27 
REMARK    8  A    between atoms: C_24  and  O_25 
REMARK    9  A    between atoms: O_25  and  C_26 
REMARK   10  A    between atoms: O_27  and  C_28 
REMARK   11  A    between atoms: O_29  and  C_30 
ROOT
ATOM      1  C   LIG d   1       4.492  -3.087  -6.508  0.00  0.00     0.124 A 
ATOM      2  C   LIG d   1       4.166  -3.337  -7.839  0.00  0.00    -0.019 A 
ATOM      3  C   LIG d   1       4.112  -4.620  -8.303  0.00  0.00    -0.044 A 
ATOM      4  C   LIG d   1       4.374  -5.684  -7.438  0.00  0.00     0.068 A 
ATOM      5  C   LIG d   1       4.697  -5.444  -6.093  0.00  0.00     0.143 A 
ATOM      6  C   LIG d   1       4.752  -4.132  -5.638  0.00  0.00     0.023 A 
ATOM      7  O   LIG d   1       4.906  -6.619  -5.460  0.00  0.00    -0.451 OA
ATOM      8  C   LIG d   1       4.744  -7.675  -6.292  0.00  0.00     0.176 A 
ATOM      9  C   LIG d   1       4.883  -8.987  -5.962  0.00  0.00    -0.005 C 
ATOM     10  C   LIG d   1       4.393  -7.148  -7.616  0.00  0.00     0.232 A 
ATOM     11  O   LIG d   1       4.167  -7.778  -8.635  0.00  0.00    -0.283 OA
ATOM     12  H   LIG d   1       3.959  -2.514  -8.507  0.00  0.00     0.065 H 
ATOM     13  H   LIG d   1       3.864  -4.812  -9.336  0.00  0.00     0.063 H 
ATOM     14  H   LIG d   1       5.000  -3.928  -4.607  0.00  0.00     0.069 H 
ATOM     15  H   LIG d   1       4.618  -9.754  -6.675  0.00  0.00     0.066 H 
ENDROOT
BRANCH   9  16
ATOM     16  C   LIG d   1       5.391  -9.360  -4.640  0.00  0.00     0.024 A 
ATOM     17  C   LIG d   1       4.520  -9.885  -3.670  0.00  0.00     0.131 A 
ATOM     18  C   LIG d   1       5.010 -10.239  -2.425  0.00  0.00     0.026 A 
ATOM     19  C   LIG d   1       6.354 -10.067  -2.130  0.00  0.00     0.165 A 
ATOM     20  H   LIG d   1       4.342 -10.647  -1.680  0.00  0.00     0.069 H 
ATOM     21  C   LIG d   1       7.222  -9.540  -3.088  0.00  0.00     0.162 A 
ATOM     22  C   LIG d   1       6.750  -9.189  -4.334  0.00  0.00    -0.005 A 
ATOM     23  H   LIG d   1       7.424  -8.782  -5.074  0.00  0.00     0.066 H 
BRANCH  17  24
ATOM     24  O   LIG d   1       3.203 -10.049  -3.956  0.00  0.00    -0.494 OA
BRANCH  24  25
ATOM     25  C   LIG d   1       2.757 -11.380  -4.218  0.00  0.00     0.079 C 
ATOM     26  H   LIG d   1       3.170 -12.056  -3.469  0.00  0.00     0.066 H 
ATOM     27  H   LIG d   1       1.668 -11.414  -4.177  0.00  0.00     0.066 H 
ATOM     28  H   LIG d   1       3.092 -11.687  -5.209  0.00  0.00     0.066 H 
ENDBRANCH  24  25
ENDBRANCH  17  24
BRANCH  19  29
ATOM     29  O   LIG d   1       6.826 -10.411  -0.905  0.00  0.00    -0.491 OA
BRANCH  29  30
ATOM     30  C   LIG d   1       6.813 -11.800  -0.570  0.00  0.00     0.079 C 
ATOM     31  H   LIG d   1       7.822 -12.204  -0.658  0.00  0.00     0.066 H 
ATOM     32  H   LIG d   1       6.460 -11.924   0.454  0.00  0.00     0.066 H 
ATOM     33  H   LIG d   1       6.149 -12.332  -1.250  0.00  0.00     0.066 H 
ENDBRANCH  29  30
ENDBRANCH  19  29
BRANCH  21  34
ATOM     34  O   LIG d   1       8.540  -9.375  -2.791  0.00  0.00    -0.491 OA
BRANCH  34  35
ATOM     35  C   LIG d   1       8.943  -8.085  -2.326  0.00  0.00     0.079 C 
ATOM     36  H   LIG d   1       8.153  -7.658  -1.709  0.00  0.00     0.066 H 
ATOM     37  H   LIG d   1       9.854  -8.180  -1.735  0.00  0.00     0.066 H 
ATOM     38  H   LIG d   1       9.130  -7.434  -3.180  0.00  0.00     0.066 H 
ENDBRANCH  34  35
ENDBRANCH  21  34
ENDBRANCH   9  16
BRANCH   1  39
ATOM     39  O   LIG d   1       4.548  -1.807  -6.058  0.00  0.00    -0.487 OA
BRANCH  39  40
ATOM     40  C   LIG d   1       5.557  -1.502  -5.094  0.00  0.00     0.115 C 
ATOM     41  H   LIG d   1       6.382  -0.985  -5.582  0.00  0.00     0.075 H 
ATOM     42  H   LIG d   1       5.921  -2.427  -4.645  0.00  0.00     0.075 H 
BRANCH  40  43
ATOM     43  C   LIG d   1       4.975  -0.618  -4.020  0.00  0.00    -0.007 A 
ATOM     44  C   LIG d   1       5.774   0.313  -3.384  0.00  0.00    -0.044 A 
ATOM     45  C   LIG d   1       5.241   1.120  -2.396  0.00  0.00    -0.059 A 
ATOM     46  C   LIG d   1       3.909   0.999  -2.047  0.00  0.00    -0.061 A 
ATOM     47  H   LIG d   1       5.866   1.845  -1.895  0.00  0.00     0.062 H 
ATOM     48  C   LIG d   1       3.109   0.070  -2.687  0.00  0.00    -0.061 A 
ATOM     49  H   LIG d   1       3.494   1.629  -1.275  0.00  0.00     0.062 H 
ATOM     50  C   LIG d   1       3.641  -0.737  -3.675  0.00  0.00    -0.055 A 
ATOM     51  H   LIG d   1       2.069  -0.025  -2.415  0.00  0.00     0.062 H 
ATOM     52  H   LIG d   1       3.016  -1.462  -4.176  0.00  0.00     0.062 H 
BRANCH  44  53
ATOM     53  C   LIG d   1       7.225   0.446  -3.765  0.00  0.00    -0.039 C 
ATOM     54  H   LIG d   1       7.552  -0.461  -4.274  0.00  0.00     0.028 H 
ATOM     55  H   LIG d   1       7.351   1.300  -4.429  0.00  0.00     0.028 H 
ATOM     56  H   LIG d   1       7.825   0.593  -2.866  0.00  0.00     0.028 H 
ENDBRANCH  44  53
ENDBRANCH  40  43
ENDBRANCH  39  40
ENDBRANCH   1  39
TORSDOF 11
ENDMDL
MODEL 4
REMARK VINA RESULT:      -7.0      1.697      2.984
REMARK  11 active torsions:
REMARK  status: ('A' for Active; 'I' for Inactive)
REMARK    1  A    between atoms: C_1  and  C_2 
REMARK    2  A    between atoms: C_7  and  C_8 
REMARK    3  A    between atoms: C_8  and  O_9 
REMARK    4  A    between atoms: O_9  and  C_10 
REMARK    5  A    between atoms: C_18  and  C_19 
REMARK    6  A    between atoms: C_21  and  O_29 
REMARK    7  A    between atoms: C_22  and  O_27 
REMARK    8  A    between atoms: C_24  and  O_25 
REMARK    9  A    between atoms: O_25  and  C_26 
REMARK   10  A    between atoms: O_27  and  C_28 
REMARK   11  A    between atoms: O_29  and  C_30 
ROOT
ATOM      1  C   LIG d   1       8.008   1.729  -5.267  0.00  0.00     0.124 A 
ATOM      2  C   LIG d   1       8.722   1.568  -6.452  0.00  0.00    -0.019 A 
ATOM      3  C   LIG d   1       9.661   2.488  -6.818  0.00  0.00    -0.044 A 
ATOM      4  C   LIG d   1       9.915   3.588  -5.998  0.00  0.00     0.068 A 
ATOM      5  C   LIG d   1       9.207   3.758  -4.797  0.00  0.00     0.143 A 
ATOM      6  C   LIG d   1       8.250   2.815  -4.442  0.00  0.00     0.023 A 
ATOM      7  O   LIG d   1       9.623   4.885  -4.181  0.00  0.00    -0.451 OA
ATOM      8  C   LIG d   1      10.591   5.517  -4.886  0.00  0.00     0.176 A 
ATOM      9  C   LIG d   1      11.216   6.673  -4.535  0.00  0.00    -0.005 C 
ATOM     10  C   LIG d   1      10.844   4.729  -6.098  0.00  0.00     0.232 A 
ATOM     11  O   LIG d   1      11.642   4.965  -6.989  0.00  0.00    -0.283 OA
ATOM     12  H   LIG d   1       8.528   0.714  -7.085  0.00  0.00     0.065 H 
ATOM     13  H   LIG d   1      10.210   2.363  -7.740  0.00  0.00     0.063 H 
ATOM     14  H   LIG d   1       7.695   2.929  -3.523  0.00  0.00     0.069 H 
ATOM     15  H   LIG d   1      12.056   7.030  -5.113  0.00  0.00     0.066 H 
ENDROOT
BRANCH   9  16
ATOM     16  C   LIG d   1      10.751   7.434  -3.374  0.00  0.00     0.024 A 
ATOM     17  C   LIG d   1      10.337   8.769  -3.523  0.00  0.00     0.131 A 
ATOM     18  C   LIG d   1       9.894   9.480  -2.421  0.00  0.00     0.026 A 
ATOM     19  C   LIG d   1       9.867   8.882  -1.171  0.00  0.00     0.165 A 
ATOM     20  H   LIG d   1       9.572  10.505  -2.536  0.00  0.00     0.069 H 
ATOM     21  C   LIG d   1      10.282   7.557  -1.016  0.00  0.00     0.162 A 
ATOM     22  C   LIG d   1      10.720   6.836  -2.105  0.00  0.00    -0.005 A 
ATOM     23  H   LIG d   1      11.041   5.811  -1.983  0.00  0.00     0.066 H 
BRANCH  17  24
ATOM     24  O   LIG d   1      10.368   9.358  -4.746  0.00  0.00    -0.494 OA
BRANCH  24  25
ATOM     25  C   LIG d   1       9.453  10.432  -4.972  0.00  0.00     0.079 C 
ATOM     26  H   LIG d   1       8.536  10.252  -4.411  0.00  0.00     0.066 H 
ATOM     27  H   LIG d   1       9.903  11.368  -4.643  0.00  0.00     0.066 H 
ATOM     28  H   LIG d   1       9.222  10.495  -6.035  0.00  0.00     0.066 H 
ENDBRANCH  24  25
ENDBRANCH  17  24
BRANCH  19  29
ATOM     29  O   LIG d   1       9.437   9.587  -0.094  0.00  0.00    -0.491 OA
BRANCH  29  30
ATOM     30  C   LIG d   1      10.127  10.802   0.205  0.00  0.00     0.079 C 
ATOM     31  H   LIG d   1      10.208  10.917   1.286  0.00  0.00     0.066 H 
ATOM     32  H   LIG d   1      11.125  10.770  -0.232  0.00  0.00     0.066 H 
ATOM     33  H   LIG d   1       9.576  11.644  -0.210  0.00  0.00     0.066 H 
ENDBRANCH  29  30
ENDBRANCH  19  29
BRANCH  21  34
ATOM     34  O   LIG d   1      10.253   6.978   0.215  0.00  0.00    -0.491 OA
BRANCH  34  35
ATOM     35  C   LIG d   1      11.242   5.982   0.487  0.00  0.00     0.079 C 
ATOM     36  H   LIG d   1      10.795   4.992   0.399  0.00  0.00     0.066 H 
ATOM     37  H   LIG d   1      12.059   6.077  -0.228  0.00  0.00     0.066 H 
ATOM     38  H   LIG d   1      11.626   6.119   1.498  0.00  0.00     0.066 H 
ENDBRANCH  34  35
ENDBRANCH  21  34
ENDBRANCH   9  16
BRANCH   1  39
ATOM     39  O   LIG d   1       7.072   0.811  -4.915  0.00  0.00    -0.487 OA
BRANCH  39  40
ATOM     40  C   LIG d   1       6.746   0.717  -3.526  0.00  0.00     0.115 C 
ATOM     41  H   LIG d   1       6.282   1.647  -3.199  0.00  0.00     0.075 H 
ATOM     42  H   LIG d   1       7.656   0.542  -2.952  0.00  0.00     0.075 H 
BRANCH  40  43
ATOM     43  C   LIG d   1       5.788  -0.426  -3.312  0.00  0.00    -0.007 A 
ATOM     44  C   LIG d   1       4.749  -0.297  -2.410  0.00  0.00    -0.044 A 
ATOM     45  C   LIG d   1       3.873  -1.348  -2.209  0.00  0.00    -0.059 A 
ATOM     46  C   LIG d   1       4.035  -2.526  -2.913  0.00  0.00    -0.061 A 
ATOM     47  H   LIG d   1       3.063  -1.248  -1.502  0.00  0.00     0.062 H 
ATOM     48  C   LIG d   1       5.072  -2.654  -3.818  0.00  0.00    -0.061 A 
ATOM     49  H   LIG d   1       3.351  -3.347  -2.756  0.00  0.00     0.062 H 
ATOM     50  C   LIG d   1       5.947  -1.603  -4.020  0.00  0.00    -0.055 A 
ATOM     51  H   LIG d   1       5.199  -3.575  -4.368  0.00  0.00     0.062 H 
ATOM     52  H   LIG d   1       6.758  -1.703  -4.727  0.00  0.00     0.062 H 
BRANCH  44  53
ATOM     53  C   LIG d   1       4.572   0.988  -1.644  0.00  0.00    -0.039 C 
ATOM     54  H   LIG d   1       3.839   1.616  -2.151  0.00  0.00     0.028 H 
ATOM     55  H   LIG d   1       4.223   0.766  -0.636  0.00  0.00     0.028 H 
ATOM     56  H   LIG d   1       5.526   1.514  -1.591  0.00  0.00     0.028 H 
ENDBRANCH  44  53
ENDBRANCH  40  43
ENDBRANCH  39  40
ENDBRANCH   1  39
TORSDOF 11
ENDMDL
MODEL 5
REMARK VINA RESULT:      -6.9      1.570      2.887
REMARK  11 active torsions:
REMARK  status: ('A' for Active; 'I' for Inactive)
REMARK    1  A    between atoms: C_1  and  C_2 
REMARK    2  A    between atoms: C_7  and  C_8 
REMARK    3  A    between atoms: C_8  and  O_9 
REMARK    4  A    between atoms: O_9  and  C_10 
REMARK    5  A    between atoms: C_18  and  C_19 
REMARK    6  A    between atoms: C_21  and  O_29 
REMARK    7  A    between atoms: C_22  and  O_27 
REMARK    8  A    between atoms: C_24  and  O_25 
REMARK    9  A    between atoms: O_25  and  C_26 
REMARK   10  A    between atoms: O_27  and  C_28 
REMARK   11  A    between atoms: O_29  and  C_30 
ROOT
ATOM      1  C   LIG d   1       8.710  -0.164  -5.087  0.00  0.00     0.124 A 
ATOM      2  C   LIG d   1       9.880  -0.676  -5.640  0.00  0.00    -0.019 A 
ATOM      3  C   LIG d   1      11.059  -0.003  -5.496  0.00  0.00    -0.044 A 
ATOM      4  C   LIG d   1      11.093   1.196  -4.784  0.00  0.00     0.068 A 
ATOM      5  C   LIG d   1       9.921   1.719  -4.215  0.00  0.00     0.143 A 
ATOM      6  C   LIG d   1       8.728   1.024  -4.375  0.00  0.00     0.023 A 
ATOM      7  O   LIG d   1      10.202   2.878  -3.581  0.00  0.00    -0.451 OA
ATOM      8  C   LIG d   1      11.515   3.197  -3.672  0.00  0.00     0.176 A 
ATOM      9  C   LIG d   1      12.113   4.296  -3.140  0.00  0.00    -0.005 C 
ATOM     10  C   LIG d   1      12.175   2.141  -4.449  0.00  0.00     0.232 A 
ATOM     11  O   LIG d   1      13.354   2.063  -4.751  0.00  0.00    -0.283 OA
ATOM     12  H   LIG d   1       9.854  -1.607  -6.188  0.00  0.00     0.065 H 
ATOM     13  H   LIG d   1      11.965  -0.399  -5.931  0.00  0.00     0.063 H 
ATOM     14  H   LIG d   1       7.816   1.411  -3.946  0.00  0.00     0.069 H 
ATOM     15  H   LIG d   1      13.189   4.394  -3.174  0.00  0.00     0.066 H 
ENDROOT
BRANCH   9  16
ATOM     16  C   LIG d   1      11.301   5.346  -2.522  0.00  0.00     0.024 A 
ATOM     17  C   LIG d   1      10.632   6.286  -3.325  0.00  0.00     0.131 A 
ATOM     18  C   LIG d   1       9.862   7.273  -2.733  0.00  0.00     0.026 A 
ATOM     19  C   LIG d   1       9.758   7.341  -1.352  0.00  0.00     0.165 A 
ATOM     20  H   LIG d   1       9.344   7.993  -3.349  0.00  0.00     0.069 H 
ATOM     21  C   LIG d   1      10.426   6.413  -0.550  0.00  0.00     0.162 A 
ATOM     22  C   LIG d   1      11.191   5.422  -1.125  0.00  0.00    -0.005 A 
ATOM     23  H   LIG d   1      11.706   4.705  -0.503  0.00  0.00     0.066 H 
BRANCH  17  24
ATOM     24  O   LIG d   1      10.737   6.224  -4.677  0.00  0.00    -0.494 OA
BRANCH  24  25
ATOM     25  C   LIG d   1       9.550   5.906  -5.405  0.00  0.00     0.079 C 
ATOM     26  H   LIG d   1       9.686   6.168  -6.454  0.00  0.00     0.066 H 
ATOM     27  H   LIG d   1       9.347   4.838  -5.322  0.00  0.00     0.066 H 
ATOM     28  H   LIG d   1       8.711   6.467  -4.996  0.00  0.00     0.066 H 
ENDBRANCH  24  25
ENDBRANCH  17  24
BRANCH  19  29
ATOM     29  O   LIG d   1       9.006   8.314  -0.778  0.00  0.00    -0.491 OA
BRANCH  29  30
ATOM     30  C   LIG d   1       9.275   9.661  -1.175  0.00  0.00     0.079 C 
ATOM     31  H   LIG d   1      10.187  10.007  -0.689  0.00  0.00     0.066 H 
ATOM     32  H   LIG d   1       9.401   9.702  -2.257  0.00  0.00     0.066 H 
ATOM     33  H   LIG d   1       8.442  10.299  -0.882  0.00  0.00     0.066 H 
ENDBRANCH  29  30
ENDBRANCH  19  29
BRANCH  21  34
ATOM     34  O   LIG d   1      10.319   6.487   0.805  0.00  0.00    -0.491 OA
BRANCH  34  35
ATOM     35  C   LIG d   1      11.063   5.535   1.568  0.00  0.00     0.079 C 
ATOM     36  H   LIG d   1      10.845   4.530   1.207  0.00  0.00     0.066 H 
ATOM     37  H   LIG d   1      12.129   5.736   1.459  0.00  0.00     0.066 H 
ATOM     38  H   LIG d   1      10.784   5.613   2.618  0.00  0.00     0.066 H 
ENDBRANCH  34  35
ENDBRANCH  21  34
ENDBRANCH   9  16
BRANCH   1  39
ATOM     39  O   LIG d   1       7.541  -0.838  -5.240  0.00  0.00    -0.487 OA
BRANCH  39  40
ATOM     40  C   LIG d   1       6.334  -0.098  -5.048  0.00  0.00     0.115 C 
ATOM     41  H   LIG d   1       5.809  -0.008  -5.998  0.00  0.00     0.075 H 
ATOM     42  H   LIG d   1       6.575   0.896  -4.670  0.00  0.00     0.075 H 
BRANCH  40  43
ATOM     43  C   LIG d   1       5.457  -0.814  -4.054  0.00  0.00    -0.007 A 
ATOM     44  C   LIG d   1       4.999  -0.150  -2.932  0.00  0.00    -0.044 A 
ATOM     45  C   LIG d   1       4.199  -0.809  -2.017  0.00  0.00    -0.059 A 
ATOM     46  C   LIG d   1       3.853  -2.131  -2.227  0.00  0.00    -0.061 A 
ATOM     47  H   LIG d   1       3.844  -0.292  -1.138  0.00  0.00     0.062 H 
ATOM     48  C   LIG d   1       4.308  -2.794  -3.352  0.00  0.00    -0.061 A 
ATOM     49  H   LIG d   1       3.229  -2.646  -1.512  0.00  0.00     0.062 H 
ATOM     50  C   LIG d   1       5.108  -2.135  -4.267  0.00  0.00    -0.055 A 
ATOM     51  H   LIG d   1       4.038  -3.827  -3.516  0.00  0.00     0.062 H 
ATOM     52  H   LIG d   1       5.463  -2.653  -5.146  0.00  0.00     0.062 H 
BRANCH  44  53
ATOM     53  C   LIG d   1       5.375   1.291  -2.704  0.00  0.00    -0.039 C 
ATOM     54  H   LIG d   1       5.622   1.758  -3.657  0.00  0.00     0.028 H 
ATOM     55  H   LIG d   1       4.537   1.818  -2.248  0.00  0.00     0.028 H 
ATOM     56  H   LIG d   1       6.239   1.340  -2.040  0.00  0.00     0.028 H 
ENDBRANCH  44  53
ENDBRANCH  40  43
ENDBRANCH  39  40
ENDBRANCH   1  39
TORSDOF 11
ENDMDL
MODEL 6
REMARK VINA RESULT:      -6.7      7.256     13.039
REMARK  11 active torsions:
REMARK  status: ('A' for Active; 'I' for Inactive)
REMARK    1  A    between atoms: C_1  and  C_2 
REMARK    2  A    between atoms: C_7  and  C_8 
REMARK    3  A    between atoms: C_8  and  O_9 
REMARK    4  A    between atoms: O_9  and  C_10 
REMARK    5  A    between atoms: C_18  and  C_19 
REMARK    6  A    between atoms: C_21  and  O_29 
REMARK    7  A    between atoms: C_22  and  O_27 
REMARK    8  A    between atoms: C_24  and  O_25 
REMARK    9  A    between atoms: O_25  and  C_26 
REMARK   10  A    between atoms: O_27  and  C_28 
REMARK   11  A    between atoms: O_29  and  C_30 
ROOT
ATOM      1  C   LIG d   1       3.483   0.313  -7.732  0.00  0.00     0.124 A 
ATOM      2  C   LIG d   1       4.001   1.067  -8.782  0.00  0.00    -0.019 A 
ATOM      3  C   LIG d   1       3.802   0.672 -10.073  0.00  0.00    -0.044 A 
ATOM      4  C   LIG d   1       3.069  -0.485 -10.342  0.00  0.00     0.068 A 
ATOM      5  C   LIG d   1       2.537  -1.250  -9.292  0.00  0.00     0.143 A 
ATOM      6  C   LIG d   1       2.752  -0.836  -7.983  0.00  0.00     0.023 A 
ATOM      7  O   LIG d   1       1.873  -2.313  -9.796  0.00  0.00    -0.451 OA
ATOM      8  C   LIG d   1       1.910  -2.334 -11.149  0.00  0.00     0.176 A 
ATOM      9  C   LIG d   1       1.338  -3.270 -11.953  0.00  0.00    -0.005 C 
ATOM     10  C   LIG d   1       2.678  -1.165 -11.591  0.00  0.00     0.232 A 
ATOM     11  O   LIG d   1       2.938  -0.830 -12.735  0.00  0.00    -0.283 OA
ATOM     12  H   LIG d   1       4.564   1.965  -8.574  0.00  0.00     0.065 H 
ATOM     13  H   LIG d   1       4.208   1.255 -10.886  0.00  0.00     0.063 H 
ATOM     14  H   LIG d   1       2.352  -1.412  -7.162  0.00  0.00     0.069 H 
ATOM     15  H   LIG d   1       1.330  -3.129 -13.024  0.00  0.00     0.066 H 
ENDROOT
BRANCH   9  16
ATOM     16  C   LIG d   1       0.734  -4.469 -11.368  0.00  0.00     0.024 A 
ATOM     17  C   LIG d   1       1.339  -5.725 -11.548  0.00  0.00     0.131 A 
ATOM     18  C   LIG d   1       0.764  -6.852 -10.987  0.00  0.00     0.026 A 
ATOM     19  C   LIG d   1      -0.410  -6.746 -10.259  0.00  0.00     0.165 A 
ATOM     20  H   LIG d   1       1.230  -7.817 -11.121  0.00  0.00     0.069 H 
ATOM     21  C   LIG d   1      -1.019  -5.502 -10.082  0.00  0.00     0.162 A 
ATOM     22  C   LIG d   1      -0.455  -4.370 -10.629  0.00  0.00    -0.005 A 
ATOM     23  H   LIG d   1      -0.927  -3.408 -10.491  0.00  0.00     0.066 H 
BRANCH  17  24
ATOM     24  O   LIG d   1       2.487  -5.831 -12.266  0.00  0.00    -0.494 OA
BRANCH  24  25
ATOM     25  C   LIG d   1       2.581  -6.923 -13.180  0.00  0.00     0.079 C 
ATOM     26  H   LIG d   1       2.678  -6.540 -14.196  0.00  0.00     0.066 H 
ATOM     27  H   LIG d   1       3.455  -7.528 -12.936  0.00  0.00     0.066 H 
ATOM     28  H   LIG d   1       1.684  -7.537 -13.108  0.00  0.00     0.066 H 
ENDBRANCH  24  25
ENDBRANCH  17  24
BRANCH  19  29
ATOM     29  O   LIG d   1      -0.972  -7.857  -9.717  0.00  0.00    -0.491 OA
BRANCH  29  30
ATOM     30  C   LIG d   1      -1.717  -8.703 -10.595  0.00  0.00     0.079 C 
ATOM     31  H   LIG d   1      -2.117  -8.110 -11.417  0.00  0.00     0.066 H 
ATOM     32  H   LIG d   1      -1.063  -9.479 -10.992  0.00  0.00     0.066 H 
ATOM     33  H   LIG d   1      -2.537  -9.165 -10.047  0.00  0.00     0.066 H 
ENDBRANCH  29  30
ENDBRANCH  19  29
BRANCH  21  34
ATOM     34  O   LIG d   1      -2.172  -5.407  -9.365  0.00  0.00    -0.491 OA
BRANCH  34  35
ATOM     35  C   LIG d   1      -3.337  -4.966 -10.066  0.00  0.00     0.079 C 
ATOM     36  H   LIG d   1      -3.125  -4.925 -11.134  0.00  0.00     0.066 H 
ATOM     37  H   LIG d   1      -4.155  -5.663  -9.885  0.00  0.00     0.066 H 
ATOM     38  H   LIG d   1      -3.620  -3.975  -9.713  0.00  0.00     0.066 H 
ENDBRANCH  34  35
ENDBRANCH  21  34
ENDBRANCH   9  16
BRANCH   1  39
ATOM     39  O   LIG d   1       3.691   0.712  -6.451  0.00  0.00    -0.487 OA
BRANCH  39  40
ATOM     40  C   LIG d   1       2.771   0.236  -5.466  0.00  0.00     0.115 C 
ATOM     41  H   LIG d   1       2.471  -0.782  -5.712  0.00  0.00     0.075 H 
ATOM     42  H   LIG d   1       1.893   0.881  -5.448  0.00  0.00     0.075 H 
BRANCH  40  43
ATOM     43  C   LIG d   1       3.433   0.251  -4.111  0.00  0.00    -0.007 A 
ATOM     44  C   LIG d   1       4.132  -0.857  -3.671  0.00  0.00    -0.044 A 
ATOM     45  C   LIG d   1       4.734  -0.845  -2.427  0.00  0.00    -0.059 A 
ATOM     46  C   LIG d   1       4.642   0.277  -1.625  0.00  0.00    -0.061 A 
ATOM     47  H   LIG d   1       5.277  -1.712  -2.081  0.00  0.00     0.062 H 
ATOM     48  C   LIG d   1       3.947   1.387  -2.068  0.00  0.00    -0.061 A 
ATOM     49  H   LIG d   1       5.112   0.286  -0.654  0.00  0.00     0.062 H 
ATOM     50  C   LIG d   1       3.345   1.376  -3.312  0.00  0.00    -0.055 A 
ATOM     51  H   LIG d   1       3.875   2.264  -1.442  0.00  0.00     0.062 H 
ATOM     52  H   LIG d   1       2.802   2.243  -3.658  0.00  0.00     0.062 H 
BRANCH  44  53
ATOM     53  C   LIG d   1       4.233  -2.080  -4.545  0.00  0.00    -0.039 C 
ATOM     54  H   LIG d   1       5.244  -2.484  -4.490  0.00  0.00     0.028 H 
ATOM     55  H   LIG d   1       3.523  -2.832  -4.203  0.00  0.00     0.028 H 
ATOM     56  H   LIG d   1       4.007  -1.809  -5.577  0.00  0.00     0.028 H 
ENDBRANCH  44  53
ENDBRANCH  40  43
ENDBRANCH  39  40
ENDBRANCH   1  39
TORSDOF 11
ENDMDL
MODEL 7
REMARK VINA RESULT:      -6.6      2.209      3.423
REMARK  11 active torsions:
REMARK  status: ('A' for Active; 'I' for Inactive)
REMARK    1  A    between atoms: C_1  and  C_2 
REMARK    2  A    between atoms: C_7  and  C_8 
REMARK    3  A    between atoms: C_8  and  O_9 
REMARK    4  A    between atoms: O_9  and  C_10 
REMARK    5  A    between atoms: C_18  and  C_19 
REMARK    6  A    between atoms: C_21  and  O_29 
REMARK    7  A    between atoms: C_22  and  O_27 
REMARK    8  A    between atoms: C_24  and  O_25 
REMARK    9  A    between atoms: O_25  and  C_26 
REMARK   10  A    between atoms: O_27  and  C_28 
REMARK   11  A    between atoms: O_29  and  C_30 
ROOT
ATOM      1  C   LIG d   1       8.971   2.372  -4.097  0.00  0.00     0.124 A 
ATOM      2  C   LIG d   1       8.842   2.681  -5.448  0.00  0.00    -0.019 A 
ATOM      3  C   LIG d   1       9.291   3.878  -5.925  0.00  0.00    -0.044 A 
ATOM      4  C   LIG d   1       9.890   4.792  -5.057  0.00  0.00     0.068 A 
ATOM      5  C   LIG d   1      10.033   4.490  -3.693  0.00  0.00     0.143 A 
ATOM      6  C   LIG d   1       9.566   3.268  -3.223  0.00  0.00     0.023 A 
ATOM      7  O   LIG d   1      10.637   5.518  -3.060  0.00  0.00    -0.451 OA
ATOM      8  C   LIG d   1      10.930   6.531  -3.911  0.00  0.00     0.176 A 
ATOM      9  C   LIG d   1      11.538   7.703  -3.586  0.00  0.00    -0.005 C 
ATOM     10  C   LIG d   1      10.471   6.134  -5.247  0.00  0.00     0.232 A 
ATOM     11  O   LIG d   1      10.551   6.772  -6.284  0.00  0.00    -0.283 OA
ATOM     12  H   LIG d   1       8.381   1.972  -6.121  0.00  0.00     0.065 H 
ATOM     13  H   LIG d   1       9.185   4.118  -6.972  0.00  0.00     0.063 H 
ATOM     14  H   LIG d   1       9.665   3.018  -2.178  0.00  0.00     0.069 H 
ATOM     15  H   LIG d   1      11.829   8.394  -4.364  0.00  0.00     0.066 H 
ENDROOT
BRANCH   9  16
ATOM     16  C   LIG d   1      11.800   8.028  -2.182  0.00  0.00     0.024 A 
ATOM     17  C   LIG d   1      10.849   8.743  -1.433  0.00  0.00     0.131 A 
ATOM     18  C   LIG d   1      11.101   9.042  -0.106  0.00  0.00     0.026 A 
ATOM     19  C   LIG d   1      12.293   8.647   0.482  0.00  0.00     0.165 A 
ATOM     20  H   LIG d   1      10.370   9.588   0.472  0.00  0.00     0.069 H 
ATOM     21  C   LIG d   1      13.243   7.941  -0.258  0.00  0.00     0.162 A 
ATOM     22  C   LIG d   1      13.003   7.631  -1.579  0.00  0.00    -0.005 A 
ATOM     23  H   LIG d   1      13.739   7.085  -2.150  0.00  0.00     0.066 H 
BRANCH  17  24
ATOM     24  O   LIG d   1       9.684   9.136  -2.010  0.00  0.00    -0.494 OA
BRANCH  24  25
ATOM     25  C   LIG d   1       9.470  10.541  -2.149  0.00  0.00     0.079 C 
ATOM     26  H   LIG d   1      10.422  11.064  -2.062  0.00  0.00     0.066 H 
ATOM     27  H   LIG d   1       9.031  10.747  -3.125  0.00  0.00     0.066 H 
ATOM     28  H   LIG d   1       8.794  10.885  -1.367  0.00  0.00     0.066 H 
ENDBRANCH  24  25
ENDBRANCH  17  24
BRANCH  19  29
ATOM     29  O   LIG d   1      12.537   8.948   1.783  0.00  0.00    -0.491 OA
BRANCH  29  30
ATOM     30  C   LIG d   1      12.785  10.320   2.097  0.00  0.00     0.079 C 
ATOM     31  H   LIG d   1      13.272  10.803   1.250  0.00  0.00     0.066 H 
ATOM     32  H   LIG d   1      11.840  10.822   2.306  0.00  0.00     0.066 H 
ATOM     33  H   LIG d   1      13.431  10.383   2.971  0.00  0.00     0.066 H 
ENDBRANCH  29  30
ENDBRANCH  19  29
BRANCH  21  34
ATOM     34  O   LIG d   1      14.410   7.556   0.327  0.00  0.00    -0.491 OA
BRANCH  34  35
ATOM     35  C   LIG d   1      15.584   8.294  -0.020  0.00  0.00     0.079 C 
ATOM     36  H   LIG d   1      15.969   8.803   0.864  0.00  0.00     0.066 H 
ATOM     37  H   LIG d   1      16.342   7.611  -0.404  0.00  0.00     0.066 H 
ATOM     38  H   LIG d   1      15.337   9.031  -0.785  0.00  0.00     0.066 H 
ENDBRANCH  34  35
ENDBRANCH  21  34
ENDBRANCH   9  16
BRANCH   1  39
ATOM     39  O   LIG d   1       8.517   1.180  -3.632  0.00  0.00    -0.487 OA
BRANCH  39  40
ATOM     40  C   LIG d   1       7.482   0.542  -4.383  0.00  0.00     0.115 C 
ATOM     41  H   LIG d   1       7.872  -0.369  -4.837  0.00  0.00     0.075 H 
ATOM     42  H   LIG d   1       7.133   1.217  -5.164  0.00  0.00     0.075 H 
BRANCH  40  43
ATOM     43  C   LIG d   1       6.336   0.198  -3.467  0.00  0.00    -0.007 A 
ATOM     44  C   LIG d   1       6.018  -1.125  -3.226  0.00  0.00    -0.044 A 
ATOM     45  C   LIG d   1       4.962  -1.441  -2.390  0.00  0.00    -0.059 A 
ATOM     46  C   LIG d   1       4.229  -0.433  -1.792  0.00  0.00    -0.061 A 
ATOM     47  H   LIG d   1       4.711  -2.475  -2.205  0.00  0.00     0.062 H 
ATOM     48  C   LIG d   1       4.551   0.890  -2.030  0.00  0.00    -0.061 A 
ATOM     49  H   LIG d   1       3.405  -0.680  -1.140  0.00  0.00     0.062 H 
ATOM     50  C   LIG d   1       5.605   1.206  -2.865  0.00  0.00    -0.055 A 
ATOM     51  H   LIG d   1       3.977   1.677  -1.563  0.00  0.00     0.062 H 
ATOM     52  H   LIG d   1       5.857   2.240  -3.051  0.00  0.00     0.062 H 
BRANCH  44  53
ATOM     53  C   LIG d   1       6.818  -2.223  -3.877  0.00  0.00    -0.039 C 
ATOM     54  H   LIG d   1       7.561  -1.785  -4.544  0.00  0.00     0.028 H 
ATOM     55  H   LIG d   1       7.322  -2.810  -3.110  0.00  0.00     0.028 H 
ATOM     56  H   LIG d   1       6.151  -2.868  -4.449  0.00  0.00     0.028 H 
ENDBRANCH  44  53
ENDBRANCH  40  43
ENDBRANCH  39  40
ENDBRANCH   1  39
TORSDOF 11
ENDMDL
MODEL 8
REMARK VINA RESULT:      -6.6      7.802     12.887
REMARK  11 active torsions:
REMARK  status: ('A' for Active; 'I' for Inactive)
REMARK    1  A    between atoms: C_1  and  C_2 
REMARK    2  A    between atoms: C_7  and  C_8 
REMARK    3  A    between atoms: C_8  and  O_9 
REMARK    4  A    between atoms: O_9  and  C_10 
REMARK    5  A    between atoms: C_18  and  C_19 
REMARK    6  A    between atoms: C_21  and  O_29 
REMARK    7  A    between atoms: C_22  and  O_27 
REMARK    8  A    between atoms: C_24  and  O_25 
REMARK    9  A    between atoms: O_25  and  C_26 
REMARK   10  A    between atoms: O_27  and  C_28 
REMARK   11  A    between atoms: O_29  and  C_30 
ROOT
ATOM      1  C   LIG d   1       3.363   0.427  -7.681  0.00  0.00     0.124 A 
ATOM      2  C   LIG d   1       4.494   0.883  -8.354  0.00  0.00    -0.019 A 
ATOM      3  C   LIG d   1       4.632   0.657  -9.693  0.00  0.00    -0.044 A 
ATOM      4  C   LIG d   1       3.634  -0.023 -10.392  0.00  0.00     0.068 A 
ATOM      5  C   LIG d   1       2.486  -0.482  -9.725  0.00  0.00     0.143 A 
ATOM      6  C   LIG d   1       2.363  -0.249  -8.361  0.00  0.00     0.023 A 
ATOM      7  O   LIG d   1       1.671  -1.105 -10.603  0.00  0.00    -0.451 OA
ATOM      8  C   LIG d   1       2.185  -1.107 -11.856  0.00  0.00     0.176 A 
ATOM      9  C   LIG d   1       1.608  -1.652 -12.960  0.00  0.00    -0.005 C 
ATOM     10  C   LIG d   1       3.478  -0.414 -11.805  0.00  0.00     0.232 A 
ATOM     11  O   LIG d   1       4.251  -0.208 -12.726  0.00  0.00    -0.283 OA
ATOM     12  H   LIG d   1       5.264   1.413  -7.815  0.00  0.00     0.065 H 
ATOM     13  H   LIG d   1       5.512   1.007 -10.213  0.00  0.00     0.063 H 
ATOM     14  H   LIG d   1       1.488  -0.595  -7.831  0.00  0.00     0.069 H 
ATOM     15  H   LIG d   1       2.052  -1.496 -13.933  0.00  0.00     0.066 H 
ENDROOT
BRANCH   9  16
ATOM     16  C   LIG d   1       0.388  -2.451 -12.831  0.00  0.00     0.024 A 
ATOM     17  C   LIG d   1       0.452  -3.764 -12.334  0.00  0.00     0.131 A 
ATOM     18  C   LIG d   1      -0.707  -4.511 -12.211  0.00  0.00     0.026 A 
ATOM     19  C   LIG d   1      -1.927  -3.970 -12.585  0.00  0.00     0.165 A 
ATOM     20  H   LIG d   1      -0.659  -5.519 -11.826  0.00  0.00     0.069 H 
ATOM     21  C   LIG d   1      -1.996  -2.668 -13.085  0.00  0.00     0.162 A 
ATOM     22  C   LIG d   1      -0.851  -1.911 -13.208  0.00  0.00    -0.005 A 
ATOM     23  H   LIG d   1      -0.906  -0.903 -13.594  0.00  0.00     0.066 H 
BRANCH  17  24
ATOM     24  O   LIG d   1       1.648  -4.297 -11.972  0.00  0.00    -0.494 OA
BRANCH  24  25
ATOM     25  C   LIG d   1       1.806  -4.661 -10.600  0.00  0.00     0.079 C 
ATOM     26  H   LIG d   1       2.726  -5.233 -10.480  0.00  0.00     0.066 H 
ATOM     27  H   LIG d   1       1.857  -3.760  -9.989  0.00  0.00     0.066 H 
ATOM     28  H   LIG d   1       0.958  -5.267 -10.284  0.00  0.00     0.066 H 
ENDBRANCH  24  25
ENDBRANCH  17  24
BRANCH  19  29
ATOM     29  O   LIG d   1      -3.059  -4.710 -12.467  0.00  0.00    -0.491 OA
BRANCH  29  30
ATOM     30  C   LIG d   1      -3.609  -4.850 -11.156  0.00  0.00     0.079 C 
ATOM     31  H   LIG d   1      -2.902  -5.384 -10.521  0.00  0.00     0.066 H 
ATOM     32  H   LIG d   1      -3.801  -3.863 -10.735  0.00  0.00     0.066 H 
ATOM     33  H   LIG d   1      -4.542  -5.409 -11.211  0.00  0.00     0.066 H 
ENDBRANCH  29  30
ENDBRANCH  19  29
BRANCH  21  34
ATOM     34  O   LIG d   1      -3.198  -2.145 -13.450  0.00  0.00    -0.491 OA
BRANCH  34  35
ATOM     35  C   LIG d   1      -3.406  -0.754 -13.190  0.00  0.00     0.079 C 
ATOM     36  H   LIG d   1      -3.811  -0.628 -12.187  0.00  0.00     0.066 H 
ATOM     37  H   LIG d   1      -2.456  -0.224 -13.267  0.00  0.00     0.066 H 
ATOM     38  H   LIG d   1      -4.108  -0.350 -13.920  0.00  0.00     0.066 H 
ENDBRANCH  34  35
ENDBRANCH  21  34
ENDBRANCH   9  16
BRANCH   1  39
ATOM     39  O   LIG d   1       3.237   0.652  -6.348  0.00  0.00    -0.487 OA
BRANCH  39  40
ATOM     40  C   LIG d   1       3.154  -0.496  -5.502  0.00  0.00     0.115 C 
ATOM     41  H   LIG d   1       3.796  -1.284  -5.894  0.00  0.00     0.075 H 
ATOM     42  H   LIG d   1       2.123  -0.849  -5.470  0.00  0.00     0.075 H 
BRANCH  40  43
ATOM     43  C   LIG d   1       3.602  -0.128  -4.110  0.00  0.00    -0.007 A 
ATOM     44  C   LIG d   1       4.218  -1.071  -3.311  0.00  0.00    -0.044 A 
ATOM     45  C   LIG d   1       4.624  -0.735  -2.032  0.00  0.00    -0.059 A 
ATOM     46  C   LIG d   1       4.418   0.546  -1.557  0.00  0.00    -0.061 A 
ATOM     47  H   LIG d   1       5.102  -1.473  -1.405  0.00  0.00     0.062 H 
ATOM     48  C   LIG d   1       3.806   1.491  -2.359  0.00  0.00    -0.061 A 
ATOM     49  H   LIG d   1       4.735   0.809  -0.558  0.00  0.00     0.062 H 
ATOM     50  C   LIG d   1       3.400   1.155  -3.636  0.00  0.00    -0.055 A 
ATOM     51  H   LIG d   1       3.645   2.492  -1.987  0.00  0.00     0.062 H 
ATOM     52  H   LIG d   1       2.922   1.894  -4.264  0.00  0.00     0.062 H 
BRANCH  44  53
ATOM     53  C   LIG d   1       4.443  -2.467  -3.830  0.00  0.00    -0.039 C 
ATOM     54  H   LIG d   1       5.453  -2.791  -3.576  0.00  0.00     0.028 H 
ATOM     55  H   LIG d   1       3.721  -3.146  -3.376  0.00  0.00     0.028 H 
ATOM     56  H   LIG d   1       4.321  -2.477  -4.913  0.00  0.00     0.028 H 
ENDBRANCH  44  53
ENDBRANCH  40  43
ENDBRANCH  39  40
ENDBRANCH   1  39
TORSDOF 11
ENDMDL
MODEL 9
REMARK VINA RESULT:      -6.5      2.587      3.963
REMARK  11 active torsions:
REMARK  status: ('A' for Active; 'I' for Inactive)
REMARK    1  A    between atoms: C_1  and  C_2 
REMARK    2  A    between atoms: C_7  and  C_8 
REMARK    3  A    between atoms: C_8  and  O_9 
REMARK    4  A    between atoms: O_9  and  C_10 
REMARK    5  A    between atoms: C_18  and  C_19 
REMARK    6  A    between atoms: C_21  and  O_29 
REMARK    7  A    between atoms: C_22  and  O_27 
REMARK    8  A    between atoms: C_24  and  O_25 
REMARK    9  A    between atoms: O_25  and  C_26 
REMARK   10  A    between atoms: O_27  and  C_28 
REMARK   11  A    between atoms: O_29  and  C_30 
ROOT
ATOM      1  C   LIG d   1       8.535   2.085  -4.689  0.00  0.00     0.124 A 
ATOM      2  C   LIG d   1       9.727   1.377  -4.559  0.00  0.00    -0.019 A 
ATOM      3  C   LIG d   1      10.898   2.041  -4.335  0.00  0.00    -0.044 A 
ATOM      4  C   LIG d   1      10.900   3.433  -4.226  0.00  0.00     0.068 A 
ATOM      5  C   LIG d   1       9.703   4.157  -4.349  0.00  0.00     0.143 A 
ATOM      6  C   LIG d   1       8.520   3.465  -4.582  0.00  0.00     0.023 A 
ATOM      7  O   LIG d   1       9.954   5.476  -4.208  0.00  0.00    -0.451 OA
ATOM      8  C   LIG d   1      11.268   5.719  -3.989  0.00  0.00     0.176 A 
ATOM      9  C   LIG d   1      11.841   6.938  -3.806  0.00  0.00    -0.005 C 
ATOM     10  C   LIG d   1      11.963   4.426  -3.986  0.00  0.00     0.232 A 
ATOM     11  O   LIG d   1      13.154   4.218  -3.823  0.00  0.00    -0.283 OA
ATOM     12  H   LIG d   1       9.726   0.300  -4.639  0.00  0.00     0.065 H 
ATOM     13  H   LIG d   1      11.823   1.491  -4.239  0.00  0.00     0.063 H 
ATOM     14  H   LIG d   1       7.590   4.005  -4.680  0.00  0.00     0.069 H 
ATOM     15  H   LIG d   1      12.881   7.009  -3.524  0.00  0.00     0.066 H 
ENDROOT
BRANCH   9  16
ATOM     16  C   LIG d   1      11.048   8.155  -3.992  0.00  0.00     0.024 A 
ATOM     17  C   LIG d   1      10.632   8.905  -2.877  0.00  0.00     0.131 A 
ATOM     18  C   LIG d   1       9.887  10.056  -3.061  0.00  0.00     0.026 A 
ATOM     19  C   LIG d   1       9.541  10.465  -4.340  0.00  0.00     0.165 A 
ATOM     20  H   LIG d   1       9.571  10.636  -2.206  0.00  0.00     0.069 H 
ATOM     21  C   LIG d   1       9.946   9.721  -5.450  0.00  0.00     0.162 A 
ATOM     22  C   LIG d   1      10.693   8.576  -5.282  0.00  0.00    -0.005 A 
ATOM     23  H   LIG d   1      11.006   8.001  -6.143  0.00  0.00     0.066 H 
BRANCH  17  24
ATOM     24  O   LIG d   1      10.966   8.503  -1.624  0.00  0.00    -0.494 OA
BRANCH  24  25
ATOM     25  C   LIG d   1       9.918   7.973  -0.812  0.00  0.00     0.079 C 
ATOM     26  H   LIG d   1       9.089   7.661  -1.447  0.00  0.00     0.066 H 
ATOM     27  H   LIG d   1      10.289   7.114  -0.252  0.00  0.00     0.066 H 
ATOM     28  H   LIG d   1       9.574   8.738  -0.116  0.00  0.00     0.066 H 
ENDBRANCH  24  25
ENDBRANCH  17  24
BRANCH  19  29
ATOM     29  O   LIG d   1       8.805  11.592  -4.513  0.00  0.00    -0.491 OA
BRANCH  29  30
ATOM     30  C   LIG d   1       8.793  12.532  -3.437  0.00  0.00     0.079 C 
ATOM     31  H   LIG d   1       7.766  12.697  -3.110  0.00  0.00     0.066 H 
ATOM     32  H   LIG d   1       9.379  12.140  -2.606  0.00  0.00     0.066 H 
ATOM     33  H   LIG d   1       9.224  13.474  -3.772  0.00  0.00     0.066 H 
ENDBRANCH  29  30
ENDBRANCH  19  29
BRANCH  21  34
ATOM     34  O   LIG d   1       9.602  10.129  -6.702  0.00  0.00    -0.491 OA
BRANCH  34  35
ATOM     35  C   LIG d   1      10.400   9.645  -7.785  0.00  0.00     0.079 C 
ATOM     36  H   LIG d   1      10.889   8.717  -7.489  0.00  0.00     0.066 H 
ATOM     37  H   LIG d   1       9.765   9.461  -8.651  0.00  0.00     0.066 H 
ATOM     38  H   LIG d   1      11.156  10.388  -8.040  0.00  0.00     0.066 H 
ENDBRANCH  34  35
ENDBRANCH  21  34
ENDBRANCH   9  16
BRANCH   1  39
ATOM     39  O   LIG d   1       7.376   1.415  -4.917  0.00  0.00    -0.487 OA
BRANCH  39  40
ATOM     40  C   LIG d   1       7.328   0.045  -4.513  0.00  0.00     0.115 C 
ATOM     41  H   LIG d   1       8.281  -0.235  -4.064  0.00  0.00     0.075 H 
ATOM     42  H   LIG d   1       7.138  -0.583  -5.384  0.00  0.00     0.075 H 
BRANCH  40  43
ATOM     43  C   LIG d   1       6.222  -0.144  -3.507  0.00  0.00    -0.007 A 
ATOM     44  C   LIG d   1       5.748  -1.412  -3.231  0.00  0.00    -0.044 A 
ATOM     45  C   LIG d   1       4.730  -1.585  -2.312  0.00  0.00    -0.059 A 
ATOM     46  C   LIG d   1       4.190  -0.490  -1.665  0.00  0.00    -0.061 A 
ATOM     47  H   LIG d   1       4.356  -2.576  -2.099  0.00  0.00     0.062 H 
ATOM     48  C   LIG d   1       4.668   0.779  -1.937  0.00  0.00    -0.061 A 
ATOM     49  H   LIG d   1       3.395  -0.625  -0.947  0.00  0.00     0.062 H 
ATOM     50  C   LIG d   1       5.686   0.952  -2.856  0.00  0.00    -0.055 A 
ATOM     51  H   LIG d   1       4.246   1.635  -1.432  0.00  0.00     0.062 H 
ATOM     52  H   LIG d   1       6.060   1.943  -3.068  0.00  0.00     0.062 H 
BRANCH  44  53
ATOM     53  C   LIG d   1       6.338  -2.606  -3.936  0.00  0.00    -0.039 C 
ATOM     54  H   LIG d   1       5.542  -3.170  -4.424  0.00  0.00     0.028 H 
ATOM     55  H   LIG d   1       7.056  -2.270  -4.684  0.00  0.00     0.028 H 
ATOM     56  H   LIG d   1       6.842  -3.245  -3.210  0.00  0.00     0.028 H 
ENDBRANCH  44  53
ENDBRANCH  40  43
ENDBRANCH  39  40
ENDBRANCH   1  39
TORSDOF 11
ENDMDL
