MODEL 1
REMARK VINA RESULT:      -6.7      0.000      0.000
REMARK  10 active torsions:
REMARK  status: ('A' for Active; 'I' for Inactive)
REMARK    1  A    between atoms: C_1  and  C_2 
REMARK    2  A    between atoms: C_3  and  C_31 
REMARK    3  A    between atoms: C_11  and  O_13 
REMARK    4  A    between atoms: O_13  and  C_14 
REMARK    5  A    between atoms: C_14  and  C_15 
REMARK    6  A    between atoms: C_15  and  C_17 
REMARK    7  A    between atoms: C_18  and  C_29 
REMARK    8  A    between atoms: N_19  and  C_28 
REMARK    9  A    between atoms: C_23  and  O_26 
REMARK   10  A    between atoms: O_26  and  C_27 
ROOT
ATOM      1  C   LIG d   1       5.416  -3.696  -8.995  0.00  0.00     0.203 C 
ATOM      2  O   LIG d   1       4.927  -4.800  -8.875  0.00  0.00    -0.288 OA
ENDROOT
BRANCH   1   3
ATOM      3  C   LIG d   1       6.833  -3.447  -8.543  0.00  0.00     0.152 C 
ATOM      4  H   LIG d   1       7.003  -2.462  -8.507  0.00  0.00     0.078 H 
ATOM      5  H   LIG d   1       7.525  -3.910  -9.246  0.00  0.00     0.078 H 
BRANCH   3   6
ATOM      6  O   LIG d   1       7.024  -4.011  -7.245  0.00  0.00    -0.483 OA
BRANCH   6   7
ATOM      7  C   LIG d   1       6.484  -3.340  -6.195  0.00  0.00     0.143 A 
ATOM      8  C   LIG d   1       5.524  -3.959  -5.398  0.00  0.00     0.083 A 
ATOM      9  C   LIG d   1       4.971  -3.296  -4.339  0.00  0.00    -0.029 A 
ATOM     10 CL   LIG d   1       5.022  -5.583  -5.754  0.00  0.00    -0.080 Cl
ATOM     11  C   LIG d   1       5.375  -1.987  -4.052  0.00  0.00     0.022 A 
ATOM     12  H   LIG d   1       4.227  -3.781  -3.725  0.00  0.00     0.064 H 
ATOM     13  C   LIG d   1       4.806  -1.254  -2.919  0.00  0.00    -0.030 A 
ATOM     14  C   LIG d   1       6.346  -1.357  -4.852  0.00  0.00     0.143 A 
ATOM     15  C   LIG d   1       5.235   0.015  -2.695  0.00  0.00     0.037 A 
ATOM     16  C   LIG d   1       6.211   0.584  -3.537  0.00  0.00     0.340 A 
ATOM     17  O   LIG d   1       6.591   1.721  -3.322  0.00  0.00    -0.245 OA
ATOM     18  O   LIG d   1       6.733  -0.095  -4.571  0.00  0.00    -0.422 OA
ATOM     19  C   LIG d   1       6.896  -2.045  -5.924  0.00  0.00     0.025 A 
ATOM     20  H   LIG d   1       7.642  -1.571  -6.546  0.00  0.00     0.069 H 
BRANCH  13  21
ATOM     21  C   LIG d   1       3.768  -1.889  -2.030  0.00  0.00    -0.039 C 
ATOM     22  H   LIG d   1       4.212  -2.126  -1.064  0.00  0.00     0.028 H 
ATOM     23  H   LIG d   1       2.937  -1.196  -1.888  0.00  0.00     0.028 H 
ATOM     24  H   LIG d   1       3.401  -2.803  -2.495  0.00  0.00     0.028 H 
ENDBRANCH  13  21
BRANCH  15  25
ATOM     25  C   LIG d   1       4.675   0.810  -1.543  0.00  0.00    -0.033 C 
ATOM     26  H   LIG d   1       4.234   0.129  -0.813  0.00  0.00     0.028 H 
ATOM     27  H   LIG d   1       3.910   1.493  -1.911  0.00  0.00     0.028 H 
ATOM     28  H   LIG d   1       5.475   1.379  -1.071  0.00  0.00     0.028 H 
ENDBRANCH  15  25
ENDBRANCH   6   7
ENDBRANCH   3   6
ENDBRANCH   1   3
BRANCH   1  29
ATOM     29  C   LIG d   1       4.658  -2.641  -9.560  0.00  0.00     0.049 A 
ATOM     30  C   LIG d   1       4.099  -1.473  -8.852  0.00  0.00     0.014 A 
ATOM     31  C   LIG d   1       3.434  -0.715  -9.828  0.00  0.00     0.050 A 
ATOM     32  C   LIG d   1       4.120  -1.046  -7.528  0.00  0.00    -0.010 A 
ATOM     33  N   LIG d   1       3.576  -1.370 -11.036  0.00  0.00    -0.346 N 
ATOM     34  C   LIG d   1       2.797   0.466  -9.458  0.00  0.00    -0.034 A 
ATOM     35  C   LIG d   1       4.297  -2.497 -10.883  0.00  0.00     0.027 A 
ATOM     36  C   LIG d   1       2.823   0.882  -8.145  0.00  0.00    -0.018 A 
ATOM     37  H   LIG d   1       2.283   1.057 -10.202  0.00  0.00     0.064 H 
ATOM     38  C   LIG d   1       3.483   0.131  -7.178  0.00  0.00     0.121 A 
ATOM     39  H   LIG d   1       2.327   1.799  -7.865  0.00  0.00     0.066 H 
ATOM     40  H   LIG d   1       4.633  -1.629  -6.777  0.00  0.00     0.066 H 
BRANCH  33  41
ATOM     41  C   LIG d   1       3.024  -0.900 -12.308  0.00  0.00     0.012 C 
ATOM     42  H   LIG d   1       3.246  -1.625 -13.091  0.00  0.00     0.046 H 
ATOM     43  H   LIG d   1       1.945  -0.784 -12.215  0.00  0.00     0.046 H 
ATOM     44  H   LIG d   1       3.471   0.061 -12.566  0.00  0.00     0.046 H 
ENDBRANCH  33  41
BRANCH  35  45
ATOM     45  C   LIG d   1       4.653  -3.456 -11.989  0.00  0.00    -0.024 C 
ATOM     46  H   LIG d   1       5.731  -3.446 -12.147  0.00  0.00     0.029 H 
ATOM     47  H   LIG d   1       4.337  -4.463 -11.713  0.00  0.00     0.029 H 
ATOM     48  H   LIG d   1       4.148  -3.156 -12.908  0.00  0.00     0.029 H 
ENDBRANCH  35  45
BRANCH  38  49
ATOM     49  O   LIG d   1       3.499   0.553  -5.885  0.00  0.00    -0.495 OA
BRANCH  49  50
ATOM     50  C   LIG d   1       2.310   0.346  -5.120  0.00  0.00     0.079 C 
ATOM     51  H   LIG d   1       1.797  -0.546  -5.480  0.00  0.00     0.066 H 
ATOM     52  H   LIG d   1       2.572   0.214  -4.070  0.00  0.00     0.066 H 
ATOM     53  H   LIG d   1       1.655   1.211  -5.226  0.00  0.00     0.066 H 
ENDBRANCH  49  50
ENDBRANCH  38  49
ENDBRANCH   1  29
TORSDOF 10
ENDMDL
MODEL 2
REMARK VINA RESULT:      -6.5      6.268      9.195
REMARK  10 active torsions:
REMARK  status: ('A' for Active; 'I' for Inactive)
REMARK    1  A    between atoms: C_1  and  C_2 
REMARK    2  A    between atoms: C_3  and  C_31 
REMARK    3  A    between atoms: C_11  and  O_13 
REMARK    4  A    between atoms: O_13  and  C_14 
REMARK    5  A    between atoms: C_14  and  C_15 
REMARK    6  A    between atoms: C_15  and  C_17 
REMARK    7  A    between atoms: C_18  and  C_29 
REMARK    8  A    between atoms: N_19  and  C_28 
REMARK    9  A    between atoms: C_23  and  O_26 
REMARK   10  A    between atoms: O_26  and  C_27 
ROOT
ATOM      1  C   LIG d   1      10.499   4.941  -5.031  0.00  0.00     0.203 C 
ATOM      2  O   LIG d   1      11.616   4.540  -5.285  0.00  0.00    -0.288 OA
ENDROOT
BRANCH   1   3
ATOM      3  C   LIG d   1       9.321   4.005  -5.135  0.00  0.00     0.152 C 
ATOM      4  H   LIG d   1       8.844   4.164  -5.999  0.00  0.00     0.078 H 
ATOM      5  H   LIG d   1       8.639   4.187  -4.304  0.00  0.00     0.078 H 
BRANCH   3   6
ATOM      6  O   LIG d   1       9.782   2.654  -5.085  0.00  0.00    -0.483 OA
BRANCH   6   7
ATOM      7  C   LIG d   1       8.882   1.710  -4.705  0.00  0.00     0.143 A 
ATOM      8  C   LIG d   1       9.033   0.395  -5.142  0.00  0.00     0.083 A 
ATOM      9  C   LIG d   1       8.136  -0.566  -4.768  0.00  0.00    -0.029 A 
ATOM     10 CL   LIG d   1      10.368  -0.025  -6.170  0.00  0.00    -0.080 Cl
ATOM     11  C   LIG d   1       7.060  -0.227  -3.941  0.00  0.00     0.022 A 
ATOM     12  H   LIG d   1       8.258  -1.582  -5.110  0.00  0.00     0.064 H 
ATOM     13  C   LIG d   1       6.087  -1.236  -3.518  0.00  0.00    -0.030 A 
ATOM     14  C   LIG d   1       6.903   1.099  -3.495  0.00  0.00     0.143 A 
ATOM     15  C   LIG d   1       5.062  -0.844  -2.718  0.00  0.00     0.037 A 
ATOM     16  C   LIG d   1       4.966   0.501  -2.310  0.00  0.00     0.340 A 
ATOM     17  O   LIG d   1       4.045   0.838  -1.588  0.00  0.00    -0.245 OA
ATOM     18  O   LIG d   1       5.864   1.421  -2.696  0.00  0.00    -0.422 OA
ATOM     19  C   LIG d   1       7.823   2.062  -3.884  0.00  0.00     0.025 A 
ATOM     20  H   LIG d   1       7.712   3.083  -3.549  0.00  0.00     0.069 H 
BRANCH  13  21
ATOM     21  C   LIG d   1       6.217  -2.670  -3.964  0.00  0.00    -0.039 C 
ATOM     22  H   LIG d   1       6.101  -3.330  -3.105  0.00  0.00     0.028 H 
ATOM     23  H   LIG d   1       5.444  -2.893  -4.702  0.00  0.00     0.028 H 
ATOM     24  H   LIG d   1       7.199  -2.825  -4.411  0.00  0.00     0.028 H 
ENDBRANCH  13  21
BRANCH  15  25
ATOM     25  C   LIG d   1       4.034  -1.848  -2.261  0.00  0.00    -0.033 C 
ATOM     26  H   LIG d   1       3.562  -2.305  -3.132  0.00  0.00     0.028 H 
ATOM     27  H   LIG d   1       3.278  -1.344  -1.660  0.00  0.00     0.028 H 
ATOM     28  H   LIG d   1       4.519  -2.619  -1.665  0.00  0.00     0.028 H 
ENDBRANCH  15  25
ENDBRANCH   6   7
ENDBRANCH   3   6
ENDBRANCH   1   3
BRANCH   1  29
ATOM     29  C   LIG d   1      10.301   6.288  -4.639  0.00  0.00     0.049 A 
ATOM     30  C   LIG d   1      10.227   6.808  -3.260  0.00  0.00     0.014 A 
ATOM     31  C   LIG d   1      10.024   8.191  -3.382  0.00  0.00     0.050 A 
ATOM     32  C   LIG d   1      10.316   6.222  -2.001  0.00  0.00    -0.010 A 
ATOM     33  N   LIG d   1       9.978   8.490  -4.730  0.00  0.00    -0.346 N 
ATOM     34  C   LIG d   1       9.912   8.969  -2.233  0.00  0.00    -0.034 A 
ATOM     35  C   LIG d   1      10.145   7.378  -5.470  0.00  0.00     0.027 A 
ATOM     36  C   LIG d   1      10.001   8.380  -0.990  0.00  0.00    -0.018 A 
ATOM     37  H   LIG d   1       9.756  10.034  -2.316  0.00  0.00     0.064 H 
ATOM     38  C   LIG d   1      10.203   7.009  -0.870  0.00  0.00     0.121 A 
ATOM     39  H   LIG d   1       9.914   8.988  -0.103  0.00  0.00     0.066 H 
ATOM     40  H   LIG d   1      10.472   5.157  -1.907  0.00  0.00     0.066 H 
BRANCH  33  41
ATOM     41  C   LIG d   1       9.780   9.833  -5.278  0.00  0.00     0.012 C 
ATOM     42  H   LIG d   1      10.656  10.122  -5.858  0.00  0.00     0.046 H 
ATOM     43  H   LIG d   1       8.900   9.837  -5.922  0.00  0.00     0.046 H 
ATOM     44  H   LIG d   1       9.636  10.542  -4.462  0.00  0.00     0.046 H 
ENDBRANCH  33  41
BRANCH  35  45
ATOM     45  C   LIG d   1      10.156   7.330  -6.975  0.00  0.00    -0.024 C 
ATOM     46  H   LIG d   1       9.795   8.279  -7.372  0.00  0.00     0.029 H 
ATOM     47  H   LIG d   1      11.173   7.154  -7.326  0.00  0.00     0.029 H 
ATOM     48  H   LIG d   1       9.509   6.523  -7.319  0.00  0.00     0.029 H 
ENDBRANCH  35  45
BRANCH  38  49
ATOM     49  O   LIG d   1      10.288   6.442   0.363  0.00  0.00    -0.495 OA
BRANCH  49  50
ATOM     50  C   LIG d   1      11.443   5.645   0.633  0.00  0.00     0.079 C 
ATOM     51  H   LIG d   1      11.245   4.994   1.484  0.00  0.00     0.066 H 
ATOM     52  H   LIG d   1      11.678   5.037  -0.242  0.00  0.00     0.066 H 
ATOM     53  H   LIG d   1      12.288   6.295   0.860  0.00  0.00     0.066 H 
ENDBRANCH  49  50
ENDBRANCH  38  49
ENDBRANCH   1  29
TORSDOF 10
ENDMDL
MODEL 3
REMARK VINA RESULT:      -6.3      6.260      9.488
REMARK  10 active torsions:
REMARK  status: ('A' for Active; 'I' for Inactive)
REMARK    1  A    between atoms: C_1  and  C_2 
REMARK    2  A    between atoms: C_3  and  C_31 
REMARK    3  A    between atoms: C_11  and  O_13 
REMARK    4  A    between atoms: O_13  and  C_14 
REMARK    5  A    between atoms: C_14  and  C_15 
REMARK    6  A    between atoms: C_15  and  C_17 
REMARK    7  A    between atoms: C_18  and  C_29 
REMARK    8  A    between atoms: N_19  and  C_28 
REMARK    9  A    between atoms: C_23  and  O_26 
REMARK   10  A    between atoms: O_26  and  C_27 
ROOT
ATOM      1  C   LIG d   1      10.553   4.909  -4.936  0.00  0.00     0.203 C 
ATOM      2  O   LIG d   1      10.880   5.399  -5.997  0.00  0.00    -0.288 OA
ENDROOT
BRANCH   1   3
ATOM      3  C   LIG d   1       9.343   4.011  -4.862  0.00  0.00     0.152 C 
ATOM      4  H   LIG d   1       8.711   4.243  -5.602  0.00  0.00     0.078 H 
ATOM      5  H   LIG d   1       8.847   4.151  -3.902  0.00  0.00     0.078 H 
BRANCH   3   6
ATOM      6  O   LIG d   1       9.753   2.649  -4.992  0.00  0.00    -0.483 OA
BRANCH   6   7
ATOM      7  C   LIG d   1       8.850   1.698  -4.638  0.00  0.00     0.143 A 
ATOM      8  C   LIG d   1       9.011   0.390  -5.091  0.00  0.00     0.083 A 
ATOM      9  C   LIG d   1       8.111  -0.578  -4.744  0.00  0.00    -0.029 A 
ATOM     10 CL   LIG d   1      10.362  -0.013  -6.105  0.00  0.00    -0.080 Cl
ATOM     11  C   LIG d   1       7.023  -0.253  -3.927  0.00  0.00     0.022 A 
ATOM     12  H   LIG d   1       8.241  -1.590  -5.098  0.00  0.00     0.064 H 
ATOM     13  C   LIG d   1       6.046  -1.271  -3.533  0.00  0.00    -0.030 A 
ATOM     14  C   LIG d   1       6.856   1.066  -3.466  0.00  0.00     0.143 A 
ATOM     15  C   LIG d   1       5.008  -0.892  -2.743  0.00  0.00     0.037 A 
ATOM     16  C   LIG d   1       4.903   0.447  -2.317  0.00  0.00     0.340 A 
ATOM     17  O   LIG d   1       3.971   0.772  -1.604  0.00  0.00    -0.245 OA
ATOM     18  O   LIG d   1       5.805   1.374  -2.678  0.00  0.00    -0.422 OA
ATOM     19  C   LIG d   1       7.779   2.036  -3.828  0.00  0.00     0.025 A 
ATOM     20  H   LIG d   1       7.661   3.052  -3.481  0.00  0.00     0.069 H 
BRANCH  13  21
ATOM     21  C   LIG d   1       6.185  -2.698  -3.997  0.00  0.00    -0.039 C 
ATOM     22  H   LIG d   1       5.298  -2.986  -4.559  0.00  0.00     0.028 H 
ATOM     23  H   LIG d   1       7.066  -2.789  -4.635  0.00  0.00     0.028 H 
ATOM     24  H   LIG d   1       6.296  -3.352  -3.133  0.00  0.00     0.028 H 
ENDBRANCH  13  21
BRANCH  15  25
ATOM     25  C   LIG d   1       3.976  -1.905  -2.315  0.00  0.00    -0.033 C 
ATOM     26  H   LIG d   1       4.477  -2.813  -1.979  0.00  0.00     0.028 H 
ATOM     27  H   LIG d   1       3.326  -2.138  -3.157  0.00  0.00     0.028 H 
ATOM     28  H   LIG d   1       3.382  -1.495  -1.499  0.00  0.00     0.028 H 
ENDBRANCH  15  25
ENDBRANCH   6   7
ENDBRANCH   3   6
ENDBRANCH   1   3
BRANCH   1  29
ATOM     29  C   LIG d   1      11.307   5.179  -3.768  0.00  0.00     0.049 A 
ATOM     30  C   LIG d   1      10.890   5.999  -2.613  0.00  0.00     0.014 A 
ATOM     31  C   LIG d   1      11.966   5.970  -1.714  0.00  0.00     0.050 A 
ATOM     32  C   LIG d   1       9.737   6.713  -2.303  0.00  0.00    -0.010 A 
ATOM     33  N   LIG d   1      12.962   5.194  -2.276  0.00  0.00    -0.346 N 
ATOM     34  C   LIG d   1      11.869   6.663  -0.510  0.00  0.00    -0.034 A 
ATOM     35  C   LIG d   1      12.576   4.725  -3.478  0.00  0.00     0.027 A 
ATOM     36  C   LIG d   1      10.724   7.368  -0.211  0.00  0.00    -0.018 A 
ATOM     37  H   LIG d   1      12.692   6.646   0.189  0.00  0.00     0.064 H 
ATOM     38  C   LIG d   1       9.656   7.395  -1.103  0.00  0.00     0.121 A 
ATOM     39  H   LIG d   1      10.654   7.903   0.724  0.00  0.00     0.066 H 
ATOM     40  H   LIG d   1       8.908   6.735  -2.995  0.00  0.00     0.066 H 
BRANCH  33  41
ATOM     41  C   LIG d   1      14.255   4.915  -1.648  0.00  0.00     0.012 C 
ATOM     42  H   LIG d   1      14.420   5.615  -0.830  0.00  0.00     0.046 H 
ATOM     43  H   LIG d   1      14.259   3.896  -1.262  0.00  0.00     0.046 H 
ATOM     44  H   LIG d   1      15.049   5.026  -2.387  0.00  0.00     0.046 H 
ENDBRANCH  33  41
BRANCH  35  45
ATOM     45  C   LIG d   1      13.407   3.841  -4.371  0.00  0.00    -0.024 C 
ATOM     46  H   LIG d   1      12.869   3.656  -5.301  0.00  0.00     0.029 H 
ATOM     47  H   LIG d   1      14.354   4.334  -4.592  0.00  0.00     0.029 H 
ATOM     48  H   LIG d   1      13.600   2.893  -3.868  0.00  0.00     0.029 H 
ENDBRANCH  35  45
BRANCH  38  49
ATOM     49  O   LIG d   1       8.533   8.096  -0.794  0.00  0.00    -0.495 OA
BRANCH  49  50
ATOM     50  C   LIG d   1       8.646   9.520  -0.757  0.00  0.00     0.079 C 
ATOM     51  H   LIG d   1       9.545   9.827  -1.293  0.00  0.00     0.066 H 
ATOM     52  H   LIG d   1       7.771   9.967  -1.230  0.00  0.00     0.066 H 
ATOM     53  H   LIG d   1       8.709   9.853   0.279  0.00  0.00     0.066 H 
ENDBRANCH  49  50
ENDBRANCH  38  49
ENDBRANCH   1  29
TORSDOF 10
ENDMDL
MODEL 4
REMARK VINA RESULT:      -6.1      2.034      2.627
REMARK  10 active torsions:
REMARK  status: ('A' for Active; 'I' for Inactive)
REMARK    1  A    between atoms: C_1  and  C_2 
REMARK    2  A    between atoms: C_3  and  C_31 
REMARK    3  A    between atoms: C_11  and  O_13 
REMARK    4  A    between atoms: O_13  and  C_14 
REMARK    5  A    between atoms: C_14  and  C_15 
REMARK    6  A    between atoms: C_15  and  C_17 
REMARK    7  A    between atoms: C_18  and  C_29 
REMARK    8  A    between atoms: N_19  and  C_28 
REMARK    9  A    between atoms: C_23  and  O_26 
REMARK   10  A    between atoms: O_26  and  C_27 
ROOT
ATOM      1  C   LIG d   1       5.038  -5.134  -8.258  0.00  0.00     0.203 C 
ATOM      2  O   LIG d   1       6.076  -5.272  -8.873  0.00  0.00    -0.288 OA
ENDROOT
BRANCH   1   3
ATOM      3  C   LIG d   1       4.795  -5.931  -7.002  0.00  0.00     0.152 C 
ATOM      4  H   LIG d   1       4.761  -6.905  -7.227  0.00  0.00     0.078 H 
ATOM      5  H   LIG d   1       3.848  -5.626  -6.557  0.00  0.00     0.078 H 
BRANCH   3   6
ATOM      6  O   LIG d   1       5.855  -5.692  -6.074  0.00  0.00    -0.483 OA
BRANCH   6   7
ATOM      7  C   LIG d   1       5.858  -4.492  -5.437  0.00  0.00     0.143 A 
ATOM      8  C   LIG d   1       7.031  -3.744  -5.377  0.00  0.00     0.083 A 
ATOM      9  C   LIG d   1       7.049  -2.536  -4.738  0.00  0.00    -0.029 A 
ATOM     10 CL   LIG d   1       8.481  -4.350  -6.115  0.00  0.00    -0.080 Cl
ATOM     11  C   LIG d   1       5.881  -2.047  -4.143  0.00  0.00     0.022 A 
ATOM     12  H   LIG d   1       7.962  -1.960  -4.695  0.00  0.00     0.064 H 
ATOM     13  C   LIG d   1       5.868  -0.753  -3.459  0.00  0.00    -0.030 A 
ATOM     14  C   LIG d   1       4.692  -2.799  -4.202  0.00  0.00     0.143 A 
ATOM     15  C   LIG d   1       4.704  -0.336  -2.896  0.00  0.00     0.037 A 
ATOM     16  C   LIG d   1       3.550  -1.140  -2.993  0.00  0.00     0.340 A 
ATOM     17  O   LIG d   1       2.512  -0.751  -2.490  0.00  0.00    -0.245 OA
ATOM     18  O   LIG d   1       3.568  -2.323  -3.627  0.00  0.00    -0.422 OA
ATOM     19  C   LIG d   1       4.692  -4.023  -4.853  0.00  0.00     0.025 A 
ATOM     20  H   LIG d   1       3.786  -4.609  -4.904  0.00  0.00     0.069 H 
BRANCH  13  21
ATOM     21  C   LIG d   1       7.115   0.090  -3.375  0.00  0.00    -0.039 C 
ATOM     22  H   LIG d   1       6.947   1.039  -3.883  0.00  0.00     0.028 H 
ATOM     23  H   LIG d   1       7.358   0.277  -2.328  0.00  0.00     0.028 H 
ATOM     24  H   LIG d   1       7.942  -0.436  -3.850  0.00  0.00     0.028 H 
ENDBRANCH  13  21
BRANCH  15  25
ATOM     25  C   LIG d   1       4.644   0.988  -2.178  0.00  0.00    -0.033 C 
ATOM     26  H   LIG d   1       4.241   1.747  -2.849  0.00  0.00     0.028 H 
ATOM     27  H   LIG d   1       5.647   1.276  -1.864  0.00  0.00     0.028 H 
ATOM     28  H   LIG d   1       4.001   0.898  -1.304  0.00  0.00     0.028 H 
ENDBRANCH  15  25
ENDBRANCH   6   7
ENDBRANCH   3   6
ENDBRANCH   1   3
BRANCH   1  29
ATOM     29  C   LIG d   1       4.056  -4.224  -8.721  0.00  0.00     0.049 A 
ATOM     30  C   LIG d   1       3.989  -2.776  -8.446  0.00  0.00     0.014 A 
ATOM     31  C   LIG d   1       2.848  -2.310  -9.117  0.00  0.00     0.050 A 
ATOM     32  C   LIG d   1       4.780  -1.894  -7.716  0.00  0.00    -0.010 A 
ATOM     33  N   LIG d   1       2.264  -3.391  -9.751  0.00  0.00    -0.346 N 
ATOM     34  C   LIG d   1       2.515  -0.961  -9.044  0.00  0.00    -0.034 A 
ATOM     35  C   LIG d   1       2.973  -4.513  -9.525  0.00  0.00     0.027 A 
ATOM     36  C   LIG d   1       3.304  -0.095  -8.319  0.00  0.00    -0.018 A 
ATOM     37  H   LIG d   1       1.639  -0.593  -9.557  0.00  0.00     0.064 H 
ATOM     38  C   LIG d   1       4.436  -0.556  -7.655  0.00  0.00     0.121 A 
ATOM     39  H   LIG d   1       3.042   0.951  -8.266  0.00  0.00     0.066 H 
ATOM     40  H   LIG d   1       5.659  -2.253  -7.201  0.00  0.00     0.066 H 
BRANCH  33  41
ATOM     41  C   LIG d   1       1.047  -3.323 -10.561  0.00  0.00     0.012 C 
ATOM     42  H   LIG d   1       0.326  -2.662 -10.081  0.00  0.00     0.046 H 
ATOM     43  H   LIG d   1       1.291  -2.937 -11.551  0.00  0.00     0.046 H 
ATOM     44  H   LIG d   1       0.617  -4.321 -10.657  0.00  0.00     0.046 H 
ENDBRANCH  33  41
BRANCH  35  45
ATOM     45  C   LIG d   1       2.633  -5.878 -10.066  0.00  0.00    -0.024 C 
ATOM     46  H   LIG d   1       1.701  -5.825 -10.627  0.00  0.00     0.029 H 
ATOM     47  H   LIG d   1       3.433  -6.218 -10.724  0.00  0.00     0.029 H 
ATOM     48  H   LIG d   1       2.521  -6.579  -9.239  0.00  0.00     0.029 H 
ENDBRANCH  35  45
BRANCH  38  49
ATOM     49  O   LIG d   1       5.205   0.310  -6.942  0.00  0.00    -0.495 OA
BRANCH  49  50
ATOM     50  C   LIG d   1       6.614   0.275  -7.180  0.00  0.00     0.079 C 
ATOM     51  H   LIG d   1       6.811  -0.237  -8.121  0.00  0.00     0.066 H 
ATOM     52  H   LIG d   1       6.999   1.293  -7.233  0.00  0.00     0.066 H 
ATOM     53  H   LIG d   1       7.106  -0.258  -6.366  0.00  0.00     0.066 H 
ENDBRANCH  49  50
ENDBRANCH  38  49
ENDBRANCH   1  29
TORSDOF 10
ENDMDL
MODEL 5
REMARK VINA RESULT:      -6.1      5.868      8.225
REMARK  10 active torsions:
REMARK  status: ('A' for Active; 'I' for Inactive)
REMARK    1  A    between atoms: C_1  and  C_2 
REMARK    2  A    between atoms: C_3  and  C_31 
REMARK    3  A    between atoms: C_11  and  O_13 
REMARK    4  A    between atoms: O_13  and  C_14 
REMARK    5  A    between atoms: C_14  and  C_15 
REMARK    6  A    between atoms: C_15  and  C_17 
REMARK    7  A    between atoms: C_18  and  C_29 
REMARK    8  A    between atoms: N_19  and  C_28 
REMARK    9  A    between atoms: C_23  and  O_26 
REMARK   10  A    between atoms: O_26  and  C_27 
ROOT
ATOM      1  C   LIG d   1      10.899   3.406  -5.661  0.00  0.00     0.203 C 
ATOM      2  O   LIG d   1      12.083   3.256  -5.881  0.00  0.00    -0.288 OA
ENDROOT
BRANCH   1   3
ATOM      3  C   LIG d   1       9.937   2.271  -5.907  0.00  0.00     0.152 C 
ATOM      4  H   LIG d   1      10.235   1.750  -6.707  0.00  0.00     0.078 H 
ATOM      5  H   LIG d   1       8.940   2.673  -6.086  0.00  0.00     0.078 H 
BRANCH   3   6
ATOM      6  O   LIG d   1       9.908   1.416  -4.763  0.00  0.00    -0.483 OA
BRANCH   6   7
ATOM      7  C   LIG d   1       8.731   0.797  -4.487  0.00  0.00     0.143 A 
ATOM      8  C   LIG d   1       8.536  -0.526  -4.880  0.00  0.00     0.083 A 
ATOM      9  C   LIG d   1       7.358  -1.162  -4.610  0.00  0.00    -0.029 A 
ATOM     10 CL   LIG d   1       9.798  -1.371  -5.722  0.00  0.00    -0.080 Cl
ATOM     11  C   LIG d   1       6.341  -0.481  -3.932  0.00  0.00     0.022 A 
ATOM     12  H   LIG d   1       7.213  -2.187  -4.917  0.00  0.00     0.064 H 
ATOM     13  C   LIG d   1       5.070  -1.139  -3.622  0.00  0.00    -0.030 A 
ATOM     14  C   LIG d   1       6.532   0.854  -3.531  0.00  0.00     0.143 A 
ATOM     15  C   LIG d   1       4.120  -0.423  -2.965  0.00  0.00     0.037 A 
ATOM     16  C   LIG d   1       4.379   0.911  -2.593  0.00  0.00     0.340 A 
ATOM     17  O   LIG d   1       3.521   1.540  -2.000  0.00  0.00    -0.245 OA
ATOM     18  O   LIG d   1       5.549   1.507  -2.876  0.00  0.00    -0.422 OA
ATOM     19  C   LIG d   1       7.735   1.485  -3.814  0.00  0.00     0.025 A 
ATOM     20  H   LIG d   1       7.893   2.510  -3.512  0.00  0.00     0.069 H 
BRANCH  13  21
ATOM     21  C   LIG d   1       4.820  -2.569  -4.025  0.00  0.00    -0.039 C 
ATOM     22  H   LIG d   1       3.748  -2.763  -4.034  0.00  0.00     0.028 H 
ATOM     23  H   LIG d   1       5.230  -2.743  -5.021  0.00  0.00     0.028 H 
ATOM     24  H   LIG d   1       5.304  -3.238  -3.313  0.00  0.00     0.028 H 
ENDBRANCH  13  21
BRANCH  15  25
ATOM     25  C   LIG d   1       2.795  -1.058  -2.628  0.00  0.00    -0.033 C 
ATOM     26  H   LIG d   1       2.006  -0.581  -3.211  0.00  0.00     0.028 H 
ATOM     27  H   LIG d   1       2.590  -0.928  -1.566  0.00  0.00     0.028 H 
ATOM     28  H   LIG d   1       2.830  -2.120  -2.866  0.00  0.00     0.028 H 
ENDBRANCH  15  25
ENDBRANCH   6   7
ENDBRANCH   3   6
ENDBRANCH   1   3
BRANCH   1  29
ATOM     29  C   LIG d   1      10.420   4.647  -5.173  0.00  0.00     0.049 A 
ATOM     30  C   LIG d   1      10.045   5.829  -5.973  0.00  0.00     0.014 A 
ATOM     31  C   LIG d   1       9.634   6.802  -5.050  0.00  0.00     0.050 A 
ATOM     32  C   LIG d   1      10.032   6.107  -7.337  0.00  0.00    -0.010 A 
ATOM     33  N   LIG d   1       9.750   6.256  -3.786  0.00  0.00    -0.346 N 
ATOM     34  C   LIG d   1       9.214   8.046  -5.511  0.00  0.00    -0.034 A 
ATOM     35  C   LIG d   1      10.205   4.991  -3.855  0.00  0.00     0.027 A 
ATOM     36  C   LIG d   1       9.204   8.314  -6.863  0.00  0.00    -0.018 A 
ATOM     37  H   LIG d   1       8.895   8.802  -4.808  0.00  0.00     0.064 H 
ATOM     38  C   LIG d   1       9.611   7.348  -7.778  0.00  0.00     0.121 A 
ATOM     39  H   LIG d   1       8.877   9.280  -7.214  0.00  0.00     0.066 H 
ATOM     40  H   LIG d   1      10.348   5.357  -8.047  0.00  0.00     0.066 H 
BRANCH  33  41
ATOM     41  C   LIG d   1       9.416   6.955  -2.543  0.00  0.00     0.012 C 
ATOM     42  H   LIG d   1      10.160   6.718  -1.782  0.00  0.00     0.046 H 
ATOM     43  H   LIG d   1       9.408   8.030  -2.722  0.00  0.00     0.046 H 
ATOM     44  H   LIG d   1       8.431   6.637  -2.200  0.00  0.00     0.046 H 
ENDBRANCH  33  41
BRANCH  35  45
ATOM     45  C   LIG d   1      10.447   4.090  -2.672  0.00  0.00    -0.024 C 
ATOM     46  H   LIG d   1       9.530   3.553  -2.431  0.00  0.00     0.029 H 
ATOM     47  H   LIG d   1      11.234   3.374  -2.915  0.00  0.00     0.029 H 
ATOM     48  H   LIG d   1      10.754   4.689  -1.815  0.00  0.00     0.029 H 
ENDBRANCH  35  45
BRANCH  38  49
ATOM     49  O   LIG d   1       9.597   7.627  -9.109  0.00  0.00    -0.495 OA
BRANCH  49  50
ATOM     50  C   LIG d   1      10.783   8.198  -9.664  0.00  0.00     0.079 C 
ATOM     51  H   LIG d   1      11.508   8.376  -8.870  0.00  0.00     0.066 H 
ATOM     52  H   LIG d   1      11.209   7.512 -10.397  0.00  0.00     0.066 H 
ATOM     53  H   LIG d   1      10.537   9.142 -10.151  0.00  0.00     0.066 H 
ENDBRANCH  49  50
ENDBRANCH  38  49
ENDBRANCH   1  29
TORSDOF 10
ENDMDL
MODEL 6
REMARK VINA RESULT:      -6.0      6.261      7.941
REMARK  10 active torsions:
REMARK  status: ('A' for Active; 'I' for Inactive)
REMARK    1  A    between atoms: C_1  and  C_2 
REMARK    2  A    between atoms: C_3  and  C_31 
REMARK    3  A    between atoms: C_11  and  O_13 
REMARK    4  A    between atoms: O_13  and  C_14 
REMARK    5  A    between atoms: C_14  and  C_15 
REMARK    6  A    between atoms: C_15  and  C_17 
REMARK    7  A    between atoms: C_18  and  C_29 
REMARK    8  A    between atoms: N_19  and  C_28 
REMARK    9  A    between atoms: C_23  and  O_26 
REMARK   10  A    between atoms: O_26  and  C_27 
ROOT
ATOM      1  C   LIG d   1      10.514   4.342  -6.033  0.00  0.00     0.203 C 
ATOM      2  O   LIG d   1      11.705   4.154  -5.895  0.00  0.00    -0.288 OA
ENDROOT
BRANCH   1   3
ATOM      3  C   LIG d   1       9.530   3.636  -5.135  0.00  0.00     0.152 C 
ATOM      4  H   LIG d   1       8.613   3.703  -5.527  0.00  0.00     0.078 H 
ATOM      5  H   LIG d   1       9.540   4.102  -4.150  0.00  0.00     0.078 H 
BRANCH   3   6
ATOM      6  O   LIG d   1       9.898   2.261  -5.015  0.00  0.00    -0.483 OA
BRANCH   6   7
ATOM      7  C   LIG d   1       8.919   1.389  -4.661  0.00  0.00     0.143 A 
ATOM      8  C   LIG d   1       8.959   0.077  -5.128  0.00  0.00     0.083 A 
ATOM      9  C   LIG d   1       7.980  -0.811  -4.781  0.00  0.00    -0.029 A 
ATOM     10 CL   LIG d   1      10.259  -0.433  -6.160  0.00  0.00    -0.080 Cl
ATOM     11  C   LIG d   1       6.932  -0.400  -3.950  0.00  0.00     0.022 A 
ATOM     12  H   LIG d   1       8.016  -1.827  -5.146  0.00  0.00     0.064 H 
ATOM     13  C   LIG d   1       5.873  -1.331  -3.555  0.00  0.00    -0.030 A 
ATOM     14  C   LIG d   1       6.887   0.924  -3.474  0.00  0.00     0.143 A 
ATOM     15  C   LIG d   1       4.881  -0.871  -2.750  0.00  0.00     0.037 A 
ATOM     16  C   LIG d   1       4.898   0.468  -2.310  0.00  0.00     0.340 A 
ATOM     17  O   LIG d   1       4.005   0.866  -1.584  0.00  0.00    -0.245 OA
ATOM     18  O   LIG d   1       5.875   1.316  -2.672  0.00  0.00    -0.422 OA
ATOM     19  C   LIG d   1       7.889   1.812  -3.836  0.00  0.00     0.025 A 
ATOM     20  H   LIG d   1       7.865   2.831  -3.478  0.00  0.00     0.069 H 
BRANCH  13  21
ATOM     21  C   LIG d   1       5.881  -2.760  -4.034  0.00  0.00    -0.039 C 
ATOM     22  H   LIG d   1       5.888  -3.431  -3.176  0.00  0.00     0.028 H 
ATOM     23  H   LIG d   1       4.991  -2.947  -4.636  0.00  0.00     0.028 H 
ATOM     24  H   LIG d   1       6.770  -2.936  -4.640  0.00  0.00     0.028 H 
ENDBRANCH  13  21
BRANCH  15  25
ATOM     25  C   LIG d   1       3.767  -1.792  -2.321  0.00  0.00    -0.033 C 
ATOM     26  H   LIG d   1       4.028  -2.820  -2.576  0.00  0.00     0.028 H 
ATOM     27  H   LIG d   1       2.847  -1.513  -2.834  0.00  0.00     0.028 H 
ATOM     28  H   LIG d   1       3.623  -1.711  -1.244  0.00  0.00     0.028 H 
ENDBRANCH  15  25
ENDBRANCH   6   7
ENDBRANCH   3   6
ENDBRANCH   1   3
BRANCH   1  29
ATOM     29  C   LIG d   1      10.047   5.224  -7.039  0.00  0.00     0.049 A 
ATOM     30  C   LIG d   1       9.850   6.682  -6.918  0.00  0.00     0.014 A 
ATOM     31  C   LIG d   1       9.380   7.110  -8.169  0.00  0.00     0.050 A 
ATOM     32  C   LIG d   1      10.033   7.598  -5.888  0.00  0.00    -0.010 A 
ATOM     33  N   LIG d   1       9.297   6.000  -8.988  0.00  0.00    -0.346 N 
ATOM     34  C   LIG d   1       9.098   8.458  -8.367  0.00  0.00    -0.034 A 
ATOM     35  C   LIG d   1       9.692   4.894  -8.330  0.00  0.00     0.027 A 
ATOM     36  C   LIG d   1       9.282   9.360  -7.341  0.00  0.00    -0.018 A 
ATOM     37  H   LIG d   1       8.736   8.798  -9.326  0.00  0.00     0.064 H 
ATOM     38  C   LIG d   1       9.749   8.935  -6.102  0.00  0.00     0.121 A 
ATOM     39  H   LIG d   1       9.062  10.404  -7.501  0.00  0.00     0.066 H 
ATOM     40  H   LIG d   1      10.396   7.268  -4.925  0.00  0.00     0.066 H 
BRANCH  33  41
ATOM     41  C   LIG d   1       8.846   6.025 -10.381  0.00  0.00     0.012 C 
ATOM     42  H   LIG d   1       9.177   6.950 -10.854  0.00  0.00     0.046 H 
ATOM     43  H   LIG d   1       9.268   5.173 -10.914  0.00  0.00     0.046 H 
ATOM     44  H   LIG d   1       7.758   5.970 -10.413  0.00  0.00     0.046 H 
ENDBRANCH  33  41
BRANCH  35  45
ATOM     45  C   LIG d   1       9.737   3.506  -8.915  0.00  0.00    -0.024 C 
ATOM     46  H   LIG d   1       9.037   2.864  -8.381  0.00  0.00     0.029 H 
ATOM     47  H   LIG d   1       9.460   3.546  -9.969  0.00  0.00     0.029 H 
ATOM     48  H   LIG d   1      10.745   3.103  -8.820  0.00  0.00     0.029 H 
ENDBRANCH  35  45
BRANCH  38  49
ATOM     49  O   LIG d   1       9.925   9.835  -5.098  0.00  0.00    -0.495 OA
BRANCH  49  50
ATOM     50  C   LIG d   1       9.550  11.188  -5.367  0.00  0.00     0.079 C 
ATOM     51  H   LIG d   1       8.727  11.202  -6.082  0.00  0.00     0.066 H 
ATOM     52  H   LIG d   1       9.234  11.669  -4.441  0.00  0.00     0.066 H 
ATOM     53  H   LIG d   1      10.403  11.725  -5.782  0.00  0.00     0.066 H 
ENDBRANCH  49  50
ENDBRANCH  38  49
ENDBRANCH   1  29
TORSDOF 10
ENDMDL
MODEL 7
REMARK VINA RESULT:      -6.0      6.208      8.400
REMARK  10 active torsions:
REMARK  status: ('A' for Active; 'I' for Inactive)
REMARK    1  A    between atoms: C_1  and  C_2 
REMARK    2  A    between atoms: C_3  and  C_31 
REMARK    3  A    between atoms: C_11  and  O_13 
REMARK    4  A    between atoms: O_13  and  C_14 
REMARK    5  A    between atoms: C_14  and  C_15 
REMARK    6  A    between atoms: C_15  and  C_17 
REMARK    7  A    between atoms: C_18  and  C_29 
REMARK    8  A    between atoms: N_19  and  C_28 
REMARK    9  A    between atoms: C_23  and  O_26 
REMARK   10  A    between atoms: O_26  and  C_27 
ROOT
ATOM      1  C   LIG d   1      10.550   4.381  -6.332  0.00  0.00     0.203 C 
ATOM      2  O   LIG d   1      11.722   4.066  -6.345  0.00  0.00    -0.288 OA
ENDROOT
BRANCH   1   3
ATOM      3  C   LIG d   1       9.487   3.320  -6.194  0.00  0.00     0.152 C 
ATOM      4  H   LIG d   1       9.402   2.819  -7.055  0.00  0.00     0.078 H 
ATOM      5  H   LIG d   1       8.535   3.792  -5.951  0.00  0.00     0.078 H 
BRANCH   3   6
ATOM      6  O   LIG d   1       9.851   2.416  -5.149  0.00  0.00    -0.483 OA
BRANCH   6   7
ATOM      7  C   LIG d   1       8.908   1.523  -4.752  0.00  0.00     0.143 A 
ATOM      8  C   LIG d   1       8.982   0.201  -5.185  0.00  0.00     0.083 A 
ATOM      9  C   LIG d   1       8.041  -0.710  -4.794  0.00  0.00    -0.029 A 
ATOM     10 CL   LIG d   1      10.277  -0.294  -6.231  0.00  0.00    -0.080 Cl
ATOM     11  C   LIG d   1       6.997  -0.311  -3.951  0.00  0.00     0.022 A 
ATOM     12  H   LIG d   1       8.103  -1.733  -5.133  0.00  0.00     0.064 H 
ATOM     13  C   LIG d   1       5.979  -1.265  -3.510  0.00  0.00    -0.030 A 
ATOM     14  C   LIG d   1       6.918   1.023  -3.509  0.00  0.00     0.143 A 
ATOM     15  C   LIG d   1       4.988  -0.816  -2.696  0.00  0.00     0.037 A 
ATOM     16  C   LIG d   1       4.970   0.534  -2.292  0.00  0.00     0.340 A 
ATOM     17  O   LIG d   1       4.080   0.922  -1.557  0.00  0.00    -0.245 OA
ATOM     18  O   LIG d   1       5.910   1.403  -2.696  0.00  0.00    -0.422 OA
ATOM     19  C   LIG d   1       7.882   1.934  -3.916  0.00  0.00     0.025 A 
ATOM     20  H   LIG d   1       7.831   2.961  -3.584  0.00  0.00     0.069 H 
BRANCH  13  21
ATOM     21  C   LIG d   1       6.024  -2.705  -3.952  0.00  0.00    -0.039 C 
ATOM     22  H   LIG d   1       6.986  -2.912  -4.419  0.00  0.00     0.028 H 
ATOM     23  H   LIG d   1       5.892  -3.356  -3.086  0.00  0.00     0.028 H 
ATOM     24  H   LIG d   1       5.225  -2.891  -4.669  0.00  0.00     0.028 H 
ENDBRANCH  13  21
BRANCH  15  25
ATOM     25  C   LIG d   1       3.915  -1.762  -2.219  0.00  0.00    -0.033 C 
ATOM     26  H   LIG d   1       4.141  -2.084  -1.202  0.00  0.00     0.028 H 
ATOM     27  H   LIG d   1       3.879  -2.630  -2.876  0.00  0.00     0.028 H 
ATOM     28  H   LIG d   1       2.951  -1.254  -2.234  0.00  0.00     0.028 H 
ENDBRANCH  15  25
ENDBRANCH   6   7
ENDBRANCH   3   6
ENDBRANCH   1   3
BRANCH   1  29
ATOM     29  C   LIG d   1      10.180   5.743  -6.448  0.00  0.00     0.049 A 
ATOM     30  C   LIG d   1      10.182   6.757  -5.375  0.00  0.00     0.014 A 
ATOM     31  C   LIG d   1       9.742   7.948  -5.972  0.00  0.00     0.050 A 
ATOM     32  C   LIG d   1      10.511   6.731  -4.024  0.00  0.00    -0.010 A 
ATOM     33  N   LIG d   1       9.492   7.681  -7.305  0.00  0.00    -0.346 N 
ATOM     34  C   LIG d   1       9.637   9.101  -5.200  0.00  0.00    -0.034 A 
ATOM     35  C   LIG d   1       9.753   6.391  -7.588  0.00  0.00     0.027 A 
ATOM     36  C   LIG d   1       9.965   9.067  -3.862  0.00  0.00    -0.018 A 
ATOM     37  H   LIG d   1       9.300  10.022  -5.650  0.00  0.00     0.064 H 
ATOM     38  C   LIG d   1      10.402   7.886  -3.271  0.00  0.00     0.121 A 
ATOM     39  H   LIG d   1       9.882   9.964  -3.268  0.00  0.00     0.066 H 
ATOM     40  H   LIG d   1      10.850   5.814  -3.564  0.00  0.00     0.066 H 
BRANCH  33  41
ATOM     41  C   LIG d   1       9.014   8.667  -8.276  0.00  0.00     0.012 C 
ATOM     42  H   LIG d   1       8.297   9.333  -7.796  0.00  0.00     0.046 H 
ATOM     43  H   LIG d   1       9.858   9.249  -8.648  0.00  0.00     0.046 H 
ATOM     44  H   LIG d   1       8.533   8.155  -9.109  0.00  0.00     0.046 H 
ENDBRANCH  33  41
BRANCH  35  45
ATOM     45  C   LIG d   1       9.597   5.752  -8.944  0.00  0.00    -0.024 C 
ATOM     46  H   LIG d   1      10.562   5.732  -9.449  0.00  0.00     0.029 H 
ATOM     47  H   LIG d   1       9.229   4.732  -8.824  0.00  0.00     0.029 H 
ATOM     48  H   LIG d   1       8.887   6.326  -9.538  0.00  0.00     0.029 H 
ENDBRANCH  35  45
BRANCH  38  49
ATOM     49  O   LIG d   1      10.721   7.867  -1.949  0.00  0.00    -0.495 OA
BRANCH  49  50
ATOM     50  C   LIG d   1       9.734   8.352  -1.037  0.00  0.00     0.079 C 
ATOM     51  H   LIG d   1       8.911   7.639  -0.978  0.00  0.00     0.066 H 
ATOM     52  H   LIG d   1      10.180   8.474  -0.049  0.00  0.00     0.066 H 
ATOM     53  H   LIG d   1       9.358   9.313  -1.386  0.00  0.00     0.066 H 
ENDBRANCH  49  50
ENDBRANCH  38  49
ENDBRANCH   1  29
TORSDOF 10
ENDMDL
MODEL 8
REMARK VINA RESULT:      -5.9      4.557      7.500
REMARK  10 active torsions:
REMARK  status: ('A' for Active; 'I' for Inactive)
REMARK    1  A    between atoms: C_1  and  C_2 
REMARK    2  A    between atoms: C_3  and  C_31 
REMARK    3  A    between atoms: C_11  and  O_13 
REMARK    4  A    between atoms: O_13  and  C_14 
REMARK    5  A    between atoms: C_14  and  C_15 
REMARK    6  A    between atoms: C_15  and  C_17 
REMARK    7  A    between atoms: C_18  and  C_29 
REMARK    8  A    between atoms: N_19  and  C_28 
REMARK    9  A    between atoms: C_23  and  O_26 
REMARK   10  A    between atoms: O_26  and  C_27 
ROOT
ATOM      1  C   LIG d   1       9.438  -6.110  -5.602  0.00  0.00     0.203 C 
ATOM      2  O   LIG d   1       9.901  -6.696  -6.559  0.00  0.00    -0.288 OA
ENDROOT
BRANCH   1   3
ATOM      3  C   LIG d   1       8.908  -4.708  -5.761  0.00  0.00     0.152 C 
ATOM      4  H   LIG d   1       9.341  -4.276  -6.552  0.00  0.00     0.078 H 
ATOM      5  H   LIG d   1       9.131  -4.132  -4.863  0.00  0.00     0.078 H 
BRANCH   3   6
ATOM      6  O   LIG d   1       7.493  -4.754  -5.957  0.00  0.00    -0.483 OA
BRANCH   6   7
ATOM      7  C   LIG d   1       6.749  -3.832  -5.292  0.00  0.00     0.143 A 
ATOM      8  C   LIG d   1       5.440  -4.136  -4.924  0.00  0.00     0.083 A 
ATOM      9  C   LIG d   1       4.678  -3.219  -4.256  0.00  0.00    -0.029 A 
ATOM     10 CL   LIG d   1       4.770  -5.688  -5.320  0.00  0.00    -0.080 Cl
ATOM     11  C   LIG d   1       5.218  -1.968  -3.938  0.00  0.00     0.022 A 
ATOM     12  H   LIG d   1       3.664  -3.460  -3.974  0.00  0.00     0.064 H 
ATOM     13  C   LIG d   1       4.429  -0.969  -3.216  0.00  0.00    -0.030 A 
ATOM     14  C   LIG d   1       6.540  -1.657  -4.305  0.00  0.00     0.143 A 
ATOM     15  C   LIG d   1       5.007   0.229  -2.940  0.00  0.00     0.037 A 
ATOM     16  C   LIG d   1       6.337   0.474  -3.338  0.00  0.00     0.340 A 
ATOM     17  O   LIG d   1       6.845   1.550  -3.079  0.00  0.00    -0.245 OA
ATOM     18  O   LIG d   1       7.057  -0.449  -3.995  0.00  0.00    -0.422 OA
ATOM     19  C   LIG d   1       7.299  -2.599  -4.984  0.00  0.00     0.025 A 
ATOM     20  H   LIG d   1       8.315  -2.370  -5.272  0.00  0.00     0.069 H 
BRANCH  13  21
ATOM     21  C   LIG d   1       3.010  -1.258  -2.796  0.00  0.00    -0.039 C 
ATOM     22  H   LIG d   1       2.359  -1.228  -3.669  0.00  0.00     0.028 H 
ATOM     23  H   LIG d   1       2.961  -2.247  -2.338  0.00  0.00     0.028 H 
ATOM     24  H   LIG d   1       2.685  -0.509  -2.074  0.00  0.00     0.028 H 
ENDBRANCH  13  21
BRANCH  15  25
ATOM     25  C   LIG d   1       4.231   1.291  -2.202  0.00  0.00    -0.033 C 
ATOM     26  H   LIG d   1       4.739   2.250  -2.308  0.00  0.00     0.028 H 
ATOM     27  H   LIG d   1       4.169   1.027  -1.147  0.00  0.00     0.028 H 
ATOM     28  H   LIG d   1       3.228   1.363  -2.619  0.00  0.00     0.028 H 
ENDBRANCH  15  25
ENDBRANCH   6   7
ENDBRANCH   3   6
ENDBRANCH   1   3
BRANCH   1  29
ATOM     29  C   LIG d   1       9.397  -6.744  -4.336  0.00  0.00     0.049 A 
ATOM     30  C   LIG d   1       8.461  -7.800  -3.903  0.00  0.00     0.014 A 
ATOM     31  C   LIG d   1       8.813  -8.105  -2.579  0.00  0.00     0.050 A 
ATOM     32  C   LIG d   1       7.409  -8.470  -4.520  0.00  0.00    -0.010 A 
ATOM     33  N   LIG d   1       9.879  -7.298  -2.232  0.00  0.00    -0.346 N 
ATOM     34  C   LIG d   1       8.099  -9.081  -1.890  0.00  0.00    -0.034 A 
ATOM     35  C   LIG d   1      10.227  -6.502  -3.261  0.00  0.00     0.027 A 
ATOM     36  C   LIG d   1       7.058  -9.739  -2.508  0.00  0.00    -0.018 A 
ATOM     37  H   LIG d   1       8.362  -9.323  -0.871  0.00  0.00     0.064 H 
ATOM     38  C   LIG d   1       6.710  -9.437  -3.821  0.00  0.00     0.121 A 
ATOM     39  H   LIG d   1       6.508 -10.495  -1.969  0.00  0.00     0.066 H 
ATOM     40  H   LIG d   1       7.139  -8.235  -5.539  0.00  0.00     0.066 H 
BRANCH  33  41
ATOM     41  C   LIG d   1      10.543  -7.310  -0.927  0.00  0.00     0.012 C 
ATOM     42  H   LIG d   1      10.954  -6.322  -0.718  0.00  0.00     0.046 H 
ATOM     43  H   LIG d   1       9.820  -7.574  -0.155  0.00  0.00     0.046 H 
ATOM     44  H   LIG d   1      11.349  -8.044  -0.935  0.00  0.00     0.046 H 
ENDBRANCH  33  41
BRANCH  35  45
ATOM     45  C   LIG d   1      11.350  -5.498  -3.241  0.00  0.00    -0.024 C 
ATOM     46  H   LIG d   1      11.268  -4.879  -2.348  0.00  0.00     0.029 H 
ATOM     47  H   LIG d   1      12.307  -6.023  -3.231  0.00  0.00     0.029 H 
ATOM     48  H   LIG d   1      11.291  -4.868  -4.128  0.00  0.00     0.029 H 
ENDBRANCH  35  45
BRANCH  38  49
ATOM     49  O   LIG d   1       5.679 -10.094  -4.418  0.00  0.00    -0.495 OA
BRANCH  49  50
ATOM     50  C   LIG d   1       4.359  -9.640  -4.115  0.00  0.00     0.079 C 
ATOM     51  H   LIG d   1       3.662 -10.025  -4.860  0.00  0.00     0.066 H 
ATOM     52  H   LIG d   1       4.069  -9.999  -3.127  0.00  0.00     0.066 H 
ATOM     53  H   LIG d   1       4.338  -8.550  -4.125  0.00  0.00     0.066 H 
ENDBRANCH  49  50
ENDBRANCH  38  49
ENDBRANCH   1  29
TORSDOF 10
ENDMDL
MODEL 9
REMARK VINA RESULT:      -5.5      2.944      6.760
REMARK  10 active torsions:
REMARK  status: ('A' for Active; 'I' for Inactive)
REMARK    1  A    between atoms: C_1  and  C_2 
REMARK    2  A    between atoms: C_3  and  C_31 
REMARK    3  A    between atoms: C_11  and  O_13 
REMARK    4  A    between atoms: O_13  and  C_14 
REMARK    5  A    between atoms: C_14  and  C_15 
REMARK    6  A    between atoms: C_15  and  C_17 
REMARK    7  A    between atoms: C_18  and  C_29 
REMARK    8  A    between atoms: N_19  and  C_28 
REMARK    9  A    between atoms: C_23  and  O_26 
REMARK   10  A    between atoms: O_26  and  C_27 
ROOT
ATOM      1  C   LIG d   1       8.254   0.919  -7.243  0.00  0.00     0.203 C 
ATOM      2  O   LIG d   1       9.248   1.591  -7.059  0.00  0.00    -0.288 OA
ENDROOT
BRANCH   1   3
ATOM      3  C   LIG d   1       7.260   1.320  -8.304  0.00  0.00     0.152 C 
ATOM      4  H   LIG d   1       7.278   0.649  -9.046  0.00  0.00     0.078 H 
ATOM      5  H   LIG d   1       7.523   2.303  -8.695  0.00  0.00     0.078 H 
BRANCH   3   6
ATOM      6  O   LIG d   1       5.951   1.368  -7.735  0.00  0.00    -0.483 OA
BRANCH   6   7
ATOM      7  C   LIG d   1       4.985   0.634  -8.347  0.00  0.00     0.143 A 
ATOM      8  C   LIG d   1       4.024   1.271  -9.129  0.00  0.00     0.083 A 
ATOM      9  C   LIG d   1       3.046   0.546  -9.750  0.00  0.00    -0.029 A 
ATOM     10 CL   LIG d   1       4.065   2.997  -9.312  0.00  0.00    -0.080 Cl
ATOM     11  C   LIG d   1       3.013  -0.844  -9.602  0.00  0.00     0.022 A 
ATOM     12  H   LIG d   1       2.303   1.045 -10.354  0.00  0.00     0.064 H 
ATOM     13  C   LIG d   1       1.982  -1.648 -10.262  0.00  0.00    -0.030 A 
ATOM     14  C   LIG d   1       3.983  -1.494  -8.816  0.00  0.00     0.143 A 
ATOM     15  C   LIG d   1       2.000  -2.994 -10.076  0.00  0.00     0.037 A 
ATOM     16  C   LIG d   1       3.001  -3.578  -9.274  0.00  0.00     0.340 A 
ATOM     17  O   LIG d   1       3.009  -4.786  -9.121  0.00  0.00    -0.245 OA
ATOM     18  O   LIG d   1       3.947  -2.836  -8.676  0.00  0.00    -0.422 OA
ATOM     19  C   LIG d   1       4.967  -0.743  -8.191  0.00  0.00     0.025 A 
ATOM     20  H   LIG d   1       5.717  -1.230  -7.584  0.00  0.00     0.069 H 
BRANCH  13  21
ATOM     21  C   LIG d   1       0.926  -0.999 -11.120  0.00  0.00    -0.039 C 
ATOM     22  H   LIG d   1      -0.058  -1.186 -10.689  0.00  0.00     0.028 H 
ATOM     23  H   LIG d   1       1.104   0.076 -11.166  0.00  0.00     0.028 H 
ATOM     24  H   LIG d   1       0.967  -1.417 -12.126  0.00  0.00     0.028 H 
ENDBRANCH  13  21
BRANCH  15  25
ATOM     25  C   LIG d   1       0.956  -3.861 -10.733  0.00  0.00    -0.033 C 
ATOM     26  H   LIG d   1       0.277  -4.250  -9.973  0.00  0.00     0.028 H 
ATOM     27  H   LIG d   1       1.443  -4.691 -11.244  0.00  0.00     0.028 H 
ATOM     28  H   LIG d   1       0.393  -3.269 -11.453  0.00  0.00     0.028 H 
ENDBRANCH  15  25
ENDBRANCH   6   7
ENDBRANCH   3   6
ENDBRANCH   1   3
BRANCH   1  29
ATOM     29  C   LIG d   1       8.027  -0.240  -6.461  0.00  0.00     0.049 A 
ATOM     30  C   LIG d   1       7.338  -0.310  -5.158  0.00  0.00     0.014 A 
ATOM     31  C   LIG d   1       7.361  -1.662  -4.784  0.00  0.00     0.050 A 
ATOM     32  C   LIG d   1       6.736   0.635  -4.333  0.00  0.00    -0.010 A 
ATOM     33  N   LIG d   1       8.013  -2.361  -5.781  0.00  0.00    -0.346 N 
ATOM     34  C   LIG d   1       6.777  -2.047  -3.581  0.00  0.00    -0.034 A 
ATOM     35  C   LIG d   1       8.400  -1.532  -6.768  0.00  0.00     0.027 A 
ATOM     36  C   LIG d   1       6.183  -1.105  -2.769  0.00  0.00    -0.018 A 
ATOM     37  H   LIG d   1       6.790  -3.085  -3.284  0.00  0.00     0.064 H 
ATOM     38  C   LIG d   1       6.160   0.235  -3.141  0.00  0.00     0.121 A 
ATOM     39  H   LIG d   1       5.732  -1.410  -1.837  0.00  0.00     0.066 H 
ATOM     40  H   LIG d   1       6.718   1.676  -4.621  0.00  0.00     0.066 H 
BRANCH  33  41
ATOM     41  C   LIG d   1       8.246  -3.807  -5.768  0.00  0.00     0.012 C 
ATOM     42  H   LIG d   1       7.420  -4.304  -5.259  0.00  0.00     0.046 H 
ATOM     43  H   LIG d   1       8.315  -4.173  -6.793  0.00  0.00     0.046 H 
ATOM     44  H   LIG d   1       9.178  -4.021  -5.244  0.00  0.00     0.046 H 
ENDBRANCH  33  41
BRANCH  35  45
ATOM     45  C   LIG d   1       9.134  -1.950  -8.016  0.00  0.00    -0.024 C 
ATOM     46  H   LIG d   1      10.077  -1.408  -8.082  0.00  0.00     0.029 H 
ATOM     47  H   LIG d   1       9.333  -3.022  -7.978  0.00  0.00     0.029 H 
ATOM     48  H   LIG d   1       8.522  -1.725  -8.890  0.00  0.00     0.029 H 
ENDBRANCH  35  45
BRANCH  38  49
ATOM     49  O   LIG d   1       5.571   1.154  -2.329  0.00  0.00    -0.495 OA
BRANCH  49  50
ATOM     50  C   LIG d   1       4.167   1.014  -2.102  0.00  0.00     0.079 C 
ATOM     51  H   LIG d   1       3.820   1.823  -1.459  0.00  0.00     0.066 H 
ATOM     52  H   LIG d   1       3.639   1.054  -3.055  0.00  0.00     0.066 H 
ATOM     53  H   LIG d   1       3.972   0.056  -1.619  0.00  0.00     0.066 H 
ENDBRANCH  49  50
ENDBRANCH  38  49
ENDBRANCH   1  29
TORSDOF 10
ENDMDL
MODEL 10
REMARK VINA RESULT:      -5.3      9.875     13.512
REMARK  10 active torsions:
REMARK  status: ('A' for Active; 'I' for Inactive)
REMARK    1  A    between atoms: C_1  and  C_2 
REMARK    2  A    between atoms: C_3  and  C_31 
REMARK    3  A    between atoms: C_11  and  O_13 
REMARK    4  A    between atoms: O_13  and  C_14 
REMARK    5  A    between atoms: C_14  and  C_15 
REMARK    6  A    between atoms: C_15  and  C_17 
REMARK    7  A    between atoms: C_18  and  C_29 
REMARK    8  A    between atoms: N_19  and  C_28 
REMARK    9  A    between atoms: C_23  and  O_26 
REMARK   10  A    between atoms: O_26  and  C_27 
ROOT
ATOM      1  C   LIG d   1       9.742   7.642  -1.077  0.00  0.00     0.203 C 
ATOM      2  O   LIG d   1       8.533   7.531  -1.058  0.00  0.00    -0.288 OA
ENDROOT
BRANCH   1   3
ATOM      3  C   LIG d   1      10.562   6.788  -2.011  0.00  0.00     0.152 C 
ATOM      4  H   LIG d   1      11.304   6.354  -1.500  0.00  0.00     0.078 H 
ATOM      5  H   LIG d   1      10.981   7.413  -2.800  0.00  0.00     0.078 H 
BRANCH   3   6
ATOM      6  O   LIG d   1       9.730   5.783  -2.591  0.00  0.00    -0.483 OA
BRANCH   6   7
ATOM      7  C   LIG d   1       9.703   5.712  -3.948  0.00  0.00     0.143 A 
ATOM      8  C   LIG d   1       9.789   4.472  -4.577  0.00  0.00     0.083 A 
ATOM      9  C   LIG d   1       9.763   4.385  -5.940  0.00  0.00    -0.029 A 
ATOM     10 CL   LIG d   1       9.931   3.028  -3.624  0.00  0.00    -0.080 Cl
ATOM     11  C   LIG d   1       9.649   5.549  -6.709  0.00  0.00     0.022 A 
ATOM     12  H   LIG d   1       9.830   3.421  -6.423  0.00  0.00     0.064 H 
ATOM     13  C   LIG d   1       9.613   5.486  -8.171  0.00  0.00    -0.030 A 
ATOM     14  C   LIG d   1       9.561   6.804  -6.078  0.00  0.00     0.143 A 
ATOM     15  C   LIG d   1       9.505   6.651  -8.861  0.00  0.00     0.037 A 
ATOM     16  C   LIG d   1       9.421   7.874  -8.164  0.00  0.00     0.340 A 
ATOM     17  O   LIG d   1       9.319   8.911  -8.795  0.00  0.00    -0.245 OA
ATOM     18  O   LIG d   1       9.450   7.924  -6.823  0.00  0.00    -0.422 OA
ATOM     19  C   LIG d   1       9.588   6.874  -4.693  0.00  0.00     0.025 A 
ATOM     20  H   LIG d   1       9.522   7.832  -4.198  0.00  0.00     0.069 H 
BRANCH  13  21
ATOM     21  C   LIG d   1       9.698   4.165  -8.891  0.00  0.00    -0.039 C 
ATOM     22  H   LIG d   1      10.270   4.288  -9.811  0.00  0.00     0.028 H 
ATOM     23  H   LIG d   1      10.191   3.433  -8.251  0.00  0.00     0.028 H 
ATOM     24  H   LIG d   1       8.694   3.817  -9.132  0.00  0.00     0.028 H 
ENDBRANCH  13  21
BRANCH  15  25
ATOM     25  C   LIG d   1       9.468   6.636 -10.368  0.00  0.00    -0.033 C 
ATOM     26  H   LIG d   1       8.982   7.544 -10.728  0.00  0.00     0.028 H 
ATOM     27  H   LIG d   1       8.908   5.766 -10.708  0.00  0.00     0.028 H 
ATOM     28  H   LIG d   1      10.484   6.590 -10.756  0.00  0.00     0.028 H 
ENDBRANCH  15  25
ENDBRANCH   6   7
ENDBRANCH   3   6
ENDBRANCH   1   3
BRANCH   1  29
ATOM     29  C   LIG d   1      10.382   8.573  -0.223  0.00  0.00     0.049 A 
ATOM     30  C   LIG d   1      10.459  10.036  -0.405  0.00  0.00     0.014 A 
ATOM     31  C   LIG d   1      11.187  10.521   0.692  0.00  0.00     0.050 A 
ATOM     32  C   LIG d   1       9.983  10.915  -1.373  0.00  0.00    -0.010 A 
ATOM     33  N   LIG d   1      11.527   9.438   1.481  0.00  0.00    -0.346 N 
ATOM     34  C   LIG d   1      11.429  11.887   0.802  0.00  0.00    -0.034 A 
ATOM     35  C   LIG d   1      11.052   8.296   0.950  0.00  0.00     0.027 A 
ATOM     36  C   LIG d   1      10.954  12.750  -0.162  0.00  0.00    -0.018 A 
ATOM     37  H   LIG d   1      11.988  12.270   1.642  0.00  0.00     0.064 H 
ATOM     38  C   LIG d   1      10.232  12.269  -1.249  0.00  0.00     0.121 A 
ATOM     39  H   LIG d   1      11.145  13.809  -0.071  0.00  0.00     0.066 H 
ATOM     40  H   LIG d   1       9.423  10.541  -2.217  0.00  0.00     0.066 H 
BRANCH  33  41
ATOM     41  C   LIG d   1      12.293   9.523   2.726  0.00  0.00     0.012 C 
ATOM     42  H   LIG d   1      12.570  10.560   2.913  0.00  0.00     0.046 H 
ATOM     43  H   LIG d   1      11.685   9.154   3.552  0.00  0.00     0.046 H 
ATOM     44  H   LIG d   1      13.195   8.916   2.641  0.00  0.00     0.046 H 
ENDBRANCH  33  41
BRANCH  35  45
ATOM     45  C   LIG d   1      11.229   6.923   1.545  0.00  0.00    -0.024 C 
ATOM     46  H   LIG d   1      10.786   6.898   2.541  0.00  0.00     0.029 H 
ATOM     47  H   LIG d   1      10.735   6.186   0.911  0.00  0.00     0.029 H 
ATOM     48  H   LIG d   1      12.291   6.690   1.613  0.00  0.00     0.029 H 
ENDBRANCH  35  45
BRANCH  38  49
ATOM     49  O   LIG d   1       9.771  13.133  -2.192  0.00  0.00    -0.495 OA
BRANCH  49  50
ATOM     50  C   LIG d   1       8.818  12.624  -3.128  0.00  0.00     0.079 C 
ATOM     51  H   LIG d   1       8.987  11.557  -3.275  0.00  0.00     0.066 H 
ATOM     52  H   LIG d   1       7.810  12.782  -2.743  0.00  0.00     0.066 H 
ATOM     53  H   LIG d   1       8.929  13.145  -4.079  0.00  0.00     0.066 H 
ENDBRANCH  49  50
ENDBRANCH  38  49
ENDBRANCH   1  29
TORSDOF 10
ENDMDL
