MODEL 1
REMARK VINA RESULT:      -6.9      0.000      0.000
REMARK  10 active torsions:
REMARK  status: ('A' for Active; 'I' for Inactive)
REMARK    1  A    between atoms: C_1  and  C_2 
REMARK    2  A    between atoms: C_2  and  C_4 
REMARK    3  A    between atoms: C_2  and  N_15 
REMARK    4  A    between atoms: C_4  and  C_5 
REMARK    5  A    between atoms: C_9  and  C_11 
REMARK    6  A    between atoms: N_15  and  C_16 
REMARK    7  A    between atoms: C_16  and  C_17 
REMARK    8  A    between atoms: C_17  and  O_18 
REMARK    9  A    between atoms: O_18  and  C_19 
REMARK   10  A    between atoms: C_19  and  C_21 
ROOT
ATOM      1  C   LIG d   1       6.122  -0.892  -7.234  0.00  0.00    -0.021 C 
ATOM      2  H   LIG d   1       6.539  -1.432  -6.385  0.00  0.00     0.085 H 
ENDROOT
BRANCH   1   3
ATOM      3  C   LIG d   1       6.772  -1.391  -8.526  0.00  0.00    -0.021 C 
ATOM      4  H   LIG d   1       6.454  -2.416  -8.719  0.00  0.00     0.028 H 
ATOM      5  H   LIG d   1       6.468  -0.754  -9.356  0.00  0.00     0.028 H 
ATOM      6  H   LIG d   1       7.856  -1.360  -8.422  0.00  0.00     0.028 H 
ENDBRANCH   1   3
BRANCH   1   7
ATOM      7  C   LIG d   1       4.611  -1.130  -7.297  0.00  0.00     0.015 C 
ATOM      8  H   LIG d   1       4.179  -0.515  -8.086  0.00  0.00     0.037 H 
ATOM      9  H   LIG d   1       4.418  -2.182  -7.509  0.00  0.00     0.037 H 
BRANCH   7  10
ATOM     10  C   LIG d   1       3.989  -0.761  -5.975  0.00  0.00    -0.042 A 
ATOM     11  C   LIG d   1       4.444  -1.348  -4.809  0.00  0.00    -0.047 A 
ATOM     12  C   LIG d   1       3.875  -1.006  -3.595  0.00  0.00     0.055 A 
ATOM     13  H   LIG d   1       5.246  -2.070  -4.845  0.00  0.00     0.063 H 
ATOM     14  C   LIG d   1       2.847  -0.084  -3.550  0.00  0.00    -0.050 A 
ATOM     15  C   LIG d   1       2.388   0.498  -4.717  0.00  0.00    -0.061 A 
ATOM     16  H   LIG d   1       2.401   0.180  -2.603  0.00  0.00     0.062 H 
ATOM     17  C   LIG d   1       2.959   0.159  -5.929  0.00  0.00    -0.058 A 
ATOM     18  H   LIG d   1       1.583   1.218  -4.681  0.00  0.00     0.062 H 
ATOM     19  H   LIG d   1       2.600   0.614  -6.840  0.00  0.00     0.062 H 
BRANCH  12  20
ATOM     20  C   LIG d   1       4.376  -1.640  -2.324  0.00  0.00     0.417 C 
ATOM     21  F   LIG d   1       5.698  -2.061  -2.501  0.00  0.00    -0.166 F 
ATOM     22  F   LIG d   1       4.318  -0.706  -1.283  0.00  0.00    -0.166 F 
ATOM     23  F   LIG d   1       3.575  -2.743  -2.006  0.00  0.00    -0.166 F 
ENDBRANCH  12  20
ENDBRANCH   7  10
ENDBRANCH   1   7
BRANCH   1  24
ATOM     24  N   LIG d   1       6.385   0.546  -7.078  0.00  0.00     0.232 N 
ATOM     25  H   LIG d   1       5.509   1.046  -7.044  0.00  0.00     0.202 HD
ATOM     26  H   LIG d   1       6.895   0.702  -6.222  0.00  0.00     0.202 HD
BRANCH  24  27
ATOM     27  C   LIG d   1       7.179   1.024  -8.218  0.00  0.00     0.002 C 
ATOM     28  H   LIG d   1       8.175   1.304  -7.875  0.00  0.00     0.085 H 
ATOM     29  H   LIG d   1       7.260   0.232  -8.961  0.00  0.00     0.085 H 
BRANCH  27  30
ATOM     30  C   LIG d   1       6.494   2.242  -8.840  0.00  0.00     0.132 C 
ATOM     31  H   LIG d   1       5.944   2.782  -8.070  0.00  0.00     0.075 H 
ATOM     32  H   LIG d   1       7.247   2.899  -9.277  0.00  0.00     0.075 H 
BRANCH  30  33
ATOM     33  O   LIG d   1       5.589   1.812  -9.858  0.00  0.00    -0.456 OA
BRANCH  33  34
ATOM     34  C   LIG d   1       4.281   1.772  -9.537  0.00  0.00     0.339 C 
ATOM     35  O   LIG d   1       3.826   2.571  -8.744  0.00  0.00    -0.245 OA
BRANCH  34  36
ATOM     36  C   LIG d   1       3.401   0.757 -10.151  0.00  0.00     0.059 A 
ATOM     37  C   LIG d   1       2.222   0.370  -9.509  0.00  0.00    -0.048 A 
ATOM     38  C   LIG d   1       1.402  -0.574 -10.090  0.00  0.00    -0.061 A 
ATOM     39  H   LIG d   1       1.952   0.812  -8.562  0.00  0.00     0.063 H 
ATOM     40  C   LIG d   1       1.750  -1.147 -11.301  0.00  0.00    -0.062 A 
ATOM     41  H   LIG d   1       0.488  -0.871  -9.598  0.00  0.00     0.062 H 
ATOM     42  C   LIG d   1       2.919  -0.772 -11.940  0.00  0.00    -0.061 A 
ATOM     43  H   LIG d   1       1.106  -1.889 -11.750  0.00  0.00     0.062 H 
ATOM     44  C   LIG d   1       3.746   0.176 -11.373  0.00  0.00    -0.048 A 
ATOM     45  H   LIG d   1       3.185  -1.222 -12.885  0.00  0.00     0.062 H 
ATOM     46  H   LIG d   1       4.657   0.467 -11.873  0.00  0.00     0.063 H 
ENDBRANCH  34  36
ENDBRANCH  33  34
ENDBRANCH  30  33
ENDBRANCH  27  30
ENDBRANCH  24  27
ENDBRANCH   1  24
TORSDOF 10
ENDMDL
MODEL 2
REMARK VINA RESULT:      -6.9      2.890      5.579
REMARK  10 active torsions:
REMARK  status: ('A' for Active; 'I' for Inactive)
REMARK    1  A    between atoms: C_1  and  C_2 
REMARK    2  A    between atoms: C_2  and  C_4 
REMARK    3  A    between atoms: C_2  and  N_15 
REMARK    4  A    between atoms: C_4  and  C_5 
REMARK    5  A    between atoms: C_9  and  C_11 
REMARK    6  A    between atoms: N_15  and  C_16 
REMARK    7  A    between atoms: C_16  and  C_17 
REMARK    8  A    between atoms: C_17  and  O_18 
REMARK    9  A    between atoms: O_18  and  C_19 
REMARK   10  A    between atoms: C_19  and  C_21 
ROOT
ATOM      1  C   LIG d   1       5.324  -1.289  -8.148  0.00  0.00    -0.021 C 
ATOM      2  H   LIG d   1       5.957  -0.461  -7.830  0.00  0.00     0.085 H 
ENDROOT
BRANCH   1   3
ATOM      3  C   LIG d   1       6.091  -2.163  -9.143  0.00  0.00    -0.021 C 
ATOM      4  H   LIG d   1       6.437  -3.067  -8.640  0.00  0.00     0.028 H 
ATOM      5  H   LIG d   1       5.435  -2.435  -9.969  0.00  0.00     0.028 H 
ATOM      6  H   LIG d   1       6.948  -1.610  -9.526  0.00  0.00     0.028 H 
ENDBRANCH   1   3
BRANCH   1   7
ATOM      7  C   LIG d   1       4.931  -2.127  -6.929  0.00  0.00     0.015 C 
ATOM      8  H   LIG d   1       3.908  -1.889  -6.639  0.00  0.00     0.037 H 
ATOM      9  H   LIG d   1       5.002  -3.186  -7.178  0.00  0.00     0.037 H 
BRANCH   7  10
ATOM     10  C   LIG d   1       5.862  -1.817  -5.785  0.00  0.00    -0.042 A 
ATOM     11  C   LIG d   1       6.375  -0.542  -5.638  0.00  0.00    -0.047 A 
ATOM     12  C   LIG d   1       7.226  -0.256  -4.585  0.00  0.00     0.055 A 
ATOM     13  H   LIG d   1       6.109   0.232  -6.342  0.00  0.00     0.063 H 
ATOM     14  C   LIG d   1       7.569  -1.248  -3.686  0.00  0.00    -0.050 A 
ATOM     15  C   LIG d   1       7.060  -2.524  -3.837  0.00  0.00    -0.061 A 
ATOM     16  H   LIG d   1       8.236  -1.026  -2.866  0.00  0.00     0.062 H 
ATOM     17  C   LIG d   1       6.207  -2.809  -4.886  0.00  0.00    -0.058 A 
ATOM     18  H   LIG d   1       7.329  -3.300  -3.135  0.00  0.00     0.062 H 
ATOM     19  H   LIG d   1       5.809  -3.806  -5.004  0.00  0.00     0.062 H 
BRANCH  12  20
ATOM     20  C   LIG d   1       7.780   1.135  -4.421  0.00  0.00     0.417 C 
ATOM     21  F   LIG d   1       7.058   1.811  -3.432  0.00  0.00    -0.166 F 
ATOM     22  F   LIG d   1       9.127   1.059  -4.046  0.00  0.00    -0.166 F 
ATOM     23  F   LIG d   1       7.672   1.827  -5.632  0.00  0.00    -0.166 F 
ENDBRANCH  12  20
ENDBRANCH   7  10
ENDBRANCH   1   7
BRANCH   1  24
ATOM     24  N   LIG d   1       4.113  -0.762  -8.791  0.00  0.00     0.232 N 
ATOM     25  H   LIG d   1       4.244  -0.745  -9.791  0.00  0.00     0.202 HD
ATOM     26  H   LIG d   1       3.328  -1.354  -8.565  0.00  0.00     0.202 HD
BRANCH  24  27
ATOM     27  C   LIG d   1       3.855   0.601  -8.307  0.00  0.00     0.002 C 
ATOM     28  H   LIG d   1       4.745   0.984  -7.808  0.00  0.00     0.085 H 
ATOM     29  H   LIG d   1       3.605   1.244  -9.150  0.00  0.00     0.085 H 
BRANCH  27  30
ATOM     30  C   LIG d   1       2.687   0.577  -7.319  0.00  0.00     0.132 C 
ATOM     31  H   LIG d   1       1.939   1.309  -7.623  0.00  0.00     0.075 H 
ATOM     32  H   LIG d   1       2.239  -0.418  -7.310  0.00  0.00     0.075 H 
BRANCH  30  33
ATOM     33  O   LIG d   1       3.163   0.896  -6.011  0.00  0.00    -0.456 OA
BRANCH  33  34
ATOM     34  C   LIG d   1       2.494   0.363  -4.969  0.00  0.00     0.339 C 
ATOM     35  O   LIG d   1       1.291   0.212  -5.033  0.00  0.00    -0.245 OA
BRANCH  34  36
ATOM     36  C   LIG d   1       3.226  -0.039  -3.751  0.00  0.00     0.059 A 
ATOM     37  C   LIG d   1       3.241  -1.378  -3.352  0.00  0.00    -0.048 A 
ATOM     38  C   LIG d   1       3.931  -1.748  -2.216  0.00  0.00    -0.061 A 
ATOM     39  H   LIG d   1       2.719  -2.122  -3.934  0.00  0.00     0.063 H 
ATOM     40  C   LIG d   1       4.596  -0.794  -1.465  0.00  0.00    -0.062 A 
ATOM     41  H   LIG d   1       3.949  -2.783  -1.909  0.00  0.00     0.062 H 
ATOM     42  C   LIG d   1       4.580   0.534  -1.852  0.00  0.00    -0.061 A 
ATOM     43  H   LIG d   1       5.131  -1.089  -0.574  0.00  0.00     0.062 H 
ATOM     44  C   LIG d   1       3.900   0.917  -2.989  0.00  0.00    -0.048 A 
ATOM     45  H   LIG d   1       5.101   1.273  -1.262  0.00  0.00     0.062 H 
ATOM     46  H   LIG d   1       3.888   1.954  -3.289  0.00  0.00     0.063 H 
ENDBRANCH  34  36
ENDBRANCH  33  34
ENDBRANCH  30  33
ENDBRANCH  27  30
ENDBRANCH  24  27
ENDBRANCH   1  24
TORSDOF 10
ENDMDL
MODEL 3
REMARK VINA RESULT:      -6.7      2.293      2.974
REMARK  10 active torsions:
REMARK  status: ('A' for Active; 'I' for Inactive)
REMARK    1  A    between atoms: C_1  and  C_2 
REMARK    2  A    between atoms: C_2  and  C_4 
REMARK    3  A    between atoms: C_2  and  N_15 
REMARK    4  A    between atoms: C_4  and  C_5 
REMARK    5  A    between atoms: C_9  and  C_11 
REMARK    6  A    between atoms: N_15  and  C_16 
REMARK    7  A    between atoms: C_16  and  C_17 
REMARK    8  A    between atoms: C_17  and  O_18 
REMARK    9  A    between atoms: O_18  and  C_19 
REMARK   10  A    between atoms: C_19  and  C_21 
ROOT
ATOM      1  C   LIG d   1       7.300   0.598  -4.740  0.00  0.00    -0.021 C 
ATOM      2  H   LIG d   1       6.336   1.023  -5.017  0.00  0.00     0.085 H 
ENDROOT
BRANCH   1   3
ATOM      3  C   LIG d   1       8.058   1.589  -3.854  0.00  0.00    -0.021 C 
ATOM      4  H   LIG d   1       9.128   1.390  -3.921  0.00  0.00     0.028 H 
ATOM      5  H   LIG d   1       7.855   2.606  -4.190  0.00  0.00     0.028 H 
ATOM      6  H   LIG d   1       7.732   1.475  -2.820  0.00  0.00     0.028 H 
ENDBRANCH   1   3
BRANCH   1   7
ATOM      7  C   LIG d   1       7.079  -0.708  -3.972  0.00  0.00     0.015 C 
ATOM      8  H   LIG d   1       7.401  -1.549  -4.586  0.00  0.00     0.037 H 
ATOM      9  H   LIG d   1       7.659  -0.689  -3.049  0.00  0.00     0.037 H 
BRANCH   7  10
ATOM     10  C   LIG d   1       5.616  -0.856  -3.643  0.00  0.00    -0.042 A 
ATOM     11  C   LIG d   1       4.667  -0.193  -4.399  0.00  0.00    -0.047 A 
ATOM     12  C   LIG d   1       3.324  -0.332  -4.100  0.00  0.00     0.055 A 
ATOM     13  H   LIG d   1       4.974   0.431  -5.224  0.00  0.00     0.063 H 
ATOM     14  C   LIG d   1       2.931  -1.128  -3.040  0.00  0.00    -0.050 A 
ATOM     15  C   LIG d   1       3.881  -1.786  -2.281  0.00  0.00    -0.061 A 
ATOM     16  H   LIG d   1       1.883  -1.234  -2.805  0.00  0.00     0.062 H 
ATOM     17  C   LIG d   1       5.223  -1.650  -2.582  0.00  0.00    -0.058 A 
ATOM     18  H   LIG d   1       3.574  -2.407  -1.452  0.00  0.00     0.062 H 
ATOM     19  H   LIG d   1       5.964  -2.165  -1.990  0.00  0.00     0.062 H 
BRANCH  12  20
ATOM     20  C   LIG d   1       2.290   0.385  -4.927  0.00  0.00     0.417 C 
ATOM     21  F   LIG d   1       2.344   1.757  -4.656  0.00  0.00    -0.166 F 
ATOM     22  F   LIG d   1       2.546   0.167  -6.286  0.00  0.00    -0.166 F 
ATOM     23  F   LIG d   1       1.017  -0.102  -4.609  0.00  0.00    -0.166 F 
ENDBRANCH  12  20
ENDBRANCH   7  10
ENDBRANCH   1   7
BRANCH   1  24
ATOM     24  N   LIG d   1       8.084   0.326  -5.953  0.00  0.00     0.232 N 
ATOM     25  H   LIG d   1       9.041   0.606  -5.804  0.00  0.00     0.202 HD
ATOM     26  H   LIG d   1       8.050  -0.660  -6.160  0.00  0.00     0.202 HD
BRANCH  24  27
ATOM     27  C   LIG d   1       7.521   1.084  -7.079  0.00  0.00     0.002 C 
ATOM     28  H   LIG d   1       7.159   2.048  -6.723  0.00  0.00     0.085 H 
ATOM     29  H   LIG d   1       8.292   1.241  -7.832  0.00  0.00     0.085 H 
BRANCH  27  30
ATOM     30  C   LIG d   1       6.361   0.297  -7.691  0.00  0.00     0.132 C 
ATOM     31  H   LIG d   1       6.635  -0.034  -8.693  0.00  0.00     0.075 H 
ATOM     32  H   LIG d   1       6.142  -0.571  -7.069  0.00  0.00     0.075 H 
BRANCH  30  33
ATOM     33  O   LIG d   1       5.205   1.133  -7.766  0.00  0.00    -0.456 OA
BRANCH  33  34
ATOM     34  C   LIG d   1       4.862   1.596  -8.984  0.00  0.00     0.339 C 
ATOM     35  O   LIG d   1       5.274   2.675  -9.362  0.00  0.00    -0.245 OA
BRANCH  34  36
ATOM     36  C   LIG d   1       3.987   0.791  -9.861  0.00  0.00     0.059 A 
ATOM     37  C   LIG d   1       2.740   0.360  -9.402  0.00  0.00    -0.048 A 
ATOM     38  C   LIG d   1       1.925  -0.386 -10.228  0.00  0.00    -0.061 A 
ATOM     39  H   LIG d   1       2.414   0.615  -8.405  0.00  0.00     0.063 H 
ATOM     40  C   LIG d   1       2.346  -0.718 -11.504  0.00  0.00    -0.062 A 
ATOM     41  H   LIG d   1       0.959  -0.716  -9.876  0.00  0.00     0.062 H 
ATOM     42  C   LIG d   1       3.582  -0.298 -11.963  0.00  0.00    -0.061 A 
ATOM     43  H   LIG d   1       1.705  -1.306 -12.144  0.00  0.00     0.062 H 
ATOM     44  C   LIG d   1       4.405   0.454 -11.150  0.00  0.00    -0.048 A 
ATOM     45  H   LIG d   1       3.904  -0.560 -12.960  0.00  0.00     0.062 H 
ATOM     46  H   LIG d   1       5.369   0.780 -11.510  0.00  0.00     0.063 H 
ENDBRANCH  34  36
ENDBRANCH  33  34
ENDBRANCH  30  33
ENDBRANCH  27  30
ENDBRANCH  24  27
ENDBRANCH   1  24
TORSDOF 10
ENDMDL
MODEL 4
REMARK VINA RESULT:      -6.7      1.358      2.098
REMARK  10 active torsions:
REMARK  status: ('A' for Active; 'I' for Inactive)
REMARK    1  A    between atoms: C_1  and  C_2 
REMARK    2  A    between atoms: C_2  and  C_4 
REMARK    3  A    between atoms: C_2  and  N_15 
REMARK    4  A    between atoms: C_4  and  C_5 
REMARK    5  A    between atoms: C_9  and  C_11 
REMARK    6  A    between atoms: N_15  and  C_16 
REMARK    7  A    between atoms: C_16  and  C_17 
REMARK    8  A    between atoms: C_17  and  O_18 
REMARK    9  A    between atoms: O_18  and  C_19 
REMARK   10  A    between atoms: C_19  and  C_21 
ROOT
ATOM      1  C   LIG d   1       5.683  -1.397  -7.300  0.00  0.00    -0.021 C 
ATOM      2  H   LIG d   1       6.190  -2.147  -6.694  0.00  0.00     0.085 H 
ENDROOT
BRANCH   1   3
ATOM      3  C   LIG d   1       5.530  -1.918  -8.731  0.00  0.00    -0.021 C 
ATOM      4  H   LIG d   1       4.661  -1.452  -9.196  0.00  0.00     0.028 H 
ATOM      5  H   LIG d   1       6.424  -1.673  -9.305  0.00  0.00     0.028 H 
ATOM      6  H   LIG d   1       5.395  -2.999  -8.712  0.00  0.00     0.028 H 
ENDBRANCH   1   3
BRANCH   1   7
ATOM      7  C   LIG d   1       4.300  -1.115  -6.709  0.00  0.00     0.015 C 
ATOM      8  H   LIG d   1       3.989  -0.105  -6.977  0.00  0.00     0.037 H 
ATOM      9  H   LIG d   1       3.582  -1.833  -7.106  0.00  0.00     0.037 H 
BRANCH   7  10
ATOM     10  C   LIG d   1       4.359  -1.240  -5.209  0.00  0.00    -0.042 A 
ATOM     11  C   LIG d   1       4.359  -0.106  -4.420  0.00  0.00    -0.047 A 
ATOM     12  C   LIG d   1       4.410  -0.221  -3.042  0.00  0.00     0.055 A 
ATOM     13  H   LIG d   1       4.315   0.871  -4.878  0.00  0.00     0.063 H 
ATOM     14  C   LIG d   1       4.470  -1.471  -2.456  0.00  0.00    -0.050 A 
ATOM     15  C   LIG d   1       4.476  -2.606  -3.245  0.00  0.00    -0.061 A 
ATOM     16  H   LIG d   1       4.513  -1.561  -1.381  0.00  0.00     0.062 H 
ATOM     17  C   LIG d   1       4.422  -2.490  -4.622  0.00  0.00    -0.058 A 
ATOM     18  H   LIG d   1       4.524  -3.583  -2.787  0.00  0.00     0.062 H 
ATOM     19  H   LIG d   1       4.426  -3.377  -5.238  0.00  0.00     0.062 H 
BRANCH  12  20
ATOM     20  C   LIG d   1       4.402   1.015  -2.182  0.00  0.00     0.417 C 
ATOM     21  F   LIG d   1       5.299   1.953  -2.704  0.00  0.00    -0.166 F 
ATOM     22  F   LIG d   1       3.114   1.563  -2.163  0.00  0.00    -0.166 F 
ATOM     23  F   LIG d   1       4.784   0.679  -0.879  0.00  0.00    -0.166 F 
ENDBRANCH  12  20
ENDBRANCH   7  10
ENDBRANCH   1   7
BRANCH   1  24
ATOM     24  N   LIG d   1       6.473  -0.158  -7.312  0.00  0.00     0.232 N 
ATOM     25  H   LIG d   1       5.985   0.557  -6.794  0.00  0.00     0.202 HD
ATOM     26  H   LIG d   1       7.370  -0.329  -6.885  0.00  0.00     0.202 HD
BRANCH  24  27
ATOM     27  C   LIG d   1       6.665   0.286  -8.699  0.00  0.00     0.002 C 
ATOM     28  H   LIG d   1       7.686   0.069  -9.012  0.00  0.00     0.085 H 
ATOM     29  H   LIG d   1       5.966  -0.239  -9.348  0.00  0.00     0.085 H 
BRANCH  27  30
ATOM     30  C   LIG d   1       6.414   1.792  -8.790  0.00  0.00     0.132 C 
ATOM     31  H   LIG d   1       6.131   2.173  -7.809  0.00  0.00     0.075 H 
ATOM     32  H   LIG d   1       7.324   2.293  -9.125  0.00  0.00     0.075 H 
BRANCH  30  33
ATOM     33  O   LIG d   1       5.361   2.045  -9.721  0.00  0.00    -0.456 OA
BRANCH  33  34
ATOM     34  C   LIG d   1       4.106   1.775  -9.313  0.00  0.00     0.339 C 
ATOM     35  O   LIG d   1       3.629   2.378  -8.373  0.00  0.00    -0.245 OA
BRANCH  34  36
ATOM     36  C   LIG d   1       3.309   0.745 -10.011  0.00  0.00     0.059 A 
ATOM     37  C   LIG d   1       3.707   0.282 -11.267  0.00  0.00    -0.048 A 
ATOM     38  C   LIG d   1       2.962  -0.684 -11.911  0.00  0.00    -0.061 A 
ATOM     39  H   LIG d   1       4.598   0.677 -11.731  0.00  0.00     0.063 H 
ATOM     40  C   LIG d   1       1.815  -1.186 -11.320  0.00  0.00    -0.062 A 
ATOM     41  H   LIG d   1       3.271  -1.046 -12.880  0.00  0.00     0.062 H 
ATOM     42  C   LIG d   1       1.413  -0.728 -10.077  0.00  0.00    -0.061 A 
ATOM     43  H   LIG d   1       1.233  -1.939 -11.830  0.00  0.00     0.062 H 
ATOM     44  C   LIG d   1       2.152   0.233  -9.420  0.00  0.00    -0.048 A 
ATOM     45  H   LIG d   1       0.518  -1.124  -9.621  0.00  0.00     0.062 H 
ATOM     46  H   LIG d   1       1.836   0.589  -8.451  0.00  0.00     0.063 H 
ENDBRANCH  34  36
ENDBRANCH  33  34
ENDBRANCH  30  33
ENDBRANCH  27  30
ENDBRANCH  24  27
ENDBRANCH   1  24
TORSDOF 10
ENDMDL
MODEL 5
REMARK VINA RESULT:      -6.6      2.117      3.005
REMARK  10 active torsions:
REMARK  status: ('A' for Active; 'I' for Inactive)
REMARK    1  A    between atoms: C_1  and  C_2 
REMARK    2  A    between atoms: C_2  and  C_4 
REMARK    3  A    between atoms: C_2  and  N_15 
REMARK    4  A    between atoms: C_4  and  C_5 
REMARK    5  A    between atoms: C_9  and  C_11 
REMARK    6  A    between atoms: N_15  and  C_16 
REMARK    7  A    between atoms: C_16  and  C_17 
REMARK    8  A    between atoms: C_17  and  O_18 
REMARK    9  A    between atoms: O_18  and  C_19 
REMARK   10  A    between atoms: C_19  and  C_21 
ROOT
ATOM      1  C   LIG d   1       4.794  -3.561  -6.003  0.00  0.00    -0.021 C 
ATOM      2  H   LIG d   1       5.830  -3.516  -6.337  0.00  0.00     0.085 H 
ENDROOT
BRANCH   1   3
ATOM      3  C   LIG d   1       4.164  -4.874  -6.473  0.00  0.00    -0.021 C 
ATOM      4  H   LIG d   1       4.909  -5.463  -7.009  0.00  0.00     0.028 H 
ATOM      5  H   LIG d   1       3.807  -5.436  -5.610  0.00  0.00     0.028 H 
ATOM      6  H   LIG d   1       3.327  -4.657  -7.137  0.00  0.00     0.028 H 
ENDBRANCH   1   3
BRANCH   1   7
ATOM      7  C   LIG d   1       4.747  -3.490  -4.475  0.00  0.00     0.015 C 
ATOM      8  H   LIG d   1       3.712  -3.571  -4.140  0.00  0.00     0.037 H 
ATOM      9  H   LIG d   1       5.329  -4.311  -4.056  0.00  0.00     0.037 H 
BRANCH   7  10
ATOM     10  C   LIG d   1       5.323  -2.177  -4.015  0.00  0.00    -0.042 A 
ATOM     11  C   LIG d   1       4.514  -1.248  -3.389  0.00  0.00    -0.047 A 
ATOM     12  C   LIG d   1       5.045  -0.044  -2.963  0.00  0.00     0.055 A 
ATOM     13  H   LIG d   1       3.469  -1.464  -3.228  0.00  0.00     0.063 H 
ATOM     14  C   LIG d   1       6.383   0.234  -3.171  0.00  0.00    -0.050 A 
ATOM     15  C   LIG d   1       7.190  -0.693  -3.803  0.00  0.00    -0.061 A 
ATOM     16  H   LIG d   1       6.796   1.175  -2.842  0.00  0.00     0.062 H 
ATOM     17  C   LIG d   1       6.661  -1.898  -4.226  0.00  0.00    -0.058 A 
ATOM     18  H   LIG d   1       8.236  -0.476  -3.968  0.00  0.00     0.062 H 
ATOM     19  H   LIG d   1       7.292  -2.622  -4.719  0.00  0.00     0.062 H 
BRANCH  12  20
ATOM     20  C   LIG d   1       4.165   0.966  -2.273  0.00  0.00     0.417 C 
ATOM     21  F   LIG d   1       4.635   1.186  -0.975  0.00  0.00    -0.166 F 
ATOM     22  F   LIG d   1       4.187   2.169  -2.988  0.00  0.00    -0.166 F 
ATOM     23  F   LIG d   1       2.853   0.481  -2.218  0.00  0.00    -0.166 F 
ENDBRANCH  12  20
ENDBRANCH   7  10
ENDBRANCH   1   7
BRANCH   1  24
ATOM     24  N   LIG d   1       4.047  -2.429  -6.569  0.00  0.00     0.232 N 
ATOM     25  H   LIG d   1       3.226  -2.772  -7.045  0.00  0.00     0.202 HD
ATOM     26  H   LIG d   1       3.769  -1.806  -5.827  0.00  0.00     0.202 HD
BRANCH  24  27
ATOM     27  C   LIG d   1       4.901  -1.707  -7.523  0.00  0.00     0.002 C 
ATOM     28  H   LIG d   1       5.908  -2.121  -7.494  0.00  0.00     0.085 H 
ATOM     29  H   LIG d   1       4.493  -1.814  -8.527  0.00  0.00     0.085 H 
BRANCH  27  30
ATOM     30  C   LIG d   1       4.947  -0.226  -7.144  0.00  0.00     0.132 C 
ATOM     31  H   LIG d   1       5.476  -0.110  -6.198  0.00  0.00     0.075 H 
ATOM     32  H   LIG d   1       5.468   0.332  -7.923  0.00  0.00     0.075 H 
BRANCH  30  33
ATOM     33  O   LIG d   1       3.616   0.274  -7.010  0.00  0.00    -0.456 OA
BRANCH  33  34
ATOM     34  C   LIG d   1       3.130   1.004  -8.033  0.00  0.00     0.339 C 
ATOM     35  O   LIG d   1       2.946   2.196  -7.895  0.00  0.00    -0.245 OA
BRANCH  34  36
ATOM     36  C   LIG d   1       2.824   0.353  -9.323  0.00  0.00     0.059 A 
ATOM     37  C   LIG d   1       1.731  -0.510  -9.431  0.00  0.00    -0.048 A 
ATOM     38  C   LIG d   1       1.446  -1.109 -10.641  0.00  0.00    -0.061 A 
ATOM     39  H   LIG d   1       1.108  -0.704  -8.571  0.00  0.00     0.063 H 
ATOM     40  C   LIG d   1       2.248  -0.867 -11.742  0.00  0.00    -0.062 A 
ATOM     41  H   LIG d   1       0.599  -1.773 -10.727  0.00  0.00     0.062 H 
ATOM     42  C   LIG d   1       3.335  -0.017 -11.641  0.00  0.00    -0.061 A 
ATOM     43  H   LIG d   1       2.023  -1.342 -12.686  0.00  0.00     0.062 H 
ATOM     44  C   LIG d   1       3.628   0.594 -10.439  0.00  0.00    -0.048 A 
ATOM     45  H   LIG d   1       3.957   0.169 -12.504  0.00  0.00     0.062 H 
ATOM     46  H   LIG d   1       4.476   1.257 -10.362  0.00  0.00     0.063 H 
ENDBRANCH  34  36
ENDBRANCH  33  34
ENDBRANCH  30  33
ENDBRANCH  27  30
ENDBRANCH  24  27
ENDBRANCH   1  24
TORSDOF 10
ENDMDL
MODEL 6
REMARK VINA RESULT:      -6.5      1.999      2.588
REMARK  10 active torsions:
REMARK  status: ('A' for Active; 'I' for Inactive)
REMARK    1  A    between atoms: C_1  and  C_2 
REMARK    2  A    between atoms: C_2  and  C_4 
REMARK    3  A    between atoms: C_2  and  N_15 
REMARK    4  A    between atoms: C_4  and  C_5 
REMARK    5  A    between atoms: C_9  and  C_11 
REMARK    6  A    between atoms: N_15  and  C_16 
REMARK    7  A    between atoms: C_16  and  C_17 
REMARK    8  A    between atoms: C_17  and  O_18 
REMARK    9  A    between atoms: O_18  and  C_19 
REMARK   10  A    between atoms: C_19  and  C_21 
ROOT
ATOM      1  C   LIG d   1       7.514  -1.500  -5.474  0.00  0.00    -0.021 C 
ATOM      2  H   LIG d   1       7.271  -0.572  -4.958  0.00  0.00     0.085 H 
ENDROOT
BRANCH   1   3
ATOM      3  C   LIG d   1       9.007  -1.796  -5.316  0.00  0.00    -0.021 C 
ATOM      4  H   LIG d   1       9.242  -1.923  -4.259  0.00  0.00     0.028 H 
ATOM      5  H   LIG d   1       9.256  -2.708  -5.857  0.00  0.00     0.028 H 
ATOM      6  H   LIG d   1       9.586  -0.965  -5.719  0.00  0.00     0.028 H 
ENDBRANCH   1   3
BRANCH   1   7
ATOM      7  C   LIG d   1       6.700  -2.647  -4.870  0.00  0.00     0.015 C 
ATOM      8  H   LIG d   1       6.221  -3.212  -5.669  0.00  0.00     0.037 H 
ATOM      9  H   LIG d   1       7.362  -3.304  -4.307  0.00  0.00     0.037 H 
BRANCH   7  10
ATOM     10  C   LIG d   1       5.647  -2.085  -3.951  0.00  0.00    -0.042 A 
ATOM     11  C   LIG d   1       5.682  -0.751  -3.592  0.00  0.00    -0.047 A 
ATOM     12  C   LIG d   1       4.713  -0.234  -2.752  0.00  0.00     0.055 A 
ATOM     13  H   LIG d   1       6.464  -0.110  -3.972  0.00  0.00     0.063 H 
ATOM     14  C   LIG d   1       3.714  -1.056  -2.263  0.00  0.00    -0.050 A 
ATOM     15  C   LIG d   1       3.683  -2.391  -2.616  0.00  0.00    -0.061 A 
ATOM     16  H   LIG d   1       2.960  -0.653  -1.604  0.00  0.00     0.062 H 
ATOM     17  C   LIG d   1       4.649  -2.906  -3.459  0.00  0.00    -0.058 A 
ATOM     18  H   LIG d   1       2.903  -3.034  -2.233  0.00  0.00     0.062 H 
ATOM     19  H   LIG d   1       4.624  -3.950  -3.735  0.00  0.00     0.062 H 
BRANCH  12  20
ATOM     20  C   LIG d   1       4.747   1.222  -2.367  0.00  0.00     0.417 C 
ATOM     21  F   LIG d   1       3.602   1.861  -2.855  0.00  0.00    -0.166 F 
ATOM     22  F   LIG d   1       4.786   1.335  -0.972  0.00  0.00    -0.166 F 
ATOM     23  F   LIG d   1       5.885   1.822  -2.915  0.00  0.00    -0.166 F 
ENDBRANCH  12  20
ENDBRANCH   7  10
ENDBRANCH   1   7
BRANCH   1  24
ATOM     24  N   LIG d   1       7.189  -1.368  -6.901  0.00  0.00     0.232 N 
ATOM     25  H   LIG d   1       8.006  -1.582  -7.453  0.00  0.00     0.202 HD
ATOM     26  H   LIG d   1       6.447  -2.008  -7.137  0.00  0.00     0.202 HD
BRANCH  24  27
ATOM     27  C   LIG d   1       6.757   0.009  -7.178  0.00  0.00     0.002 C 
ATOM     28  H   LIG d   1       6.924   0.627  -6.297  0.00  0.00     0.085 H 
ATOM     29  H   LIG d   1       7.330   0.407  -8.015  0.00  0.00     0.085 H 
BRANCH  27  30
ATOM     30  C   LIG d   1       5.268   0.014  -7.530  0.00  0.00     0.132 C 
ATOM     31  H   LIG d   1       5.063  -0.778  -8.250  0.00  0.00     0.075 H 
ATOM     32  H   LIG d   1       4.681  -0.156  -6.626  0.00  0.00     0.075 H 
BRANCH  30  33
ATOM     33  O   LIG d   1       4.916   1.276  -8.097  0.00  0.00    -0.456 OA
BRANCH  33  34
ATOM     34  C   LIG d   1       3.647   1.422  -8.525  0.00  0.00     0.339 C 
ATOM     35  O   LIG d   1       2.915   2.231  -7.991  0.00  0.00    -0.245 OA
BRANCH  34  36
ATOM     36  C   LIG d   1       3.146   0.599  -9.645  0.00  0.00     0.059 A 
ATOM     37  C   LIG d   1       1.976  -0.149  -9.496  0.00  0.00    -0.048 A 
ATOM     38  C   LIG d   1       1.510  -0.911 -10.548  0.00  0.00    -0.061 A 
ATOM     39  H   LIG d   1       1.435  -0.128  -8.562  0.00  0.00     0.063 H 
ATOM     40  C   LIG d   1       2.206  -0.944 -11.743  0.00  0.00    -0.062 A 
ATOM     41  H   LIG d   1       0.604  -1.486 -10.436  0.00  0.00     0.062 H 
ATOM     42  C   LIG d   1       3.368  -0.209 -11.895  0.00  0.00    -0.061 A 
ATOM     43  H   LIG d   1       1.839  -1.546 -12.562  0.00  0.00     0.062 H 
ATOM     44  C   LIG d   1       3.842   0.562 -10.854  0.00  0.00    -0.048 A 
ATOM     45  H   LIG d   1       3.906  -0.239 -12.831  0.00  0.00     0.062 H 
ATOM     46  H   LIG d   1       4.749   1.135 -10.974  0.00  0.00     0.063 H 
ENDBRANCH  34  36
ENDBRANCH  33  34
ENDBRANCH  30  33
ENDBRANCH  27  30
ENDBRANCH  24  27
ENDBRANCH   1  24
TORSDOF 10
ENDMDL
MODEL 7
REMARK VINA RESULT:      -6.5      4.276      7.248
REMARK  10 active torsions:
REMARK  status: ('A' for Active; 'I' for Inactive)
REMARK    1  A    between atoms: C_1  and  C_2 
REMARK    2  A    between atoms: C_2  and  C_4 
REMARK    3  A    between atoms: C_2  and  N_15 
REMARK    4  A    between atoms: C_4  and  C_5 
REMARK    5  A    between atoms: C_9  and  C_11 
REMARK    6  A    between atoms: N_15  and  C_16 
REMARK    7  A    between atoms: C_16  and  C_17 
REMARK    8  A    between atoms: C_17  and  O_18 
REMARK    9  A    between atoms: O_18  and  C_19 
REMARK   10  A    between atoms: C_19  and  C_21 
ROOT
ATOM      1  C   LIG d   1       3.350  -0.137  -6.276  0.00  0.00    -0.021 C 
ATOM      2  H   LIG d   1       4.181   0.507  -6.560  0.00  0.00     0.085 H 
ENDROOT
BRANCH   1   3
ATOM      3  C   LIG d   1       2.777   0.333  -4.937  0.00  0.00    -0.021 C 
ATOM      4  H   LIG d   1       1.828   0.843  -5.107  0.00  0.00     0.028 H 
ATOM      5  H   LIG d   1       2.616  -0.528  -4.288  0.00  0.00     0.028 H 
ATOM      6  H   LIG d   1       3.478   1.019  -4.463  0.00  0.00     0.028 H 
ENDBRANCH   1   3
BRANCH   1   7
ATOM      7  C   LIG d   1       2.262  -0.068  -7.350  0.00  0.00     0.015 C 
ATOM      8  H   LIG d   1       1.863  -1.067  -7.528  0.00  0.00     0.037 H 
ATOM      9  H   LIG d   1       1.459   0.588  -7.012  0.00  0.00     0.037 H 
BRANCH   7  10
ATOM     10  C   LIG d   1       2.850   0.473  -8.627  0.00  0.00    -0.042 A 
ATOM     11  C   LIG d   1       2.932  -0.333  -9.746  0.00  0.00    -0.047 A 
ATOM     12  C   LIG d   1       3.468   0.165 -10.920  0.00  0.00     0.055 A 
ATOM     13  H   LIG d   1       2.573  -1.350  -9.706  0.00  0.00     0.063 H 
ATOM     14  C   LIG d   1       3.930   1.467 -10.970  0.00  0.00    -0.050 A 
ATOM     15  C   LIG d   1       3.853   2.271  -9.849  0.00  0.00    -0.061 A 
ATOM     16  H   LIG d   1       4.352   1.855 -11.885  0.00  0.00     0.062 H 
ATOM     17  C   LIG d   1       3.314   1.775  -8.677  0.00  0.00    -0.058 A 
ATOM     18  H   LIG d   1       4.215   3.288  -9.887  0.00  0.00     0.062 H 
ATOM     19  H   LIG d   1       3.254   2.403  -7.801  0.00  0.00     0.062 H 
BRANCH  12  20
ATOM     20  C   LIG d   1       3.551  -0.711 -12.142  0.00  0.00     0.417 C 
ATOM     21  F   LIG d   1       4.234  -0.033 -13.158  0.00  0.00    -0.166 F 
ATOM     22  F   LIG d   1       4.236  -1.890 -11.825  0.00  0.00    -0.166 F 
ATOM     23  F   LIG d   1       2.259  -1.026 -12.579  0.00  0.00    -0.166 F 
ENDBRANCH  12  20
ENDBRANCH   7  10
ENDBRANCH   1   7
BRANCH   1  24
ATOM     24  N   LIG d   1       3.823  -1.522  -6.147  0.00  0.00     0.232 N 
ATOM     25  H   LIG d   1       3.815  -1.791  -5.175  0.00  0.00     0.202 HD
ATOM     26  H   LIG d   1       3.217  -2.134  -6.671  0.00  0.00     0.202 HD
BRANCH  24  27
ATOM     27  C   LIG d   1       5.193  -1.621  -6.671  0.00  0.00     0.002 C 
ATOM     28  H   LIG d   1       5.722  -2.423  -6.156  0.00  0.00     0.085 H 
ATOM     29  H   LIG d   1       5.158  -1.837  -7.738  0.00  0.00     0.085 H 
BRANCH  27  30
ATOM     30  C   LIG d   1       5.923  -0.297  -6.440  0.00  0.00     0.132 C 
ATOM     31  H   LIG d   1       6.135   0.172  -7.400  0.00  0.00     0.075 H 
ATOM     32  H   LIG d   1       5.295   0.365  -5.843  0.00  0.00     0.075 H 
BRANCH  30  33
ATOM     33  O   LIG d   1       7.148  -0.542  -5.748  0.00  0.00    -0.456 OA
BRANCH  33  34
ATOM     34  C   LIG d   1       7.063  -1.150  -4.548  0.00  0.00     0.339 C 
ATOM     35  O   LIG d   1       7.752  -2.121  -4.309  0.00  0.00    -0.245 OA
BRANCH  34  36
ATOM     36  C   LIG d   1       6.132  -0.634  -3.524  0.00  0.00     0.059 A 
ATOM     37  C   LIG d   1       5.295  -1.512  -2.832  0.00  0.00    -0.048 A 
ATOM     38  C   LIG d   1       4.432  -1.024  -1.872  0.00  0.00    -0.061 A 
ATOM     39  H   LIG d   1       5.326  -2.570  -3.044  0.00  0.00     0.063 H 
ATOM     40  C   LIG d   1       4.386   0.333  -1.604  0.00  0.00    -0.062 A 
ATOM     41  H   LIG d   1       3.787  -1.702  -1.333  0.00  0.00     0.062 H 
ATOM     42  C   LIG d   1       5.210   1.208  -2.289  0.00  0.00    -0.061 A 
ATOM     43  H   LIG d   1       3.706   0.710  -0.854  0.00  0.00     0.062 H 
ATOM     44  C   LIG d   1       6.082   0.734  -3.247  0.00  0.00    -0.048 A 
ATOM     45  H   LIG d   1       5.170   2.266  -2.075  0.00  0.00     0.062 H 
ATOM     46  H   LIG d   1       6.723   1.418  -3.781  0.00  0.00     0.063 H 
ENDBRANCH  34  36
ENDBRANCH  33  34
ENDBRANCH  30  33
ENDBRANCH  27  30
ENDBRANCH  24  27
ENDBRANCH   1  24
TORSDOF 10
ENDMDL
MODEL 8
REMARK VINA RESULT:      -6.4      2.660      3.462
REMARK  10 active torsions:
REMARK  status: ('A' for Active; 'I' for Inactive)
REMARK    1  A    between atoms: C_1  and  C_2 
REMARK    2  A    between atoms: C_2  and  C_4 
REMARK    3  A    between atoms: C_2  and  N_15 
REMARK    4  A    between atoms: C_4  and  C_5 
REMARK    5  A    between atoms: C_9  and  C_11 
REMARK    6  A    between atoms: N_15  and  C_16 
REMARK    7  A    between atoms: C_16  and  C_17 
REMARK    8  A    between atoms: C_17  and  O_18 
REMARK    9  A    between atoms: O_18  and  C_19 
REMARK   10  A    between atoms: C_19  and  C_21 
ROOT
ATOM      1  C   LIG d   1       7.463  -1.766  -5.806  0.00  0.00    -0.021 C 
ATOM      2  H   LIG d   1       6.518  -1.271  -6.025  0.00  0.00     0.085 H 
ENDROOT
BRANCH   1   3
ATOM      3  C   LIG d   1       8.619  -0.797  -6.065  0.00  0.00    -0.021 C 
ATOM      4  H   LIG d   1       9.036  -0.467  -5.113  0.00  0.00     0.028 H 
ATOM      5  H   LIG d   1       9.392  -1.300  -6.646  0.00  0.00     0.028 H 
ATOM      6  H   LIG d   1       8.251   0.066  -6.619  0.00  0.00     0.028 H 
ENDBRANCH   1   3
BRANCH   1   7
ATOM      7  C   LIG d   1       7.481  -2.202  -4.339  0.00  0.00     0.015 C 
ATOM      8  H   LIG d   1       7.650  -3.278  -4.282  0.00  0.00     0.037 H 
ATOM      9  H   LIG d   1       8.282  -1.681  -3.815  0.00  0.00     0.037 H 
BRANCH   7  10
ATOM     10  C   LIG d   1       6.160  -1.867  -3.699  0.00  0.00    -0.042 A 
ATOM     11  C   LIG d   1       5.936  -0.599  -3.197  0.00  0.00    -0.047 A 
ATOM     12  C   LIG d   1       4.721  -0.290  -2.613  0.00  0.00     0.055 A 
ATOM     13  H   LIG d   1       6.709   0.152  -3.264  0.00  0.00     0.063 H 
ATOM     14  C   LIG d   1       3.733  -1.253  -2.524  0.00  0.00    -0.050 A 
ATOM     15  C   LIG d   1       3.959  -2.523  -3.021  0.00  0.00    -0.061 A 
ATOM     16  H   LIG d   1       2.786  -1.013  -2.065  0.00  0.00     0.062 H 
ATOM     17  C   LIG d   1       5.172  -2.830  -3.607  0.00  0.00    -0.058 A 
ATOM     18  H   LIG d   1       3.187  -3.276  -2.950  0.00  0.00     0.062 H 
ATOM     19  H   LIG d   1       5.347  -3.822  -3.996  0.00  0.00     0.062 H 
BRANCH  12  20
ATOM     20  C   LIG d   1       4.475   1.094  -2.072  0.00  0.00     0.417 C 
ATOM     21  F   LIG d   1       4.867   1.148  -0.730  0.00  0.00    -0.166 F 
ATOM     22  F   LIG d   1       5.215   2.023  -2.812  0.00  0.00    -0.166 F 
ATOM     23  F   LIG d   1       3.113   1.399  -2.171  0.00  0.00    -0.166 F 
ENDBRANCH  12  20
ENDBRANCH   7  10
ENDBRANCH   1   7
BRANCH   1  24
ATOM     24  N   LIG d   1       7.611  -2.946  -6.669  0.00  0.00     0.232 N 
ATOM     25  H   LIG d   1       8.201  -2.716  -7.454  0.00  0.00     0.202 HD
ATOM     26  H   LIG d   1       8.028  -3.697  -6.143  0.00  0.00     0.202 HD
BRANCH  24  27
ATOM     27  C   LIG d   1       6.288  -3.364  -7.156  0.00  0.00     0.002 C 
ATOM     28  H   LIG d   1       6.393  -4.259  -7.768  0.00  0.00     0.085 H 
ATOM     29  H   LIG d   1       5.641  -3.578  -6.307  0.00  0.00     0.085 H 
BRANCH  27  30
ATOM     30  C   LIG d   1       5.677  -2.241  -7.996  0.00  0.00     0.132 C 
ATOM     31  H   LIG d   1       6.221  -1.314  -7.813  0.00  0.00     0.075 H 
ATOM     32  H   LIG d   1       5.745  -2.500  -9.053  0.00  0.00     0.075 H 
BRANCH  30  33
ATOM     33  O   LIG d   1       4.306  -2.068  -7.635  0.00  0.00    -0.456 OA
BRANCH  33  34
ATOM     34  C   LIG d   1       3.467  -1.648  -8.602  0.00  0.00     0.339 C 
ATOM     35  O   LIG d   1       2.717  -2.437  -9.139  0.00  0.00    -0.245 OA
BRANCH  34  36
ATOM     36  C   LIG d   1       3.459  -0.227  -9.007  0.00  0.00     0.059 A 
ATOM     37  C   LIG d   1       2.971   0.748  -8.133  0.00  0.00    -0.048 A 
ATOM     38  C   LIG d   1       2.971   2.073  -8.515  0.00  0.00    -0.061 A 
ATOM     39  H   LIG d   1       2.598   0.465  -7.160  0.00  0.00     0.063 H 
ATOM     40  C   LIG d   1       3.442   2.437  -9.765  0.00  0.00    -0.062 A 
ATOM     41  H   LIG d   1       2.599   2.829  -7.840  0.00  0.00     0.062 H 
ATOM     42  C   LIG d   1       3.922   1.475 -10.637  0.00  0.00    -0.061 A 
ATOM     43  H   LIG d   1       3.436   3.476 -10.060  0.00  0.00     0.062 H 
ATOM     44  C   LIG d   1       3.933   0.146 -10.265  0.00  0.00    -0.048 A 
ATOM     45  H   LIG d   1       4.288   1.765 -11.610  0.00  0.00     0.062 H 
ATOM     46  H   LIG d   1       4.308  -0.603 -10.947  0.00  0.00     0.063 H 
ENDBRANCH  34  36
ENDBRANCH  33  34
ENDBRANCH  30  33
ENDBRANCH  27  30
ENDBRANCH  24  27
ENDBRANCH   1  24
TORSDOF 10
ENDMDL
MODEL 9
REMARK VINA RESULT:      -6.4      2.636      3.460
REMARK  10 active torsions:
REMARK  status: ('A' for Active; 'I' for Inactive)
REMARK    1  A    between atoms: C_1  and  C_2 
REMARK    2  A    between atoms: C_2  and  C_4 
REMARK    3  A    between atoms: C_2  and  N_15 
REMARK    4  A    between atoms: C_4  and  C_5 
REMARK    5  A    between atoms: C_9  and  C_11 
REMARK    6  A    between atoms: N_15  and  C_16 
REMARK    7  A    between atoms: C_16  and  C_17 
REMARK    8  A    between atoms: C_17  and  O_18 
REMARK    9  A    between atoms: O_18  and  C_19 
REMARK   10  A    between atoms: C_19  and  C_21 
ROOT
ATOM      1  C   LIG d   1       7.957  -1.950  -4.949  0.00  0.00    -0.021 C 
ATOM      2  H   LIG d   1       7.943  -1.084  -4.288  0.00  0.00     0.085 H 
ENDROOT
BRANCH   1   3
ATOM      3  C   LIG d   1       8.562  -3.146  -4.210  0.00  0.00    -0.021 C 
ATOM      4  H   LIG d   1       8.726  -2.881  -3.165  0.00  0.00     0.028 H 
ATOM      5  H   LIG d   1       7.879  -3.993  -4.268  0.00  0.00     0.028 H 
ATOM      6  H   LIG d   1       9.514  -3.413  -4.670  0.00  0.00     0.028 H 
ENDBRANCH   1   3
BRANCH   1   7
ATOM      7  C   LIG d   1       6.528  -2.287  -5.380  0.00  0.00     0.015 C 
ATOM      8  H   LIG d   1       6.287  -1.743  -6.294  0.00  0.00     0.037 H 
ATOM      9  H   LIG d   1       6.446  -3.358  -5.562  0.00  0.00     0.037 H 
BRANCH   7  10
ATOM     10  C   LIG d   1       5.568  -1.887  -4.290  0.00  0.00    -0.042 A 
ATOM     11  C   LIG d   1       5.544  -0.583  -3.833  0.00  0.00    -0.047 A 
ATOM     12  C   LIG d   1       4.659  -0.215  -2.835  0.00  0.00     0.055 A 
ATOM     13  H   LIG d   1       6.214   0.150  -4.258  0.00  0.00     0.063 H 
ATOM     14  C   LIG d   1       3.805  -1.154  -2.290  0.00  0.00    -0.050 A 
ATOM     15  C   LIG d   1       3.832  -2.460  -2.743  0.00  0.00    -0.061 A 
ATOM     16  H   LIG d   1       3.117  -0.868  -1.509  0.00  0.00     0.062 H 
ATOM     17  C   LIG d   1       4.714  -2.826  -3.743  0.00  0.00    -0.058 A 
ATOM     18  H   LIG d   1       3.165  -3.194  -2.316  0.00  0.00     0.062 H 
ATOM     19  H   LIG d   1       4.735  -3.846  -4.097  0.00  0.00     0.062 H 
BRANCH  12  20
ATOM     20  C   LIG d   1       4.629   1.208  -2.342  0.00  0.00     0.417 C 
ATOM     21  F   LIG d   1       3.420   1.806  -2.714  0.00  0.00    -0.166 F 
ATOM     22  F   LIG d   1       4.747   1.221  -0.947  0.00  0.00    -0.166 F 
ATOM     23  F   LIG d   1       5.694   1.920  -2.906  0.00  0.00    -0.166 F 
ENDBRANCH  12  20
ENDBRANCH   7  10
ENDBRANCH   1   7
BRANCH   1  24
ATOM     24  N   LIG d   1       8.769  -1.647  -6.136  0.00  0.00     0.232 N 
ATOM     25  H   LIG d   1       8.743  -0.655  -6.317  0.00  0.00     0.202 HD
ATOM     26  H   LIG d   1       9.721  -1.935  -5.974  0.00  0.00     0.202 HD
BRANCH  24  27
ATOM     27  C   LIG d   1       8.228  -2.370  -7.296  0.00  0.00     0.002 C 
ATOM     28  H   LIG d   1       8.847  -3.244  -7.500  0.00  0.00     0.085 H 
ATOM     29  H   LIG d   1       7.209  -2.690  -7.081  0.00  0.00     0.085 H 
BRANCH  27  30
ATOM     30  C   LIG d   1       8.228  -1.448  -8.516  0.00  0.00     0.132 C 
ATOM     31  H   LIG d   1       8.925  -0.627  -8.350  0.00  0.00     0.075 H 
ATOM     32  H   LIG d   1       8.536  -2.012  -9.397  0.00  0.00     0.075 H 
BRANCH  30  33
ATOM     33  O   LIG d   1       6.915  -0.925  -8.719  0.00  0.00    -0.456 OA
BRANCH  33  34
ATOM     34  C   LIG d   1       6.653   0.291  -8.201  0.00  0.00     0.339 C 
ATOM     35  O   LIG d   1       7.515   0.889  -7.590  0.00  0.00    -0.245 OA
BRANCH  34  36
ATOM     36  C   LIG d   1       5.318   0.897  -8.379  0.00  0.00     0.059 A 
ATOM     37  C   LIG d   1       4.196   0.305  -7.795  0.00  0.00    -0.048 A 
ATOM     38  C   LIG d   1       2.953   0.880  -7.960  0.00  0.00    -0.061 A 
ATOM     39  H   LIG d   1       4.302  -0.597  -7.212  0.00  0.00     0.063 H 
ATOM     40  C   LIG d   1       2.814   2.033  -8.712  0.00  0.00    -0.062 A 
ATOM     41  H   LIG d   1       2.085   0.427  -7.505  0.00  0.00     0.062 H 
ATOM     42  C   LIG d   1       3.921   2.622  -9.298  0.00  0.00    -0.061 A 
ATOM     43  H   LIG d   1       1.838   2.477  -8.842  0.00  0.00     0.062 H 
ATOM     44  C   LIG d   1       5.171   2.062  -9.136  0.00  0.00    -0.048 A 
ATOM     45  H   LIG d   1       3.807   3.522  -9.883  0.00  0.00     0.062 H 
ATOM     46  H   LIG d   1       6.034   2.522  -9.593  0.00  0.00     0.063 H 
ENDBRANCH  34  36
ENDBRANCH  33  34
ENDBRANCH  30  33
ENDBRANCH  27  30
ENDBRANCH  24  27
ENDBRANCH   1  24
TORSDOF 10
ENDMDL
MODEL 10
REMARK VINA RESULT:      -6.0      3.881      6.217
REMARK  10 active torsions:
REMARK  status: ('A' for Active; 'I' for Inactive)
REMARK    1  A    between atoms: C_1  and  C_2 
REMARK    2  A    between atoms: C_2  and  C_4 
REMARK    3  A    between atoms: C_2  and  N_15 
REMARK    4  A    between atoms: C_4  and  C_5 
REMARK    5  A    between atoms: C_9  and  C_11 
REMARK    6  A    between atoms: N_15  and  C_16 
REMARK    7  A    between atoms: C_16  and  C_17 
REMARK    8  A    between atoms: C_17  and  O_18 
REMARK    9  A    between atoms: O_18  and  C_19 
REMARK   10  A    between atoms: C_19  and  C_21 
ROOT
ATOM      1  C   LIG d   1       8.613  -0.563  -7.411  0.00  0.00    -0.021 C 
ATOM      2  H   LIG d   1       7.989  -1.065  -6.672  0.00  0.00     0.085 H 
ENDROOT
BRANCH   1   3
ATOM      3  C   LIG d   1       9.176  -1.596  -8.389  0.00  0.00    -0.021 C 
ATOM      4  H   LIG d   1       8.387  -2.291  -8.678  0.00  0.00     0.028 H 
ATOM      5  H   LIG d   1       9.557  -1.088  -9.275  0.00  0.00     0.028 H 
ATOM      6  H   LIG d   1       9.986  -2.146  -7.909  0.00  0.00     0.028 H 
ENDBRANCH   1   3
BRANCH   1   7
ATOM      7  C   LIG d   1       7.772   0.460  -8.178  0.00  0.00     0.015 C 
ATOM      8  H   LIG d   1       8.074   1.467  -7.890  0.00  0.00     0.037 H 
ATOM      9  H   LIG d   1       7.925   0.326  -9.248  0.00  0.00     0.037 H 
BRANCH   7  10
ATOM     10  C   LIG d   1       6.315   0.260  -7.848  0.00  0.00    -0.042 A 
ATOM     11  C   LIG d   1       5.354   1.036  -8.467  0.00  0.00    -0.047 A 
ATOM     12  C   LIG d   1       4.016   0.850  -8.168  0.00  0.00     0.055 A 
ATOM     13  H   LIG d   1       5.646   1.786  -9.188  0.00  0.00     0.063 H 
ATOM     14  C   LIG d   1       3.642  -0.107  -7.243  0.00  0.00    -0.050 A 
ATOM     15  C   LIG d   1       4.604  -0.879  -6.620  0.00  0.00    -0.061 A 
ATOM     16  H   LIG d   1       2.599  -0.249  -7.007  0.00  0.00     0.062 H 
ATOM     17  C   LIG d   1       5.941  -0.695  -6.922  0.00  0.00    -0.058 A 
ATOM     18  H   LIG d   1       4.312  -1.625  -5.896  0.00  0.00     0.062 H 
ATOM     19  H   LIG d   1       6.692  -1.299  -6.435  0.00  0.00     0.062 H 
BRANCH  12  20
ATOM     20  C   LIG d   1       2.968   1.691  -8.848  0.00  0.00     0.417 C 
ATOM     21  F   LIG d   1       3.534   2.345  -9.947  0.00  0.00    -0.166 F 
ATOM     22  F   LIG d   1       1.920   0.871  -9.282  0.00  0.00    -0.166 F 
ATOM     23  F   LIG d   1       2.473   2.640  -7.946  0.00  0.00    -0.166 F 
ENDBRANCH  12  20
ENDBRANCH   7  10
ENDBRANCH   1   7
BRANCH   1  24
ATOM     24  N   LIG d   1       9.721   0.123  -6.732  0.00  0.00     0.232 N 
ATOM     25  H   LIG d   1      10.598  -0.181  -7.127  0.00  0.00     0.202 HD
ATOM     26  H   LIG d   1       9.624   1.119  -6.856  0.00  0.00     0.202 HD
BRANCH  24  27
ATOM     27  C   LIG d   1       9.690  -0.198  -5.299  0.00  0.00     0.002 C 
ATOM     28  H   LIG d   1       9.329  -1.217  -5.162  0.00  0.00     0.085 H 
ATOM     29  H   LIG d   1      10.695  -0.112  -4.886  0.00  0.00     0.085 H 
BRANCH  27  30
ATOM     30  C   LIG d   1       8.756   0.775  -4.578  0.00  0.00     0.132 C 
ATOM     31  H   LIG d   1       9.330   1.371  -3.869  0.00  0.00     0.075 H 
ATOM     32  H   LIG d   1       8.285   1.434  -5.309  0.00  0.00     0.075 H 
BRANCH  30  33
ATOM     33  O   LIG d   1       7.750   0.042  -3.879  0.00  0.00    -0.456 OA
BRANCH  33  34
ATOM     34  C   LIG d   1       6.657   0.725  -3.486  0.00  0.00     0.339 C 
ATOM     35  O   LIG d   1       6.705   1.933  -3.371  0.00  0.00    -0.245 OA
BRANCH  34  36
ATOM     36  C   LIG d   1       5.400   0.004  -3.198  0.00  0.00     0.059 A 
ATOM     37  C   LIG d   1       5.419  -1.373  -2.966  0.00  0.00    -0.048 A 
ATOM     38  C   LIG d   1       4.243  -2.039  -2.691  0.00  0.00    -0.061 A 
ATOM     39  H   LIG d   1       6.353  -1.914  -2.999  0.00  0.00     0.063 H 
ATOM     40  C   LIG d   1       3.044  -1.348  -2.656  0.00  0.00    -0.062 A 
ATOM     41  H   LIG d   1       4.256  -3.103  -2.508  0.00  0.00     0.062 H 
ATOM     42  C   LIG d   1       3.018   0.016  -2.889  0.00  0.00    -0.061 A 
ATOM     43  H   LIG d   1       2.125  -1.875  -2.445  0.00  0.00     0.062 H 
ATOM     44  C   LIG d   1       4.187   0.696  -3.160  0.00  0.00    -0.048 A 
ATOM     45  H   LIG d   1       2.080   0.549  -2.860  0.00  0.00     0.062 H 
ATOM     46  H   LIG d   1       4.165   1.760  -3.341  0.00  0.00     0.063 H 
ENDBRANCH  34  36
ENDBRANCH  33  34
ENDBRANCH  30  33
ENDBRANCH  27  30
ENDBRANCH  24  27
ENDBRANCH   1  24
TORSDOF 10
ENDMDL
