MODEL 1
REMARK VINA RESULT:      -6.9      0.000      0.000
REMARK  6 active torsions:
REMARK  status: ('A' for Active; 'I' for Inactive)
REMARK    1  A    between atoms: C_4  and  C_7 
REMARK    2  A    between atoms: C_7  and  C_8 
REMARK    3  A    between atoms: C_10  and  N_25 
REMARK    4  A    between atoms: C_11  and  C_17 
REMARK    5  A    between atoms: C_12  and  N_16 
REMARK    6  A    between atoms: C_18  and  C_19 
ROOT
ATOM      1  C   LIG d   1       3.492   0.355  -6.969  0.00  0.00    -0.046 C 
ATOM      2  C   LIG d   1       3.822  -0.168  -5.706  0.00  0.00     0.073 A 
ATOM      3  C   LIG d   1       5.136  -0.539  -5.427  0.00  0.00     0.291 A 
ATOM      4  C   LIG d   1       5.458  -1.056  -4.173  0.00  0.00     0.073 A 
ATOM      5  C   LIG d   1       4.403  -1.210  -3.144  0.00  0.00     0.040 A 
ATOM      6  C   LIG d   1       3.098  -0.841  -3.426  0.00  0.00    -0.019 A 
ATOM      7  C   LIG d   1       2.774  -0.319  -4.670  0.00  0.00     0.040 A 
ATOM      8  N   LIG d   1       1.490   0.050  -4.941  0.00  0.00    -0.357 N 
ATOM      9  H   LIG d   1       4.077   1.159  -7.391  0.00  0.00     0.063 H 
ATOM     10  H   LIG d   1       2.331  -0.954  -2.675  0.00  0.00     0.066 H 
ATOM     11  H   LIG d   1       1.262   0.410  -5.812  0.00  0.00     0.142 HD
ATOM     12  H   LIG d   1       0.803  -0.050  -4.263  0.00  0.00     0.142 HD
ENDROOT
BRANCH   1  13
ATOM     13  C   LIG d   1       2.418  -0.161  -7.671  0.00  0.00    -0.054 C 
ATOM     14  H   LIG d   1       1.521  -0.456  -7.147  0.00  0.00     0.062 H 
BRANCH  13  15
ATOM     15  C   LIG d   1       2.497  -0.305  -9.124  0.00  0.00    -0.025 A 
ATOM     16  C   LIG d   1       3.558   0.279  -9.835  0.00  0.00    -0.055 A 
ATOM     17  C   LIG d   1       3.625   0.137 -11.203  0.00  0.00    -0.061 A 
ATOM     18  H   LIG d   1       4.321   0.838  -9.312  0.00  0.00     0.062 H 
ATOM     19  C   LIG d   1       2.648  -0.580 -11.878  0.00  0.00    -0.062 A 
ATOM     20  H   LIG d   1       4.439   0.585 -11.752  0.00  0.00     0.062 H 
ATOM     21  C   LIG d   1       1.597  -1.161 -11.185  0.00  0.00    -0.061 A 
ATOM     22  H   LIG d   1       2.706  -0.683 -12.952  0.00  0.00     0.062 H 
ATOM     23  C   LIG d   1       1.512  -1.030  -9.818  0.00  0.00    -0.055 A 
ATOM     24  H   LIG d   1       0.842  -1.718 -11.721  0.00  0.00     0.062 H 
ATOM     25  H   LIG d   1       0.693  -1.483  -9.280  0.00  0.00     0.062 H 
ENDBRANCH  13  15
ENDBRANCH   1  13
BRANCH   3  26
ATOM     26  N   LIG d   1       6.186  -0.384  -6.457  0.00  0.00     0.081 N 
ATOM     27  O   LIG d   1       6.885   0.730  -6.523  0.00  0.00     0.042 OA
ATOM     28  O   LIG d   1       6.422  -1.360  -7.309  0.00  0.00    -0.576 OA
ENDBRANCH   3  26
BRANCH   4  29
ATOM     29  C   LIG d   1       6.781  -1.432  -3.886  0.00  0.00    -0.046 C 
ATOM     30  C   LIG d   1       7.223  -2.704  -4.200  0.00  0.00    -0.054 C 
ATOM     31  H   LIG d   1       6.550  -3.410  -4.665  0.00  0.00     0.062 H 
ATOM     32  H   LIG d   1       7.454  -0.727  -3.420  0.00  0.00     0.063 H 
BRANCH  30  33
ATOM     33  C   LIG d   1       8.599  -3.095  -3.900  0.00  0.00    -0.025 A 
ATOM     34  C   LIG d   1       8.879  -3.894  -2.776  0.00  0.00    -0.055 A 
ATOM     35  C   LIG d   1      10.177  -4.262  -2.507  0.00  0.00    -0.061 A 
ATOM     36  H   LIG d   1       8.077  -4.219  -2.130  0.00  0.00     0.062 H 
ATOM     37  C   LIG d   1      11.208  -3.839  -3.333  0.00  0.00    -0.062 A 
ATOM     38  H   LIG d   1      10.394  -4.878  -1.647  0.00  0.00     0.062 H 
ATOM     39  C   LIG d   1      10.943  -3.047  -4.440  0.00  0.00    -0.061 A 
ATOM     40  H   LIG d   1      12.225  -4.129  -3.111  0.00  0.00     0.062 H 
ATOM     41  C   LIG d   1       9.651  -2.674  -4.731  0.00  0.00    -0.055 A 
ATOM     42  H   LIG d   1      11.753  -2.724  -5.076  0.00  0.00     0.062 H 
ATOM     43  H   LIG d   1       9.447  -2.057  -5.594  0.00  0.00     0.062 H 
ENDBRANCH  30  33
ENDBRANCH   4  29
BRANCH   5  44
ATOM     44  N   LIG d   1       4.717  -1.717  -1.918  0.00  0.00    -0.357 N 
ATOM     45  H   LIG d   1       5.632  -1.681  -1.598  0.00  0.00     0.142 HD
ATOM     46  H   LIG d   1       4.025  -2.111  -1.364  0.00  0.00     0.142 HD
ENDBRANCH   5  44
TORSDOF 6
ENDMDL
MODEL 2
REMARK VINA RESULT:      -6.8      5.087      7.597
REMARK  6 active torsions:
REMARK  status: ('A' for Active; 'I' for Inactive)
REMARK    1  A    between atoms: C_4  and  C_7 
REMARK    2  A    between atoms: C_7  and  C_8 
REMARK    3  A    between atoms: C_10  and  N_25 
REMARK    4  A    between atoms: C_11  and  C_17 
REMARK    5  A    between atoms: C_12  and  N_16 
REMARK    6  A    between atoms: C_18  and  C_19 
ROOT
ATOM      1  C   LIG d   1       6.749  -2.720  -4.680  0.00  0.00    -0.046 C 
ATOM      2  C   LIG d   1       7.368  -3.982  -4.703  0.00  0.00     0.073 A 
ATOM      3  C   LIG d   1       6.688  -5.082  -5.224  0.00  0.00     0.291 A 
ATOM      4  C   LIG d   1       7.306  -6.332  -5.246  0.00  0.00     0.073 A 
ATOM      5  C   LIG d   1       8.681  -6.485  -4.714  0.00  0.00     0.040 A 
ATOM      6  C   LIG d   1       9.352  -5.389  -4.197  0.00  0.00    -0.019 A 
ATOM      7  C   LIG d   1       8.743  -4.143  -4.180  0.00  0.00     0.040 A 
ATOM      8  N   LIG d   1       9.410  -3.065  -3.676  0.00  0.00    -0.357 N 
ATOM      9  H   LIG d   1       6.282  -2.330  -5.573  0.00  0.00     0.063 H 
ATOM     10  H   LIG d   1      10.354  -5.503  -3.811  0.00  0.00     0.066 H 
ATOM     11  H   LIG d   1       8.984  -2.195  -3.660  0.00  0.00     0.142 HD
ATOM     12  H   LIG d   1      10.312  -3.171  -3.333  0.00  0.00     0.142 HD
ENDROOT
BRANCH   1  13
ATOM     13  C   LIG d   1       6.737  -1.978  -3.513  0.00  0.00    -0.054 C 
ATOM     14  H   LIG d   1       7.612  -1.950  -2.882  0.00  0.00     0.062 H 
BRANCH  13  15
ATOM     15  C   LIG d   1       5.539  -1.230  -3.136  0.00  0.00    -0.025 A 
ATOM     16  C   LIG d   1       4.279  -1.854  -3.159  0.00  0.00    -0.055 A 
ATOM     17  C   LIG d   1       3.157  -1.142  -2.801  0.00  0.00    -0.061 A 
ATOM     18  H   LIG d   1       4.192  -2.889  -3.455  0.00  0.00     0.062 H 
ATOM     19  C   LIG d   1       3.266   0.188  -2.420  0.00  0.00    -0.062 A 
ATOM     20  H   LIG d   1       2.189  -1.618  -2.818  0.00  0.00     0.062 H 
ATOM     21  C   LIG d   1       4.504   0.812  -2.394  0.00  0.00    -0.061 A 
ATOM     22  H   LIG d   1       2.380   0.740  -2.145  0.00  0.00     0.062 H 
ATOM     23  C   LIG d   1       5.638   0.118  -2.748  0.00  0.00    -0.055 A 
ATOM     24  H   LIG d   1       4.578   1.848  -2.096  0.00  0.00     0.062 H 
ATOM     25  H   LIG d   1       6.601   0.606  -2.728  0.00  0.00     0.062 H 
ENDBRANCH  13  15
ENDBRANCH   1  13
BRANCH   3  26
ATOM     26  N   LIG d   1       5.315  -4.925  -5.754  0.00  0.00     0.081 N 
ATOM     27  O   LIG d   1       4.279  -5.090  -4.958  0.00  0.00     0.042 OA
ATOM     28  O   LIG d   1       5.129  -4.621  -7.022  0.00  0.00    -0.576 OA
ENDBRANCH   3  26
BRANCH   4  29
ATOM     29  C   LIG d   1       6.626  -7.444  -5.769  0.00  0.00    -0.046 C 
ATOM     30  C   LIG d   1       5.939  -8.296  -4.924  0.00  0.00    -0.054 C 
ATOM     31  H   LIG d   1       5.926  -8.107  -3.861  0.00  0.00     0.062 H 
ATOM     32  H   LIG d   1       6.639  -7.634  -6.832  0.00  0.00     0.063 H 
BRANCH  30  33
ATOM     33  C   LIG d   1       5.233  -9.454  -5.469  0.00  0.00    -0.025 A 
ATOM     34  C   LIG d   1       5.203  -9.676  -6.857  0.00  0.00    -0.055 A 
ATOM     35  C   LIG d   1       4.541 -10.773  -7.359  0.00  0.00    -0.061 A 
ATOM     36  H   LIG d   1       5.701  -8.990  -7.526  0.00  0.00     0.062 H 
ATOM     37  C   LIG d   1       3.894 -11.651  -6.501  0.00  0.00    -0.062 A 
ATOM     38  H   LIG d   1       4.520 -10.948  -8.425  0.00  0.00     0.062 H 
ATOM     39  C   LIG d   1       3.914 -11.438  -5.131  0.00  0.00    -0.061 A 
ATOM     40  H   LIG d   1       3.374 -12.507  -6.905  0.00  0.00     0.062 H 
ATOM     41  C   LIG d   1       4.576 -10.351  -4.609  0.00  0.00    -0.055 A 
ATOM     42  H   LIG d   1       3.409 -12.128  -4.473  0.00  0.00     0.062 H 
ATOM     43  H   LIG d   1       4.590 -10.187  -3.541  0.00  0.00     0.062 H 
ENDBRANCH  30  33
ENDBRANCH   4  29
BRANCH   5  44
ATOM     44  N   LIG d   1       9.286  -7.707  -4.734  0.00  0.00    -0.357 N 
ATOM     45  H   LIG d   1       9.142  -8.307  -5.482  0.00  0.00     0.142 HD
ATOM     46  H   LIG d   1       9.862  -7.975  -4.001  0.00  0.00     0.142 HD
ENDBRANCH   5  44
TORSDOF 6
ENDMDL
MODEL 3
REMARK VINA RESULT:      -6.7      2.760      7.766
REMARK  6 active torsions:
REMARK  status: ('A' for Active; 'I' for Inactive)
REMARK    1  A    between atoms: C_4  and  C_7 
REMARK    2  A    between atoms: C_7  and  C_8 
REMARK    3  A    between atoms: C_10  and  N_25 
REMARK    4  A    between atoms: C_11  and  C_17 
REMARK    5  A    between atoms: C_12  and  N_16 
REMARK    6  A    between atoms: C_18  and  C_19 
ROOT
ATOM      1  C   LIG d   1       7.195  -1.248  -5.509  0.00  0.00    -0.046 C 
ATOM      2  C   LIG d   1       6.271  -2.187  -6.000  0.00  0.00     0.073 A 
ATOM      3  C   LIG d   1       5.359  -1.817  -6.987  0.00  0.00     0.291 A 
ATOM      4  C   LIG d   1       4.445  -2.752  -7.471  0.00  0.00     0.073 A 
ATOM      5  C   LIG d   1       4.447  -4.133  -6.935  0.00  0.00     0.040 A 
ATOM      6  C   LIG d   1       5.356  -4.496  -5.953  0.00  0.00    -0.019 A 
ATOM      7  C   LIG d   1       6.271  -3.571  -5.474  0.00  0.00     0.040 A 
ATOM      8  N   LIG d   1       7.167  -3.935  -4.513  0.00  0.00    -0.357 N 
ATOM      9  H   LIG d   1       7.789  -0.663  -6.196  0.00  0.00     0.063 H 
ATOM     10  H   LIG d   1       5.355  -5.503  -5.565  0.00  0.00     0.066 H 
ATOM     11  H   LIG d   1       7.804  -3.287  -4.174  0.00  0.00     0.142 HD
ATOM     12  H   LIG d   1       7.167  -4.841  -4.167  0.00  0.00     0.142 HD
ENDROOT
BRANCH   1  13
ATOM     13  C   LIG d   1       7.343  -1.072  -4.145  0.00  0.00    -0.054 C 
ATOM     14  H   LIG d   1       8.269  -1.346  -3.663  0.00  0.00     0.062 H 
BRANCH  13  15
ATOM     15  C   LIG d   1       6.245  -0.516  -3.357  0.00  0.00    -0.025 A 
ATOM     16  C   LIG d   1       5.379  -1.368  -2.650  0.00  0.00    -0.055 A 
ATOM     17  C   LIG d   1       4.348  -0.834  -1.910  0.00  0.00    -0.061 A 
ATOM     18  H   LIG d   1       5.522  -2.438  -2.685  0.00  0.00     0.062 H 
ATOM     19  C   LIG d   1       4.163   0.540  -1.861  0.00  0.00    -0.062 A 
ATOM     20  H   LIG d   1       3.682  -1.487  -1.366  0.00  0.00     0.062 H 
ATOM     21  C   LIG d   1       5.011   1.389  -2.554  0.00  0.00    -0.061 A 
ATOM     22  H   LIG d   1       3.349   0.950  -1.281  0.00  0.00     0.062 H 
ATOM     23  C   LIG d   1       6.048   0.876  -3.300  0.00  0.00    -0.055 A 
ATOM     24  H   LIG d   1       4.858   2.457  -2.510  0.00  0.00     0.062 H 
ATOM     25  H   LIG d   1       6.708   1.539  -3.840  0.00  0.00     0.062 H 
ENDBRANCH  13  15
ENDBRANCH   1  13
BRANCH   3  26
ATOM     26  N   LIG d   1       5.360  -0.436  -7.519  0.00  0.00     0.081 N 
ATOM     27  O   LIG d   1       4.608   0.487  -6.957  0.00  0.00     0.042 OA
ATOM     28  O   LIG d   1       6.112  -0.131  -8.557  0.00  0.00    -0.576 OA
ENDBRANCH   3  26
BRANCH   4  29
ATOM     29  C   LIG d   1       3.523  -2.385  -8.466  0.00  0.00    -0.046 C 
ATOM     30  C   LIG d   1       3.792  -2.659  -9.794  0.00  0.00    -0.054 C 
ATOM     31  H   LIG d   1       4.712  -3.155 -10.067  0.00  0.00     0.062 H 
ATOM     32  H   LIG d   1       2.603  -1.889  -8.193  0.00  0.00     0.063 H 
BRANCH  30  33
ATOM     33  C   LIG d   1       2.833  -2.276 -10.828  0.00  0.00    -0.025 A 
ATOM     34  C   LIG d   1       3.028  -2.684 -12.160  0.00  0.00    -0.055 A 
ATOM     35  C   LIG d   1       2.116  -2.324 -13.125  0.00  0.00    -0.061 A 
ATOM     36  H   LIG d   1       3.890  -3.280 -12.423  0.00  0.00     0.062 H 
ATOM     37  C   LIG d   1       1.013  -1.552 -12.790  0.00  0.00    -0.062 A 
ATOM     38  H   LIG d   1       2.262  -2.638 -14.148  0.00  0.00     0.062 H 
ATOM     39  C   LIG d   1       0.814  -1.141 -11.481  0.00  0.00    -0.061 A 
ATOM     40  H   LIG d   1       0.304  -1.270 -13.555  0.00  0.00     0.062 H 
ATOM     41  C   LIG d   1       1.711  -1.496 -10.500  0.00  0.00    -0.055 A 
ATOM     42  H   LIG d   1      -0.048  -0.541 -11.230  0.00  0.00     0.062 H 
ATOM     43  H   LIG d   1       1.554  -1.175  -9.480  0.00  0.00     0.062 H 
ENDBRANCH  30  33
ENDBRANCH   4  29
BRANCH   5  44
ATOM     44  N   LIG d   1       3.553  -5.048  -7.407  0.00  0.00    -0.357 N 
ATOM     45  H   LIG d   1       3.458  -5.185  -8.363  0.00  0.00     0.142 HD
ATOM     46  H   LIG d   1       3.014  -5.565  -6.787  0.00  0.00     0.142 HD
ENDBRANCH   5  44
TORSDOF 6
ENDMDL
MODEL 4
REMARK VINA RESULT:      -6.5      2.620      3.120
REMARK  6 active torsions:
REMARK  status: ('A' for Active; 'I' for Inactive)
REMARK    1  A    between atoms: C_4  and  C_7 
REMARK    2  A    between atoms: C_7  and  C_8 
REMARK    3  A    between atoms: C_10  and  N_25 
REMARK    4  A    between atoms: C_11  and  C_17 
REMARK    5  A    between atoms: C_12  and  N_16 
REMARK    6  A    between atoms: C_18  and  C_19 
ROOT
ATOM      1  C   LIG d   1       4.413   0.314  -7.500  0.00  0.00    -0.046 C 
ATOM      2  C   LIG d   1       4.294  -0.469  -6.339  0.00  0.00     0.073 A 
ATOM      3  C   LIG d   1       4.981  -1.678  -6.239  0.00  0.00     0.291 A 
ATOM      4  C   LIG d   1       4.860  -2.451  -5.085  0.00  0.00     0.073 A 
ATOM      5  C   LIG d   1       4.001  -1.984  -3.971  0.00  0.00     0.040 A 
ATOM      6  C   LIG d   1       3.320  -0.783  -4.075  0.00  0.00    -0.019 A 
ATOM      7  C   LIG d   1       3.443  -0.007  -5.218  0.00  0.00     0.040 A 
ATOM      8  N   LIG d   1       2.776   1.178  -5.313  0.00  0.00    -0.357 N 
ATOM      9  H   LIG d   1       5.390   0.544  -7.899  0.00  0.00     0.063 H 
ATOM     10  H   LIG d   1       2.695  -0.445  -3.261  0.00  0.00     0.066 H 
ATOM     11  H   LIG d   1       2.858   1.718  -6.114  0.00  0.00     0.142 HD
ATOM     12  H   LIG d   1       2.217   1.480  -4.579  0.00  0.00     0.142 HD
ENDROOT
BRANCH   1  13
ATOM     13  C   LIG d   1       3.279   0.788  -8.133  0.00  0.00    -0.054 C 
ATOM     14  H   LIG d   1       2.714   1.597  -7.695  0.00  0.00     0.062 H 
BRANCH  13  15
ATOM     15  C   LIG d   1       2.846   0.195  -9.397  0.00  0.00    -0.025 A 
ATOM     16  C   LIG d   1       1.614  -0.477  -9.477  0.00  0.00    -0.055 A 
ATOM     17  C   LIG d   1       1.214  -1.032 -10.672  0.00  0.00    -0.061 A 
ATOM     18  H   LIG d   1       0.982  -0.557  -8.605  0.00  0.00     0.062 H 
ATOM     19  C   LIG d   1       2.023  -0.930 -11.794  0.00  0.00    -0.062 A 
ATOM     20  H   LIG d   1       0.268  -1.549 -10.736  0.00  0.00     0.062 H 
ATOM     21  C   LIG d   1       3.240  -0.269 -11.726  0.00  0.00    -0.061 A 
ATOM     22  H   LIG d   1       1.704  -1.372 -12.726  0.00  0.00     0.062 H 
ATOM     23  C   LIG d   1       3.658   0.293 -10.541  0.00  0.00    -0.055 A 
ATOM     24  H   LIG d   1       3.862  -0.195 -12.605  0.00  0.00     0.062 H 
ATOM     25  H   LIG d   1       4.606   0.807 -10.489  0.00  0.00     0.062 H 
ENDBRANCH  13  15
ENDBRANCH   1  13
BRANCH   3  26
ATOM     26  N   LIG d   1       5.837  -2.140  -7.354  0.00  0.00     0.081 N 
ATOM     27  O   LIG d   1       7.130  -1.893  -7.338  0.00  0.00     0.042 OA
ATOM     28  O   LIG d   1       5.305  -2.798  -8.364  0.00  0.00    -0.576 OA
ENDBRANCH   3  26
BRANCH   4  29
ATOM     29  C   LIG d   1       5.550  -3.670  -4.979  0.00  0.00    -0.046 C 
ATOM     30  C   LIG d   1       5.030  -4.812  -5.560  0.00  0.00    -0.054 C 
ATOM     31  H   LIG d   1       4.093  -4.767  -6.095  0.00  0.00     0.062 H 
ATOM     32  H   LIG d   1       6.487  -3.716  -4.444  0.00  0.00     0.063 H 
BRANCH  30  33
ATOM     33  C   LIG d   1       5.748  -6.080  -5.449  0.00  0.00    -0.025 A 
ATOM     34  C   LIG d   1       5.038  -7.294  -5.414  0.00  0.00    -0.055 A 
ATOM     35  C   LIG d   1       5.724  -8.483  -5.316  0.00  0.00    -0.061 A 
ATOM     36  H   LIG d   1       3.959  -7.293  -5.469  0.00  0.00     0.062 H 
ATOM     37  C   LIG d   1       7.109  -8.486  -5.239  0.00  0.00    -0.062 A 
ATOM     38  H   LIG d   1       5.182  -9.417  -5.294  0.00  0.00     0.062 H 
ATOM     39  C   LIG d   1       7.817  -7.295  -5.267  0.00  0.00    -0.061 A 
ATOM     40  H   LIG d   1       7.638  -9.424  -5.158  0.00  0.00     0.062 H 
ATOM     41  C   LIG d   1       7.151  -6.095  -5.371  0.00  0.00    -0.055 A 
ATOM     42  H   LIG d   1       8.895  -7.308  -5.207  0.00  0.00     0.062 H 
ATOM     43  H   LIG d   1       7.705  -5.168  -5.393  0.00  0.00     0.062 H 
ENDBRANCH  30  33
ENDBRANCH   4  29
BRANCH   5  44
ATOM     44  N   LIG d   1       3.882  -2.740  -2.842  0.00  0.00    -0.357 N 
ATOM     45  H   LIG d   1       3.069  -3.245  -2.680  0.00  0.00     0.142 HD
ATOM     46  H   LIG d   1       4.610  -2.775  -2.202  0.00  0.00     0.142 HD
ENDBRANCH   5  44
TORSDOF 6
ENDMDL
MODEL 5
REMARK VINA RESULT:      -6.5      2.834      7.322
REMARK  6 active torsions:
REMARK  status: ('A' for Active; 'I' for Inactive)
REMARK    1  A    between atoms: C_4  and  C_7 
REMARK    2  A    between atoms: C_7  and  C_8 
REMARK    3  A    between atoms: C_10  and  N_25 
REMARK    4  A    between atoms: C_11  and  C_17 
REMARK    5  A    between atoms: C_12  and  N_16 
REMARK    6  A    between atoms: C_18  and  C_19 
ROOT
ATOM      1  C   LIG d   1       7.305   0.126  -4.247  0.00  0.00    -0.046 C 
ATOM      2  C   LIG d   1       5.924   0.077  -4.505  0.00  0.00     0.073 A 
ATOM      3  C   LIG d   1       5.462  -0.330  -5.755  0.00  0.00     0.291 A 
ATOM      4  C   LIG d   1       4.091  -0.378  -6.006  0.00  0.00     0.073 A 
ATOM      5  C   LIG d   1       3.133   0.004  -4.942  0.00  0.00     0.040 A 
ATOM      6  C   LIG d   1       3.597   0.408  -3.701  0.00  0.00    -0.019 A 
ATOM      7  C   LIG d   1       4.959   0.451  -3.446  0.00  0.00     0.040 A 
ATOM      8  N   LIG d   1       5.411   0.843  -2.220  0.00  0.00    -0.357 N 
ATOM      9  H   LIG d   1       7.930  -0.722  -4.484  0.00  0.00     0.063 H 
ATOM     10  H   LIG d   1       2.896   0.686  -2.928  0.00  0.00     0.066 H 
ATOM     11  H   LIG d   1       6.363   0.878  -2.043  0.00  0.00     0.142 HD
ATOM     12  H   LIG d   1       4.778   1.089  -1.527  0.00  0.00     0.142 HD
ENDROOT
BRANCH   1  13
ATOM     13  C   LIG d   1       7.864   1.262  -3.691  0.00  0.00    -0.054 C 
ATOM     14  H   LIG d   1       7.813   1.423  -2.625  0.00  0.00     0.062 H 
BRANCH  13  15
ATOM     15  C   LIG d   1       8.525   2.245  -4.548  0.00  0.00    -0.025 A 
ATOM     16  C   LIG d   1       8.753   1.961  -5.905  0.00  0.00    -0.055 A 
ATOM     17  C   LIG d   1       9.375   2.893  -6.704  0.00  0.00    -0.061 A 
ATOM     18  H   LIG d   1       8.439   1.014  -6.321  0.00  0.00     0.062 H 
ATOM     19  C   LIG d   1       9.777   4.110  -6.173  0.00  0.00    -0.062 A 
ATOM     20  H   LIG d   1       9.550   2.677  -7.747  0.00  0.00     0.062 H 
ATOM     21  C   LIG d   1       9.557   4.400  -4.836  0.00  0.00    -0.061 A 
ATOM     22  H   LIG d   1      10.268   4.834  -6.806  0.00  0.00     0.062 H 
ATOM     23  C   LIG d   1       8.937   3.482  -4.020  0.00  0.00    -0.055 A 
ATOM     24  H   LIG d   1       9.874   5.351  -4.432  0.00  0.00     0.062 H 
ATOM     25  H   LIG d   1       8.767   3.710  -2.978  0.00  0.00     0.062 H 
ENDBRANCH  13  15
ENDBRANCH   1  13
BRANCH   3  26
ATOM     26  N   LIG d   1       6.423  -0.711  -6.814  0.00  0.00     0.081 N 
ATOM     27  O   LIG d   1       6.909  -1.934  -6.855  0.00  0.00     0.042 OA
ATOM     28  O   LIG d   1       6.793   0.175  -7.717  0.00  0.00    -0.576 OA
ENDBRANCH   3  26
BRANCH   4  29
ATOM     29  C   LIG d   1       3.620  -0.787  -7.264  0.00  0.00    -0.046 C 
ATOM     30  C   LIG d   1       3.354   0.153  -8.243  0.00  0.00    -0.054 C 
ATOM     31  H   LIG d   1       3.507   1.203  -8.039  0.00  0.00     0.062 H 
ATOM     32  H   LIG d   1       3.466  -1.836  -7.469  0.00  0.00     0.063 H 
BRANCH  30  33
ATOM     33  C   LIG d   1       2.862  -0.273  -9.552  0.00  0.00    -0.025 A 
ATOM     34  C   LIG d   1       1.531  -0.702  -9.703  0.00  0.00    -0.055 A 
ATOM     35  C   LIG d   1       1.076  -1.094 -10.941  0.00  0.00    -0.061 A 
ATOM     36  H   LIG d   1       0.868  -0.720  -8.850  0.00  0.00     0.062 H 
ATOM     37  C   LIG d   1       1.929  -1.078 -12.035  0.00  0.00    -0.062 A 
ATOM     38  H   LIG d   1       0.054  -1.420 -11.060  0.00  0.00     0.062 H 
ATOM     39  C   LIG d   1       3.245  -0.662 -11.895  0.00  0.00    -0.061 A 
ATOM     40  H   LIG d   1       1.565  -1.392 -13.002  0.00  0.00     0.062 H 
ATOM     41  C   LIG d   1       3.717  -0.259 -10.667  0.00  0.00    -0.055 A 
ATOM     42  H   LIG d   1       3.899  -0.652 -12.753  0.00  0.00     0.062 H 
ATOM     43  H   LIG d   1       4.742   0.065 -10.561  0.00  0.00     0.062 H 
ENDBRANCH  30  33
ENDBRANCH   4  29
BRANCH   5  44
ATOM     44  N   LIG d   1       1.792  -0.042  -5.187  0.00  0.00    -0.357 N 
ATOM     45  H   LIG d   1       1.200  -0.493  -4.564  0.00  0.00     0.142 HD
ATOM     46  H   LIG d   1       1.429   0.379  -5.982  0.00  0.00     0.142 HD
ENDBRANCH   5  44
TORSDOF 6
ENDMDL
MODEL 6
REMARK VINA RESULT:      -6.5      2.812      7.666
REMARK  6 active torsions:
REMARK  status: ('A' for Active; 'I' for Inactive)
REMARK    1  A    between atoms: C_4  and  C_7 
REMARK    2  A    between atoms: C_7  and  C_8 
REMARK    3  A    between atoms: C_10  and  N_25 
REMARK    4  A    between atoms: C_11  and  C_17 
REMARK    5  A    between atoms: C_12  and  N_16 
REMARK    6  A    between atoms: C_18  and  C_19 
ROOT
ATOM      1  C   LIG d   1       7.456   0.334  -5.487  0.00  0.00    -0.046 C 
ATOM      2  C   LIG d   1       7.243  -0.797  -6.295  0.00  0.00     0.073 A 
ATOM      3  C   LIG d   1       6.243  -0.783  -7.265  0.00  0.00     0.291 A 
ATOM      4  C   LIG d   1       6.036  -1.907  -8.063  0.00  0.00     0.073 A 
ATOM      5  C   LIG d   1       6.880  -3.111  -7.877  0.00  0.00     0.040 A 
ATOM      6  C   LIG d   1       7.873  -3.120  -6.911  0.00  0.00    -0.019 A 
ATOM      7  C   LIG d   1       8.087  -2.002  -6.119  0.00  0.00     0.040 A 
ATOM      8  N   LIG d   1       9.069  -2.014  -5.174  0.00  0.00    -0.357 N 
ATOM      9  H   LIG d   1       7.555   1.310  -5.939  0.00  0.00     0.063 H 
ATOM     10  H   LIG d   1       8.487  -3.999  -6.777  0.00  0.00     0.066 H 
ATOM     11  H   LIG d   1       9.216  -1.234  -4.617  0.00  0.00     0.142 HD
ATOM     12  H   LIG d   1       9.621  -2.803  -5.058  0.00  0.00     0.142 HD
ENDROOT
BRANCH   1  13
ATOM     13  C   LIG d   1       7.537   0.197  -4.113  0.00  0.00    -0.054 C 
ATOM     14  H   LIG d   1       8.494   0.265  -3.619  0.00  0.00     0.062 H 
BRANCH  13  15
ATOM     15  C   LIG d   1       6.325  -0.040  -3.330  0.00  0.00    -0.025 A 
ATOM     16  C   LIG d   1       5.600   1.043  -2.805  0.00  0.00    -0.055 A 
ATOM     17  C   LIG d   1       4.460   0.810  -2.070  0.00  0.00    -0.061 A 
ATOM     18  H   LIG d   1       5.934   2.056  -2.978  0.00  0.00     0.062 H 
ATOM     19  C   LIG d   1       4.027  -0.489  -1.847  0.00  0.00    -0.062 A 
ATOM     20  H   LIG d   1       3.901   1.640  -1.666  0.00  0.00     0.062 H 
ATOM     21  C   LIG d   1       4.735  -1.564  -2.360  0.00  0.00    -0.061 A 
ATOM     22  H   LIG d   1       3.134  -0.663  -1.265  0.00  0.00     0.062 H 
ATOM     23  C   LIG d   1       5.878  -1.353  -3.098  0.00  0.00    -0.055 A 
ATOM     24  H   LIG d   1       4.390  -2.572  -2.181  0.00  0.00     0.062 H 
ATOM     25  H   LIG d   1       6.429  -2.192  -3.497  0.00  0.00     0.062 H 
ENDBRANCH  13  15
ENDBRANCH   1  13
BRANCH   3  26
ATOM     26  N   LIG d   1       5.402   0.421  -7.447  0.00  0.00     0.081 N 
ATOM     27  O   LIG d   1       5.791   1.378  -8.263  0.00  0.00     0.042 OA
ATOM     28  O   LIG d   1       4.264   0.535  -6.793  0.00  0.00    -0.576 OA
ENDBRANCH   3  26
BRANCH   4  29
ATOM     29  C   LIG d   1       5.029  -1.899  -9.043  0.00  0.00    -0.046 C 
ATOM     30  C   LIG d   1       3.746  -2.301  -8.720  0.00  0.00    -0.054 C 
ATOM     31  H   LIG d   1       3.518  -2.622  -7.714  0.00  0.00     0.062 H 
ATOM     32  H   LIG d   1       5.256  -1.578 -10.049  0.00  0.00     0.063 H 
BRANCH  30  33
ATOM     33  C   LIG d   1       2.699  -2.293  -9.739  0.00  0.00    -0.025 A 
ATOM     34  C   LIG d   1       2.276  -1.080 -10.311  0.00  0.00    -0.055 A 
ATOM     35  C   LIG d   1       1.294  -1.084 -11.275  0.00  0.00    -0.061 A 
ATOM     36  H   LIG d   1       2.725  -0.148  -9.998  0.00  0.00     0.062 H 
ATOM     37  C   LIG d   1       0.713  -2.280 -11.674  0.00  0.00    -0.062 A 
ATOM     38  H   LIG d   1       0.971  -0.155 -11.719  0.00  0.00     0.062 H 
ATOM     39  C   LIG d   1       1.119  -3.481 -11.112  0.00  0.00    -0.061 A 
ATOM     40  H   LIG d   1      -0.060  -2.274 -12.428  0.00  0.00     0.062 H 
ATOM     41  C   LIG d   1       2.104  -3.498 -10.152  0.00  0.00    -0.055 A 
ATOM     42  H   LIG d   1       0.661  -4.405 -11.430  0.00  0.00     0.062 H 
ATOM     43  H   LIG d   1       2.419  -4.435  -9.715  0.00  0.00     0.062 H 
ENDBRANCH  30  33
ENDBRANCH   4  29
BRANCH   5  44
ATOM     44  N   LIG d   1       6.678  -4.211  -8.657  0.00  0.00    -0.357 N 
ATOM     45  H   LIG d   1       5.966  -4.834  -8.442  0.00  0.00     0.142 HD
ATOM     46  H   LIG d   1       7.245  -4.370  -9.428  0.00  0.00     0.142 HD
ENDBRANCH   5  44
TORSDOF 6
ENDMDL
MODEL 7
REMARK VINA RESULT:      -6.4      4.386      7.276
REMARK  6 active torsions:
REMARK  status: ('A' for Active; 'I' for Inactive)
REMARK    1  A    between atoms: C_4  and  C_7 
REMARK    2  A    between atoms: C_7  and  C_8 
REMARK    3  A    between atoms: C_10  and  N_25 
REMARK    4  A    between atoms: C_11  and  C_17 
REMARK    5  A    between atoms: C_12  and  N_16 
REMARK    6  A    between atoms: C_18  and  C_19 
ROOT
ATOM      1  C   LIG d   1       7.614  -1.311  -4.135  0.00  0.00    -0.046 C 
ATOM      2  C   LIG d   1       7.417  -0.905  -5.467  0.00  0.00     0.073 A 
ATOM      3  C   LIG d   1       7.702   0.406  -5.845  0.00  0.00     0.291 A 
ATOM      4  C   LIG d   1       7.506   0.804  -7.166  0.00  0.00     0.073 A 
ATOM      5  C   LIG d   1       6.995  -0.167  -8.162  0.00  0.00     0.040 A 
ATOM      6  C   LIG d   1       6.712  -1.468  -7.781  0.00  0.00    -0.019 A 
ATOM      7  C   LIG d   1       6.912  -1.871  -6.469  0.00  0.00     0.040 A 
ATOM      8  N   LIG d   1       6.638  -3.154  -6.101  0.00  0.00    -0.357 N 
ATOM      9  H   LIG d   1       8.550  -1.103  -3.639  0.00  0.00     0.063 H 
ATOM     10  H   LIG d   1       6.339  -2.174  -8.509  0.00  0.00     0.066 H 
ATOM     11  H   LIG d   1       6.774  -3.435  -5.182  0.00  0.00     0.142 HD
ATOM     12  H   LIG d   1       6.307  -3.787  -6.758  0.00  0.00     0.142 HD
ENDROOT
BRANCH   1  13
ATOM     13  C   LIG d   1       6.607  -1.978  -3.460  0.00  0.00    -0.054 C 
ATOM     14  H   LIG d   1       6.736  -3.012  -3.182  0.00  0.00     0.062 H 
BRANCH  13  15
ATOM     15  C   LIG d   1       5.367  -1.279  -3.123  0.00  0.00    -0.025 A 
ATOM     16  C   LIG d   1       5.412  -0.035  -2.471  0.00  0.00    -0.055 A 
ATOM     17  C   LIG d   1       4.240   0.615  -2.158  0.00  0.00    -0.061 A 
ATOM     18  H   LIG d   1       6.363   0.411  -2.216  0.00  0.00     0.062 H 
ATOM     19  C   LIG d   1       3.018   0.046  -2.485  0.00  0.00    -0.062 A 
ATOM     20  H   LIG d   1       4.271   1.571  -1.658  0.00  0.00     0.062 H 
ATOM     21  C   LIG d   1       2.963  -1.180  -3.129  0.00  0.00    -0.061 A 
ATOM     22  H   LIG d   1       2.103   0.561  -2.232  0.00  0.00     0.062 H 
ATOM     23  C   LIG d   1       4.123  -1.847  -3.450  0.00  0.00    -0.055 A 
ATOM     24  H   LIG d   1       2.006  -1.615  -3.379  0.00  0.00     0.062 H 
ATOM     25  H   LIG d   1       4.079  -2.803  -3.951  0.00  0.00     0.062 H 
ENDBRANCH  13  15
ENDBRANCH   1  13
BRANCH   3  26
ATOM     26  N   LIG d   1       8.213   1.372  -4.847  0.00  0.00     0.081 N 
ATOM     27  O   LIG d   1       9.503   1.434  -4.589  0.00  0.00     0.042 OA
ATOM     28  O   LIG d   1       7.377   2.171  -4.216  0.00  0.00    -0.576 OA
ENDBRANCH   3  26
BRANCH   4  29
ATOM     29  C   LIG d   1       7.792   2.124  -7.553  0.00  0.00    -0.046 C 
ATOM     30  C   LIG d   1       9.080   2.476  -7.913  0.00  0.00    -0.054 C 
ATOM     31  H   LIG d   1       9.867   1.737  -7.894  0.00  0.00     0.062 H 
ATOM     32  H   LIG d   1       7.006   2.864  -7.572  0.00  0.00     0.063 H 
BRANCH  30  33
ATOM     33  C   LIG d   1       9.378   3.850  -8.314  0.00  0.00    -0.025 A 
ATOM     34  C   LIG d   1       8.678   4.443  -9.381  0.00  0.00    -0.055 A 
ATOM     35  C   LIG d   1       8.962   5.739  -9.747  0.00  0.00    -0.061 A 
ATOM     36  H   LIG d   1       7.919   3.884  -9.908  0.00  0.00     0.062 H 
ATOM     37  C   LIG d   1       9.941   6.456  -9.074  0.00  0.00    -0.062 A 
ATOM     38  H   LIG d   1       8.423   6.198 -10.562  0.00  0.00     0.062 H 
ATOM     39  C   LIG d   1      10.640   5.878  -8.025  0.00  0.00    -0.061 A 
ATOM     40  H   LIG d   1      10.160   7.471  -9.371  0.00  0.00     0.062 H 
ATOM     41  C   LIG d   1      10.367   4.586  -7.639  0.00  0.00    -0.055 A 
ATOM     42  H   LIG d   1      11.399   6.445  -7.508  0.00  0.00     0.062 H 
ATOM     43  H   LIG d   1      10.913   4.138  -6.821  0.00  0.00     0.062 H 
ENDBRANCH  30  33
ENDBRANCH   4  29
BRANCH   5  44
ATOM     44  N   LIG d   1       6.802   0.222  -9.455  0.00  0.00    -0.357 N 
ATOM     45  H   LIG d   1       6.614   1.152  -9.659  0.00  0.00     0.142 HD
ATOM     46  H   LIG d   1       6.855  -0.431 -10.171  0.00  0.00     0.142 HD
ENDBRANCH   5  44
TORSDOF 6
ENDMDL
MODEL 8
REMARK VINA RESULT:      -6.4      5.498      7.467
REMARK  6 active torsions:
REMARK  status: ('A' for Active; 'I' for Inactive)
REMARK    1  A    between atoms: C_4  and  C_7 
REMARK    2  A    between atoms: C_7  and  C_8 
REMARK    3  A    between atoms: C_10  and  N_25 
REMARK    4  A    between atoms: C_11  and  C_17 
REMARK    5  A    between atoms: C_12  and  N_16 
REMARK    6  A    between atoms: C_18  and  C_19 
ROOT
ATOM      1  C   LIG d   1      10.652   2.121  -8.208  0.00  0.00    -0.046 C 
ATOM      2  C   LIG d   1      10.459   2.314  -6.829  0.00  0.00     0.073 A 
ATOM      3  C   LIG d   1       9.248   1.959  -6.238  0.00  0.00     0.291 A 
ATOM      4  C   LIG d   1       9.062   2.152  -4.869  0.00  0.00     0.073 A 
ATOM      5  C   LIG d   1      10.151   2.734  -4.051  0.00  0.00     0.040 A 
ATOM      6  C   LIG d   1      11.353   3.086  -4.643  0.00  0.00    -0.019 A 
ATOM      7  C   LIG d   1      11.545   2.889  -6.002  0.00  0.00     0.040 A 
ATOM      8  N   LIG d   1      12.732   3.231  -6.580  0.00  0.00    -0.357 N 
ATOM      9  H   LIG d   1      10.420   1.166  -8.658  0.00  0.00     0.063 H 
ATOM     10  H   LIG d   1      12.145   3.509  -4.044  0.00  0.00     0.066 H 
ATOM     11  H   LIG d   1      12.865   3.098  -7.531  0.00  0.00     0.142 HD
ATOM     12  H   LIG d   1      13.443   3.608  -6.038  0.00  0.00     0.142 HD
ENDROOT
BRANCH   1  13
ATOM     13  C   LIG d   1      11.136   3.154  -8.989  0.00  0.00    -0.054 C 
ATOM     14  H   LIG d   1      12.053   3.026  -9.545  0.00  0.00     0.062 H 
BRANCH  13  15
ATOM     15  C   LIG d   1      10.406   4.418  -9.063  0.00  0.00    -0.025 A 
ATOM     16  C   LIG d   1       9.123   4.461  -9.634  0.00  0.00    -0.055 A 
ATOM     17  C   LIG d   1       8.443   5.656  -9.699  0.00  0.00    -0.061 A 
ATOM     18  H   LIG d   1       8.670   3.560 -10.021  0.00  0.00     0.062 H 
ATOM     19  C   LIG d   1       9.021   6.816  -9.202  0.00  0.00    -0.062 A 
ATOM     20  H   LIG d   1       7.457   5.692 -10.137  0.00  0.00     0.062 H 
ATOM     21  C   LIG d   1      10.286   6.784  -8.636  0.00  0.00    -0.061 A 
ATOM     22  H   LIG d   1       8.482   7.749  -9.260  0.00  0.00     0.062 H 
ATOM     23  C   LIG d   1      10.983   5.599  -8.562  0.00  0.00    -0.055 A 
ATOM     24  H   LIG d   1      10.726   7.692  -8.252  0.00  0.00     0.062 H 
ATOM     25  H   LIG d   1      11.968   5.576  -8.121  0.00  0.00     0.062 H 
ENDBRANCH  13  15
ENDBRANCH   1  13
BRANCH   3  26
ATOM     26  N   LIG d   1       8.162   1.378  -7.059  0.00  0.00     0.081 N 
ATOM     27  O   LIG d   1       8.079   0.073  -7.214  0.00  0.00     0.042 OA
ATOM     28  O   LIG d   1       7.278   2.167  -7.635  0.00  0.00    -0.576 OA
ENDBRANCH   3  26
BRANCH   4  29
ATOM     29  C   LIG d   1       7.843   1.796  -4.268  0.00  0.00    -0.046 C 
ATOM     30  C   LIG d   1       7.639   0.500  -3.832  0.00  0.00    -0.054 C 
ATOM     31  H   LIG d   1       8.416  -0.240  -3.956  0.00  0.00     0.062 H 
ATOM     32  H   LIG d   1       7.065   2.535  -4.144  0.00  0.00     0.063 H 
BRANCH  30  33
ATOM     33  C   LIG d   1       6.370   0.129  -3.208  0.00  0.00    -0.025 A 
ATOM     34  C   LIG d   1       5.995  -1.223  -3.115  0.00  0.00    -0.055 A 
ATOM     35  C   LIG d   1       4.802  -1.562  -2.519  0.00  0.00    -0.061 A 
ATOM     36  H   LIG d   1       6.643  -1.993  -3.508  0.00  0.00     0.062 H 
ATOM     37  C   LIG d   1       3.965  -0.573  -2.021  0.00  0.00    -0.062 A 
ATOM     38  H   LIG d   1       4.513  -2.599  -2.443  0.00  0.00     0.062 H 
ATOM     39  C   LIG d   1       4.324   0.763  -2.111  0.00  0.00    -0.061 A 
ATOM     40  H   LIG d   1       3.029  -0.847  -1.558  0.00  0.00     0.062 H 
ATOM     41  C   LIG d   1       5.516   1.122  -2.698  0.00  0.00    -0.055 A 
ATOM     42  H   LIG d   1       3.667   1.524  -1.720  0.00  0.00     0.062 H 
ATOM     43  H   LIG d   1       5.793   2.164  -2.767  0.00  0.00     0.062 H 
ENDBRANCH  30  33
ENDBRANCH   4  29
BRANCH   5  44
ATOM     44  N   LIG d   1       9.970   2.924  -2.712  0.00  0.00    -0.357 N 
ATOM     45  H   LIG d   1      10.726   3.146  -2.147  0.00  0.00     0.142 HD
ATOM     46  H   LIG d   1       9.084   2.839  -2.326  0.00  0.00     0.142 HD
ENDBRANCH   5  44
TORSDOF 6
ENDMDL
MODEL 9
REMARK VINA RESULT:      -6.4      5.588      7.145
REMARK  6 active torsions:
REMARK  status: ('A' for Active; 'I' for Inactive)
REMARK    1  A    between atoms: C_4  and  C_7 
REMARK    2  A    between atoms: C_7  and  C_8 
REMARK    3  A    between atoms: C_10  and  N_25 
REMARK    4  A    between atoms: C_11  and  C_17 
REMARK    5  A    between atoms: C_12  and  N_16 
REMARK    6  A    between atoms: C_18  and  C_19 
ROOT
ATOM      1  C   LIG d   1       9.680   3.576  -8.318  0.00  0.00    -0.046 C 
ATOM      2  C   LIG d   1       9.694   3.442  -6.918  0.00  0.00     0.073 A 
ATOM      3  C   LIG d   1       8.942   2.441  -6.307  0.00  0.00     0.291 A 
ATOM      4  C   LIG d   1       8.959   2.311  -4.918  0.00  0.00     0.073 A 
ATOM      5  C   LIG d   1       9.776   3.238  -4.100  0.00  0.00     0.040 A 
ATOM      6  C   LIG d   1      10.522   4.232  -4.713  0.00  0.00    -0.019 A 
ATOM      7  C   LIG d   1      10.513   4.360  -6.094  0.00  0.00     0.040 A 
ATOM      8  N   LIG d   1      11.253   5.336  -6.693  0.00  0.00    -0.357 N 
ATOM      9  H   LIG d   1       9.849   2.714  -8.945  0.00  0.00     0.063 H 
ATOM     10  H   LIG d   1      11.116   4.906  -4.114  0.00  0.00     0.066 H 
ATOM     11  H   LIG d   1      11.244   5.429  -7.658  0.00  0.00     0.142 HD
ATOM     12  H   LIG d   1      11.790   5.938  -6.152  0.00  0.00     0.142 HD
ENDROOT
BRANCH   1  13
ATOM     13  C   LIG d   1       9.450   4.814  -8.891  0.00  0.00    -0.054 C 
ATOM     14  H   LIG d   1       9.184   5.656  -8.269  0.00  0.00     0.062 H 
BRANCH  13  15
ATOM     15  C   LIG d   1       9.566   4.981 -10.338  0.00  0.00    -0.025 A 
ATOM     16  C   LIG d   1      10.260   4.030 -11.106  0.00  0.00    -0.055 A 
ATOM     17  C   LIG d   1      10.363   4.196 -12.469  0.00  0.00    -0.061 A 
ATOM     18  H   LIG d   1      10.709   3.171 -10.630  0.00  0.00     0.062 H 
ATOM     19  C   LIG d   1       9.787   5.298 -13.084  0.00  0.00    -0.062 A 
ATOM     20  H   LIG d   1      10.895   3.467 -13.061  0.00  0.00     0.062 H 
ATOM     21  C   LIG d   1       9.101   6.241 -12.335  0.00  0.00    -0.061 A 
ATOM     22  H   LIG d   1       9.876   5.422 -14.153  0.00  0.00     0.062 H 
ATOM     23  C   LIG d   1       8.985   6.095 -10.972  0.00  0.00    -0.055 A 
ATOM     24  H   LIG d   1       8.655   7.096 -12.824  0.00  0.00     0.062 H 
ATOM     25  H   LIG d   1       8.451   6.831 -10.390  0.00  0.00     0.062 H 
ENDBRANCH  13  15
ENDBRANCH   1  13
BRANCH   3  26
ATOM     26  N   LIG d   1       8.127   1.518  -7.127  0.00  0.00     0.081 N 
ATOM     27  O   LIG d   1       6.883   1.828  -7.429  0.00  0.00     0.042 OA
ATOM     28  O   LIG d   1       8.645   0.384  -7.554  0.00  0.00    -0.576 OA
ENDBRANCH   3  26
BRANCH   4  29
ATOM     29  C   LIG d   1       8.202   1.304  -4.296  0.00  0.00    -0.046 C 
ATOM     30  C   LIG d   1       6.904   1.562  -3.895  0.00  0.00    -0.054 C 
ATOM     31  H   LIG d   1       6.472   2.538  -4.060  0.00  0.00     0.062 H 
ATOM     32  H   LIG d   1       8.634   0.328  -4.131  0.00  0.00     0.063 H 
BRANCH  30  33
ATOM     33  C   LIG d   1       6.118   0.514  -3.247  0.00  0.00    -0.025 A 
ATOM     34  C   LIG d   1       5.127   0.852  -2.308  0.00  0.00    -0.055 A 
ATOM     35  C   LIG d   1       4.387  -0.142  -1.708  0.00  0.00    -0.061 A 
ATOM     36  H   LIG d   1       4.945   1.888  -2.061  0.00  0.00     0.062 H 
ATOM     37  C   LIG d   1       4.625  -1.473  -2.019  0.00  0.00    -0.062 A 
ATOM     38  H   LIG d   1       3.623   0.115  -0.990  0.00  0.00     0.062 H 
ATOM     39  C   LIG d   1       5.603  -1.816  -2.940  0.00  0.00    -0.061 A 
ATOM     40  H   LIG d   1       4.043  -2.246  -1.540  0.00  0.00     0.062 H 
ATOM     41  C   LIG d   1       6.349  -0.838  -3.555  0.00  0.00    -0.055 A 
ATOM     42  H   LIG d   1       5.779  -2.855  -3.175  0.00  0.00     0.062 H 
ATOM     43  H   LIG d   1       7.111  -1.108  -4.272  0.00  0.00     0.062 H 
ENDBRANCH  30  33
ENDBRANCH   4  29
BRANCH   5  44
ATOM     44  N   LIG d   1       9.793   3.113  -2.743  0.00  0.00    -0.357 N 
ATOM     45  H   LIG d   1      10.049   2.270  -2.337  0.00  0.00     0.142 HD
ATOM     46  H   LIG d   1       9.553   3.868  -2.183  0.00  0.00     0.142 HD
ENDBRANCH   5  44
TORSDOF 6
ENDMDL
