MODEL 1
REMARK VINA RESULT:      -6.1      0.000      0.000
REMARK  6 active torsions:
REMARK  status: ('A' for Active; 'I' for Inactive)
REMARK    1  A    between atoms: C_1  and  C_2 
REMARK    2  A    between atoms: C_8  and  C_27 
REMARK    3  A    between atoms: C_20  and  O_26 
REMARK    4  A    between atoms: C_22  and  C_23 
REMARK    5  A    between atoms: C_22  and  C_24 
REMARK    6  A    between atoms: C_24  and  O_25 
ROOT
ATOM      1  C   LIG d   1       7.034  -1.466  -6.076  0.00  0.00    -0.014 C 
ATOM      2  H   LIG d   1       7.549  -2.246  -6.678  0.00  0.00     0.033 H 
ATOM      3  C   LIG d   1       5.761  -1.099  -6.824  0.00  0.00    -0.048 C 
ATOM      4  C   LIG d   1       4.841  -0.234  -5.965  0.00  0.00    -0.049 C 
ATOM      5  C   LIG d   1       4.452  -0.960  -4.671  0.00  0.00    -0.023 C 
ATOM      6  H   LIG d   1       3.962  -1.904  -4.949  0.00  0.00     0.031 H 
ATOM      7  C   LIG d   1       5.721  -1.288  -3.890  0.00  0.00     0.001 C 
ATOM      8  C   LIG d   1       6.712  -2.083  -4.727  0.00  0.00     0.079 C 
ATOM      9  C   LIG d   1       6.206  -3.526  -4.991  0.00  0.00    -0.020 C 
ATOM     10  C   LIG d   1       7.549  -4.228  -5.356  0.00  0.00    -0.019 C 
ATOM     11  C   LIG d   1       8.568  -3.458  -4.504  0.00  0.00     0.096 C 
ATOM     12  O   LIG d   1       7.928  -2.298  -3.978  0.00  0.00    -0.364 OA
ATOM     13  C   LIG d   1       9.823  -3.117  -5.317  0.00  0.00     0.002 C 
ATOM     14  C   LIG d   1      10.922  -4.027  -4.719  0.00  0.00     0.051 C 
ATOM     15  O   LIG d   1      10.222  -5.035  -3.957  0.00  0.00    -0.377 OA
ATOM     16  C   LIG d   1       9.091  -4.355  -3.366  0.00  0.00     0.077 C 
ATOM     17  C   LIG d   1       6.348   0.012  -3.377  0.00  0.00    -0.042 C 
ATOM     18  C   LIG d   1       5.363   0.717  -2.442  0.00  0.00    -0.026 C 
ATOM     19  C   LIG d   1       4.106   1.092  -3.217  0.00  0.00     0.063 C 
ATOM     20  H   LIG d   1       4.366   1.833  -3.982  0.00  0.00     0.060 H 
ATOM     21  C   LIG d   1       3.457  -0.110  -3.893  0.00  0.00     0.020 C 
ATOM     22  H   LIG d   1       6.018  -0.550  -7.736  0.00  0.00     0.027 H 
ATOM     23  H   LIG d   1       5.228  -2.010  -7.115  0.00  0.00     0.027 H 
ATOM     24  H   LIG d   1       5.328   0.707  -5.725  0.00  0.00     0.027 H 
ATOM     25  H   LIG d   1       3.961  -0.031  -6.581  0.00  0.00     0.027 H 
ATOM     26  H   LIG d   1       5.764  -4.014  -4.137  0.00  0.00     0.029 H 
ATOM     27  H   LIG d   1       5.528  -3.540  -5.847  0.00  0.00     0.029 H 
ATOM     28  H   LIG d   1       7.762  -4.118  -6.415  0.00  0.00     0.029 H 
ATOM     29  H   LIG d   1       7.517  -5.277  -5.068  0.00  0.00     0.029 H 
ATOM     30  H   LIG d   1       9.674  -3.342  -6.373  0.00  0.00     0.032 H 
ATOM     31  H   LIG d   1      10.094  -2.068  -5.186  0.00  0.00     0.032 H 
ATOM     32  H   LIG d   1      11.501  -4.492  -5.517  0.00  0.00     0.056 H 
ATOM     33  H   LIG d   1      11.579  -3.449  -4.067  0.00  0.00     0.056 H 
ATOM     34  H   LIG d   1       9.408  -3.746  -2.521  0.00  0.00     0.059 H 
ATOM     35  H   LIG d   1       8.327  -5.068  -3.063  0.00  0.00     0.059 H 
ATOM     36  H   LIG d   1       6.545   0.689  -4.207  0.00  0.00     0.027 H 
ATOM     37  H   LIG d   1       7.268  -0.208  -2.843  0.00  0.00     0.027 H 
ATOM     38  H   LIG d   1       5.839   1.643  -2.082  0.00  0.00     0.029 H 
ATOM     39  H   LIG d   1       5.125   0.116  -1.575  0.00  0.00     0.029 H 
ENDROOT
BRANCH   1  40
ATOM     40  C   LIG d   1       7.987  -0.284  -5.979  0.00  0.00    -0.060 C 
ATOM     41  H   LIG d   1       8.154  -0.038  -4.930  0.00  0.00     0.023 H 
ATOM     42  H   LIG d   1       8.937  -0.543  -6.447  0.00  0.00     0.023 H 
ATOM     43  H   LIG d   1       7.552   0.576  -6.489  0.00  0.00     0.023 H 
ENDBRANCH   1  40
BRANCH   7  44
ATOM     44  C   LIG d   1       5.412  -2.153  -2.652  0.00  0.00    -0.057 C 
ATOM     45  H   LIG d   1       5.044  -3.128  -2.972  0.00  0.00     0.024 H 
ATOM     46  H   LIG d   1       6.321  -2.283  -2.064  0.00  0.00     0.024 H 
ATOM     47  H   LIG d   1       4.653  -1.660  -2.045  0.00  0.00     0.024 H 
ENDBRANCH   7  44
BRANCH  21  48
ATOM     48  C   LIG d   1       2.674  -0.932  -2.862  0.00  0.00    -0.055 C 
ATOM     49  H   LIG d   1       3.343  -1.645  -2.382  0.00  0.00     0.024 H 
ATOM     50  H   LIG d   1       2.253  -0.266  -2.110  0.00  0.00     0.024 H 
ATOM     51  H   LIG d   1       1.869  -1.470  -3.363  0.00  0.00     0.024 H 
ENDBRANCH  21  48
BRANCH  21  52
ATOM     52  C   LIG d   1       2.385   0.446  -4.861  0.00  0.00     0.052 C 
ATOM     53  H   LIG d   1       1.392   0.188  -4.492  0.00  0.00     0.056 H 
ATOM     54  H   LIG d   1       2.528   0.010  -5.851  0.00  0.00     0.056 H 
BRANCH  52  55
ATOM     55  O   LIG d   1       2.509   1.867  -4.943  0.00  0.00    -0.394 OA
ATOM     56  H   LIG d   1       1.839   2.289  -5.499  0.00  0.00     0.209 HD
ENDBRANCH  52  55
ENDBRANCH  21  52
BRANCH  19  57
ATOM     57  O   LIG d   1       3.162   1.691  -2.319  0.00  0.00    -0.391 OA
ATOM     58  H   LIG d   1       3.557   2.301  -1.682  0.00  0.00     0.210 HD
ENDBRANCH  19  57
TORSDOF 6
ENDMDL
MODEL 2
REMARK VINA RESULT:      -5.3      3.384      6.082
REMARK  6 active torsions:
REMARK  status: ('A' for Active; 'I' for Inactive)
REMARK    1  A    between atoms: C_1  and  C_2 
REMARK    2  A    between atoms: C_8  and  C_27 
REMARK    3  A    between atoms: C_20  and  O_26 
REMARK    4  A    between atoms: C_22  and  C_23 
REMARK    5  A    between atoms: C_22  and  C_24 
REMARK    6  A    between atoms: C_24  and  O_25 
ROOT
ATOM      1  C   LIG d   1       6.523  -0.881  -6.390  0.00  0.00    -0.014 C 
ATOM      2  H   LIG d   1       6.702  -1.324  -5.388  0.00  0.00     0.033 H 
ATOM      3  C   LIG d   1       7.056  -1.872  -7.414  0.00  0.00    -0.048 C 
ATOM      4  C   LIG d   1       6.625  -1.495  -8.830  0.00  0.00    -0.049 C 
ATOM      5  C   LIG d   1       5.097  -1.451  -8.948  0.00  0.00    -0.023 C 
ATOM      6  H   LIG d   1       4.709  -2.441  -8.666  0.00  0.00     0.031 H 
ATOM      7  C   LIG d   1       4.556  -0.423  -7.959  0.00  0.00     0.001 C 
ATOM      8  C   LIG d   1       5.022  -0.703  -6.538  0.00  0.00     0.079 C 
ATOM      9  C   LIG d   1       4.350  -1.978  -5.960  0.00  0.00    -0.020 C 
ATOM     10  C   LIG d   1       4.557  -1.731  -4.435  0.00  0.00    -0.019 C 
ATOM     11  C   LIG d   1       4.497  -0.201  -4.335  0.00  0.00     0.096 C 
ATOM     12  O   LIG d   1       4.558   0.338  -5.652  0.00  0.00    -0.364 OA
ATOM     13  C   LIG d   1       5.613   0.338  -3.430  0.00  0.00     0.002 C 
ATOM     14  C   LIG d   1       4.871   0.833  -2.165  0.00  0.00     0.051 C 
ATOM     15  O   LIG d   1       3.557   0.237  -2.226  0.00  0.00    -0.377 OA
ATOM     16  C   LIG d   1       3.199   0.232  -3.627  0.00  0.00     0.077 C 
ATOM     17  C   LIG d   1       4.974   0.981  -8.410  0.00  0.00    -0.042 C 
ATOM     18  C   LIG d   1       4.382   1.267  -9.792  0.00  0.00    -0.026 C 
ATOM     19  C   LIG d   1       4.946   0.276 -10.803  0.00  0.00     0.063 C 
ATOM     20  H   LIG d   1       6.024   0.445 -10.905  0.00  0.00     0.060 H 
ATOM     21  C   LIG d   1       4.708  -1.173 -10.393  0.00  0.00     0.020 C 
ATOM     22  H   LIG d   1       8.150  -1.892  -7.367  0.00  0.00     0.027 H 
ATOM     23  H   LIG d   1       6.687  -2.876  -7.182  0.00  0.00     0.027 H 
ATOM     24  H   LIG d   1       7.043  -0.530  -9.104  0.00  0.00     0.027 H 
ATOM     25  H   LIG d   1       7.048  -2.263  -9.485  0.00  0.00     0.027 H 
ATOM     26  H   LIG d   1       3.297  -2.069  -6.171  0.00  0.00     0.029 H 
ATOM     27  H   LIG d   1       4.894  -2.870  -6.275  0.00  0.00     0.029 H 
ATOM     28  H   LIG d   1       5.524  -2.107  -4.115  0.00  0.00     0.029 H 
ATOM     29  H   LIG d   1       3.750  -2.188  -3.866  0.00  0.00     0.029 H 
ATOM     30  H   LIG d   1       6.319  -0.452  -3.173  0.00  0.00     0.032 H 
ATOM     31  H   LIG d   1       6.130   1.171  -3.909  0.00  0.00     0.032 H 
ATOM     32  H   LIG d   1       5.394   0.502  -1.268  0.00  0.00     0.056 H 
ATOM     33  H   LIG d   1       4.793   1.921  -2.174  0.00  0.00     0.056 H 
ATOM     34  H   LIG d   1       2.908   1.230  -3.952  0.00  0.00     0.059 H 
ATOM     35  H   LIG d   1       2.404  -0.484  -3.820  0.00  0.00     0.059 H 
ATOM     36  H   LIG d   1       6.058   1.038  -8.506  0.00  0.00     0.027 H 
ATOM     37  H   LIG d   1       4.618   1.719  -7.698  0.00  0.00     0.027 H 
ATOM     38  H   LIG d   1       4.691   2.282 -10.090  0.00  0.00     0.029 H 
ATOM     39  H   LIG d   1       3.301   1.246  -9.782  0.00  0.00     0.029 H 
ENDROOT
BRANCH   1  40
ATOM     40  C   LIG d   1       7.286   0.435  -6.434  0.00  0.00    -0.060 C 
ATOM     41  H   LIG d   1       7.541   0.672  -7.467  0.00  0.00     0.023 H 
ATOM     42  H   LIG d   1       6.664   1.230  -6.022  0.00  0.00     0.023 H 
ATOM     43  H   LIG d   1       8.199   0.345  -5.846  0.00  0.00     0.023 H 
ENDBRANCH   1  40
BRANCH   7  44
ATOM     44  C   LIG d   1       3.015  -0.437  -7.918  0.00  0.00    -0.057 C 
ATOM     45  H   LIG d   1       2.666   0.242  -7.140  0.00  0.00     0.024 H 
ATOM     46  H   LIG d   1       2.624  -0.116  -8.883  0.00  0.00     0.024 H 
ATOM     47  H   LIG d   1       2.667  -1.447  -7.701  0.00  0.00     0.024 H 
ENDBRANCH   7  44
BRANCH  21  48
ATOM     48  C   LIG d   1       3.257  -1.571 -10.690  0.00  0.00    -0.055 C 
ATOM     49  H   LIG d   1       2.715  -1.692  -9.753  0.00  0.00     0.024 H 
ATOM     50  H   LIG d   1       2.782  -0.794 -11.288  0.00  0.00     0.024 H 
ATOM     51  H   LIG d   1       3.244  -2.512 -11.241  0.00  0.00     0.024 H 
ENDBRANCH  21  48
BRANCH  21  52
ATOM     52  C   LIG d   1       5.566  -2.051 -11.336  0.00  0.00     0.052 C 
ATOM     53  H   LIG d   1       5.842  -2.973 -10.824  0.00  0.00     0.056 H 
ATOM     54  H   LIG d   1       6.469  -1.508 -11.617  0.00  0.00     0.056 H 
BRANCH  52  55
ATOM     55  O   LIG d   1       4.814  -2.364 -12.510  0.00  0.00    -0.394 OA
ATOM     56  H   LIG d   1       5.358  -2.556 -13.287  0.00  0.00     0.209 HD
ENDBRANCH  52  55
ENDBRANCH  21  52
BRANCH  19  57
ATOM     57  O   LIG d   1       4.335   0.508 -12.079  0.00  0.00    -0.391 OA
ATOM     58  H   LIG d   1       4.664   1.294 -12.535  0.00  0.00     0.210 HD
ENDBRANCH  19  57
TORSDOF 6
ENDMDL
MODEL 3
REMARK VINA RESULT:      -5.2      1.814      2.171
REMARK  6 active torsions:
REMARK  status: ('A' for Active; 'I' for Inactive)
REMARK    1  A    between atoms: C_1  and  C_2 
REMARK    2  A    between atoms: C_8  and  C_27 
REMARK    3  A    between atoms: C_20  and  O_26 
REMARK    4  A    between atoms: C_22  and  C_23 
REMARK    5  A    between atoms: C_22  and  C_24 
REMARK    6  A    between atoms: C_24  and  O_25 
ROOT
ATOM      1  C   LIG d   1       5.742  -1.941  -7.276  0.00  0.00    -0.014 C 
ATOM      2  H   LIG d   1       5.687  -2.747  -8.038  0.00  0.00     0.033 H 
ATOM      3  C   LIG d   1       4.325  -1.427  -7.073  0.00  0.00    -0.048 C 
ATOM      4  C   LIG d   1       4.236  -0.505  -5.859  0.00  0.00    -0.049 C 
ATOM      5  C   LIG d   1       4.677  -1.231  -4.582  0.00  0.00    -0.023 C 
ATOM      6  H   LIG d   1       4.032  -2.113  -4.457  0.00  0.00     0.031 H 
ATOM      7  C   LIG d   1       6.115  -1.707  -4.758  0.00  0.00     0.001 C 
ATOM      8  C   LIG d   1       6.280  -2.567  -6.002  0.00  0.00     0.079 C 
ATOM      9  C   LIG d   1       5.583  -3.945  -5.838  0.00  0.00    -0.020 C 
ATOM     10  C   LIG d   1       6.325  -4.762  -6.938  0.00  0.00    -0.019 C 
ATOM     11  C   LIG d   1       7.721  -4.124  -6.942  0.00  0.00     0.096 C 
ATOM     12  O   LIG d   1       7.669  -2.924  -6.174  0.00  0.00    -0.364 OA
ATOM     13  C   LIG d   1       8.214  -3.881  -8.374  0.00  0.00     0.002 C 
ATOM     14  C   LIG d   1       9.351  -4.913  -8.564  0.00  0.00     0.051 C 
ATOM     15  O   LIG d   1       9.190  -5.872  -7.496  0.00  0.00    -0.377 OA
ATOM     16  C   LIG d   1       8.752  -5.105  -6.351  0.00  0.00     0.077 C 
ATOM     17  C   LIG d   1       7.048  -0.492  -4.799  0.00  0.00    -0.042 C 
ATOM     18  C   LIG d   1       6.942   0.275  -3.479  0.00  0.00    -0.026 C 
ATOM     19  C   LIG d   1       5.519   0.797  -3.307  0.00  0.00     0.063 C 
ATOM     20  H   LIG d   1       5.312   1.534  -4.093  0.00  0.00     0.060 H 
ATOM     21  C   LIG d   1       4.478  -0.313  -3.383  0.00  0.00     0.020 C 
ATOM     22  H   LIG d   1       4.005  -0.876  -7.963  0.00  0.00     0.027 H 
ATOM     23  H   LIG d   1       3.643  -2.271  -6.932  0.00  0.00     0.027 H 
ATOM     24  H   LIG d   1       4.854   0.376  -6.012  0.00  0.00     0.027 H 
ATOM     25  H   LIG d   1       3.189  -0.196  -5.794  0.00  0.00     0.027 H 
ATOM     26  H   LIG d   1       5.730  -4.414  -4.878  0.00  0.00     0.029 H 
ATOM     27  H   LIG d   1       4.522  -3.864  -6.078  0.00  0.00     0.029 H 
ATOM     28  H   LIG d   1       5.836  -4.639  -7.899  0.00  0.00     0.029 H 
ATOM     29  H   LIG d   1       6.380  -5.812  -6.656  0.00  0.00     0.029 H 
ATOM     30  H   LIG d   1       7.415  -4.056  -9.094  0.00  0.00     0.032 H 
ATOM     31  H   LIG d   1       8.608  -2.869  -8.480  0.00  0.00     0.032 H 
ATOM     32  H   LIG d   1       9.253  -5.407  -9.532  0.00  0.00     0.056 H 
ATOM     33  H   LIG d   1      10.323  -4.424  -8.490  0.00  0.00     0.056 H 
ATOM     34  H   LIG d   1       9.586  -4.557  -5.915  0.00  0.00     0.059 H 
ATOM     35  H   LIG d   1       8.283  -5.749  -5.611  0.00  0.00     0.059 H 
ATOM     36  H   LIG d   1       6.745   0.189  -5.593  0.00  0.00     0.027 H 
ATOM     37  H   LIG d   1       8.072  -0.818  -4.951  0.00  0.00     0.027 H 
ATOM     38  H   LIG d   1       7.624   1.138  -3.531  0.00  0.00     0.029 H 
ATOM     39  H   LIG d   1       7.242  -0.328  -2.634  0.00  0.00     0.029 H 
ENDROOT
BRANCH   1  40
ATOM     40  C   LIG d   1       6.654  -0.862  -7.840  0.00  0.00    -0.060 C 
ATOM     41  H   LIG d   1       7.361  -1.312  -8.538  0.00  0.00     0.023 H 
ATOM     42  H   LIG d   1       6.055  -0.115  -8.362  0.00  0.00     0.023 H 
ATOM     43  H   LIG d   1       7.201  -0.386  -7.026  0.00  0.00     0.023 H 
ENDBRANCH   1  40
BRANCH   7  44
ATOM     44  C   LIG d   1       6.570  -2.578  -3.569  0.00  0.00    -0.057 C 
ATOM     45  H   LIG d   1       6.947  -1.936  -2.772  0.00  0.00     0.024 H 
ATOM     46  H   LIG d   1       5.723  -3.157  -3.199  0.00  0.00     0.024 H 
ATOM     47  H   LIG d   1       7.359  -3.254  -3.895  0.00  0.00     0.024 H 
ENDBRANCH   7  44
BRANCH  21  48
ATOM     48  C   LIG d   1       4.440  -1.088  -2.060  0.00  0.00    -0.055 C 
ATOM     49  H   LIG d   1       4.443  -2.158  -2.265  0.00  0.00     0.024 H 
ATOM     50  H   LIG d   1       5.314  -0.830  -1.463  0.00  0.00     0.024 H 
ATOM     51  H   LIG d   1       3.535  -0.826  -1.512  0.00  0.00     0.024 H 
ENDBRANCH  21  48
BRANCH  21  52
ATOM     52  C   LIG d   1       3.096   0.376  -3.485  0.00  0.00     0.052 C 
ATOM     53  H   LIG d   1       2.534   0.201  -2.567  0.00  0.00     0.056 H 
ATOM     54  H   LIG d   1       2.546  -0.036  -4.331  0.00  0.00     0.056 H 
BRANCH  52  55
ATOM     55  O   LIG d   1       3.277   1.781  -3.672  0.00  0.00    -0.394 OA
ATOM     56  H   LIG d   1       3.652   2.018  -4.531  0.00  0.00     0.209 HD
ENDBRANCH  52  55
ENDBRANCH  21  52
BRANCH  19  57
ATOM     57  O   LIG d   1       5.411   1.455  -2.039  0.00  0.00    -0.391 OA
ATOM     58  H   LIG d   1       4.853   0.990  -1.400  0.00  0.00     0.210 HD
ENDBRANCH  19  57
TORSDOF 6
ENDMDL
MODEL 4
REMARK VINA RESULT:      -5.1      3.604      5.839
REMARK  6 active torsions:
REMARK  status: ('A' for Active; 'I' for Inactive)
REMARK    1  A    between atoms: C_1  and  C_2 
REMARK    2  A    between atoms: C_8  and  C_27 
REMARK    3  A    between atoms: C_20  and  O_26 
REMARK    4  A    between atoms: C_22  and  C_23 
REMARK    5  A    between atoms: C_22  and  C_24 
REMARK    6  A    between atoms: C_24  and  O_25 
ROOT
ATOM      1  C   LIG d   1       3.317   0.162  -8.287  0.00  0.00    -0.014 C 
ATOM      2  H   LIG d   1       2.577   0.011  -9.102  0.00  0.00     0.033 H 
ATOM      3  C   LIG d   1       2.544   0.126  -6.977  0.00  0.00    -0.048 C 
ATOM      4  C   LIG d   1       3.486   0.055  -5.777  0.00  0.00    -0.049 C 
ATOM      5  C   LIG d   1       4.377  -1.191  -5.849  0.00  0.00    -0.023 C 
ATOM      6  H   LIG d   1       3.721  -2.072  -5.890  0.00  0.00     0.031 H 
ATOM      7  C   LIG d   1       5.193  -1.138  -7.137  0.00  0.00     0.001 C 
ATOM      8  C   LIG d   1       4.307  -0.985  -8.364  0.00  0.00     0.079 C 
ATOM      9  C   LIG d   1       3.493  -2.278  -8.642  0.00  0.00    -0.020 C 
ATOM     10  C   LIG d   1       3.132  -2.060 -10.142  0.00  0.00    -0.019 C 
ATOM     11  C   LIG d   1       4.346  -1.279 -10.665  0.00  0.00     0.096 C 
ATOM     12  O   LIG d   1       5.123  -0.856  -9.548  0.00  0.00    -0.364 OA
ATOM     13  C   LIG d   1       3.908  -0.105 -11.551  0.00  0.00     0.002 C 
ATOM     14  C   LIG d   1       4.330  -0.529 -12.978  0.00  0.00     0.051 C 
ATOM     15  O   LIG d   1       4.584  -1.949 -12.905  0.00  0.00    -0.377 OA
ATOM     16  C   LIG d   1       5.181  -2.168 -11.606  0.00  0.00     0.077 C 
ATOM     17  C   LIG d   1       6.210   0.005  -7.044  0.00  0.00    -0.042 C 
ATOM     18  C   LIG d   1       7.158  -0.252  -5.871  0.00  0.00    -0.026 C 
ATOM     19  C   LIG d   1       6.365  -0.264  -4.569  0.00  0.00     0.063 C 
ATOM     20  H   LIG d   1       5.948   0.735  -4.396  0.00  0.00     0.060 H 
ATOM     21  C   LIG d   1       5.227  -1.278  -4.589  0.00  0.00     0.020 C 
ATOM     22  H   LIG d   1       1.925   1.026  -6.893  0.00  0.00     0.027 H 
ATOM     23  H   LIG d   1       1.880  -0.745  -6.964  0.00  0.00     0.027 H 
ATOM     24  H   LIG d   1       4.104   0.947  -5.733  0.00  0.00     0.027 H 
ATOM     25  H   LIG d   1       2.842   0.027  -4.893  0.00  0.00     0.027 H 
ATOM     26  H   LIG d   1       4.049  -3.195  -8.534  0.00  0.00     0.029 H 
ATOM     27  H   LIG d   1       2.586  -2.292  -8.034  0.00  0.00     0.029 H 
ATOM     28  H   LIG d   1       2.221  -1.476 -10.235  0.00  0.00     0.029 H 
ATOM     29  H   LIG d   1       3.039  -3.017 -10.651  0.00  0.00     0.029 H 
ATOM     30  H   LIG d   1       2.829   0.038 -11.500  0.00  0.00     0.032 H 
ATOM     31  H   LIG d   1       4.428   0.810 -11.264  0.00  0.00     0.032 H 
ATOM     32  H   LIG d   1       3.526  -0.325 -13.685  0.00  0.00     0.056 H 
ATOM     33  H   LIG d   1       5.235   0.002 -13.278  0.00  0.00     0.056 H 
ATOM     34  H   LIG d   1       6.221  -1.846 -11.603  0.00  0.00     0.059 H 
ATOM     35  H   LIG d   1       5.098  -3.212 -11.315  0.00  0.00     0.059 H 
ATOM     36  H   LIG d   1       5.701   0.947  -6.846  0.00  0.00     0.027 H 
ATOM     37  H   LIG d   1       6.778   0.069  -7.967  0.00  0.00     0.027 H 
ATOM     38  H   LIG d   1       7.881   0.578  -5.830  0.00  0.00     0.029 H 
ATOM     39  H   LIG d   1       7.720  -1.168  -5.996  0.00  0.00     0.029 H 
ENDROOT
BRANCH   1  40
ATOM     40  C   LIG d   1       3.959   1.521  -8.521  0.00  0.00    -0.060 C 
ATOM     41  H   LIG d   1       3.346   2.098  -9.213  0.00  0.00     0.023 H 
ATOM     42  H   LIG d   1       4.037   2.054  -7.573  0.00  0.00     0.023 H 
ATOM     43  H   LIG d   1       4.954   1.385  -8.944  0.00  0.00     0.023 H 
ENDBRANCH   1  40
BRANCH   7  44
ATOM     44  C   LIG d   1       6.000  -2.436  -7.346  0.00  0.00    -0.057 C 
ATOM     45  H   LIG d   1       6.887  -2.220  -7.942  0.00  0.00     0.024 H 
ATOM     46  H   LIG d   1       6.300  -2.836  -6.378  0.00  0.00     0.024 H 
ATOM     47  H   LIG d   1       5.382  -3.167  -7.866  0.00  0.00     0.024 H 
ENDBRANCH   7  44
BRANCH  21  48
ATOM     48  C   LIG d   1       5.780  -2.691  -4.360  0.00  0.00    -0.055 C 
ATOM     49  H   LIG d   1       6.792  -2.625  -3.962  0.00  0.00     0.024 H 
ATOM     50  H   LIG d   1       5.143  -3.219  -3.650  0.00  0.00     0.024 H 
ATOM     51  H   LIG d   1       5.795  -3.232  -5.306  0.00  0.00     0.024 H 
ENDBRANCH  21  48
BRANCH  21  52
ATOM     52  C   LIG d   1       4.346  -0.986  -3.351  0.00  0.00     0.052 C 
ATOM     53  H   LIG d   1       3.313  -1.263  -3.566  0.00  0.00     0.056 H 
ATOM     54  H   LIG d   1       4.395   0.077  -3.113  0.00  0.00     0.056 H 
BRANCH  52  55
ATOM     55  O   LIG d   1       4.821  -1.747  -2.238  0.00  0.00    -0.394 OA
ATOM     56  H   LIG d   1       5.092  -1.209  -1.481  0.00  0.00     0.209 HD
ENDBRANCH  52  55
ENDBRANCH  21  52
BRANCH  19  57
ATOM     57  O   LIG d   1       7.249  -0.573  -3.484  0.00  0.00    -0.391 OA
ATOM     58  H   LIG d   1       7.957  -1.188  -3.716  0.00  0.00     0.210 HD
ENDBRANCH  19  57
TORSDOF 6
ENDMDL
MODEL 5
REMARK VINA RESULT:      -5.1      9.173     11.885
REMARK  6 active torsions:
REMARK  status: ('A' for Active; 'I' for Inactive)
REMARK    1  A    between atoms: C_1  and  C_2 
REMARK    2  A    between atoms: C_8  and  C_27 
REMARK    3  A    between atoms: C_20  and  O_26 
REMARK    4  A    between atoms: C_22  and  C_23 
REMARK    5  A    between atoms: C_22  and  C_24 
REMARK    6  A    between atoms: C_24  and  O_25 
ROOT
ATOM      1  C   LIG d   1      11.261   7.582  -0.161  0.00  0.00    -0.014 C 
ATOM      2  H   LIG d   1      10.860   8.249   0.632  0.00  0.00     0.033 H 
ATOM      3  C   LIG d   1      10.814   6.169   0.181  0.00  0.00    -0.048 C 
ATOM      4  C   LIG d   1      11.078   5.207  -0.975  0.00  0.00    -0.049 C 
ATOM      5  C   LIG d   1      10.342   5.655  -2.244  0.00  0.00    -0.023 C 
ATOM      6  H   LIG d   1       9.269   5.707  -2.009  0.00  0.00     0.031 H 
ATOM      7  C   LIG d   1      10.821   7.052  -2.623  0.00  0.00     0.001 C 
ATOM      8  C   LIG d   1      10.656   8.039  -1.477  0.00  0.00     0.079 C 
ATOM      9  C   LIG d   1       9.160   8.355  -1.209  0.00  0.00    -0.020 C 
ATOM     10  C   LIG d   1       9.297   9.699  -0.432  0.00  0.00    -0.019 C 
ATOM     11  C   LIG d   1      10.555  10.319  -1.059  0.00  0.00     0.096 C 
ATOM     12  O   LIG d   1      11.198   9.324  -1.851  0.00  0.00    -0.364 OA
ATOM     13  C   LIG d   1      11.480  10.898   0.018  0.00  0.00     0.002 C 
ATOM     14  C   LIG d   1      11.370  12.430  -0.171  0.00  0.00     0.051 C 
ATOM     15  O   LIG d   1      10.195  12.640  -0.983  0.00  0.00    -0.377 OA
ATOM     16  C   LIG d   1      10.171  11.538  -1.919  0.00  0.00     0.077 C 
ATOM     17  C   LIG d   1      12.281   6.978  -3.083  0.00  0.00    -0.042 C 
ATOM     18  C   LIG d   1      12.381   6.073  -4.313  0.00  0.00    -0.026 C 
ATOM     19  C   LIG d   1      11.948   4.660  -3.941  0.00  0.00     0.063 C 
ATOM     20  H   LIG d   1      12.659   4.248  -3.214  0.00  0.00     0.060 H 
ATOM     21  C   LIG d   1      10.547   4.618  -3.340  0.00  0.00     0.020 C 
ATOM     22  H   LIG d   1      11.354   5.819   1.067  0.00  0.00     0.027 H 
ATOM     23  H   LIG d   1       9.744   6.166   0.413  0.00  0.00     0.027 H 
ATOM     24  H   LIG d   1      12.144   5.142  -1.172  0.00  0.00     0.027 H 
ATOM     25  H   LIG d   1      10.720   4.229  -0.638  0.00  0.00     0.027 H 
ATOM     26  H   LIG d   1       8.565   8.509  -2.095  0.00  0.00     0.029 H 
ATOM     27  H   LIG d   1       8.720   7.591  -0.566  0.00  0.00     0.029 H 
ATOM     28  H   LIG d   1       9.439   9.515   0.628  0.00  0.00     0.029 H 
ATOM     29  H   LIG d   1       8.427  10.328  -0.609  0.00  0.00     0.029 H 
ATOM     30  H   LIG d   1      11.144  10.612   1.015  0.00  0.00     0.032 H 
ATOM     31  H   LIG d   1      12.510  10.575  -0.144  0.00  0.00     0.032 H 
ATOM     32  H   LIG d   1      11.254  12.922   0.795  0.00  0.00     0.056 H 
ATOM     33  H   LIG d   1      12.255  12.813  -0.681  0.00  0.00     0.056 H 
ATOM     34  H   LIG d   1      10.906  11.688  -2.708  0.00  0.00     0.059 H 
ATOM     35  H   LIG d   1       9.175  11.408  -2.338  0.00  0.00     0.059 H 
ATOM     36  H   LIG d   1      12.899   6.534  -2.305  0.00  0.00     0.027 H 
ATOM     37  H   LIG d   1      12.641   7.972  -3.330  0.00  0.00     0.027 H 
ATOM     38  H   LIG d   1      13.436   6.042  -4.626  0.00  0.00     0.029 H 
ATOM     39  H   LIG d   1      11.805   6.454  -5.145  0.00  0.00     0.029 H 
ENDROOT
BRANCH   1  40
ATOM     40  C   LIG d   1      12.776   7.715  -0.124  0.00  0.00    -0.060 C 
ATOM     41  H   LIG d   1      13.190   6.960   0.545  0.00  0.00     0.023 H 
ATOM     42  H   LIG d   1      13.179   7.571  -1.126  0.00  0.00     0.023 H 
ATOM     43  H   LIG d   1      13.045   8.708   0.238  0.00  0.00     0.023 H 
ENDBRANCH   1  40
BRANCH   7  44
ATOM     44  C   LIG d   1      10.010   7.624  -3.804  0.00  0.00    -0.057 C 
ATOM     45  H   LIG d   1      10.311   7.126  -4.726  0.00  0.00     0.024 H 
ATOM     46  H   LIG d   1       8.947   7.455  -3.629  0.00  0.00     0.024 H 
ATOM     47  H   LIG d   1      10.199   8.694  -3.889  0.00  0.00     0.024 H 
ENDBRANCH   7  44
BRANCH  21  48
ATOM     48  C   LIG d   1       9.496   4.735  -4.452  0.00  0.00    -0.055 C 
ATOM     49  H   LIG d   1       8.986   5.694  -4.370  0.00  0.00     0.024 H 
ATOM     50  H   LIG d   1       9.986   4.665  -5.423  0.00  0.00     0.024 H 
ATOM     51  H   LIG d   1       8.771   3.927  -4.352  0.00  0.00     0.024 H 
ENDBRANCH  21  48
BRANCH  21  52
ATOM     52  C   LIG d   1      10.354   3.199  -2.753  0.00  0.00     0.052 C 
ATOM     53  H   LIG d   1       9.606   2.663  -3.337  0.00  0.00     0.056 H 
ATOM     54  H   LIG d   1      10.020   3.277  -1.718  0.00  0.00     0.056 H 
BRANCH  52  55
ATOM     55  O   LIG d   1      11.594   2.492  -2.802  0.00  0.00    -0.394 OA
ATOM     56  H   LIG d   1      12.273   2.924  -3.338  0.00  0.00     0.209 HD
ENDBRANCH  52  55
ENDBRANCH  21  52
BRANCH  19  57
ATOM     57  O   LIG d   1      11.980   3.835  -5.113  0.00  0.00    -0.391 OA
ATOM     58  H   LIG d   1      11.724   2.916  -4.954  0.00  0.00     0.210 HD
ENDBRANCH  19  57
TORSDOF 6
ENDMDL
MODEL 6
REMARK VINA RESULT:      -5.0      8.458     10.429
REMARK  6 active torsions:
REMARK  status: ('A' for Active; 'I' for Inactive)
REMARK    1  A    between atoms: C_1  and  C_2 
REMARK    2  A    between atoms: C_8  and  C_27 
REMARK    3  A    between atoms: C_20  and  O_26 
REMARK    4  A    between atoms: C_22  and  C_23 
REMARK    5  A    between atoms: C_22  and  C_24 
REMARK    6  A    between atoms: C_24  and  O_25 
ROOT
ATOM      1  C   LIG d   1      11.839   5.217  -4.984  0.00  0.00    -0.014 C 
ATOM      2  H   LIG d   1      11.717   4.390  -4.252  0.00  0.00     0.033 H 
ATOM      3  C   LIG d   1      11.596   4.624  -6.364  0.00  0.00    -0.048 C 
ATOM      4  C   LIG d   1      11.473   5.717  -7.425  0.00  0.00    -0.049 C 
ATOM      5  C   LIG d   1      10.320   6.674  -7.098  0.00  0.00    -0.023 C 
ATOM      6  H   LIG d   1       9.398   6.079  -7.033  0.00  0.00     0.031 H 
ATOM      7  C   LIG d   1      10.580   7.311  -5.737  0.00  0.00     0.001 C 
ATOM      8  C   LIG d   1      10.792   6.264  -4.652  0.00  0.00     0.079 C 
ATOM      9  C   LIG d   1       9.475   5.510  -4.324  0.00  0.00    -0.020 C 
ATOM     10  C   LIG d   1       9.825   4.944  -2.915  0.00  0.00    -0.019 C 
ATOM     11  C   LIG d   1      10.755   6.024  -2.345  0.00  0.00     0.096 C 
ATOM     12  O   LIG d   1      11.116   6.910  -3.402  0.00  0.00    -0.364 OA
ATOM     13  C   LIG d   1      11.978   5.397  -1.664  0.00  0.00     0.002 C 
ATOM     14  C   LIG d   1      11.748   5.658  -0.156  0.00  0.00     0.051 C 
ATOM     15  O   LIG d   1      10.355   6.015  -0.029  0.00  0.00    -0.377 OA
ATOM     16  C   LIG d   1      10.045   6.789  -1.211  0.00  0.00     0.077 C 
ATOM     17  C   LIG d   1      11.785   8.251  -5.840  0.00  0.00    -0.042 C 
ATOM     18  C   LIG d   1      11.480   9.358  -6.851  0.00  0.00    -0.026 C 
ATOM     19  C   LIG d   1      11.262   8.743  -8.229  0.00  0.00     0.063 C 
ATOM     20  H   LIG d   1      12.199   8.285  -8.568  0.00  0.00     0.060 H 
ATOM     21  C   LIG d   1      10.166   7.684  -8.227  0.00  0.00     0.020 C 
ATOM     22  H   LIG d   1      12.428   3.963  -6.629  0.00  0.00     0.027 H 
ATOM     23  H   LIG d   1      10.678   4.029  -6.355  0.00  0.00     0.027 H 
ATOM     24  H   LIG d   1      12.403   6.274  -7.498  0.00  0.00     0.027 H 
ATOM     25  H   LIG d   1      11.296   5.196  -8.370  0.00  0.00     0.027 H 
ATOM     26  H   LIG d   1       8.600   6.137  -4.255  0.00  0.00     0.029 H 
ATOM     27  H   LIG d   1       9.319   4.693  -5.031  0.00  0.00     0.029 H 
ATOM     28  H   LIG d   1      10.338   3.992  -3.003  0.00  0.00     0.029 H 
ATOM     29  H   LIG d   1       8.924   4.851  -2.311  0.00  0.00     0.029 H 
ATOM     30  H   LIG d   1      12.026   4.326  -1.862  0.00  0.00     0.032 H 
ATOM     31  H   LIG d   1      12.896   5.886  -1.992  0.00  0.00     0.032 H 
ATOM     32  H   LIG d   1      11.961   4.757   0.419  0.00  0.00     0.056 H 
ATOM     33  H   LIG d   1      12.381   6.478   0.186  0.00  0.00     0.056 H 
ATOM     34  H   LIG d   1      10.448   7.797  -1.126  0.00  0.00     0.059 H 
ATOM     35  H   LIG d   1       8.972   6.815  -1.385  0.00  0.00     0.059 H 
ATOM     36  H   LIG d   1      12.655   7.709  -6.208  0.00  0.00     0.027 H 
ATOM     37  H   LIG d   1      11.996   8.689  -4.870  0.00  0.00     0.027 H 
ATOM     38  H   LIG d   1      12.357  10.022  -6.902  0.00  0.00     0.029 H 
ATOM     39  H   LIG d   1      10.633   9.959  -6.551  0.00  0.00     0.029 H 
ENDROOT
BRANCH   1  40
ATOM     40  C   LIG d   1      13.263   5.730  -4.837  0.00  0.00    -0.060 C 
ATOM     41  H   LIG d   1      13.675   5.390  -3.887  0.00  0.00     0.023 H 
ATOM     42  H   LIG d   1      13.874   5.348  -5.655  0.00  0.00     0.023 H 
ATOM     43  H   LIG d   1      13.261   6.820  -4.862  0.00  0.00     0.023 H 
ENDBRANCH   1  40
BRANCH   7  44
ATOM     44  C   LIG d   1       9.383   8.169  -5.279  0.00  0.00    -0.057 C 
ATOM     45  H   LIG d   1       9.000   7.783  -4.334  0.00  0.00     0.024 H 
ATOM     46  H   LIG d   1       9.707   9.201  -5.146  0.00  0.00     0.024 H 
ATOM     47  H   LIG d   1       8.598   8.128  -6.034  0.00  0.00     0.024 H 
ENDBRANCH   7  44
BRANCH  21  48
ATOM     48  C   LIG d   1       8.787   8.356  -8.219  0.00  0.00    -0.055 C 
ATOM     49  H   LIG d   1       8.094   7.771  -8.823  0.00  0.00     0.024 H 
ATOM     50  H   LIG d   1       8.417   8.413  -7.195  0.00  0.00     0.024 H 
ATOM     51  H   LIG d   1       8.871   9.361  -8.631  0.00  0.00     0.024 H 
ENDBRANCH  21  48
BRANCH  21  52
ATOM     52  C   LIG d   1      10.248   6.953  -9.589  0.00  0.00     0.052 C 
ATOM     53  H   LIG d   1       9.930   5.917  -9.465  0.00  0.00     0.056 H 
ATOM     54  H   LIG d   1      11.275   6.976  -9.952  0.00  0.00     0.056 H 
BRANCH  52  55
ATOM     55  O   LIG d   1       9.393   7.604 -10.531  0.00  0.00    -0.394 OA
ATOM     56  H   LIG d   1       9.619   7.427 -11.455  0.00  0.00     0.209 HD
ENDBRANCH  52  55
ENDBRANCH  21  52
BRANCH  19  57
ATOM     57  O   LIG d   1      10.910   9.779  -9.155  0.00  0.00    -0.391 OA
ATOM     58  H   LIG d   1      10.939   9.504 -10.082  0.00  0.00     0.210 HD
ENDBRANCH  19  57
TORSDOF 6
ENDMDL
MODEL 7
REMARK VINA RESULT:      -4.9      8.801     10.161
REMARK  6 active torsions:
REMARK  status: ('A' for Active; 'I' for Inactive)
REMARK    1  A    between atoms: C_1  and  C_2 
REMARK    2  A    between atoms: C_8  and  C_27 
REMARK    3  A    between atoms: C_20  and  O_26 
REMARK    4  A    between atoms: C_22  and  C_23 
REMARK    5  A    between atoms: C_22  and  C_24 
REMARK    6  A    between atoms: C_24  and  O_25 
ROOT
ATOM      1  C   LIG d   1      11.306   7.056  -4.741  0.00  0.00    -0.014 C 
ATOM      2  H   LIG d   1      11.121   6.267  -5.500  0.00  0.00     0.033 H 
ATOM      3  C   LIG d   1      10.602   8.314  -5.229  0.00  0.00    -0.048 C 
ATOM      4  C   LIG d   1      10.560   9.386  -4.142  0.00  0.00    -0.049 C 
ATOM      5  C   LIG d   1       9.832   8.876  -2.893  0.00  0.00    -0.023 C 
ATOM      6  H   LIG d   1       8.817   8.578  -3.193  0.00  0.00     0.031 H 
ATOM      7  C   LIG d   1      10.560   7.643  -2.367  0.00  0.00     0.001 C 
ATOM      8  C   LIG d   1      10.702   6.569  -3.435  0.00  0.00     0.079 C 
ATOM      9  C   LIG d   1       9.334   5.920  -3.776  0.00  0.00    -0.020 C 
ATOM     10  C   LIG d   1       9.814   4.589  -4.427  0.00  0.00    -0.019 C 
ATOM     11  C   LIG d   1      11.117   4.299  -3.668  0.00  0.00     0.096 C 
ATOM     12  O   LIG d   1      11.469   5.459  -2.920  0.00  0.00    -0.364 OA
ATOM     13  C   LIG d   1      12.230   3.861  -4.628  0.00  0.00     0.002 C 
ATOM     14  C   LIG d   1      12.429   2.358  -4.320  0.00  0.00     0.051 C 
ATOM     15  O   LIG d   1      11.260   1.955  -3.574  0.00  0.00    -0.377 OA
ATOM     16  C   LIG d   1      10.927   3.086  -2.736  0.00  0.00     0.077 C 
ATOM     17  C   LIG d   1      11.928   8.061  -1.817  0.00  0.00    -0.042 C 
ATOM     18  C   LIG d   1      11.733   9.046  -0.663  0.00  0.00    -0.026 C 
ATOM     19  C   LIG d   1      11.045  10.305  -1.180  0.00  0.00     0.063 C 
ATOM     20  H   LIG d   1      11.712  10.810  -1.889  0.00  0.00     0.060 H 
ATOM     21  C   LIG d   1       9.723  10.003  -1.875  0.00  0.00     0.020 C 
ATOM     22  H   LIG d   1      11.129   8.711  -6.102  0.00  0.00     0.027 H 
ATOM     23  H   LIG d   1       9.579   8.070  -5.531  0.00  0.00     0.027 H 
ATOM     24  H   LIG d   1      11.570   9.692  -3.879  0.00  0.00     0.027 H 
ATOM     25  H   LIG d   1      10.035  10.238  -4.583  0.00  0.00     0.027 H 
ATOM     26  H   LIG d   1       8.713   5.701  -2.922  0.00  0.00     0.029 H 
ATOM     27  H   LIG d   1       8.798   6.527  -4.508  0.00  0.00     0.029 H 
ATOM     28  H   LIG d   1      10.002   4.728  -5.487  0.00  0.00     0.029 H 
ATOM     29  H   LIG d   1       9.084   3.800  -4.257  0.00  0.00     0.029 H 
ATOM     30  H   LIG d   1      11.926   4.001  -5.665  0.00  0.00     0.032 H 
ATOM     31  H   LIG d   1      13.152   4.409  -4.425  0.00  0.00     0.032 H 
ATOM     32  H   LIG d   1      12.499   1.789  -5.247  0.00  0.00     0.056 H 
ATOM     33  H   LIG d   1      13.329   2.210  -3.721  0.00  0.00     0.056 H 
ATOM     34  H   LIG d   1      11.609   3.151  -1.890  0.00  0.00     0.059 H 
ATOM     35  H   LIG d   1       9.895   3.025  -2.398  0.00  0.00     0.059 H 
ATOM     36  H   LIG d   1      12.502   8.575  -2.587  0.00  0.00     0.027 H 
ATOM     37  H   LIG d   1      12.467   7.186  -1.465  0.00  0.00     0.027 H 
ATOM     38  H   LIG d   1      12.728   9.325  -0.283  0.00  0.00     0.029 H 
ATOM     39  H   LIG d   1      11.182   8.607   0.157  0.00  0.00     0.029 H 
ENDROOT
BRANCH   1  40
ATOM     40  C   LIG d   1      12.812   7.251  -4.665  0.00  0.00    -0.060 C 
ATOM     41  H   LIG d   1      13.307   6.500  -5.281  0.00  0.00     0.023 H 
ATOM     42  H   LIG d   1      13.069   8.246  -5.029  0.00  0.00     0.023 H 
ATOM     43  H   LIG d   1      13.141   7.146  -3.631  0.00  0.00     0.023 H 
ENDBRANCH   1  40
BRANCH   7  44
ATOM     44  C   LIG d   1       9.792   6.990  -1.200  0.00  0.00    -0.057 C 
ATOM     45  H   LIG d   1      10.494   6.469  -0.549  0.00  0.00     0.024 H 
ATOM     46  H   LIG d   1       9.273   7.762  -0.631  0.00  0.00     0.024 H 
ATOM     47  H   LIG d   1       9.067   6.279  -1.595  0.00  0.00     0.024 H 
ENDBRANCH   7  44
BRANCH  21  48
ATOM     48  C   LIG d   1       8.631   9.737  -0.831  0.00  0.00    -0.055 C 
ATOM     49  H   LIG d   1       7.905   9.033  -1.235  0.00  0.00     0.024 H 
ATOM     50  H   LIG d   1       9.082   9.319   0.068  0.00  0.00     0.024 H 
ATOM     51  H   LIG d   1       8.130  10.673  -0.583  0.00  0.00     0.024 H 
ENDBRANCH  21  48
BRANCH  21  52
ATOM     52  C   LIG d   1       9.286  11.304  -2.590  0.00  0.00     0.052 C 
ATOM     53  H   LIG d   1       9.714  11.329  -3.593  0.00  0.00     0.056 H 
ATOM     54  H   LIG d   1       9.638  12.166  -2.024  0.00  0.00     0.056 H 
BRANCH  52  55
ATOM     55  O   LIG d   1       7.860  11.342  -2.680  0.00  0.00    -0.394 OA
ATOM     56  H   LIG d   1       7.523  12.002  -3.301  0.00  0.00     0.209 HD
ENDBRANCH  52  55
ENDBRANCH  21  52
BRANCH  19  57
ATOM     57  O   LIG d   1      10.806  11.194  -0.082  0.00  0.00    -0.391 OA
ATOM     58  H   LIG d   1       9.988  11.011   0.401  0.00  0.00     0.210 HD
ENDBRANCH  19  57
TORSDOF 6
ENDMDL
MODEL 8
REMARK VINA RESULT:      -4.8      8.464     10.008
REMARK  6 active torsions:
REMARK  status: ('A' for Active; 'I' for Inactive)
REMARK    1  A    between atoms: C_1  and  C_2 
REMARK    2  A    between atoms: C_8  and  C_27 
REMARK    3  A    between atoms: C_20  and  O_26 
REMARK    4  A    between atoms: C_22  and  C_23 
REMARK    5  A    between atoms: C_22  and  C_24 
REMARK    6  A    between atoms: C_24  and  O_25 
ROOT
ATOM      1  C   LIG d   1       8.262 -10.985  -1.495  0.00  0.00    -0.014 C 
ATOM      2  H   LIG d   1       9.092 -10.622  -0.853  0.00  0.00     0.033 H 
ATOM      3  C   LIG d   1       6.968 -10.482  -0.872  0.00  0.00    -0.048 C 
ATOM      4  C   LIG d   1       5.781 -10.692  -1.809  0.00  0.00    -0.049 C 
ATOM      5  C   LIG d   1       5.994  -9.960  -3.140  0.00  0.00    -0.023 C 
ATOM      6  H   LIG d   1       6.140  -8.893  -2.917  0.00  0.00     0.031 H 
ATOM      7  C   LIG d   1       7.263 -10.493  -3.797  0.00  0.00     0.001 C 
ATOM      8  C   LIG d   1       8.468 -10.384  -2.874  0.00  0.00     0.079 C 
ATOM      9  C   LIG d   1       8.898  -8.906  -2.671  0.00  0.00    -0.020 C 
ATOM     10  C   LIG d   1      10.364  -9.109  -2.184  0.00  0.00    -0.019 C 
ATOM     11  C   LIG d   1      10.787 -10.384  -2.927  0.00  0.00     0.096 C 
ATOM     12  O   LIG d   1       9.626 -10.975  -3.503  0.00  0.00    -0.364 OA
ATOM     13  C   LIG d   1      11.532 -11.346  -1.994  0.00  0.00     0.002 C 
ATOM     14  C   LIG d   1      12.997 -11.299  -2.490  0.00  0.00     0.051 C 
ATOM     15  O   LIG d   1      13.089 -10.124  -3.324  0.00  0.00    -0.377 OA
ATOM     16  C   LIG d   1      11.822 -10.042  -4.017  0.00  0.00     0.077 C 
ATOM     17  C   LIG d   1       7.034 -11.943  -4.237  0.00  0.00    -0.042 C 
ATOM     18  C   LIG d   1       5.895 -11.990  -5.257  0.00  0.00    -0.026 C 
ATOM     19  C   LIG d   1       4.606 -11.502  -4.604  0.00  0.00     0.063 C 
ATOM     20  H   LIG d   1       4.320 -12.203  -3.812  0.00  0.00     0.060 H 
ATOM     21  C   LIG d   1       4.749 -10.108  -4.004  0.00  0.00     0.020 C 
ATOM     22  H   LIG d   1       6.782 -11.018   0.065  0.00  0.00     0.027 H 
ATOM     23  H   LIG d   1       7.059  -9.417  -0.641  0.00  0.00     0.027 H 
ATOM     24  H   LIG d   1       5.631 -11.752  -1.992  0.00  0.00     0.027 H 
ATOM     25  H   LIG d   1       4.909 -10.297  -1.279  0.00  0.00     0.027 H 
ATOM     26  H   LIG d   1       8.895  -8.308  -3.568  0.00  0.00     0.029 H 
ATOM     27  H   LIG d   1       8.300  -8.441  -1.885  0.00  0.00     0.029 H 
ATOM     28  H   LIG d   1      10.392  -9.256  -1.109  0.00  0.00     0.029 H 
ATOM     29  H   LIG d   1      10.982  -8.264  -2.482  0.00  0.00     0.029 H 
ATOM     30  H   LIG d   1      11.469 -11.010  -0.959  0.00  0.00     0.032 H 
ATOM     31  H   LIG d   1      11.138 -12.360  -2.090  0.00  0.00     0.032 H 
ATOM     32  H   LIG d   1      13.679 -11.215  -1.643  0.00  0.00     0.056 H 
ATOM     33  H   LIG d   1      13.230 -12.193  -3.070  0.00  0.00     0.056 H 
ATOM     34  H   LIG d   1      11.777 -10.773  -4.822  0.00  0.00     0.059 H 
ATOM     35  H   LIG d   1      11.655  -9.037  -4.397  0.00  0.00     0.059 H 
ATOM     36  H   LIG d   1       6.730 -12.551  -3.386  0.00  0.00     0.027 H 
ATOM     37  H   LIG d   1       7.940 -12.342  -4.681  0.00  0.00     0.027 H 
ATOM     38  H   LIG d   1       5.754 -13.039  -5.561  0.00  0.00     0.029 H 
ATOM     39  H   LIG d   1       6.123 -11.420  -6.147  0.00  0.00     0.029 H 
ENDROOT
BRANCH   1  40
ATOM     40  C   LIG d   1       8.333 -12.504  -1.490  0.00  0.00    -0.060 C 
ATOM     41  H   LIG d   1       7.987 -12.887  -2.451  0.00  0.00     0.023 H 
ATOM     42  H   LIG d   1       9.362 -12.820  -1.323  0.00  0.00     0.023 H 
ATOM     43  H   LIG d   1       7.698 -12.895  -0.694  0.00  0.00     0.023 H 
ENDBRANCH   1  40
BRANCH   7  44
ATOM     44  C   LIG d   1       7.619  -9.693  -5.066  0.00  0.00    -0.057 C 
ATOM     45  H   LIG d   1       8.581 -10.032  -5.451  0.00  0.00     0.024 H 
ATOM     46  H   LIG d   1       6.849  -9.851  -5.821  0.00  0.00     0.024 H 
ATOM     47  H   LIG d   1       7.678  -8.633  -4.822  0.00  0.00     0.024 H 
ENDBRANCH   7  44
BRANCH  21  48
ATOM     48  C   LIG d   1       4.684  -9.050  -5.112  0.00  0.00    -0.055 C 
ATOM     49  H   LIG d   1       3.688  -9.047  -5.554  0.00  0.00     0.024 H 
ATOM     50  H   LIG d   1       4.897  -8.068  -4.690  0.00  0.00     0.024 H 
ATOM     51  H   LIG d   1       5.422  -9.283  -5.880  0.00  0.00     0.024 H 
ENDBRANCH  21  48
BRANCH  21  52
ATOM     52  C   LIG d   1       3.489  -9.862  -3.139  0.00  0.00     0.052 C 
ATOM     53  H   LIG d   1       2.875  -9.089  -3.602  0.00  0.00     0.056 H 
ATOM     54  H   LIG d   1       3.789  -9.539  -2.143  0.00  0.00     0.056 H 
BRANCH  52  55
ATOM     55  O   LIG d   1       2.735 -11.073  -3.041  0.00  0.00    -0.394 OA
ATOM     56  H   LIG d   1       3.030 -11.664  -2.335  0.00  0.00     0.209 HD
ENDBRANCH  52  55
ENDBRANCH  21  52
BRANCH  19  57
ATOM     57  O   LIG d   1       3.560 -11.485  -5.584  0.00  0.00    -0.391 OA
ATOM     58  H   LIG d   1       2.670 -11.531  -5.210  0.00  0.00     0.210 HD
ENDBRANCH  19  57
TORSDOF 6
ENDMDL
MODEL 9
REMARK VINA RESULT:      -4.8      6.213      8.472
REMARK  6 active torsions:
REMARK  status: ('A' for Active; 'I' for Inactive)
REMARK    1  A    between atoms: C_1  and  C_2 
REMARK    2  A    between atoms: C_8  and  C_27 
REMARK    3  A    between atoms: C_20  and  O_26 
REMARK    4  A    between atoms: C_22  and  C_23 
REMARK    5  A    between atoms: C_22  and  C_24 
REMARK    6  A    between atoms: C_24  and  O_25 
ROOT
ATOM      1  C   LIG d   1       3.368  -1.724 -12.612  0.00  0.00    -0.014 C 
ATOM      2  H   LIG d   1       2.816  -1.989 -13.539  0.00  0.00     0.033 H 
ATOM      3  C   LIG d   1       3.925  -0.322 -12.815  0.00  0.00    -0.048 C 
ATOM      4  C   LIG d   1       4.473   0.253 -11.511  0.00  0.00    -0.049 C 
ATOM      5  C   LIG d   1       3.383   0.315 -10.434  0.00  0.00    -0.023 C 
ATOM      6  H   LIG d   1       2.561   0.932 -10.824  0.00  0.00     0.031 H 
ATOM      7  C   LIG d   1       2.853  -1.094 -10.188  0.00  0.00     0.001 C 
ATOM      8  C   LIG d   1       2.366  -1.749 -11.472  0.00  0.00     0.079 C 
ATOM      9  C   LIG d   1       1.063  -1.083 -11.991  0.00  0.00    -0.020 C 
ATOM     10  C   LIG d   1       0.526  -2.214 -12.920  0.00  0.00    -0.019 C 
ATOM     11  C   LIG d   1       1.017  -3.485 -12.213  0.00  0.00     0.096 C 
ATOM     12  O   LIG d   1       1.952  -3.107 -11.207  0.00  0.00    -0.364 OA
ATOM     13  C   LIG d   1       1.608  -4.483 -13.217  0.00  0.00     0.002 C 
ATOM     14  C   LIG d   1       0.576  -5.635 -13.260  0.00  0.00     0.051 C 
ATOM     15  O   LIG d   1      -0.626  -5.105 -12.661  0.00  0.00    -0.377 OA
ATOM     16  C   LIG d   1      -0.176  -4.239 -11.593  0.00  0.00     0.077 C 
ATOM     17  C   LIG d   1       3.945  -1.935  -9.519  0.00  0.00    -0.042 C 
ATOM     18  C   LIG d   1       4.317  -1.308  -8.174  0.00  0.00    -0.026 C 
ATOM     19  C   LIG d   1       4.891   0.086  -8.404  0.00  0.00     0.063 C 
ATOM     20  H   LIG d   1       5.834  -0.003  -8.958  0.00  0.00     0.060 H 
ATOM     21  C   LIG d   1       3.941   0.985  -9.186  0.00  0.00     0.020 C 
ATOM     22  H   LIG d   1       4.729  -0.353 -13.557  0.00  0.00     0.027 H 
ATOM     23  H   LIG d   1       3.137   0.337 -13.194  0.00  0.00     0.027 H 
ATOM     24  H   LIG d   1       5.305  -0.350 -11.156  0.00  0.00     0.027 H 
ATOM     25  H   LIG d   1       4.840   1.253 -11.756  0.00  0.00     0.027 H 
ATOM     26  H   LIG d   1       0.332  -0.864 -11.229  0.00  0.00     0.029 H 
ATOM     27  H   LIG d   1       1.299  -0.193 -12.578  0.00  0.00     0.029 H 
ATOM     28  H   LIG d   1       0.956  -2.128 -13.913  0.00  0.00     0.029 H 
ATOM     29  H   LIG d   1      -0.561  -2.187 -12.958  0.00  0.00     0.029 H 
ATOM     30  H   LIG d   1       1.712  -4.027 -14.202  0.00  0.00     0.032 H 
ATOM     31  H   LIG d   1       2.571  -4.857 -12.867  0.00  0.00     0.032 H 
ATOM     32  H   LIG d   1       0.384  -5.931 -14.292  0.00  0.00     0.056 H 
ATOM     33  H   LIG d   1       0.939  -6.489 -12.687  0.00  0.00     0.056 H 
ATOM     34  H   LIG d   1       0.153  -4.825 -10.737  0.00  0.00     0.059 H 
ATOM     35  H   LIG d   1      -0.959  -3.541 -11.307  0.00  0.00     0.059 H 
ATOM     36  H   LIG d   1       4.845  -1.940 -10.133  0.00  0.00     0.027 H 
ATOM     37  H   LIG d   1       3.588  -2.949  -9.365  0.00  0.00     0.027 H 
ATOM     38  H   LIG d   1       5.098  -1.933  -7.712  0.00  0.00     0.029 H 
ATOM     39  H   LIG d   1       3.478  -1.279  -7.494  0.00  0.00     0.029 H 
ENDROOT
BRANCH   1  40
ATOM     40  C   LIG d   1       4.479  -2.750 -12.451  0.00  0.00    -0.060 C 
ATOM     41  H   LIG d   1       5.348  -2.276 -11.993  0.00  0.00     0.023 H 
ATOM     42  H   LIG d   1       4.133  -3.564 -11.816  0.00  0.00     0.023 H 
ATOM     43  H   LIG d   1       4.755  -3.144 -13.430  0.00  0.00     0.023 H 
ENDBRANCH   1  40
BRANCH   7  44
ATOM     44  C   LIG d   1       1.648  -1.083  -9.226  0.00  0.00    -0.057 C 
ATOM     45  H   LIG d   1       0.723  -1.112  -9.803  0.00  0.00     0.024 H 
ATOM     46  H   LIG d   1       1.697  -1.954  -8.573  0.00  0.00     0.024 H 
ATOM     47  H   LIG d   1       1.672  -0.174  -8.625  0.00  0.00     0.024 H 
ENDBRANCH   7  44
BRANCH  21  48
ATOM     48  C   LIG d   1       2.832   1.506  -8.263  0.00  0.00    -0.055 C 
ATOM     49  H   LIG d   1       3.153   1.420  -7.226  0.00  0.00     0.024 H 
ATOM     50  H   LIG d   1       2.626   2.550  -8.495  0.00  0.00     0.024 H 
ATOM     51  H   LIG d   1       1.928   0.915  -8.413  0.00  0.00     0.024 H 
ENDBRANCH  21  48
BRANCH  21  52
ATOM     52  C   LIG d   1       4.748   2.242  -9.593  0.00  0.00     0.052 C 
ATOM     53  H   LIG d   1       4.369   3.109  -9.050  0.00  0.00     0.056 H 
ATOM     54  H   LIG d   1       4.642   2.411 -10.664  0.00  0.00     0.056 H 
BRANCH  52  55
ATOM     55  O   LIG d   1       6.127   2.046  -9.274  0.00  0.00    -0.394 OA
ATOM     56  H   LIG d   1       6.351   1.134  -9.042  0.00  0.00     0.209 HD
ENDBRANCH  52  55
ENDBRANCH  21  52
BRANCH  19  57
ATOM     57  O   LIG d   1       5.174   0.692  -7.137  0.00  0.00    -0.391 OA
ATOM     58  H   LIG d   1       4.440   0.652  -6.509  0.00  0.00     0.210 HD
ENDBRANCH  19  57
TORSDOF 6
ENDMDL
MODEL 10
REMARK VINA RESULT:      -4.8      8.866     11.226
REMARK  6 active torsions:
REMARK  status: ('A' for Active; 'I' for Inactive)
REMARK    1  A    between atoms: C_1  and  C_2 
REMARK    2  A    between atoms: C_8  and  C_27 
REMARK    3  A    between atoms: C_20  and  O_26 
REMARK    4  A    between atoms: C_22  and  C_23 
REMARK    5  A    between atoms: C_22  and  C_24 
REMARK    6  A    between atoms: C_24  and  O_25 
ROOT
ATOM      1  C   LIG d   1      11.126   5.772  -5.233  0.00  0.00    -0.014 C 
ATOM      2  H   LIG d   1      11.413   5.812  -6.305  0.00  0.00     0.033 H 
ATOM      3  C   LIG d   1      12.229   5.017  -4.507  0.00  0.00    -0.048 C 
ATOM      4  C   LIG d   1      12.078   5.131  -2.992  0.00  0.00    -0.049 C 
ATOM      5  C   LIG d   1      12.118   6.597  -2.544  0.00  0.00    -0.023 C 
ATOM      6  H   LIG d   1      13.073   7.026  -2.879  0.00  0.00     0.031 H 
ATOM      7  C   LIG d   1      10.983   7.352  -3.228  0.00  0.00     0.001 C 
ATOM      8  C   LIG d   1      11.037   7.206  -4.742  0.00  0.00     0.079 C 
ATOM      9  C   LIG d   1      12.244   7.974  -5.345  0.00  0.00    -0.020 C 
ATOM     10  C   LIG d   1      11.773   8.109  -6.825  0.00  0.00    -0.019 C 
ATOM     11  C   LIG d   1      10.248   8.206  -6.681  0.00  0.00     0.096 C 
ATOM     12  O   LIG d   1       9.900   7.865  -5.341  0.00  0.00    -0.364 OA
ATOM     13  C   LIG d   1       9.537   7.322  -7.713  0.00  0.00     0.002 C 
ATOM     14  C   LIG d   1       8.899   8.328  -8.700  0.00  0.00     0.051 C 
ATOM     15  O   LIG d   1       9.554   9.591  -8.449  0.00  0.00    -0.377 OA
ATOM     16  C   LIG d   1       9.775   9.633  -7.020  0.00  0.00     0.077 C 
ATOM     17  C   LIG d   1       9.642   6.862  -2.673  0.00  0.00    -0.042 C 
ATOM     18  C   LIG d   1       9.582   7.141  -1.170  0.00  0.00    -0.026 C 
ATOM     19  C   LIG d   1      10.682   6.358  -0.463  0.00  0.00     0.063 C 
ATOM     20  H   LIG d   1      10.483   5.285  -0.570  0.00  0.00     0.060 H 
ATOM     21  C   LIG d   1      12.067   6.663  -1.023  0.00  0.00     0.020 C 
ATOM     22  H   LIG d   1      12.195   3.960  -4.791  0.00  0.00     0.027 H 
ATOM     23  H   LIG d   1      13.205   5.416  -4.801  0.00  0.00     0.027 H 
ATOM     24  H   LIG d   1      11.145   4.675  -2.673  0.00  0.00     0.027 H 
ATOM     25  H   LIG d   1      12.912   4.567  -2.565  0.00  0.00     0.027 H 
ATOM     26  H   LIG d   1      12.410   8.954  -4.928  0.00  0.00     0.029 H 
ATOM     27  H   LIG d   1      13.147   7.364  -5.291  0.00  0.00     0.029 H 
ATOM     28  H   LIG d   1      12.056   7.231  -7.397  0.00  0.00     0.029 H 
ATOM     29  H   LIG d   1      12.178   9.016  -7.269  0.00  0.00     0.029 H 
ATOM     30  H   LIG d   1      10.250   6.680  -8.230  0.00  0.00     0.032 H 
ATOM     31  H   LIG d   1       8.760   6.722  -7.237  0.00  0.00     0.032 H 
ATOM     32  H   LIG d   1       9.075   8.011  -9.729  0.00  0.00     0.056 H 
ATOM     33  H   LIG d   1       7.828   8.415  -8.513  0.00  0.00     0.056 H 
ATOM     34  H   LIG d   1       8.847   9.857  -6.495  0.00  0.00     0.059 H 
ATOM     35  H   LIG d   1      10.546  10.358  -6.770  0.00  0.00     0.059 H 
ATOM     36  H   LIG d   1       9.551   5.784  -2.805  0.00  0.00     0.027 H 
ATOM     37  H   LIG d   1       8.826   7.373  -3.174  0.00  0.00     0.027 H 
ATOM     38  H   LIG d   1       8.608   6.785  -0.797  0.00  0.00     0.029 H 
ATOM     39  H   LIG d   1       9.649   8.197  -0.950  0.00  0.00     0.029 H 
ENDROOT
BRANCH   1  40
ATOM     40  C   LIG d   1       9.798   5.033  -5.158  0.00  0.00    -0.060 C 
ATOM     41  H   LIG d   1       9.337   5.213  -4.187  0.00  0.00     0.023 H 
ATOM     42  H   LIG d   1       9.137   5.392  -5.947  0.00  0.00     0.023 H 
ATOM     43  H   LIG d   1       9.970   3.964  -5.286  0.00  0.00     0.023 H 
ENDBRANCH   1  40
BRANCH   7  44
ATOM     44  C   LIG d   1      11.059   8.865  -2.939  0.00  0.00    -0.057 C 
ATOM     45  H   LIG d   1      11.324   9.022  -1.893  0.00  0.00     0.024 H 
ATOM     46  H   LIG d   1      11.815   9.319  -3.579  0.00  0.00     0.024 H 
ATOM     47  H   LIG d   1      10.090   9.322  -3.140  0.00  0.00     0.024 H 
ENDBRANCH   7  44
BRANCH  21  48
ATOM     48  C   LIG d   1      12.566   8.009  -0.484  0.00  0.00    -0.055 C 
ATOM     49  H   LIG d   1      11.910   8.806  -0.833  0.00  0.00     0.024 H 
ATOM     50  H   LIG d   1      12.565   7.988   0.605  0.00  0.00     0.024 H 
ATOM     51  H   LIG d   1      13.580   8.190  -0.843  0.00  0.00     0.024 H 
ENDBRANCH  21  48
BRANCH  21  52
ATOM     52  C   LIG d   1      13.032   5.609  -0.428  0.00  0.00     0.052 C 
ATOM     53  H   LIG d   1      13.185   4.807  -1.151  0.00  0.00     0.056 H 
ATOM     54  H   LIG d   1      12.602   5.198   0.485  0.00  0.00     0.056 H 
BRANCH  52  55
ATOM     55  O   LIG d   1      14.285   6.227  -0.130  0.00  0.00    -0.394 OA
ATOM     56  H   LIG d   1      14.516   6.216   0.810  0.00  0.00     0.209 HD
ENDBRANCH  52  55
ENDBRANCH  21  52
BRANCH  19  57
ATOM     57  O   LIG d   1      10.662   6.677   0.935  0.00  0.00    -0.391 OA
ATOM     58  H   LIG d   1      11.537   6.703   1.345  0.00  0.00     0.210 HD
ENDBRANCH  19  57
TORSDOF 6
ENDMDL
