MODEL 1
REMARK VINA RESULT:      -6.9      0.000      0.000
REMARK  9 active torsions:
REMARK  status: ('A' for Active; 'I' for Inactive)
REMARK    1  A    between atoms: C_1  and  C_2 
REMARK    2  A    between atoms: C_5  and  N_21 
REMARK    3  A    between atoms: C_10  and  C_11 
REMARK    4  A    between atoms: C_11  and  C_13 
REMARK    5  A    between atoms: C_16  and  O_19 
REMARK    6  A    between atoms: O_19  and  C_20 
REMARK       I    between atoms: N_21  and  C_22 
REMARK    7  A    between atoms: C_22  and  C_24 
REMARK    8  A    between atoms: C_29  and  O_30 
REMARK    9  A    between atoms: O_30  and  C_31 
ROOT
ATOM      1  C   LIG d   1       2.141  -2.314 -10.431  0.00  0.00     0.006 A 
ATOM      2  C   LIG d   1       2.647  -1.274  -9.536  0.00  0.00     0.025 A 
ATOM      3  C   LIG d   1       3.138  -1.274  -8.228  0.00  0.00    -0.029 A 
ATOM      4  C   LIG d   1       3.545  -0.084  -7.654  0.00  0.00     0.035 A 
ATOM      5  C   LIG d   1       3.473   1.104  -8.380  0.00  0.00    -0.037 A 
ATOM      6  C   LIG d   1       2.995   1.111  -9.671  0.00  0.00    -0.017 A 
ATOM      7  C   LIG d   1       2.576  -0.073 -10.266  0.00  0.00     0.136 A 
ATOM      8  O   LIG d   1       2.077  -0.365 -11.483  0.00  0.00    -0.451 OA
ATOM      9  C   LIG d   1       1.816  -1.685 -11.593  0.00  0.00     0.179 A 
ATOM     10  H   LIG d   1       3.197  -2.195  -7.668  0.00  0.00     0.064 H 
ATOM     11  H   LIG d   1       3.797   2.029  -7.924  0.00  0.00     0.064 H 
ATOM     12  H   LIG d   1       2.946   2.039 -10.222  0.00  0.00     0.066 H 
ENDROOT
BRANCH   4  13
ATOM     13  N   LIG d   1       4.035  -0.073  -6.342  0.00  0.00    -0.281 N 
ATOM     14  C   LIG d   1       3.186   0.091  -5.307  0.00  0.00     0.252 C 
ATOM     15  O   LIG d   1       2.011   0.323  -5.516  0.00  0.00    -0.270 OA
ATOM     16  H   LIG d   1       4.984  -0.183  -6.177  0.00  0.00     0.155 HD
BRANCH  14  17
ATOM     17  C   LIG d   1       3.685  -0.004  -3.922  0.00  0.00     0.079 A 
ATOM     18  C   LIG d   1       4.013  -1.253  -3.376  0.00  0.00     0.132 A 
ATOM     19  C   LIG d   1       4.482  -1.330  -2.073  0.00  0.00    -0.019 A 
ATOM     20  C   LIG d   1       4.624  -0.183  -1.318  0.00  0.00    -0.058 A 
ATOM     21  H   LIG d   1       4.736  -2.290  -1.648  0.00  0.00     0.065 H 
ATOM     22  C   LIG d   1       4.301   1.053  -1.855  0.00  0.00    -0.061 A 
ATOM     23  H   LIG d   1       4.989  -0.248  -0.305  0.00  0.00     0.062 H 
ATOM     24  C   LIG d   1       3.838   1.150  -3.150  0.00  0.00    -0.046 A 
ATOM     25  H   LIG d   1       4.416   1.945  -1.257  0.00  0.00     0.062 H 
ATOM     26  H   LIG d   1       3.591   2.116  -3.564  0.00  0.00     0.063 H 
BRANCH  18  27
ATOM     27  O   LIG d   1       3.874  -2.379  -4.118  0.00  0.00    -0.494 OA
BRANCH  27  28
ATOM     28  C   LIG d   1       5.068  -3.095  -4.440  0.00  0.00     0.079 C 
ATOM     29  H   LIG d   1       5.444  -3.595  -3.548  0.00  0.00     0.066 H 
ATOM     30  H   LIG d   1       4.852  -3.836  -5.209  0.00  0.00     0.066 H 
ATOM     31  H   LIG d   1       5.821  -2.397  -4.810  0.00  0.00     0.066 H 
ENDBRANCH  27  28
ENDBRANCH  18  27
ENDBRANCH  14  17
ENDBRANCH   4  13
BRANCH   1  32
ATOM     32  C   LIG d   1       2.008  -3.784 -10.130  0.00  0.00    -0.035 C 
ATOM     33  H   LIG d   1       0.987  -4.107 -10.336  0.00  0.00     0.028 H 
ATOM     34  H   LIG d   1       2.701  -4.348 -10.754  0.00  0.00     0.028 H 
ATOM     35  H   LIG d   1       2.239  -3.962  -9.080  0.00  0.00     0.028 H 
ENDBRANCH   1  32
BRANCH   9  36
ATOM     36  C   LIG d   1       1.264  -2.341 -12.784  0.00  0.00     0.228 C 
ATOM     37  O   LIG d   1       2.007  -2.705 -13.677  0.00  0.00    -0.283 OA
BRANCH  36  38
ATOM     38  C   LIG d   1      -0.191  -2.557 -12.901  0.00  0.00     0.026 A 
ATOM     39  C   LIG d   1      -1.023  -1.514 -13.320  0.00  0.00    -0.047 A 
ATOM     40  C   LIG d   1      -2.380  -1.720 -13.428  0.00  0.00    -0.019 A 
ATOM     41  H   LIG d   1      -0.602  -0.548 -13.558  0.00  0.00     0.063 H 
ATOM     42  C   LIG d   1      -2.923  -2.962 -13.122  0.00  0.00     0.120 A 
ATOM     43  H   LIG d   1      -3.023  -0.914 -13.751  0.00  0.00     0.065 H 
ATOM     44  C   LIG d   1      -2.099  -4.002 -12.705  0.00  0.00    -0.019 A 
ATOM     45  C   LIG d   1      -0.741  -3.806 -12.600  0.00  0.00    -0.047 A 
ATOM     46  H   LIG d   1      -2.525  -4.965 -12.467  0.00  0.00     0.065 H 
ATOM     47  H   LIG d   1      -0.101  -4.615 -12.281  0.00  0.00     0.063 H 
BRANCH  42  48
ATOM     48  O   LIG d   1      -4.261  -3.161 -13.230  0.00  0.00    -0.495 OA
BRANCH  48  49
ATOM     49  C   LIG d   1      -5.065  -2.790 -12.109  0.00  0.00     0.079 C 
ATOM     50  H   LIG d   1      -5.382  -3.686 -11.576  0.00  0.00     0.066 H 
ATOM     51  H   LIG d   1      -4.484  -2.155 -11.440  0.00  0.00     0.066 H 
ATOM     52  H   LIG d   1      -5.943  -2.244 -12.456  0.00  0.00     0.066 H 
ENDBRANCH  48  49
ENDBRANCH  42  48
ENDBRANCH  36  38
ENDBRANCH   9  36
TORSDOF 9
ENDMDL
MODEL 2
REMARK VINA RESULT:      -6.4      7.706     12.649
REMARK  9 active torsions:
REMARK  status: ('A' for Active; 'I' for Inactive)
REMARK    1  A    between atoms: C_1  and  C_2 
REMARK    2  A    between atoms: C_5  and  N_21 
REMARK    3  A    between atoms: C_10  and  C_11 
REMARK    4  A    between atoms: C_11  and  C_13 
REMARK    5  A    between atoms: C_16  and  O_19 
REMARK    6  A    between atoms: O_19  and  C_20 
REMARK       I    between atoms: N_21  and  C_22 
REMARK    7  A    between atoms: C_22  and  C_24 
REMARK    8  A    between atoms: C_29  and  O_30 
REMARK    9  A    between atoms: O_30  and  C_31 
ROOT
ATOM      1  C   LIG d   1      10.313   4.916  -3.373  0.00  0.00     0.006 A 
ATOM      2  C   LIG d   1       9.876   3.647  -3.955  0.00  0.00     0.025 A 
ATOM      3  C   LIG d   1       9.048   2.611  -3.516  0.00  0.00    -0.029 A 
ATOM      4  C   LIG d   1       8.837   1.516  -4.333  0.00  0.00     0.035 A 
ATOM      5  C   LIG d   1       9.438   1.453  -5.589  0.00  0.00    -0.037 A 
ATOM      6  C   LIG d   1      10.251   2.472  -6.030  0.00  0.00    -0.017 A 
ATOM      7  C   LIG d   1      10.481   3.580  -5.223  0.00  0.00     0.136 A 
ATOM      8  O   LIG d   1      11.211   4.702  -5.386  0.00  0.00    -0.451 OA
ATOM      9  C   LIG d   1      11.119   5.498  -4.300  0.00  0.00     0.179 A 
ATOM     10  H   LIG d   1       8.580   2.663  -2.544  0.00  0.00     0.064 H 
ATOM     11  H   LIG d   1       9.264   0.595  -6.222  0.00  0.00     0.064 H 
ATOM     12  H   LIG d   1      10.710   2.411  -7.006  0.00  0.00     0.066 H 
ENDROOT
BRANCH   4  13
ATOM     13  N   LIG d   1       8.012   0.471  -3.900  0.00  0.00    -0.281 N 
ATOM     14  C   LIG d   1       6.702   0.695  -3.671  0.00  0.00     0.252 C 
ATOM     15  O   LIG d   1       6.257   1.823  -3.750  0.00  0.00    -0.270 OA
ATOM     16  H   LIG d   1       8.383  -0.415  -3.764  0.00  0.00     0.155 HD
BRANCH  14  17
ATOM     17  C   LIG d   1       5.812  -0.428  -3.320  0.00  0.00     0.079 A 
ATOM     18  C   LIG d   1       5.775  -1.576  -4.122  0.00  0.00     0.132 A 
ATOM     19  C   LIG d   1       4.935  -2.625  -3.781  0.00  0.00    -0.019 A 
ATOM     20  C   LIG d   1       4.138  -2.537  -2.656  0.00  0.00    -0.058 A 
ATOM     21  H   LIG d   1       4.904  -3.513  -4.396  0.00  0.00     0.065 H 
ATOM     22  C   LIG d   1       4.172  -1.403  -1.861  0.00  0.00    -0.061 A 
ATOM     23  H   LIG d   1       3.486  -3.357  -2.395  0.00  0.00     0.062 H 
ATOM     24  C   LIG d   1       5.004  -0.353  -2.182  0.00  0.00    -0.046 A 
ATOM     25  H   LIG d   1       3.545  -1.344  -0.983  0.00  0.00     0.062 H 
ATOM     26  H   LIG d   1       5.029   0.527  -1.557  0.00  0.00     0.063 H 
BRANCH  18  27
ATOM     27  O   LIG d   1       6.559  -1.662  -5.224  0.00  0.00    -0.494 OA
BRANCH  27  28
ATOM     28  C   LIG d   1       7.398  -2.814  -5.336  0.00  0.00     0.079 C 
ATOM     29  H   LIG d   1       7.246  -3.459  -4.471  0.00  0.00     0.066 H 
ATOM     30  H   LIG d   1       7.145  -3.360  -6.246  0.00  0.00     0.066 H 
ATOM     31  H   LIG d   1       8.441  -2.501  -5.378  0.00  0.00     0.066 H 
ENDBRANCH  27  28
ENDBRANCH  18  27
ENDBRANCH  14  17
ENDBRANCH   4  13
BRANCH   1  32
ATOM     32  C   LIG d   1       9.944   5.467  -2.020  0.00  0.00    -0.035 C 
ATOM     33  H   LIG d   1      10.240   6.514  -1.960  0.00  0.00     0.028 H 
ATOM     34  H   LIG d   1       8.867   5.384  -1.874  0.00  0.00     0.028 H 
ATOM     35  H   LIG d   1      10.459   4.900  -1.244  0.00  0.00     0.028 H 
ENDBRANCH   1  32
BRANCH   9  36
ATOM     36  C   LIG d   1      11.788   6.795  -4.145  0.00  0.00     0.228 C 
ATOM     37  O   LIG d   1      12.986   6.839  -3.928  0.00  0.00    -0.283 OA
BRANCH  36  38
ATOM     38  C   LIG d   1      11.010   8.045  -4.248  0.00  0.00     0.026 A 
ATOM     39  C   LIG d   1      10.214   8.284  -5.372  0.00  0.00    -0.047 A 
ATOM     40  C   LIG d   1       9.489   9.451  -5.463  0.00  0.00    -0.019 A 
ATOM     41  H   LIG d   1      10.167   7.554  -6.166  0.00  0.00     0.063 H 
ATOM     42  C   LIG d   1       9.549  10.391  -4.442  0.00  0.00     0.120 A 
ATOM     43  H   LIG d   1       8.874   9.636  -6.332  0.00  0.00     0.065 H 
ATOM     44  C   LIG d   1      10.341  10.158  -3.322  0.00  0.00    -0.019 A 
ATOM     45  C   LIG d   1      11.063   8.991  -3.220  0.00  0.00    -0.047 A 
ATOM     46  H   LIG d   1      10.385  10.891  -2.531  0.00  0.00     0.065 H 
ATOM     47  H   LIG d   1      11.674   8.808  -2.348  0.00  0.00     0.063 H 
BRANCH  42  48
ATOM     48  O   LIG d   1       8.833  11.540  -4.536  0.00  0.00    -0.495 OA
BRANCH  48  49
ATOM     49  C   LIG d   1       8.530  12.218  -3.315  0.00  0.00     0.079 C 
ATOM     50  H   LIG d   1       7.694  11.722  -2.823  0.00  0.00     0.066 H 
ATOM     51  H   LIG d   1       9.403  12.197  -2.662  0.00  0.00     0.066 H 
ATOM     52  H   LIG d   1       8.263  13.253  -3.531  0.00  0.00     0.066 H 
ENDBRANCH  48  49
ENDBRANCH  42  48
ENDBRANCH  36  38
ENDBRANCH   9  36
TORSDOF 9
ENDMDL
MODEL 3
REMARK VINA RESULT:      -6.4      7.597     11.582
REMARK  9 active torsions:
REMARK  status: ('A' for Active; 'I' for Inactive)
REMARK    1  A    between atoms: C_1  and  C_2 
REMARK    2  A    between atoms: C_5  and  N_21 
REMARK    3  A    between atoms: C_10  and  C_11 
REMARK    4  A    between atoms: C_11  and  C_13 
REMARK    5  A    between atoms: C_16  and  O_19 
REMARK    6  A    between atoms: O_19  and  C_20 
REMARK       I    between atoms: N_21  and  C_22 
REMARK    7  A    between atoms: C_22  and  C_24 
REMARK    8  A    between atoms: C_29  and  O_30 
REMARK    9  A    between atoms: O_30  and  C_31 
ROOT
ATOM      1  C   LIG d   1       9.827   3.899  -7.248  0.00  0.00     0.006 A 
ATOM      2  C   LIG d   1       9.592   3.182  -5.995  0.00  0.00     0.025 A 
ATOM      3  C   LIG d   1       8.761   2.123  -5.624  0.00  0.00    -0.029 A 
ATOM      4  C   LIG d   1       8.776   1.671  -4.318  0.00  0.00     0.035 A 
ATOM      5  C   LIG d   1       9.624   2.263  -3.382  0.00  0.00    -0.037 A 
ATOM      6  C   LIG d   1      10.449   3.304  -3.742  0.00  0.00    -0.017 A 
ATOM      7  C   LIG d   1      10.446   3.778  -5.049  0.00  0.00     0.136 A 
ATOM      8  O   LIG d   1      11.129   4.757  -5.675  0.00  0.00    -0.451 OA
ATOM      9  C   LIG d   1      10.772   4.838  -6.973  0.00  0.00     0.179 A 
ATOM     10  H   LIG d   1       8.108   1.662  -6.350  0.00  0.00     0.064 H 
ATOM     11  H   LIG d   1       9.632   1.901  -2.364  0.00  0.00     0.064 H 
ATOM     12  H   LIG d   1      11.101   3.754  -3.007  0.00  0.00     0.066 H 
ENDROOT
BRANCH   4  13
ATOM     13  N   LIG d   1       7.944   0.613  -3.935  0.00  0.00    -0.281 N 
ATOM     14  C   LIG d   1       6.675   0.858  -3.550  0.00  0.00     0.252 C 
ATOM     15  O   LIG d   1       6.283   2.004  -3.446  0.00  0.00    -0.270 OA
ATOM     16  H   LIG d   1       8.279  -0.297  -3.946  0.00  0.00     0.155 HD
BRANCH  14  17
ATOM     17  C   LIG d   1       5.764  -0.264  -3.251  0.00  0.00     0.079 A 
ATOM     18  C   LIG d   1       5.720  -1.381  -4.096  0.00  0.00     0.132 A 
ATOM     19  C   LIG d   1       4.862  -2.429  -3.804  0.00  0.00    -0.019 A 
ATOM     20  C   LIG d   1       4.054  -2.372  -2.685  0.00  0.00    -0.058 A 
ATOM     21  H   LIG d   1       4.824  -3.293  -4.452  0.00  0.00     0.065 H 
ATOM     22  C   LIG d   1       4.096  -1.270  -1.846  0.00  0.00    -0.061 A 
ATOM     23  H   LIG d   1       3.387  -3.192  -2.461  0.00  0.00     0.062 H 
ATOM     24  C   LIG d   1       4.947  -0.221  -2.119  0.00  0.00    -0.046 A 
ATOM     25  H   LIG d   1       3.460  -1.235  -0.973  0.00  0.00     0.062 H 
ATOM     26  H   LIG d   1       4.977   0.634  -1.460  0.00  0.00     0.063 H 
BRANCH  18  27
ATOM     27  O   LIG d   1       6.514  -1.436  -5.194  0.00  0.00    -0.494 OA
BRANCH  27  28
ATOM     28  C   LIG d   1       5.864  -1.579  -6.458  0.00  0.00     0.079 C 
ATOM     29  H   LIG d   1       6.606  -1.794  -7.226  0.00  0.00     0.066 H 
ATOM     30  H   LIG d   1       5.146  -2.398  -6.407  0.00  0.00     0.066 H 
ATOM     31  H   LIG d   1       5.343  -0.654  -6.705  0.00  0.00     0.066 H 
ENDBRANCH  27  28
ENDBRANCH  18  27
ENDBRANCH  14  17
ENDBRANCH   4  13
BRANCH   1  32
ATOM     32  C   LIG d   1       9.159   3.648  -8.575  0.00  0.00    -0.035 C 
ATOM     33  H   LIG d   1       9.848   3.119  -9.235  0.00  0.00     0.028 H 
ATOM     34  H   LIG d   1       8.265   3.044  -8.424  0.00  0.00     0.028 H 
ATOM     35  H   LIG d   1       8.882   4.599  -9.029  0.00  0.00     0.028 H 
ENDBRANCH   1  32
BRANCH   9  36
ATOM     36  C   LIG d   1      11.320   5.796  -7.942  0.00  0.00     0.228 C 
ATOM     37  O   LIG d   1      12.107   5.419  -8.790  0.00  0.00    -0.283 OA
BRANCH  36  38
ATOM     38  C   LIG d   1      10.918   7.215  -7.886  0.00  0.00     0.026 A 
ATOM     39  C   LIG d   1      11.891   8.216  -7.815  0.00  0.00    -0.047 A 
ATOM     40  C   LIG d   1      11.511   9.539  -7.763  0.00  0.00    -0.019 A 
ATOM     41  H   LIG d   1      12.938   7.953  -7.800  0.00  0.00     0.063 H 
ATOM     42  C   LIG d   1      10.164   9.879  -7.782  0.00  0.00     0.120 A 
ATOM     43  H   LIG d   1      12.263  10.313  -7.708  0.00  0.00     0.065 H 
ATOM     44  C   LIG d   1       9.193   8.886  -7.852  0.00  0.00    -0.019 A 
ATOM     45  C   LIG d   1       9.564   7.561  -7.910  0.00  0.00    -0.047 A 
ATOM     46  H   LIG d   1       8.148   9.154  -7.865  0.00  0.00     0.065 H 
ATOM     47  H   LIG d   1       8.809   6.791  -7.969  0.00  0.00     0.063 H 
BRANCH  42  48
ATOM     48  O   LIG d   1       9.794  11.183  -7.731  0.00  0.00    -0.495 OA
BRANCH  48  49
ATOM     49  C   LIG d   1       9.881  11.834  -6.462  0.00  0.00     0.079 C 
ATOM     50  H   LIG d   1       9.678  12.897  -6.584  0.00  0.00     0.066 H 
ATOM     51  H   LIG d   1       9.148  11.399  -5.781  0.00  0.00     0.066 H 
ATOM     52  H   LIG d   1      10.882  11.700  -6.052  0.00  0.00     0.066 H 
ENDBRANCH  48  49
ENDBRANCH  42  48
ENDBRANCH  36  38
ENDBRANCH   9  36
TORSDOF 9
ENDMDL
MODEL 4
REMARK VINA RESULT:      -6.3      2.952      3.394
REMARK  9 active torsions:
REMARK  status: ('A' for Active; 'I' for Inactive)
REMARK    1  A    between atoms: C_1  and  C_2 
REMARK    2  A    between atoms: C_5  and  N_21 
REMARK    3  A    between atoms: C_10  and  C_11 
REMARK    4  A    between atoms: C_11  and  C_13 
REMARK    5  A    between atoms: C_16  and  O_19 
REMARK    6  A    between atoms: O_19  and  C_20 
REMARK       I    between atoms: N_21  and  C_22 
REMARK    7  A    between atoms: C_22  and  C_24 
REMARK    8  A    between atoms: C_29  and  O_30 
REMARK    9  A    between atoms: O_30  and  C_31 
ROOT
ATOM      1  C   LIG d   1       4.554  -1.403 -11.412  0.00  0.00     0.006 A 
ATOM      2  C   LIG d   1       4.127  -0.729 -10.186  0.00  0.00     0.025 A 
ATOM      3  C   LIG d   1       4.085  -1.098  -8.840  0.00  0.00    -0.029 A 
ATOM      4  C   LIG d   1       3.607  -0.201  -7.903  0.00  0.00     0.035 A 
ATOM      5  C   LIG d   1       3.181   1.066  -8.300  0.00  0.00    -0.037 A 
ATOM      6  C   LIG d   1       3.224   1.438  -9.624  0.00  0.00    -0.017 A 
ATOM      7  C   LIG d   1       3.695   0.550 -10.584  0.00  0.00     0.136 A 
ATOM      8  O   LIG d   1       3.850   0.635 -11.920  0.00  0.00    -0.451 OA
ATOM      9  C   LIG d   1       4.356  -0.511 -12.420  0.00  0.00     0.179 A 
ATOM     10  H   LIG d   1       4.419  -2.078  -8.533  0.00  0.00     0.064 H 
ATOM     11  H   LIG d   1       2.813   1.761  -7.560  0.00  0.00     0.064 H 
ATOM     12  H   LIG d   1       2.891   2.423  -9.918  0.00  0.00     0.066 H 
ENDROOT
BRANCH   4  13
ATOM     13  N   LIG d   1       3.557  -0.563  -6.551  0.00  0.00    -0.281 N 
ATOM     14  C   LIG d   1       4.605  -0.300  -5.743  0.00  0.00     0.252 C 
ATOM     15  O   LIG d   1       5.627   0.166  -6.207  0.00  0.00    -0.270 OA
ATOM     16  H   LIG d   1       2.770  -1.003  -6.195  0.00  0.00     0.155 HD
BRANCH  14  17
ATOM     17  C   LIG d   1       4.511  -0.582  -4.298  0.00  0.00     0.079 A 
ATOM     18  C   LIG d   1       4.287  -1.890  -3.849  0.00  0.00     0.132 A 
ATOM     19  C   LIG d   1       4.202  -2.144  -2.489  0.00  0.00    -0.019 A 
ATOM     20  C   LIG d   1       4.337  -1.112  -1.581  0.00  0.00    -0.058 A 
ATOM     21  H   LIG d   1       4.029  -3.151  -2.137  0.00  0.00     0.065 H 
ATOM     22  C   LIG d   1       4.560   0.183  -2.022  0.00  0.00    -0.061 A 
ATOM     23  H   LIG d   1       4.271  -1.315  -0.523  0.00  0.00     0.062 H 
ATOM     24  C   LIG d   1       4.652   0.453  -3.370  0.00  0.00    -0.046 A 
ATOM     25  H   LIG d   1       4.665   0.984  -1.304  0.00  0.00     0.062 H 
ATOM     26  H   LIG d   1       4.829   1.463  -3.708  0.00  0.00     0.063 H 
BRANCH  18  27
ATOM     27  O   LIG d   1       4.155  -2.903  -4.741  0.00  0.00    -0.494 OA
BRANCH  27  28
ATOM     28  C   LIG d   1       5.275  -3.776  -4.901  0.00  0.00     0.079 C 
ATOM     29  H   LIG d   1       5.441  -4.328  -3.976  0.00  0.00     0.066 H 
ATOM     30  H   LIG d   1       5.077  -4.477  -5.712  0.00  0.00     0.066 H 
ATOM     31  H   LIG d   1       6.163  -3.188  -5.137  0.00  0.00     0.066 H 
ENDBRANCH  27  28
ENDBRANCH  18  27
ENDBRANCH  14  17
ENDBRANCH   4  13
BRANCH   1  32
ATOM     32  C   LIG d   1       5.103  -2.801 -11.534  0.00  0.00    -0.035 C 
ATOM     33  H   LIG d   1       6.161  -2.755 -11.793  0.00  0.00     0.028 H 
ATOM     34  H   LIG d   1       4.982  -3.323 -10.585  0.00  0.00     0.028 H 
ATOM     35  H   LIG d   1       4.561  -3.336 -12.314  0.00  0.00     0.028 H 
ENDBRANCH   1  32
BRANCH   9  36
ATOM     36  C   LIG d   1       4.648  -0.759 -13.837  0.00  0.00     0.228 C 
ATOM     37  O   LIG d   1       5.782  -0.620 -14.258  0.00  0.00    -0.283 OA
BRANCH  36  38
ATOM     38  C   LIG d   1       3.566  -1.173 -14.753  0.00  0.00     0.026 A 
ATOM     39  C   LIG d   1       3.563  -0.730 -16.079  0.00  0.00    -0.047 A 
ATOM     40  C   LIG d   1       2.553  -1.120 -16.929  0.00  0.00    -0.019 A 
ATOM     41  H   LIG d   1       4.352  -0.084 -16.436  0.00  0.00     0.063 H 
ATOM     42  C   LIG d   1       1.538  -1.951 -16.472  0.00  0.00     0.120 A 
ATOM     43  H   LIG d   1       2.549  -0.778 -17.954  0.00  0.00     0.065 H 
ATOM     44  C   LIG d   1       1.537  -2.393 -15.153  0.00  0.00    -0.019 A 
ATOM     45  C   LIG d   1       2.547  -2.014 -14.298  0.00  0.00    -0.047 A 
ATOM     46  H   LIG d   1       0.746  -3.038 -14.801  0.00  0.00     0.065 H 
ATOM     47  H   LIG d   1       2.548  -2.361 -13.275  0.00  0.00     0.063 H 
BRANCH  42  48
ATOM     48  O   LIG d   1       0.544  -2.333 -17.313  0.00  0.00    -0.495 OA
BRANCH  48  49
ATOM     49  C   LIG d   1      -0.065  -1.311 -18.105  0.00  0.00     0.079 C 
ATOM     50  H   LIG d   1       0.683  -0.868 -18.762  0.00  0.00     0.066 H 
ATOM     51  H   LIG d   1      -0.865  -1.745 -18.704  0.00  0.00     0.066 H 
ATOM     52  H   LIG d   1      -0.476  -0.541 -17.452  0.00  0.00     0.066 H 
ENDBRANCH  48  49
ENDBRANCH  42  48
ENDBRANCH  36  38
ENDBRANCH   9  36
TORSDOF 9
ENDMDL
MODEL 5
REMARK VINA RESULT:      -6.2      7.614     11.524
REMARK  9 active torsions:
REMARK  status: ('A' for Active; 'I' for Inactive)
REMARK    1  A    between atoms: C_1  and  C_2 
REMARK    2  A    between atoms: C_5  and  N_21 
REMARK    3  A    between atoms: C_10  and  C_11 
REMARK    4  A    between atoms: C_11  and  C_13 
REMARK    5  A    between atoms: C_16  and  O_19 
REMARK    6  A    between atoms: O_19  and  C_20 
REMARK       I    between atoms: N_21  and  C_22 
REMARK    7  A    between atoms: C_22  and  C_24 
REMARK    8  A    between atoms: C_29  and  O_30 
REMARK    9  A    between atoms: O_30  and  C_31 
ROOT
ATOM      1  C   LIG d   1       9.831   5.062  -5.049  0.00  0.00     0.006 A 
ATOM      2  C   LIG d   1       9.626   3.617  -4.959  0.00  0.00     0.025 A 
ATOM      3  C   LIG d   1       8.672   2.809  -4.336  0.00  0.00    -0.029 A 
ATOM      4  C   LIG d   1       8.768   1.434  -4.446  0.00  0.00     0.035 A 
ATOM      5  C   LIG d   1       9.804   0.861  -5.182  0.00  0.00    -0.037 A 
ATOM      6  C   LIG d   1      10.745   1.651  -5.803  0.00  0.00    -0.017 A 
ATOM      7  C   LIG d   1      10.670   3.036  -5.702  0.00  0.00     0.136 A 
ATOM      8  O   LIG d   1      11.429   4.037  -6.191  0.00  0.00    -0.451 OA
ATOM      9  C   LIG d   1      10.944   5.237  -5.812  0.00  0.00     0.179 A 
ATOM     10  H   LIG d   1       7.867   3.254  -3.770  0.00  0.00     0.064 H 
ATOM     11  H   LIG d   1       9.869  -0.214  -5.265  0.00  0.00     0.064 H 
ATOM     12  H   LIG d   1      11.542   1.194  -6.371  0.00  0.00     0.066 H 
ENDROOT
BRANCH   4  13
ATOM     13  N   LIG d   1       7.819   0.616  -3.821  0.00  0.00    -0.281 N 
ATOM     14  C   LIG d   1       6.730   0.205  -4.502  0.00  0.00     0.252 C 
ATOM     15  O   LIG d   1       6.523   0.621  -5.626  0.00  0.00    -0.270 OA
ATOM     16  H   LIG d   1       7.944   0.344  -2.899  0.00  0.00     0.155 HD
BRANCH  14  17
ATOM     17  C   LIG d   1       5.785  -0.743  -3.881  0.00  0.00     0.079 A 
ATOM     18  C   LIG d   1       4.979  -0.335  -2.810  0.00  0.00     0.132 A 
ATOM     19  C   LIG d   1       4.094  -1.235  -2.235  0.00  0.00    -0.019 A 
ATOM     20  C   LIG d   1       4.010  -2.527  -2.716  0.00  0.00    -0.058 A 
ATOM     21  H   LIG d   1       3.470  -0.925  -1.410  0.00  0.00     0.065 H 
ATOM     22  C   LIG d   1       4.805  -2.934  -3.775  0.00  0.00    -0.061 A 
ATOM     23  H   LIG d   1       3.319  -3.224  -2.265  0.00  0.00     0.062 H 
ATOM     24  C   LIG d   1       5.687  -2.051  -4.362  0.00  0.00    -0.046 A 
ATOM     25  H   LIG d   1       4.732  -3.946  -4.144  0.00  0.00     0.062 H 
ATOM     26  H   LIG d   1       6.302  -2.373  -5.189  0.00  0.00     0.063 H 
BRANCH  18  27
ATOM     27  O   LIG d   1       5.062   0.934  -2.340  0.00  0.00    -0.494 OA
BRANCH  27  28
ATOM     28  C   LIG d   1       3.904   1.758  -2.492  0.00  0.00     0.079 C 
ATOM     29  H   LIG d   1       4.155   2.787  -2.235  0.00  0.00     0.066 H 
ATOM     30  H   LIG d   1       3.560   1.714  -3.525  0.00  0.00     0.066 H 
ATOM     31  H   LIG d   1       3.115   1.401  -1.830  0.00  0.00     0.066 H 
ENDBRANCH  27  28
ENDBRANCH  18  27
ENDBRANCH  14  17
ENDBRANCH   4  13
BRANCH   1  32
ATOM     32  C   LIG d   1       8.983   6.139  -4.424  0.00  0.00    -0.035 C 
ATOM     33  H   LIG d   1       9.581   6.706  -3.711  0.00  0.00     0.028 H 
ATOM     34  H   LIG d   1       8.614   6.808  -5.201  0.00  0.00     0.028 H 
ATOM     35  H   LIG d   1       8.139   5.683  -3.908  0.00  0.00     0.028 H 
ENDBRANCH   1  32
BRANCH   9  36
ATOM     36  C   LIG d   1      11.529   6.536  -6.169  0.00  0.00     0.228 C 
ATOM     37  O   LIG d   1      12.297   7.087  -5.403  0.00  0.00    -0.283 OA
BRANCH  36  38
ATOM     38  C   LIG d   1      11.184   7.172  -7.456  0.00  0.00     0.026 A 
ATOM     39  C   LIG d   1      12.180   7.415  -8.406  0.00  0.00    -0.047 A 
ATOM     40  C   LIG d   1      11.854   8.009  -9.605  0.00  0.00    -0.019 A 
ATOM     41  H   LIG d   1      13.203   7.137  -8.201  0.00  0.00     0.063 H 
ATOM     42  C   LIG d   1      10.537   8.366  -9.871  0.00  0.00     0.120 A 
ATOM     43  H   LIG d   1      12.623   8.197 -10.340  0.00  0.00     0.065 H 
ATOM     44  C   LIG d   1       9.544   8.127  -8.927  0.00  0.00    -0.019 A 
ATOM     45  C   LIG d   1       9.860   7.529  -7.729  0.00  0.00    -0.047 A 
ATOM     46  H   LIG d   1       8.523   8.407  -9.137  0.00  0.00     0.065 H 
ATOM     47  H   LIG d   1       9.087   7.338  -6.999  0.00  0.00     0.063 H 
BRANCH  42  48
ATOM     48  O   LIG d   1      10.220   8.951 -11.053  0.00  0.00    -0.495 OA
BRANCH  48  49
ATOM     49  C   LIG d   1       9.968   8.084 -12.160  0.00  0.00     0.079 C 
ATOM     50  H   LIG d   1      10.915   7.715 -12.554  0.00  0.00     0.066 H 
ATOM     51  H   LIG d   1       9.358   7.243 -11.831  0.00  0.00     0.066 H 
ATOM     52  H   LIG d   1       9.440   8.633 -12.940  0.00  0.00     0.066 H 
ENDBRANCH  48  49
ENDBRANCH  42  48
ENDBRANCH  36  38
ENDBRANCH   9  36
TORSDOF 9
ENDMDL
MODEL 6
REMARK VINA RESULT:      -6.2      5.746     11.882
REMARK  9 active torsions:
REMARK  status: ('A' for Active; 'I' for Inactive)
REMARK    1  A    between atoms: C_1  and  C_2 
REMARK    2  A    between atoms: C_5  and  N_21 
REMARK    3  A    between atoms: C_10  and  C_11 
REMARK    4  A    between atoms: C_11  and  C_13 
REMARK    5  A    between atoms: C_16  and  O_19 
REMARK    6  A    between atoms: O_19  and  C_20 
REMARK       I    between atoms: N_21  and  C_22 
REMARK    7  A    between atoms: C_22  and  C_24 
REMARK    8  A    between atoms: C_29  and  O_30 
REMARK    9  A    between atoms: O_30  and  C_31 
ROOT
ATOM      1  C   LIG d   1       9.167   2.535  -5.667  0.00  0.00     0.006 A 
ATOM      2  C   LIG d   1       8.157   1.479  -5.609  0.00  0.00     0.025 A 
ATOM      3  C   LIG d   1       7.291   0.911  -6.547  0.00  0.00    -0.029 A 
ATOM      4  C   LIG d   1       6.432  -0.099  -6.156  0.00  0.00     0.035 A 
ATOM      5  C   LIG d   1       6.438  -0.552  -4.837  0.00  0.00    -0.037 A 
ATOM      6  C   LIG d   1       7.291   0.000  -3.909  0.00  0.00    -0.017 A 
ATOM      7  C   LIG d   1       8.160   1.020  -4.279  0.00  0.00     0.136 A 
ATOM      8  O   LIG d   1       9.085   1.732  -3.604  0.00  0.00    -0.451 OA
ATOM      9  C   LIG d   1       9.686   2.629  -4.414  0.00  0.00     0.179 A 
ATOM     10  H   LIG d   1       7.291   1.259  -7.569  0.00  0.00     0.064 H 
ATOM     11  H   LIG d   1       5.766  -1.344  -4.542  0.00  0.00     0.064 H 
ATOM     12  H   LIG d   1       7.286  -0.361  -2.891  0.00  0.00     0.066 H 
ENDROOT
BRANCH   4  13
ATOM     13  N   LIG d   1       5.558  -0.672  -7.088  0.00  0.00    -0.281 N 
ATOM     14  C   LIG d   1       4.262  -0.301  -7.114  0.00  0.00     0.252 C 
ATOM     15  O   LIG d   1       3.832   0.461  -6.270  0.00  0.00    -0.270 OA
ATOM     16  H   LIG d   1       5.884  -1.337  -7.714  0.00  0.00     0.155 HD
BRANCH  14  17
ATOM     17  C   LIG d   1       3.366  -0.823  -8.164  0.00  0.00     0.079 A 
ATOM     18  C   LIG d   1       3.395  -2.182  -8.503  0.00  0.00     0.132 A 
ATOM     19  C   LIG d   1       2.548  -2.661  -9.490  0.00  0.00    -0.019 A 
ATOM     20  C   LIG d   1       1.680  -1.802 -10.135  0.00  0.00    -0.058 A 
ATOM     21  H   LIG d   1       2.566  -3.708  -9.755  0.00  0.00     0.065 H 
ATOM     22  C   LIG d   1       1.648  -0.458  -9.802  0.00  0.00    -0.061 A 
ATOM     23  H   LIG d   1       1.021  -2.181 -10.903  0.00  0.00     0.062 H 
ATOM     24  C   LIG d   1       2.479   0.035  -8.820  0.00  0.00    -0.046 A 
ATOM     25  H   LIG d   1       0.965   0.206 -10.312  0.00  0.00     0.062 H 
ATOM     26  H   LIG d   1       2.448   1.083  -8.561  0.00  0.00     0.063 H 
BRANCH  18  27
ATOM     27  O   LIG d   1       4.247  -3.024  -7.868  0.00  0.00    -0.494 OA
BRANCH  27  28
ATOM     28  C   LIG d   1       3.947  -4.420  -7.932  0.00  0.00     0.079 C 
ATOM     29  H   LIG d   1       4.249  -4.813  -8.903  0.00  0.00     0.066 H 
ATOM     30  H   LIG d   1       4.487  -4.944  -7.144  0.00  0.00     0.066 H 
ATOM     31  H   LIG d   1       2.874  -4.567  -7.798  0.00  0.00     0.066 H 
ENDBRANCH  27  28
ENDBRANCH  18  27
ENDBRANCH  14  17
ENDBRANCH   4  13
BRANCH   1  32
ATOM     32  C   LIG d   1       9.556   3.353  -6.872  0.00  0.00    -0.035 C 
ATOM     33  H   LIG d   1       9.351   4.406  -6.678  0.00  0.00     0.028 H 
ATOM     34  H   LIG d   1      10.618   3.220  -7.074  0.00  0.00     0.028 H 
ATOM     35  H   LIG d   1       8.978   3.024  -7.735  0.00  0.00     0.028 H 
ENDBRANCH   1  32
BRANCH   9  36
ATOM     36  C   LIG d   1      10.738   3.566  -4.002  0.00  0.00     0.228 C 
ATOM     37  O   LIG d   1      11.878   3.413  -4.402  0.00  0.00    -0.283 OA
BRANCH  36  38
ATOM     38  C   LIG d   1      10.416   4.690  -3.101  0.00  0.00     0.026 A 
ATOM     39  C   LIG d   1       9.647   5.761  -3.566  0.00  0.00    -0.047 A 
ATOM     40  C   LIG d   1       9.348   6.808  -2.722  0.00  0.00    -0.019 A 
ATOM     41  H   LIG d   1       9.288   5.768  -4.585  0.00  0.00     0.063 H 
ATOM     42  C   LIG d   1       9.809   6.800  -1.411  0.00  0.00     0.120 A 
ATOM     43  H   LIG d   1       8.754   7.636  -3.081  0.00  0.00     0.065 H 
ATOM     44  C   LIG d   1      10.574   5.737  -0.946  0.00  0.00    -0.019 A 
ATOM     45  C   LIG d   1      10.873   4.684  -1.780  0.00  0.00    -0.047 A 
ATOM     46  H   LIG d   1      10.931   5.735   0.073  0.00  0.00     0.065 H 
ATOM     47  H   LIG d   1      11.463   3.856  -1.416  0.00  0.00     0.063 H 
BRANCH  42  48
ATOM     48  O   LIG d   1       9.512   7.833  -0.583  0.00  0.00    -0.495 OA
BRANCH  48  49
ATOM     49  C   LIG d   1       9.708   9.153  -1.095  0.00  0.00     0.079 C 
ATOM     50  H   LIG d   1      10.639   9.560  -0.701  0.00  0.00     0.066 H 
ATOM     51  H   LIG d   1       9.759   9.116  -2.183  0.00  0.00     0.066 H 
ATOM     52  H   LIG d   1       8.876   9.788  -0.791  0.00  0.00     0.066 H 
ENDBRANCH  48  49
ENDBRANCH  42  48
ENDBRANCH  36  38
ENDBRANCH   9  36
TORSDOF 9
ENDMDL
MODEL 7
REMARK VINA RESULT:      -6.2      3.592      5.398
REMARK  9 active torsions:
REMARK  status: ('A' for Active; 'I' for Inactive)
REMARK    1  A    between atoms: C_1  and  C_2 
REMARK    2  A    between atoms: C_5  and  N_21 
REMARK    3  A    between atoms: C_10  and  C_11 
REMARK    4  A    between atoms: C_11  and  C_13 
REMARK    5  A    between atoms: C_16  and  O_19 
REMARK    6  A    between atoms: O_19  and  C_20 
REMARK       I    between atoms: N_21  and  C_22 
REMARK    7  A    between atoms: C_22  and  C_24 
REMARK    8  A    between atoms: C_29  and  O_30 
REMARK    9  A    between atoms: O_30  and  C_31 
ROOT
ATOM      1  C   LIG d   1       3.810  -1.705 -11.359  0.00  0.00     0.006 A 
ATOM      2  C   LIG d   1       3.557  -0.957 -10.129  0.00  0.00     0.025 A 
ATOM      3  C   LIG d   1       3.601  -1.279  -8.770  0.00  0.00    -0.029 A 
ATOM      4  C   LIG d   1       3.293  -0.313  -7.831  0.00  0.00     0.035 A 
ATOM      5  C   LIG d   1       2.951   0.976  -8.238  0.00  0.00    -0.037 A 
ATOM      6  C   LIG d   1       2.910   1.302  -9.575  0.00  0.00    -0.017 A 
ATOM      7  C   LIG d   1       3.211   0.345 -10.536  0.00  0.00     0.136 A 
ATOM      8  O   LIG d   1       3.254   0.375 -11.883  0.00  0.00    -0.451 OA
ATOM      9  C   LIG d   1       3.606  -0.829 -12.380  0.00  0.00     0.179 A 
ATOM     10  H   LIG d   1       3.870  -2.276  -8.456  0.00  0.00     0.064 H 
ATOM     11  H   LIG d   1       2.715   1.725  -7.497  0.00  0.00     0.064 H 
ATOM     12  H   LIG d   1       2.644   2.305  -9.877  0.00  0.00     0.066 H 
ENDROOT
BRANCH   4  13
ATOM     13  N   LIG d   1       3.330  -0.628  -6.467  0.00  0.00    -0.281 N 
ATOM     14  C   LIG d   1       4.422  -0.327  -5.735  0.00  0.00     0.252 C 
ATOM     15  O   LIG d   1       5.409   0.131  -6.277  0.00  0.00    -0.270 OA
ATOM     16  H   LIG d   1       2.571  -1.062  -6.048  0.00  0.00     0.155 HD
BRANCH  14  17
ATOM     17  C   LIG d   1       4.421  -0.560  -4.278  0.00  0.00     0.079 A 
ATOM     18  C   LIG d   1       4.265  -1.857  -3.771  0.00  0.00     0.132 A 
ATOM     19  C   LIG d   1       4.267  -2.063  -2.400  0.00  0.00    -0.019 A 
ATOM     20  C   LIG d   1       4.421  -0.995  -1.539  0.00  0.00    -0.058 A 
ATOM     21  H   LIG d   1       4.147  -3.061  -2.005  0.00  0.00     0.065 H 
ATOM     22  C   LIG d   1       4.576   0.289  -2.036  0.00  0.00    -0.061 A 
ATOM     23  H   LIG d   1       4.422  -1.161  -0.472  0.00  0.00     0.062 H 
ATOM     24  C   LIG d   1       4.582   0.512  -3.396  0.00  0.00    -0.046 A 
ATOM     25  H   LIG d   1       4.696   1.118  -1.354  0.00  0.00     0.062 H 
ATOM     26  H   LIG d   1       4.706   1.514  -3.778  0.00  0.00     0.063 H 
BRANCH  18  27
ATOM     27  O   LIG d   1       4.115  -2.905  -4.618  0.00  0.00    -0.494 OA
BRANCH  27  28
ATOM     28  C   LIG d   1       5.272  -3.704  -4.872  0.00  0.00     0.079 C 
ATOM     29  H   LIG d   1       4.976  -4.746  -4.989  0.00  0.00     0.066 H 
ATOM     30  H   LIG d   1       5.758  -3.360  -5.785  0.00  0.00     0.066 H 
ATOM     31  H   LIG d   1       5.966  -3.615  -4.035  0.00  0.00     0.066 H 
ENDBRANCH  27  28
ENDBRANCH  18  27
ENDBRANCH  14  17
ENDBRANCH   4  13
BRANCH   1  32
ATOM     32  C   LIG d   1       4.215  -3.151 -11.474  0.00  0.00    -0.035 C 
ATOM     33  H   LIG d   1       5.246  -3.214 -11.824  0.00  0.00     0.028 H 
ATOM     34  H   LIG d   1       4.132  -3.631 -10.500  0.00  0.00     0.028 H 
ATOM     35  H   LIG d   1       3.560  -3.657 -12.184  0.00  0.00     0.028 H 
ENDBRANCH   1  32
BRANCH   9  36
ATOM     36  C   LIG d   1       3.747  -1.146 -13.807  0.00  0.00     0.228 C 
ATOM     37  O   LIG d   1       2.853  -1.731 -14.391  0.00  0.00    -0.283 OA
BRANCH  36  38
ATOM     38  C   LIG d   1       4.972  -0.756 -14.533  0.00  0.00     0.026 A 
ATOM     39  C   LIG d   1       4.880  -0.171 -15.799  0.00  0.00    -0.047 A 
ATOM     40  C   LIG d   1       6.025   0.191 -16.472  0.00  0.00    -0.019 A 
ATOM     41  H   LIG d   1       3.912  -0.004 -16.249  0.00  0.00     0.063 H 
ATOM     42  C   LIG d   1       7.271  -0.024 -15.894  0.00  0.00     0.120 A 
ATOM     43  H   LIG d   1       5.955   0.643 -17.451  0.00  0.00     0.065 H 
ATOM     44  C   LIG d   1       7.366  -0.606 -14.635  0.00  0.00    -0.019 A 
ATOM     45  C   LIG d   1       6.227  -0.966 -13.953  0.00  0.00    -0.047 A 
ATOM     46  H   LIG d   1       8.336  -0.772 -14.191  0.00  0.00     0.065 H 
ATOM     47  H   LIG d   1       6.301  -1.413 -12.973  0.00  0.00     0.063 H 
BRANCH  42  48
ATOM     48  O   LIG d   1       8.398   0.334 -16.561  0.00  0.00    -0.495 OA
BRANCH  48  49
ATOM     49  C   LIG d   1       8.482  -0.035 -17.938  0.00  0.00     0.079 C 
ATOM     50  H   LIG d   1       7.680   0.450 -18.494  0.00  0.00     0.066 H 
ATOM     51  H   LIG d   1       9.446   0.280 -18.340  0.00  0.00     0.066 H 
ATOM     52  H   LIG d   1       8.386  -1.117 -18.032  0.00  0.00     0.066 H 
ENDBRANCH  48  49
ENDBRANCH  42  48
ENDBRANCH  36  38
ENDBRANCH   9  36
TORSDOF 9
ENDMDL
MODEL 8
REMARK VINA RESULT:      -6.0      8.313     12.251
REMARK  9 active torsions:
REMARK  status: ('A' for Active; 'I' for Inactive)
REMARK    1  A    between atoms: C_1  and  C_2 
REMARK    2  A    between atoms: C_5  and  N_21 
REMARK    3  A    between atoms: C_10  and  C_11 
REMARK    4  A    between atoms: C_11  and  C_13 
REMARK    5  A    between atoms: C_16  and  O_19 
REMARK    6  A    between atoms: O_19  and  C_20 
REMARK       I    between atoms: N_21  and  C_22 
REMARK    7  A    between atoms: C_22  and  C_24 
REMARK    8  A    between atoms: C_29  and  O_30 
REMARK    9  A    between atoms: O_30  and  C_31 
ROOT
ATOM      1  C   LIG d   1       9.227   3.262  -5.244  0.00  0.00     0.006 A 
ATOM      2  C   LIG d   1       9.593   4.535  -4.623  0.00  0.00     0.025 A 
ATOM      3  C   LIG d   1       9.864   5.813  -5.117  0.00  0.00    -0.029 A 
ATOM      4  C   LIG d   1      10.192   6.828  -4.237  0.00  0.00     0.035 A 
ATOM      5  C   LIG d   1      10.241   6.577  -2.866  0.00  0.00    -0.037 A 
ATOM      6  C   LIG d   1       9.969   5.321  -2.372  0.00  0.00    -0.017 A 
ATOM      7  C   LIG d   1       9.643   4.285  -3.239  0.00  0.00     0.136 A 
ATOM      8  O   LIG d   1       9.335   2.987  -3.048  0.00  0.00    -0.451 OA
ATOM      9  C   LIG d   1       9.088   2.373  -4.224  0.00  0.00     0.179 A 
ATOM     10  H   LIG d   1       9.822   6.007  -6.178  0.00  0.00     0.064 H 
ATOM     11  H   LIG d   1      10.494   7.376  -2.186  0.00  0.00     0.064 H 
ATOM     12  H   LIG d   1      10.010   5.141  -1.307  0.00  0.00     0.066 H 
ENDROOT
BRANCH   4  13
ATOM     13  N   LIG d   1      10.470   8.111  -4.723  0.00  0.00    -0.281 N 
ATOM     14  C   LIG d   1       9.635   8.693  -5.607  0.00  0.00     0.252 C 
ATOM     15  O   LIG d   1       8.693   8.068  -6.055  0.00  0.00    -0.270 OA
ATOM     16  H   LIG d   1      11.262   8.582  -4.423  0.00  0.00     0.155 HD
BRANCH  14  17
ATOM     17  C   LIG d   1       9.868  10.085  -6.037  0.00  0.00     0.079 A 
ATOM     18  C   LIG d   1       9.545  11.149  -5.185  0.00  0.00     0.132 A 
ATOM     19  C   LIG d   1       9.769  12.453  -5.599  0.00  0.00    -0.019 A 
ATOM     20  C   LIG d   1      10.308  12.701  -6.846  0.00  0.00    -0.058 A 
ATOM     21  H   LIG d   1       9.522  13.277  -4.945  0.00  0.00     0.065 H 
ATOM     22  C   LIG d   1      10.630  11.651  -7.691  0.00  0.00    -0.061 A 
ATOM     23  H   LIG d   1      10.482  13.718  -7.163  0.00  0.00     0.062 H 
ATOM     24  C   LIG d   1      10.418  10.349  -7.294  0.00  0.00    -0.046 A 
ATOM     25  H   LIG d   1      11.052  11.856  -8.664  0.00  0.00     0.062 H 
ATOM     26  H   LIG d   1      10.673   9.534  -7.955  0.00  0.00     0.063 H 
BRANCH  18  27
ATOM     27  O   LIG d   1       9.016  10.904  -3.960  0.00  0.00    -0.494 OA
BRANCH  27  28
ATOM     28  C   LIG d   1       8.412  12.008  -3.282  0.00  0.00     0.079 C 
ATOM     29  H   LIG d   1       8.779  12.051  -2.257  0.00  0.00     0.066 H 
ATOM     30  H   LIG d   1       8.664  12.934  -3.799  0.00  0.00     0.066 H 
ATOM     31  H   LIG d   1       7.328  11.879  -3.275  0.00  0.00     0.066 H 
ENDBRANCH  27  28
ENDBRANCH  18  27
ENDBRANCH  14  17
ENDBRANCH   4  13
BRANCH   1  32
ATOM     32  C   LIG d   1       9.041   2.991  -6.714  0.00  0.00    -0.035 C 
ATOM     33  H   LIG d   1      10.015   2.947  -7.202  0.00  0.00     0.028 H 
ATOM     34  H   LIG d   1       8.525   2.040  -6.846  0.00  0.00     0.028 H 
ATOM     35  H   LIG d   1       8.448   3.790  -7.159  0.00  0.00     0.028 H 
ENDBRANCH   1  32
BRANCH   9  36
ATOM     36  C   LIG d   1       8.725   0.959  -4.379  0.00  0.00     0.228 C 
ATOM     37  O   LIG d   1       9.469   0.202  -4.976  0.00  0.00    -0.283 OA
BRANCH  36  38
ATOM     38  C   LIG d   1       7.458   0.455  -3.812  0.00  0.00     0.026 A 
ATOM     39  C   LIG d   1       7.224  -0.921  -3.736  0.00  0.00    -0.047 A 
ATOM     40  C   LIG d   1       6.041  -1.386  -3.206  0.00  0.00    -0.019 A 
ATOM     41  H   LIG d   1       7.969  -1.618  -4.091  0.00  0.00     0.063 H 
ATOM     42  C   LIG d   1       5.082  -0.491  -2.748  0.00  0.00     0.120 A 
ATOM     43  H   LIG d   1       5.859  -2.450  -3.147  0.00  0.00     0.065 H 
ATOM     44  C   LIG d   1       5.312   0.878  -2.823  0.00  0.00    -0.019 A 
ATOM     45  C   LIG d   1       6.494   1.352  -3.346  0.00  0.00    -0.047 A 
ATOM     46  H   LIG d   1       4.564   1.571  -2.467  0.00  0.00     0.065 H 
ATOM     47  H   LIG d   1       6.674   2.416  -3.399  0.00  0.00     0.063 H 
BRANCH  42  48
ATOM     48  O   LIG d   1       3.917  -0.954  -2.227  0.00  0.00    -0.495 OA
BRANCH  48  49
ATOM     49  C   LIG d   1       2.741  -0.794  -3.022  0.00  0.00     0.079 C 
ATOM     50  H   LIG d   1       1.995  -0.236  -2.458  0.00  0.00     0.066 H 
ATOM     51  H   LIG d   1       2.991  -0.249  -3.933  0.00  0.00     0.066 H 
ATOM     52  H   LIG d   1       2.342  -1.774  -3.282  0.00  0.00     0.066 H 
ENDBRANCH  48  49
ENDBRANCH  42  48
ENDBRANCH  36  38
ENDBRANCH   9  36
TORSDOF 9
ENDMDL
MODEL 9
REMARK VINA RESULT:      -5.9      9.378     13.436
REMARK  9 active torsions:
REMARK  status: ('A' for Active; 'I' for Inactive)
REMARK    1  A    between atoms: C_1  and  C_2 
REMARK    2  A    between atoms: C_5  and  N_21 
REMARK    3  A    between atoms: C_10  and  C_11 
REMARK    4  A    between atoms: C_11  and  C_13 
REMARK    5  A    between atoms: C_16  and  O_19 
REMARK    6  A    between atoms: O_19  and  C_20 
REMARK       I    between atoms: N_21  and  C_22 
REMARK    7  A    between atoms: C_22  and  C_24 
REMARK    8  A    between atoms: C_29  and  O_30 
REMARK    9  A    between atoms: O_30  and  C_31 
ROOT
ATOM      1  C   LIG d   1      10.024   4.951  -4.062  0.00  0.00     0.006 A 
ATOM      2  C   LIG d   1       9.994   5.973  -3.016  0.00  0.00     0.025 A 
ATOM      3  C   LIG d   1       9.634   7.322  -2.988  0.00  0.00    -0.029 A 
ATOM      4  C   LIG d   1       9.727   8.027  -1.802  0.00  0.00     0.035 A 
ATOM      5  C   LIG d   1      10.167   7.390  -0.642  0.00  0.00    -0.037 A 
ATOM      6  C   LIG d   1      10.519   6.060  -0.661  0.00  0.00    -0.017 A 
ATOM      7  C   LIG d   1      10.438   5.334  -1.844  0.00  0.00     0.136 A 
ATOM      8  O   LIG d   1      10.707   4.050  -2.156  0.00  0.00    -0.451 OA
ATOM      9  C   LIG d   1      10.466   3.813  -3.463  0.00  0.00     0.179 A 
ATOM     10  H   LIG d   1       9.289   7.813  -3.886  0.00  0.00     0.064 H 
ATOM     11  H   LIG d   1      10.233   7.948   0.281  0.00  0.00     0.064 H 
ATOM     12  H   LIG d   1      10.857   5.578   0.245  0.00  0.00     0.066 H 
ENDROOT
BRANCH   4  13
ATOM     13  N   LIG d   1       9.372   9.381  -1.764  0.00  0.00    -0.281 N 
ATOM     14  C   LIG d   1      10.294  10.327  -2.039  0.00  0.00     0.252 C 
ATOM     15  O   LIG d   1      11.452  10.010  -2.226  0.00  0.00    -0.270 OA
ATOM     16  H   LIG d   1       8.465   9.639  -1.541  0.00  0.00     0.155 HD
BRANCH  14  17
ATOM     17  C   LIG d   1       9.897  11.746  -2.105  0.00  0.00     0.079 A 
ATOM     18  C   LIG d   1       9.041  12.192  -3.122  0.00  0.00     0.132 A 
ATOM     19  C   LIG d   1       8.674  13.528  -3.174  0.00  0.00    -0.019 A 
ATOM     20  C   LIG d   1       9.150  14.414  -2.228  0.00  0.00    -0.058 A 
ATOM     21  H   LIG d   1       8.015  13.876  -3.955  0.00  0.00     0.065 H 
ATOM     22  C   LIG d   1       9.995  13.977  -1.221  0.00  0.00    -0.061 A 
ATOM     23  H   LIG d   1       8.861  15.454  -2.272  0.00  0.00     0.062 H 
ATOM     24  C   LIG d   1      10.367  12.652  -1.151  0.00  0.00    -0.046 A 
ATOM     25  H   LIG d   1      10.362  14.678  -0.485  0.00  0.00     0.062 H 
ATOM     26  H   LIG d   1      11.023  12.316  -0.362  0.00  0.00     0.063 H 
BRANCH  18  27
ATOM     27  O   LIG d   1       8.574  11.320  -4.049  0.00  0.00    -0.494 OA
BRANCH  27  28
ATOM     28  C   LIG d   1       9.309  11.216  -5.270  0.00  0.00     0.079 C 
ATOM     29  H   LIG d   1       8.739  11.676  -6.078  0.00  0.00     0.066 H 
ATOM     30  H   LIG d   1      10.266  11.727  -5.163  0.00  0.00     0.066 H 
ATOM     31  H   LIG d   1       9.482  10.164  -5.501  0.00  0.00     0.066 H 
ENDBRANCH  27  28
ENDBRANCH  18  27
ENDBRANCH  14  17
ENDBRANCH   4  13
BRANCH   1  32
ATOM     32  C   LIG d   1       9.641   5.122  -5.509  0.00  0.00    -0.035 C 
ATOM     33  H   LIG d   1      10.468   4.804  -6.144  0.00  0.00     0.028 H 
ATOM     34  H   LIG d   1       8.761   4.518  -5.727  0.00  0.00     0.028 H 
ATOM     35  H   LIG d   1       9.417   6.171  -5.703  0.00  0.00     0.028 H 
ENDBRANCH   1  32
BRANCH   9  36
ATOM     36  C   LIG d   1      10.655   2.521  -4.135  0.00  0.00     0.228 C 
ATOM     37  O   LIG d   1      11.756   2.208  -4.551  0.00  0.00    -0.283 OA
BRANCH  36  38
ATOM     38  C   LIG d   1       9.511   1.604  -4.309  0.00  0.00     0.026 A 
ATOM     39  C   LIG d   1       8.281   1.900  -3.715  0.00  0.00    -0.047 A 
ATOM     40  C   LIG d   1       7.216   1.042  -3.880  0.00  0.00    -0.019 A 
ATOM     41  H   LIG d   1       8.165   2.799  -3.128  0.00  0.00     0.063 H 
ATOM     42  C   LIG d   1       7.364  -0.115  -4.636  0.00  0.00     0.120 A 
ATOM     43  H   LIG d   1       6.265   1.270  -3.422  0.00  0.00     0.065 H 
ATOM     44  C   LIG d   1       8.587  -0.412  -5.227  0.00  0.00    -0.019 A 
ATOM     45  C   LIG d   1       9.654   0.442  -5.072  0.00  0.00    -0.047 A 
ATOM     46  H   LIG d   1       8.697  -1.313  -5.812  0.00  0.00     0.065 H 
ATOM     47  H   LIG d   1      10.602   0.214  -5.536  0.00  0.00     0.063 H 
BRANCH  42  48
ATOM     48  O   LIG d   1       6.312  -0.958  -4.796  0.00  0.00    -0.495 OA
BRANCH  48  49
ATOM     49  C   LIG d   1       5.013  -0.436  -4.513  0.00  0.00     0.079 C 
ATOM     50  H   LIG d   1       4.861   0.484  -5.075  0.00  0.00     0.066 H 
ATOM     51  H   LIG d   1       4.258  -1.168  -4.801  0.00  0.00     0.066 H 
ATOM     52  H   LIG d   1       4.929  -0.229  -3.446  0.00  0.00     0.066 H 
ENDBRANCH  48  49
ENDBRANCH  42  48
ENDBRANCH  36  38
ENDBRANCH   9  36
TORSDOF 9
ENDMDL
