MODEL 1
REMARK VINA RESULT:      -6.8      0.000      0.000
REMARK  13 active torsions:
REMARK  status: ('A' for Active; 'I' for Inactive)
REMARK    1  A    between atoms: C_1  and  C_2 
REMARK    2  A    between atoms: C_2  and  C_4 
REMARK    3  A    between atoms: C_2  and  N_19 
REMARK    4  A    between atoms: C_4  and  N_5 
REMARK    5  A    between atoms: N_5  and  C_6 
REMARK    6  A    between atoms: C_6  and  C_18 
REMARK    7  A    between atoms: C_12  and  C_13 
REMARK    8  A    between atoms: C_12  and  C_14 
REMARK    9  A    between atoms: N_19  and  C_20 
REMARK   10  A    between atoms: C_20  and  C_21 
REMARK   11  A    between atoms: C_20  and  C_32 
REMARK   12  A    between atoms: C_26  and  C_27 
REMARK   13  A    between atoms: C_26  and  C_28 
ROOT
ATOM      1  C   LIG d   1       7.923  -0.977  -6.934  0.00  0.00     0.064 C 
ATOM      2  H   LIG d   1       8.450  -1.034  -7.898  0.00  0.00     0.056 H 
ENDROOT
BRANCH   1   3
ATOM      3  C   LIG d   1       7.658  -2.379  -6.381  0.00  0.00    -0.041 C 
ATOM      4  H   LIG d   1       7.195  -2.298  -5.386  0.00  0.00     0.025 H 
ATOM      5  H   LIG d   1       8.608  -2.927  -6.300  0.00  0.00     0.025 H 
ATOM      6  H   LIG d   1       6.980  -2.917  -7.058  0.00  0.00     0.025 H 
ENDBRANCH   1   3
BRANCH   1   7
ATOM      7  C   LIG d   1       8.740  -0.174  -5.919  0.00  0.00     0.031 C 
ATOM      8  H   LIG d   1       9.808  -0.402  -6.046  0.00  0.00     0.048 H 
ATOM      9  H   LIG d   1       8.574   0.901  -6.084  0.00  0.00     0.048 H 
BRANCH   7  10
ATOM     10  N   LIG d   1       8.322  -0.532  -4.562  0.00  0.00    -0.345 N 
ATOM     11  H   LIG d   1       8.702  -1.452  -4.094  0.00  0.00     0.146 HD
BRANCH  10  12
ATOM     12  C   LIG d   1       7.462   0.276  -3.879  0.00  0.00     0.008 C 
ATOM     13  C   LIG d   1       6.370  -0.253  -3.277  0.00  0.00     0.015 A 
ATOM     14  C   LIG d   1       5.417   0.483  -2.563  0.00  0.00     0.161 A 
ATOM     15  C   LIG d   1       6.001  -1.714  -3.293  0.00  0.00    -0.002 A 
ATOM     16  C   LIG d   1       4.343  -0.434  -2.037  0.00  0.00     0.014 A 
ATOM     17  O   LIG d   1       5.452   1.684  -2.386  0.00  0.00    -0.292 OA
ATOM     18  C   LIG d   1       4.696  -1.856  -2.495  0.00  0.00    -0.021 A 
ATOM     19  H   LIG d   1       3.361  -0.151  -2.443  0.00  0.00     0.035 H 
ATOM     20  H   LIG d   1       4.310  -0.400  -0.938  0.00  0.00     0.035 H 
ATOM     21  H   LIG d   1       4.256  -2.427  -1.665  0.00  0.00     0.032 H 
ATOM     22  C   LIG d   1       4.717  -2.158  -3.996  0.00  0.00    -0.024 A 
ATOM     23  H   LIG d   1       7.024  -2.115  -3.343  0.00  0.00     0.036 H 
BRANCH  22  24
ATOM     24  C   LIG d   1       4.617  -3.624  -4.422  0.00  0.00    -0.059 C 
ATOM     25  H   LIG d   1       4.122  -4.203  -3.629  0.00  0.00     0.024 H 
ATOM     26  H   LIG d   1       5.627  -4.025  -4.594  0.00  0.00     0.024 H 
ATOM     27  H   LIG d   1       4.030  -3.697  -5.350  0.00  0.00     0.024 H 
ENDBRANCH  22  24
BRANCH  22  28
ATOM     28  C   LIG d   1       4.038  -1.151  -4.928  0.00  0.00    -0.059 C 
ATOM     29  H   LIG d   1       4.408  -0.139  -4.705  0.00  0.00     0.024 H 
ATOM     30  H   LIG d   1       2.950  -1.186  -4.774  0.00  0.00     0.024 H 
ATOM     31  H   LIG d   1       4.270  -1.405  -5.973  0.00  0.00     0.024 H 
ENDBRANCH  22  28
BRANCH  12  32
ATOM     32  C   LIG d   1       7.726   1.757  -3.794  0.00  0.00    -0.026 C 
ATOM     33  H   LIG d   1       7.076   2.202  -3.027  0.00  0.00     0.029 H 
ATOM     34  H   LIG d   1       7.517   2.223  -4.768  0.00  0.00     0.029 H 
ATOM     35  H   LIG d   1       8.780   1.927  -3.526  0.00  0.00     0.029 H 
ENDBRANCH  12  32
ENDBRANCH  10  12
ENDBRANCH   7  10
ENDBRANCH   1   7
BRANCH   1  36
ATOM     36  N   LIG d   1       6.647  -0.299  -7.179  0.00  0.00    -0.284 NA
BRANCH  36  37
ATOM     37  C   LIG d   1       6.210  -0.111  -8.456  0.00  0.00     0.036 C 
BRANCH  37  38
ATOM     38  C   LIG d   1       5.166   0.719  -8.699  0.00  0.00    -0.035 A 
ATOM     39  C   LIG d   1       5.284   2.054  -9.088  0.00  0.00    -0.127 A 
ATOM     40  C   LIG d   1       3.922   2.668  -9.271  0.00  0.00    -0.038 A 
ATOM     41  O   LIG d   1       6.337   2.638  -9.257  0.00  0.00    -0.876 OA
ATOM     42  C   LIG d   1       2.891   1.576  -8.948  0.00  0.00    -0.025 A 
ATOM     43  H   LIG d   1       3.784   3.007 -10.308  0.00  0.00     0.030 H 
ATOM     44  H   LIG d   1       3.783   3.517  -8.586  0.00  0.00     0.030 H 
ATOM     45  C   LIG d   1       3.716   0.335  -8.580  0.00  0.00    -0.006 A 
ATOM     46  H   LIG d   1       2.076   2.211  -8.570  0.00  0.00     0.032 H 
ATOM     47  C   LIG d   1       2.846   0.313  -9.839  0.00  0.00    -0.024 A 
ATOM     48  H   LIG d   1       3.828  -0.405  -7.774  0.00  0.00     0.036 H 
BRANCH  47  49
ATOM     49  C   LIG d   1       3.560   0.364 -11.191  0.00  0.00    -0.059 C 
ATOM     50  H   LIG d   1       4.340   1.138 -11.165  0.00  0.00     0.024 H 
ATOM     51  H   LIG d   1       2.831   0.604 -11.981  0.00  0.00     0.024 H 
ATOM     52  H   LIG d   1       4.018  -0.614 -11.401  0.00  0.00     0.024 H 
ENDBRANCH  47  49
BRANCH  47  53
ATOM     53  C   LIG d   1       1.568  -0.529  -9.799  0.00  0.00    -0.059 C 
ATOM     54  H   LIG d   1       0.721   0.106  -9.504  0.00  0.00     0.024 H 
ATOM     55  H   LIG d   1       1.689  -1.344  -9.069  0.00  0.00     0.024 H 
ATOM     56  H   LIG d   1       1.379  -0.955 -10.795  0.00  0.00     0.024 H 
ENDBRANCH  47  53
ENDBRANCH  37  38
BRANCH  37  57
ATOM     57  C   LIG d   1       6.885  -0.827  -9.597  0.00  0.00    -0.022 C 
ATOM     58  H   LIG d   1       6.142  -1.420 -10.149  0.00  0.00     0.029 H 
ATOM     59  H   LIG d   1       7.665  -1.494  -9.200  0.00  0.00     0.029 H 
ATOM     60  H   LIG d   1       7.343  -0.090 -10.273  0.00  0.00     0.029 H 
ENDBRANCH  37  57
ENDBRANCH  36  37
ENDBRANCH   1  36
TORSDOF 13
ENDMDL
MODEL 2
REMARK VINA RESULT:      -6.1      1.658      5.895
REMARK  13 active torsions:
REMARK  status: ('A' for Active; 'I' for Inactive)
REMARK    1  A    between atoms: C_1  and  C_2 
REMARK    2  A    between atoms: C_2  and  C_4 
REMARK    3  A    between atoms: C_2  and  N_19 
REMARK    4  A    between atoms: C_4  and  N_5 
REMARK    5  A    between atoms: N_5  and  C_6 
REMARK    6  A    between atoms: C_6  and  C_18 
REMARK    7  A    between atoms: C_12  and  C_13 
REMARK    8  A    between atoms: C_12  and  C_14 
REMARK    9  A    between atoms: N_19  and  C_20 
REMARK   10  A    between atoms: C_20  and  C_21 
REMARK   11  A    between atoms: C_20  and  C_32 
REMARK   12  A    between atoms: C_26  and  C_27 
REMARK   13  A    between atoms: C_26  and  C_28 
ROOT
ATOM      1  C   LIG d   1       7.889  -2.542  -6.857  0.00  0.00     0.064 C 
ATOM      2  H   LIG d   1       7.217  -3.360  -6.559  0.00  0.00     0.056 H 
ENDROOT
BRANCH   1   3
ATOM      3  C   LIG d   1       9.348  -3.003  -6.822  0.00  0.00    -0.041 C 
ATOM      4  H   LIG d   1       9.598  -3.352  -5.809  0.00  0.00     0.025 H 
ATOM      5  H   LIG d   1      10.005  -2.164  -7.094  0.00  0.00     0.025 H 
ATOM      6  H   LIG d   1       9.489  -3.826  -7.538  0.00  0.00     0.025 H 
ENDBRANCH   1   3
BRANCH   1   7
ATOM      7  C   LIG d   1       7.544  -2.045  -8.262  0.00  0.00     0.031 C 
ATOM      8  H   LIG d   1       8.379  -1.445  -8.653  0.00  0.00     0.048 H 
ATOM      9  H   LIG d   1       7.371  -2.907  -8.923  0.00  0.00     0.048 H 
BRANCH   7  10
ATOM     10  N   LIG d   1       6.334  -1.221  -8.206  0.00  0.00    -0.345 N 
ATOM     11  H   LIG d   1       5.384  -1.661  -7.869  0.00  0.00     0.146 HD
BRANCH  10  12
ATOM     12  C   LIG d   1       6.386   0.092  -8.569  0.00  0.00     0.008 C 
ATOM     13  C   LIG d   1       5.241   0.802  -8.706  0.00  0.00     0.015 A 
ATOM     14  C   LIG d   1       5.177   2.148  -9.086  0.00  0.00     0.161 A 
ATOM     15  C   LIG d   1       3.856   0.253  -8.484  0.00  0.00    -0.002 A 
ATOM     16  C   LIG d   1       3.742   2.604  -9.136  0.00  0.00     0.014 A 
ATOM     17  O   LIG d   1       6.138   2.850  -9.333  0.00  0.00    -0.292 OA
ATOM     18  C   LIG d   1       2.870   1.399  -8.753  0.00  0.00    -0.021 A 
ATOM     19  H   LIG d   1       3.479   2.940 -10.150  0.00  0.00     0.035 H 
ATOM     20  H   LIG d   1       3.571   3.423  -8.422  0.00  0.00     0.035 H 
ATOM     21  H   LIG d   1       2.024   1.929  -8.292  0.00  0.00     0.032 H 
ATOM     22  C   LIG d   1       2.883   0.167  -9.661  0.00  0.00    -0.024 A 
ATOM     23  H   LIG d   1       4.121  -0.487  -7.715  0.00  0.00     0.036 H 
BRANCH  22  24
ATOM     24  C   LIG d   1       1.713  -0.811  -9.540  0.00  0.00    -0.059 C 
ATOM     25  H   LIG d   1       0.791  -0.254  -9.318  0.00  0.00     0.024 H 
ATOM     26  H   LIG d   1       1.915  -1.526  -8.729  0.00  0.00     0.024 H 
ATOM     27  H   LIG d   1       1.592  -1.357 -10.488  0.00  0.00     0.024 H 
ENDBRANCH  22  24
BRANCH  22  28
ATOM     28  C   LIG d   1       3.462   0.334 -11.068  0.00  0.00    -0.059 C 
ATOM     29  H   LIG d   1       3.669   1.398 -11.256  0.00  0.00     0.024 H 
ATOM     30  H   LIG d   1       2.737  -0.034 -11.809  0.00  0.00     0.024 H 
ATOM     31  H   LIG d   1       4.396  -0.242 -11.152  0.00  0.00     0.024 H 
ENDBRANCH  22  28
BRANCH  12  32
ATOM     32  C   LIG d   1       7.717   0.752  -8.819  0.00  0.00    -0.026 C 
ATOM     33  H   LIG d   1       8.515  -0.004  -8.780  0.00  0.00     0.029 H 
ATOM     34  H   LIG d   1       7.898   1.517  -8.049  0.00  0.00     0.029 H 
ATOM     35  H   LIG d   1       7.710   1.227  -9.812  0.00  0.00     0.029 H 
ENDBRANCH  12  32
ENDBRANCH  10  12
ENDBRANCH   7  10
ENDBRANCH   1   7
BRANCH   1  36
ATOM     36  N   LIG d   1       7.698  -1.454  -5.893  0.00  0.00    -0.284 NA
BRANCH  36  37
ATOM     37  C   LIG d   1       6.969  -1.667  -4.762  0.00  0.00     0.036 C 
BRANCH  37  38
ATOM     38  C   LIG d   1       5.744  -1.100  -4.631  0.00  0.00    -0.035 A 
ATOM     39  C   LIG d   1       4.588  -1.542  -5.276  0.00  0.00    -0.127 A 
ATOM     40  C   LIG d   1       3.414  -0.680  -4.895  0.00  0.00    -0.038 A 
ATOM     41  O   LIG d   1       4.536  -2.491  -6.035  0.00  0.00    -0.876 OA
ATOM     42  C   LIG d   1       3.939   0.389  -3.926  0.00  0.00    -0.025 A 
ATOM     43  H   LIG d   1       2.638  -1.278  -4.396  0.00  0.00     0.030 H 
ATOM     44  H   LIG d   1       2.987  -0.192  -5.783  0.00  0.00     0.030 H 
ATOM     45  C   LIG d   1       5.438   0.099  -3.775  0.00  0.00    -0.006 A 
ATOM     46  H   LIG d   1       3.239   1.203  -4.168  0.00  0.00     0.032 H 
ATOM     47  C   LIG d   1       4.517  -0.064  -2.565  0.00  0.00    -0.024 A 
ATOM     48  H   LIG d   1       6.416   0.596  -3.869  0.00  0.00     0.036 H 
BRANCH  47  49
ATOM     49  C   LIG d   1       4.214  -1.488  -2.096  0.00  0.00    -0.059 C 
ATOM     50  H   LIG d   1       5.150  -2.061  -2.031  0.00  0.00     0.024 H 
ATOM     51  H   LIG d   1       3.535  -1.974  -2.814  0.00  0.00     0.024 H 
ATOM     52  H   LIG d   1       3.735  -1.454  -1.106  0.00  0.00     0.024 H 
ENDBRANCH  47  49
BRANCH  47  53
ATOM     53  C   LIG d   1       4.613   0.988  -1.457  0.00  0.00    -0.059 C 
ATOM     54  H   LIG d   1       5.666   1.261  -1.300  0.00  0.00     0.024 H 
ATOM     55  H   LIG d   1       4.197   0.577  -0.524  0.00  0.00     0.024 H 
ATOM     56  H   LIG d   1       4.041   1.881  -1.750  0.00  0.00     0.024 H 
ENDBRANCH  47  53
ENDBRANCH  37  38
BRANCH  37  57
ATOM     57  C   LIG d   1       7.522  -2.530  -3.658  0.00  0.00    -0.022 C 
ATOM     58  H   LIG d   1       8.618  -2.446  -3.642  0.00  0.00     0.029 H 
ATOM     59  H   LIG d   1       7.237  -3.578  -3.835  0.00  0.00     0.029 H 
ATOM     60  H   LIG d   1       7.114  -2.197  -2.693  0.00  0.00     0.029 H 
ENDBRANCH  37  57
ENDBRANCH  36  37
ENDBRANCH   1  36
TORSDOF 13
ENDMDL
MODEL 3
REMARK VINA RESULT:      -5.9      2.013      4.651
REMARK  13 active torsions:
REMARK  status: ('A' for Active; 'I' for Inactive)
REMARK    1  A    between atoms: C_1  and  C_2 
REMARK    2  A    between atoms: C_2  and  C_4 
REMARK    3  A    between atoms: C_2  and  N_19 
REMARK    4  A    between atoms: C_4  and  N_5 
REMARK    5  A    between atoms: N_5  and  C_6 
REMARK    6  A    between atoms: C_6  and  C_18 
REMARK    7  A    between atoms: C_12  and  C_13 
REMARK    8  A    between atoms: C_12  and  C_14 
REMARK    9  A    between atoms: N_19  and  C_20 
REMARK   10  A    between atoms: C_20  and  C_21 
REMARK   11  A    between atoms: C_20  and  C_32 
REMARK   12  A    between atoms: C_26  and  C_27 
REMARK   13  A    between atoms: C_26  and  C_28 
ROOT
ATOM      1  C   LIG d   1       3.808   1.070  -8.868  0.00  0.00     0.064 C 
ATOM      2  H   LIG d   1       3.804   0.768  -9.925  0.00  0.00     0.056 H 
ENDROOT
BRANCH   1   3
ATOM      3  C   LIG d   1       2.839   2.232  -8.636  0.00  0.00    -0.041 C 
ATOM      4  H   LIG d   1       3.231   3.138  -9.122  0.00  0.00     0.025 H 
ATOM      5  H   LIG d   1       2.734   2.411  -7.556  0.00  0.00     0.025 H 
ATOM      6  H   LIG d   1       1.858   1.981  -9.064  0.00  0.00     0.025 H 
ENDBRANCH   1   3
BRANCH   1   7
ATOM      7  C   LIG d   1       3.419  -0.106  -7.970  0.00  0.00     0.031 C 
ATOM      8  H   LIG d   1       2.348  -0.042  -7.726  0.00  0.00     0.048 H 
ATOM      9  H   LIG d   1       3.619  -1.051  -8.496  0.00  0.00     0.048 H 
BRANCH   7  10
ATOM     10  N   LIG d   1       4.205  -0.058  -6.734  0.00  0.00    -0.345 N 
ATOM     11  H   LIG d   1       4.503   0.912  -6.309  0.00  0.00     0.146 HD
BRANCH  10  12
ATOM     12  C   LIG d   1       4.566  -1.215  -6.111  0.00  0.00     0.008 C 
ATOM     13  C   LIG d   1       4.257  -1.406  -4.806  0.00  0.00     0.015 A 
ATOM     14  C   LIG d   1       4.591  -2.546  -4.066  0.00  0.00     0.161 A 
ATOM     15  C   LIG d   1       3.521  -0.416  -3.942  0.00  0.00    -0.002 A 
ATOM     16  C   LIG d   1       4.090  -2.409  -2.651  0.00  0.00     0.014 A 
ATOM     17  O   LIG d   1       5.189  -3.510  -4.500  0.00  0.00    -0.292 OA
ATOM     18  C   LIG d   1       3.397  -1.042  -2.546  0.00  0.00    -0.021 A 
ATOM     19  H   LIG d   1       4.927  -2.452  -1.939  0.00  0.00     0.035 H 
ATOM     20  H   LIG d   1       3.368  -3.205  -2.417  0.00  0.00     0.035 H 
ATOM     21  H   LIG d   1       2.650  -1.279  -1.774  0.00  0.00     0.032 H 
ATOM     22  C   LIG d   1       4.236   0.222  -2.750  0.00  0.00    -0.024 A 
ATOM     23  H   LIG d   1       2.909   0.035  -4.737  0.00  0.00     0.036 H 
BRANCH  22  24
ATOM     24  C   LIG d   1       3.673   1.537  -2.209  0.00  0.00    -0.059 C 
ATOM     25  H   LIG d   1       3.383   1.407  -1.156  0.00  0.00     0.024 H 
ATOM     26  H   LIG d   1       2.792   1.829  -2.799  0.00  0.00     0.024 H 
ATOM     27  H   LIG d   1       4.440   2.323  -2.284  0.00  0.00     0.024 H 
ENDBRANCH  22  24
BRANCH  22  28
ATOM     28  C   LIG d   1       5.758   0.077  -2.681  0.00  0.00    -0.059 C 
ATOM     29  H   LIG d   1       6.015  -0.930  -2.320  0.00  0.00     0.024 H 
ATOM     30  H   LIG d   1       6.167   0.829  -1.989  0.00  0.00     0.024 H 
ATOM     31  H   LIG d   1       6.187   0.228  -3.682  0.00  0.00     0.024 H 
ENDBRANCH  22  28
BRANCH  12  32
ATOM     32  C   LIG d   1       5.309  -2.281  -6.873  0.00  0.00    -0.026 C 
ATOM     33  H   LIG d   1       5.592  -1.895  -7.864  0.00  0.00     0.029 H 
ATOM     34  H   LIG d   1       4.663  -3.163  -6.995  0.00  0.00     0.029 H 
ATOM     35  H   LIG d   1       6.216  -2.565  -6.317  0.00  0.00     0.029 H 
ENDBRANCH  12  32
ENDBRANCH  10  12
ENDBRANCH   7  10
ENDBRANCH   1   7
BRANCH   1  36
ATOM     36  N   LIG d   1       5.172   1.500  -8.546  0.00  0.00    -0.284 NA
BRANCH  36  37
ATOM     37  C   LIG d   1       6.235   0.906  -9.157  0.00  0.00     0.036 C 
BRANCH  37  38
ATOM     38  C   LIG d   1       7.464   0.971  -8.590  0.00  0.00    -0.035 A 
ATOM     39  C   LIG d   1       8.332   2.059  -8.691  0.00  0.00    -0.127 A 
ATOM     40  C   LIG d   1       9.606   1.785  -7.937  0.00  0.00    -0.038 A 
ATOM     41  O   LIG d   1       8.092   3.085  -9.298  0.00  0.00    -0.876 OA
ATOM     42  C   LIG d   1       9.475   0.380  -7.332  0.00  0.00    -0.025 A 
ATOM     43  H   LIG d   1       9.745   2.519  -7.130  0.00  0.00     0.030 H 
ATOM     44  H   LIG d   1      10.472   1.814  -8.614  0.00  0.00     0.030 H 
ATOM     45  C   LIG d   1       8.093  -0.124  -7.770  0.00  0.00    -0.006 A 
ATOM     46  H   LIG d   1      10.536   0.090  -7.333  0.00  0.00     0.032 H 
ATOM     47  C   LIG d   1       8.367   0.123  -6.285  0.00  0.00    -0.024 A 
ATOM     48  H   LIG d   1       7.618  -0.976  -8.279  0.00  0.00     0.036 H 
BRANCH  47  49
ATOM     49  C   LIG d   1       7.700   1.337  -5.636  0.00  0.00    -0.059 C 
ATOM     50  H   LIG d   1       7.795   1.266  -4.542  0.00  0.00     0.024 H 
ATOM     51  H   LIG d   1       6.634   1.360  -5.911  0.00  0.00     0.024 H 
ATOM     52  H   LIG d   1       8.189   2.257  -5.988  0.00  0.00     0.024 H 
ENDBRANCH  47  49
BRANCH  47  53
ATOM     53  C   LIG d   1       8.524  -1.104  -5.383  0.00  0.00    -0.059 C 
ATOM     54  H   LIG d   1       9.450  -1.635  -5.645  0.00  0.00     0.024 H 
ATOM     55  H   LIG d   1       7.663  -1.775  -5.523  0.00  0.00     0.024 H 
ATOM     56  H   LIG d   1       8.569  -0.782  -4.332  0.00  0.00     0.024 H 
ENDBRANCH  47  53
ENDBRANCH  37  38
BRANCH  37  57
ATOM     57  C   LIG d   1       6.044   0.177 -10.462  0.00  0.00    -0.022 C 
ATOM     58  H   LIG d   1       6.978  -0.334 -10.737  0.00  0.00     0.029 H 
ATOM     59  H   LIG d   1       5.777   0.899 -11.248  0.00  0.00     0.029 H 
ATOM     60  H   LIG d   1       5.237  -0.563 -10.355  0.00  0.00     0.029 H 
ENDBRANCH  37  57
ENDBRANCH  36  37
ENDBRANCH   1  36
TORSDOF 13
ENDMDL
MODEL 4
REMARK VINA RESULT:      -5.7      2.892      4.723
REMARK  13 active torsions:
REMARK  status: ('A' for Active; 'I' for Inactive)
REMARK    1  A    between atoms: C_1  and  C_2 
REMARK    2  A    between atoms: C_2  and  C_4 
REMARK    3  A    between atoms: C_2  and  N_19 
REMARK    4  A    between atoms: C_4  and  N_5 
REMARK    5  A    between atoms: N_5  and  C_6 
REMARK    6  A    between atoms: C_6  and  C_18 
REMARK    7  A    between atoms: C_12  and  C_13 
REMARK    8  A    between atoms: C_12  and  C_14 
REMARK    9  A    between atoms: N_19  and  C_20 
REMARK   10  A    between atoms: C_20  and  C_21 
REMARK   11  A    between atoms: C_20  and  C_32 
REMARK   12  A    between atoms: C_26  and  C_27 
REMARK   13  A    between atoms: C_26  and  C_28 
ROOT
ATOM      1  C   LIG d   1       2.847   0.767  -8.739  0.00  0.00     0.064 C 
ATOM      2  H   LIG d   1       1.919   0.606  -9.306  0.00  0.00     0.056 H 
ENDROOT
BRANCH   1   3
ATOM      3  C   LIG d   1       3.140   2.262  -8.596  0.00  0.00    -0.041 C 
ATOM      4  H   LIG d   1       2.761   2.619  -7.628  0.00  0.00     0.025 H 
ATOM      5  H   LIG d   1       2.645   2.812  -9.410  0.00  0.00     0.025 H 
ATOM      6  H   LIG d   1       4.226   2.428  -8.649  0.00  0.00     0.025 H 
ENDBRANCH   1   3
BRANCH   1   7
ATOM      7  C   LIG d   1       2.747   0.131  -7.350  0.00  0.00     0.031 C 
ATOM      8  H   LIG d   1       2.116   0.759  -6.705  0.00  0.00     0.048 H 
ATOM      9  H   LIG d   1       2.300  -0.870  -7.437  0.00  0.00     0.048 H 
BRANCH   7  10
ATOM     10  N   LIG d   1       4.086   0.021  -6.766  0.00  0.00    -0.345 N 
ATOM     11  H   LIG d   1       4.778   0.875  -6.812  0.00  0.00     0.146 HD
BRANCH  10  12
ATOM     12  C   LIG d   1       4.474  -1.140  -6.166  0.00  0.00     0.008 C 
ATOM     13  C   LIG d   1       4.199  -1.349  -4.856  0.00  0.00     0.015 A 
ATOM     14  C   LIG d   1       4.562  -2.494  -4.138  0.00  0.00     0.161 A 
ATOM     15  C   LIG d   1       3.475  -0.377  -3.963  0.00  0.00    -0.002 A 
ATOM     16  C   LIG d   1       4.095  -2.379  -2.710  0.00  0.00     0.014 A 
ATOM     17  O   LIG d   1       5.158  -3.447  -4.598  0.00  0.00    -0.292 OA
ATOM     18  C   LIG d   1       3.392  -1.021  -2.571  0.00  0.00    -0.021 A 
ATOM     19  H   LIG d   1       4.950  -2.422  -2.019  0.00  0.00     0.035 H 
ATOM     20  H   LIG d   1       3.387  -3.185  -2.468  0.00  0.00     0.035 H 
ATOM     21  H   LIG d   1       2.666  -1.273  -1.785  0.00  0.00     0.032 H 
ATOM     22  C   LIG d   1       4.213   0.254  -2.781  0.00  0.00    -0.024 A 
ATOM     23  H   LIG d   1       2.839   0.077  -4.737  0.00  0.00     0.036 H 
BRANCH  22  24
ATOM     24  C   LIG d   1       3.651   1.557  -2.211  0.00  0.00    -0.059 C 
ATOM     25  H   LIG d   1       4.470   2.157  -1.788  0.00  0.00     0.024 H 
ATOM     26  H   LIG d   1       2.919   1.328  -1.423  0.00  0.00     0.024 H 
ATOM     27  H   LIG d   1       3.158   2.126  -3.014  0.00  0.00     0.024 H 
ENDBRANCH  22  24
BRANCH  22  28
ATOM     28  C   LIG d   1       5.738   0.124  -2.751  0.00  0.00    -0.059 C 
ATOM     29  H   LIG d   1       6.122   0.531  -1.804  0.00  0.00     0.024 H 
ATOM     30  H   LIG d   1       6.170   0.684  -3.593  0.00  0.00     0.024 H 
ATOM     31  H   LIG d   1       6.018  -0.937  -2.834  0.00  0.00     0.024 H 
ENDBRANCH  22  28
BRANCH  12  32
ATOM     32  C   LIG d   1       5.208  -2.190  -6.959  0.00  0.00    -0.026 C 
ATOM     33  H   LIG d   1       6.292  -2.063  -6.820  0.00  0.00     0.029 H 
ATOM     34  H   LIG d   1       4.961  -2.085  -8.026  0.00  0.00     0.029 H 
ATOM     35  H   LIG d   1       4.908  -3.189  -6.610  0.00  0.00     0.029 H 
ENDBRANCH  12  32
ENDBRANCH  10  12
ENDBRANCH   7  10
ENDBRANCH   1   7
BRANCH   1  36
ATOM     36  N   LIG d   1       3.929   0.126  -9.492  0.00  0.00    -0.284 NA
BRANCH  36  37
ATOM     37  C   LIG d   1       3.648  -0.570 -10.629  0.00  0.00     0.036 C 
BRANCH  37  38
ATOM     38  C   LIG d   1       2.910  -1.705 -10.562  0.00  0.00    -0.035 A 
ATOM     39  C   LIG d   1       1.580  -1.817 -10.970  0.00  0.00    -0.127 A 
ATOM     40  C   LIG d   1       1.083  -3.222 -10.753  0.00  0.00    -0.038 A 
ATOM     41  O   LIG d   1       0.918  -0.911 -11.437  0.00  0.00    -0.876 OA
ATOM     42  C   LIG d   1       2.246  -4.021 -10.146  0.00  0.00    -0.025 A 
ATOM     43  H   LIG d   1       0.783  -3.679 -11.707  0.00  0.00     0.030 H 
ATOM     44  H   LIG d   1       0.231  -3.229 -10.058  0.00  0.00     0.030 H 
ATOM     45  C   LIG d   1       3.407  -3.023 -10.030  0.00  0.00    -0.006 A 
ATOM     46  H   LIG d   1       1.669  -4.743  -9.550  0.00  0.00     0.032 H 
ATOM     47  C   LIG d   1       3.531  -4.212 -10.985  0.00  0.00    -0.024 A 
ATOM     48  H   LIG d   1       4.115  -2.622  -9.290  0.00  0.00     0.036 H 
BRANCH  47  49
ATOM     49  C   LIG d   1       3.457  -3.924 -12.485  0.00  0.00    -0.059 C 
ATOM     50  H   LIG d   1       2.667  -4.540 -12.939  0.00  0.00     0.024 H 
ATOM     51  H   LIG d   1       4.424  -4.164 -12.953  0.00  0.00     0.024 H 
ATOM     52  H   LIG d   1       3.228  -2.860 -12.644  0.00  0.00     0.024 H 
ENDBRANCH  47  49
BRANCH  47  53
ATOM     53  C   LIG d   1       4.472  -5.349 -10.578  0.00  0.00    -0.059 C 
ATOM     54  H   LIG d   1       4.275  -5.631  -9.533  0.00  0.00     0.024 H 
ATOM     55  H   LIG d   1       5.516  -5.015 -10.677  0.00  0.00     0.024 H 
ATOM     56  H   LIG d   1       4.302  -6.217 -11.231  0.00  0.00     0.024 H 
ENDBRANCH  47  53
ENDBRANCH  37  38
BRANCH  37  57
ATOM     57  C   LIG d   1       4.156  -0.078 -11.960  0.00  0.00    -0.022 C 
ATOM     58  H   LIG d   1       3.528  -0.485 -12.765  0.00  0.00     0.029 H 
ATOM     59  H   LIG d   1       5.195  -0.412 -12.101  0.00  0.00     0.029 H 
ATOM     60  H   LIG d   1       4.118   1.021 -11.984  0.00  0.00     0.029 H 
ENDBRANCH  37  57
ENDBRANCH  36  37
ENDBRANCH   1  36
TORSDOF 13
ENDMDL
MODEL 5
REMARK VINA RESULT:      -5.6      1.638      2.061
REMARK  13 active torsions:
REMARK  status: ('A' for Active; 'I' for Inactive)
REMARK    1  A    between atoms: C_1  and  C_2 
REMARK    2  A    between atoms: C_2  and  C_4 
REMARK    3  A    between atoms: C_2  and  N_19 
REMARK    4  A    between atoms: C_4  and  N_5 
REMARK    5  A    between atoms: N_5  and  C_6 
REMARK    6  A    between atoms: C_6  and  C_18 
REMARK    7  A    between atoms: C_12  and  C_13 
REMARK    8  A    between atoms: C_12  and  C_14 
REMARK    9  A    between atoms: N_19  and  C_20 
REMARK   10  A    between atoms: C_20  and  C_21 
REMARK   11  A    between atoms: C_20  and  C_32 
REMARK   12  A    between atoms: C_26  and  C_27 
REMARK   13  A    between atoms: C_26  and  C_28 
ROOT
ATOM      1  C   LIG d   1       6.884  -3.112  -6.721  0.00  0.00     0.064 C 
ATOM      2  H   LIG d   1       7.477  -2.237  -7.024  0.00  0.00     0.056 H 
ENDROOT
BRANCH   1   3
ATOM      3  C   LIG d   1       7.568  -4.407  -7.164  0.00  0.00    -0.041 C 
ATOM      4  H   LIG d   1       8.637  -4.363  -6.908  0.00  0.00     0.025 H 
ATOM      5  H   LIG d   1       7.456  -4.528  -8.252  0.00  0.00     0.025 H 
ATOM      6  H   LIG d   1       7.103  -5.261  -6.652  0.00  0.00     0.025 H 
ENDBRANCH   1   3
BRANCH   1   7
ATOM      7  C   LIG d   1       6.687  -3.132  -5.204  0.00  0.00     0.031 C 
ATOM      8  H   LIG d   1       5.689  -2.741  -4.959  0.00  0.00     0.048 H 
ATOM      9  H   LIG d   1       6.776  -4.165  -4.837  0.00  0.00     0.048 H 
BRANCH   7  10
ATOM     10  N   LIG d   1       7.710  -2.298  -4.568  0.00  0.00    -0.345 N 
ATOM     11  H   LIG d   1       8.603  -2.763  -4.127  0.00  0.00     0.146 HD
BRANCH  10  12
ATOM     12  C   LIG d   1       7.554  -0.944  -4.525  0.00  0.00     0.008 C 
ATOM     13  C   LIG d   1       6.655  -0.393  -3.673  0.00  0.00     0.015 A 
ATOM     14  C   LIG d   1       6.404   0.979  -3.556  0.00  0.00     0.161 A 
ATOM     15  C   LIG d   1       5.776  -1.170  -2.730  0.00  0.00    -0.002 A 
ATOM     16  C   LIG d   1       5.344   1.224  -2.514  0.00  0.00     0.014 A 
ATOM     17  O   LIG d   1       6.964   1.848  -4.194  0.00  0.00    -0.292 OA
ATOM     18  C   LIG d   1       4.921  -0.148  -1.967  0.00  0.00    -0.021 A 
ATOM     19  H   LIG d   1       4.473   1.725  -2.961  0.00  0.00     0.035 H 
ATOM     20  H   LIG d   1       5.742   1.839  -1.694  0.00  0.00     0.035 H 
ATOM     21  H   LIG d   1       4.642   0.145  -0.945  0.00  0.00     0.032 H 
ATOM     22  C   LIG d   1       4.258  -1.144  -2.921  0.00  0.00    -0.024 A 
ATOM     23  H   LIG d   1       6.463  -2.011  -2.558  0.00  0.00     0.036 H 
BRANCH  22  24
ATOM     24  C   LIG d   1       3.448  -2.284  -2.301  0.00  0.00    -0.059 C 
ATOM     25  H   LIG d   1       2.988  -1.939  -1.363  0.00  0.00     0.024 H 
ATOM     26  H   LIG d   1       4.113  -3.135  -2.092  0.00  0.00     0.024 H 
ATOM     27  H   LIG d   1       2.660  -2.597  -3.001  0.00  0.00     0.024 H 
ENDBRANCH  22  24
BRANCH  22  28
ATOM     28  C   LIG d   1       3.724  -0.602  -4.250  0.00  0.00    -0.059 C 
ATOM     29  H   LIG d   1       2.681  -0.277  -4.120  0.00  0.00     0.024 H 
ATOM     30  H   LIG d   1       3.770  -1.392  -5.013  0.00  0.00     0.024 H 
ATOM     31  H   LIG d   1       4.337   0.254  -4.570  0.00  0.00     0.024 H 
ENDBRANCH  22  28
BRANCH  12  32
ATOM     32  C   LIG d   1       8.379  -0.061  -5.424  0.00  0.00    -0.026 C 
ATOM     33  H   LIG d   1       7.745   0.735  -5.839  0.00  0.00     0.029 H 
ATOM     34  H   LIG d   1       8.798  -0.662  -6.245  0.00  0.00     0.029 H 
ATOM     35  H   LIG d   1       9.200   0.388  -4.844  0.00  0.00     0.029 H 
ENDBRANCH  12  32
ENDBRANCH  10  12
ENDBRANCH   7  10
ENDBRANCH   1   7
BRANCH   1  36
ATOM     36  N   LIG d   1       5.579  -2.999  -7.381  0.00  0.00    -0.284 NA
BRANCH  36  37
ATOM     37  C   LIG d   1       5.404  -2.104  -8.393  0.00  0.00     0.036 C 
BRANCH  37  38
ATOM     38  C   LIG d   1       4.388  -1.209  -8.336  0.00  0.00    -0.035 A 
ATOM     39  C   LIG d   1       4.461   0.041  -7.719  0.00  0.00    -0.127 A 
ATOM     40  C   LIG d   1       3.148   0.767  -7.852  0.00  0.00    -0.038 A 
ATOM     41  O   LIG d   1       5.444   0.482  -7.157  0.00  0.00    -0.876 OA
ATOM     42  C   LIG d   1       2.199  -0.159  -8.626  0.00  0.00    -0.025 A 
ATOM     43  H   LIG d   1       3.278   1.706  -8.409  0.00  0.00     0.030 H 
ATOM     44  H   LIG d   1       2.722   0.984  -6.862  0.00  0.00     0.030 H 
ATOM     45  C   LIG d   1       3.018  -1.423  -8.922  0.00  0.00    -0.006 A 
ATOM     46  H   LIG d   1       1.244   0.164  -8.187  0.00  0.00     0.032 H 
ATOM     47  C   LIG d   1       2.557  -0.539 -10.082  0.00  0.00    -0.024 A 
ATOM     48  H   LIG d   1       2.977  -2.515  -8.793  0.00  0.00     0.036 H 
BRANCH  47  49
ATOM     49  C   LIG d   1       3.620   0.296 -10.799  0.00  0.00    -0.059 C 
ATOM     50  H   LIG d   1       3.403   1.365 -10.658  0.00  0.00     0.024 H 
ATOM     51  H   LIG d   1       3.609   0.057 -11.873  0.00  0.00     0.024 H 
ATOM     52  H   LIG d   1       4.611   0.065 -10.382  0.00  0.00     0.024 H 
ENDBRANCH  47  49
BRANCH  47  53
ATOM     53  C   LIG d   1       1.426  -1.068 -10.967  0.00  0.00    -0.059 C 
ATOM     54  H   LIG d   1       1.850  -1.690 -11.770  0.00  0.00     0.024 H 
ATOM     55  H   LIG d   1       0.880  -0.221 -11.409  0.00  0.00     0.024 H 
ATOM     56  H   LIG d   1       0.737  -1.672 -10.360  0.00  0.00     0.024 H 
ENDBRANCH  47  53
ENDBRANCH  37  38
BRANCH  37  57
ATOM     57  C   LIG d   1       6.339  -2.109  -9.575  0.00  0.00    -0.022 C 
ATOM     58  H   LIG d   1       7.197  -1.454  -9.368  0.00  0.00     0.029 H 
ATOM     59  H   LIG d   1       5.805  -1.744 -10.465  0.00  0.00     0.029 H 
ATOM     60  H   LIG d   1       6.694  -3.134  -9.757  0.00  0.00     0.029 H 
ENDBRANCH  37  57
ENDBRANCH  36  37
ENDBRANCH   1  36
TORSDOF 13
ENDMDL
MODEL 6
REMARK VINA RESULT:      -5.5      1.607      2.218
REMARK  13 active torsions:
REMARK  status: ('A' for Active; 'I' for Inactive)
REMARK    1  A    between atoms: C_1  and  C_2 
REMARK    2  A    between atoms: C_2  and  C_4 
REMARK    3  A    between atoms: C_2  and  N_19 
REMARK    4  A    between atoms: C_4  and  N_5 
REMARK    5  A    between atoms: N_5  and  C_6 
REMARK    6  A    between atoms: C_6  and  C_18 
REMARK    7  A    between atoms: C_12  and  C_13 
REMARK    8  A    between atoms: C_12  and  C_14 
REMARK    9  A    between atoms: N_19  and  C_20 
REMARK   10  A    between atoms: C_20  and  C_21 
REMARK   11  A    between atoms: C_20  and  C_32 
REMARK   12  A    between atoms: C_26  and  C_27 
REMARK   13  A    between atoms: C_26  and  C_28 
ROOT
ATOM      1  C   LIG d   1       8.093   0.798  -8.422  0.00  0.00     0.064 C 
ATOM      2  H   LIG d   1       8.001   1.500  -9.263  0.00  0.00     0.056 H 
ENDROOT
BRANCH   1   3
ATOM      3  C   LIG d   1       9.463   0.117  -8.436  0.00  0.00    -0.041 C 
ATOM      4  H   LIG d   1       9.329  -0.974  -8.392  0.00  0.00     0.025 H 
ATOM      5  H   LIG d   1      10.047   0.450  -7.565  0.00  0.00     0.025 H 
ATOM      6  H   LIG d   1       9.996   0.384  -9.359  0.00  0.00     0.025 H 
ENDBRANCH   1   3
BRANCH   1   7
ATOM      7  C   LIG d   1       7.897   1.525  -7.090  0.00  0.00     0.031 C 
ATOM      8  H   LIG d   1       8.815   1.441  -6.489  0.00  0.00     0.048 H 
ATOM      9  H   LIG d   1       7.679   2.586  -7.279  0.00  0.00     0.048 H 
BRANCH   7  10
ATOM     10  N   LIG d   1       6.779   0.918  -6.362  0.00  0.00    -0.345 N 
ATOM     11  H   LIG d   1       5.746   1.097  -6.694  0.00  0.00     0.146 HD
BRANCH  10  12
ATOM     12  C   LIG d   1       7.021   0.132  -5.275  0.00  0.00     0.008 C 
ATOM     13  C   LIG d   1       6.004  -0.550  -4.694  0.00  0.00     0.015 A 
ATOM     14  C   LIG d   1       6.136  -1.373  -3.569  0.00  0.00     0.161 A 
ATOM     15  C   LIG d   1       4.571  -0.518  -5.157  0.00  0.00    -0.002 A 
ATOM     16  C   LIG d   1       4.800  -1.964  -3.203  0.00  0.00     0.014 A 
ATOM     17  O   LIG d   1       7.175  -1.587  -2.979  0.00  0.00    -0.292 OA
ATOM     18  C   LIG d   1       3.773  -1.427  -4.211  0.00  0.00    -0.021 A 
ATOM     19  H   LIG d   1       4.509  -1.661  -2.186  0.00  0.00     0.035 H 
ATOM     20  H   LIG d   1       4.833  -3.062  -3.262  0.00  0.00     0.035 H 
ATOM     21  H   LIG d   1       3.073  -2.275  -4.223  0.00  0.00     0.032 H 
ATOM     22  C   LIG d   1       3.498   0.078  -4.245  0.00  0.00    -0.024 A 
ATOM     23  H   LIG d   1       4.774  -0.361  -6.227  0.00  0.00     0.036 H 
BRANCH  22  24
ATOM     24  C   LIG d   1       2.195   0.543  -4.897  0.00  0.00    -0.059 C 
ATOM     25  H   LIG d   1       1.848   1.465  -4.407  0.00  0.00     0.024 H 
ATOM     26  H   LIG d   1       1.431  -0.241  -4.789  0.00  0.00     0.024 H 
ATOM     27  H   LIG d   1       2.370   0.740  -5.966  0.00  0.00     0.024 H 
ENDBRANCH  22  24
BRANCH  22  28
ATOM     28  C   LIG d   1       3.971   0.909  -3.049  0.00  0.00    -0.059 C 
ATOM     29  H   LIG d   1       4.853   0.431  -2.596  0.00  0.00     0.024 H 
ATOM     30  H   LIG d   1       3.164   0.971  -2.304  0.00  0.00     0.024 H 
ATOM     31  H   LIG d   1       4.237   1.921  -3.387  0.00  0.00     0.024 H 
ENDBRANCH  22  28
BRANCH  12  32
ATOM     32  C   LIG d   1       8.417   0.022  -4.720  0.00  0.00    -0.026 C 
ATOM     33  H   LIG d   1       8.428  -0.709  -3.897  0.00  0.00     0.029 H 
ATOM     34  H   LIG d   1       8.740   1.003  -4.343  0.00  0.00     0.029 H 
ATOM     35  H   LIG d   1       9.102  -0.310  -5.514  0.00  0.00     0.029 H 
ENDBRANCH  12  32
ENDBRANCH  10  12
ENDBRANCH   7  10
ENDBRANCH   1   7
BRANCH   1  36
ATOM     36  N   LIG d   1       7.043  -0.212  -8.586  0.00  0.00    -0.284 NA
BRANCH  36  37
ATOM     37  C   LIG d   1       6.131  -0.088  -9.591  0.00  0.00     0.036 C 
BRANCH  37  38
ATOM     38  C   LIG d   1       4.851   0.254  -9.305  0.00  0.00    -0.035 A 
ATOM     39  C   LIG d   1       4.366   1.561  -9.264  0.00  0.00    -0.127 A 
ATOM     40  C   LIG d   1       2.901   1.565  -8.917  0.00  0.00    -0.038 A 
ATOM     41  O   LIG d   1       5.030   2.556  -9.482  0.00  0.00    -0.876 OA
ATOM     42  C   LIG d   1       2.481   0.100  -8.726  0.00  0.00    -0.025 A 
ATOM     43  H   LIG d   1       2.310   2.013  -9.729  0.00  0.00     0.030 H 
ATOM     44  H   LIG d   1       2.724   2.122  -7.985  0.00  0.00     0.030 H 
ATOM     45  C   LIG d   1       3.753  -0.722  -8.977  0.00  0.00    -0.006 A 
ATOM     46  H   LIG d   1       1.681   0.243  -7.985  0.00  0.00     0.032 H 
ATOM     47  C   LIG d   1       2.569  -0.859  -9.935  0.00  0.00    -0.024 A 
ATOM     48  H   LIG d   1       4.380  -1.489  -8.498  0.00  0.00     0.036 H 
BRANCH  47  49
ATOM     49  C   LIG d   1       2.712  -0.245 -11.329  0.00  0.00    -0.059 C 
ATOM     50  H   LIG d   1       1.830   0.373 -11.550  0.00  0.00     0.024 H 
ATOM     51  H   LIG d   1       2.795  -1.048 -12.077  0.00  0.00     0.024 H 
ATOM     52  H   LIG d   1       3.617   0.381 -11.362  0.00  0.00     0.024 H 
ENDBRANCH  47  49
BRANCH  47  53
ATOM     53  C   LIG d   1       1.750  -2.152  -9.866  0.00  0.00    -0.059 C 
ATOM     54  H   LIG d   1       1.924  -2.744 -10.776  0.00  0.00     0.024 H 
ATOM     55  H   LIG d   1       0.681  -1.904  -9.788  0.00  0.00     0.024 H 
ATOM     56  H   LIG d   1       2.057  -2.733  -8.985  0.00  0.00     0.024 H 
ENDBRANCH  47  53
ENDBRANCH  37  38
BRANCH  37  57
ATOM     57  C   LIG d   1       6.545  -0.333 -11.019  0.00  0.00    -0.022 C 
ATOM     58  H   LIG d   1       6.138   0.462 -11.660  0.00  0.00     0.029 H 
ATOM     59  H   LIG d   1       6.155  -1.307 -11.351  0.00  0.00     0.029 H 
ATOM     60  H   LIG d   1       7.643  -0.335 -11.088  0.00  0.00     0.029 H 
ENDBRANCH  37  57
ENDBRANCH  36  37
ENDBRANCH   1  36
TORSDOF 13
ENDMDL
MODEL 7
REMARK VINA RESULT:      -5.4      2.365      5.253
REMARK  13 active torsions:
REMARK  status: ('A' for Active; 'I' for Inactive)
REMARK    1  A    between atoms: C_1  and  C_2 
REMARK    2  A    between atoms: C_2  and  C_4 
REMARK    3  A    between atoms: C_2  and  N_19 
REMARK    4  A    between atoms: C_4  and  N_5 
REMARK    5  A    between atoms: N_5  and  C_6 
REMARK    6  A    between atoms: C_6  and  C_18 
REMARK    7  A    between atoms: C_12  and  C_13 
REMARK    8  A    between atoms: C_12  and  C_14 
REMARK    9  A    between atoms: N_19  and  C_20 
REMARK   10  A    between atoms: C_20  and  C_21 
REMARK   11  A    between atoms: C_20  and  C_32 
REMARK   12  A    between atoms: C_26  and  C_27 
REMARK   13  A    between atoms: C_26  and  C_28 
ROOT
ATOM      1  C   LIG d   1       4.858   0.934  -8.856  0.00  0.00     0.064 C 
ATOM      2  H   LIG d   1       5.395   0.318  -9.591  0.00  0.00     0.056 H 
ENDROOT
BRANCH   1   3
ATOM      3  C   LIG d   1       4.233   2.157  -9.531  0.00  0.00    -0.041 C 
ATOM      4  H   LIG d   1       3.754   1.851 -10.473  0.00  0.00     0.025 H 
ATOM      5  H   LIG d   1       5.017   2.899  -9.742  0.00  0.00     0.025 H 
ATOM      6  H   LIG d   1       3.480   2.599  -8.863  0.00  0.00     0.025 H 
ENDBRANCH   1   3
BRANCH   1   7
ATOM      7  C   LIG d   1       3.763   0.117  -8.165  0.00  0.00     0.031 C 
ATOM      8  H   LIG d   1       2.788   0.594  -8.336  0.00  0.00     0.048 H 
ATOM      9  H   LIG d   1       3.750  -0.902  -8.578  0.00  0.00     0.048 H 
BRANCH   7  10
ATOM     10  N   LIG d   1       4.033   0.059  -6.726  0.00  0.00    -0.345 N 
ATOM     11  H   LIG d   1       4.010   0.979  -6.124  0.00  0.00     0.146 HD
BRANCH  10  12
ATOM     12  C   LIG d   1       4.310  -1.137  -6.133  0.00  0.00     0.008 C 
ATOM     13  C   LIG d   1       4.053  -1.315  -4.815  0.00  0.00     0.015 A 
ATOM     14  C   LIG d   1       4.310  -2.493  -4.104  0.00  0.00     0.161 A 
ATOM     15  C   LIG d   1       3.463  -0.270  -3.905  0.00  0.00    -0.002 A 
ATOM     16  C   LIG d   1       3.900  -2.328  -2.664  0.00  0.00     0.014 A 
ATOM     17  O   LIG d   1       4.787  -3.505  -4.578  0.00  0.00    -0.292 OA
ATOM     18  C   LIG d   1       3.352  -0.901  -2.509  0.00  0.00    -0.021 A 
ATOM     19  H   LIG d   1       4.765  -2.462  -1.998  0.00  0.00     0.035 H 
ATOM     20  H   LIG d   1       3.116  -3.053  -2.399  0.00  0.00     0.035 H 
ATOM     21  H   LIG d   1       2.626  -1.074  -1.701  0.00  0.00     0.032 H 
ATOM     22  C   LIG d   1       4.299   0.277  -2.746  0.00  0.00    -0.024 A 
ATOM     23  H   LIG d   1       2.858   0.249  -4.662  0.00  0.00     0.036 H 
BRANCH  22  24
ATOM     24  C   LIG d   1       3.897   1.634  -2.165  0.00  0.00    -0.059 C 
ATOM     25  H   LIG d   1       3.758   2.356  -2.982  0.00  0.00     0.024 H 
ATOM     26  H   LIG d   1       4.687   1.992  -1.489  0.00  0.00     0.024 H 
ATOM     27  H   LIG d   1       2.956   1.529  -1.605  0.00  0.00     0.024 H 
ENDBRANCH  22  24
BRANCH  22  28
ATOM     28  C   LIG d   1       5.801  -0.017  -2.760  0.00  0.00    -0.059 C 
ATOM     29  H   LIG d   1       5.987  -0.951  -3.311  0.00  0.00     0.024 H 
ATOM     30  H   LIG d   1       6.163  -0.123  -1.726  0.00  0.00     0.024 H 
ATOM     31  H   LIG d   1       6.333   0.811  -3.252  0.00  0.00     0.024 H 
ENDBRANCH  22  28
BRANCH  12  32
ATOM     32  C   LIG d   1       4.904  -2.260  -6.943  0.00  0.00    -0.026 C 
ATOM     33  H   LIG d   1       5.925  -1.990  -7.252  0.00  0.00     0.029 H 
ATOM     34  H   LIG d   1       4.286  -2.436  -7.836  0.00  0.00     0.029 H 
ATOM     35  H   LIG d   1       4.936  -3.175  -6.333  0.00  0.00     0.029 H 
ENDBRANCH  12  32
ENDBRANCH  10  12
ENDBRANCH   7  10
ENDBRANCH   1   7
BRANCH   1  36
ATOM     36  N   LIG d   1       5.840   1.374  -7.861  0.00  0.00    -0.284 NA
BRANCH  36  37
ATOM     37  C   LIG d   1       7.142   0.990  -7.974  0.00  0.00     0.036 C 
BRANCH  37  38
ATOM     38  C   LIG d   1       8.015   1.249  -6.969  0.00  0.00    -0.035 A 
ATOM     39  C   LIG d   1       8.251   0.407  -5.882  0.00  0.00    -0.127 A 
ATOM     40  C   LIG d   1       9.281   1.011  -4.966  0.00  0.00    -0.038 A 
ATOM     41  O   LIG d   1       7.705  -0.665  -5.702  0.00  0.00    -0.876 OA
ATOM     42  C   LIG d   1       9.690   2.359  -5.578  0.00  0.00    -0.025 A 
ATOM     43  H   LIG d   1      10.164   0.360  -4.890  0.00  0.00     0.030 H 
ATOM     44  H   LIG d   1       8.860   1.177  -3.963  0.00  0.00     0.030 H 
ATOM     45  C   LIG d   1       8.860   2.490  -6.862  0.00  0.00    -0.006 A 
ATOM     46  H   LIG d   1       9.938   2.903  -4.654  0.00  0.00     0.032 H 
ATOM     47  C   LIG d   1      10.381   2.365  -6.962  0.00  0.00    -0.024 A 
ATOM     48  H   LIG d   1       8.164   3.181  -7.360  0.00  0.00     0.036 H 
BRANCH  47  49
ATOM     49  C   LIG d   1      10.949   1.045  -7.485  0.00  0.00    -0.059 C 
ATOM     50  H   LIG d   1      11.101   1.116  -8.571  0.00  0.00     0.024 H 
ATOM     51  H   LIG d   1      10.243   0.230  -7.265  0.00  0.00     0.024 H 
ATOM     52  H   LIG d   1      11.911   0.839  -6.992  0.00  0.00     0.024 H 
ENDBRANCH  47  49
BRANCH  47  53
ATOM     53  C   LIG d   1      11.169   3.620  -7.347  0.00  0.00    -0.059 C 
ATOM     54  H   LIG d   1      11.500   4.139  -6.436  0.00  0.00     0.024 H 
ATOM     55  H   LIG d   1      10.525   4.291  -7.937  0.00  0.00     0.024 H 
ATOM     56  H   LIG d   1      12.045   3.333  -7.946  0.00  0.00     0.024 H 
ENDBRANCH  47  53
ENDBRANCH  37  38
BRANCH  37  57
ATOM     57  C   LIG d   1       7.614   0.278  -9.216  0.00  0.00    -0.022 C 
ATOM     58  H   LIG d   1       7.658   0.990 -10.052  0.00  0.00     0.029 H 
ATOM     59  H   LIG d   1       6.912  -0.533  -9.461  0.00  0.00     0.029 H 
ATOM     60  H   LIG d   1       8.614  -0.145  -9.039  0.00  0.00     0.029 H 
ENDBRANCH  37  57
ENDBRANCH  36  37
ENDBRANCH   1  36
TORSDOF 13
ENDMDL
MODEL 8
REMARK VINA RESULT:      -5.4      1.697      6.172
REMARK  13 active torsions:
REMARK  status: ('A' for Active; 'I' for Inactive)
REMARK    1  A    between atoms: C_1  and  C_2 
REMARK    2  A    between atoms: C_2  and  C_4 
REMARK    3  A    between atoms: C_2  and  N_19 
REMARK    4  A    between atoms: C_4  and  N_5 
REMARK    5  A    between atoms: N_5  and  C_6 
REMARK    6  A    between atoms: C_6  and  C_18 
REMARK    7  A    between atoms: C_12  and  C_13 
REMARK    8  A    between atoms: C_12  and  C_14 
REMARK    9  A    between atoms: N_19  and  C_20 
REMARK   10  A    between atoms: C_20  and  C_21 
REMARK   11  A    between atoms: C_20  and  C_32 
REMARK   12  A    between atoms: C_26  and  C_27 
REMARK   13  A    between atoms: C_26  and  C_28 
ROOT
ATOM      1  C   LIG d   1       8.506   0.386  -6.615  0.00  0.00     0.064 C 
ATOM      2  H   LIG d   1       9.115   0.036  -5.769  0.00  0.00     0.056 H 
ENDROOT
BRANCH   1   3
ATOM      3  C   LIG d   1       9.153   1.605  -7.276  0.00  0.00    -0.041 C 
ATOM      4  H   LIG d   1       8.472   2.466  -7.202  0.00  0.00     0.025 H 
ATOM      5  H   LIG d   1       9.351   1.385  -8.336  0.00  0.00     0.025 H 
ATOM      6  H   LIG d   1      10.098   1.840  -6.767  0.00  0.00     0.025 H 
ENDBRANCH   1   3
BRANCH   1   7
ATOM      7  C   LIG d   1       8.333  -0.726  -7.652  0.00  0.00     0.031 C 
ATOM      8  H   LIG d   1       8.882  -0.461  -8.567  0.00  0.00     0.048 H 
ATOM      9  H   LIG d   1       8.730  -1.668  -7.247  0.00  0.00     0.048 H 
BRANCH   7  10
ATOM     10  N   LIG d   1       6.911  -0.887  -7.963  0.00  0.00    -0.345 N 
ATOM     11  H   LIG d   1       6.203  -1.166  -7.169  0.00  0.00     0.146 HD
BRANCH  10  12
ATOM     12  C   LIG d   1       6.466  -0.691  -9.236  0.00  0.00     0.008 C 
ATOM     13  C   LIG d   1       5.395   0.109  -9.463  0.00  0.00     0.015 A 
ATOM     14  C   LIG d   1       4.847   0.368 -10.724  0.00  0.00     0.161 A 
ATOM     15  C   LIG d   1       4.619   0.831  -8.394  0.00  0.00    -0.002 A 
ATOM     16  C   LIG d   1       3.667   1.296 -10.594  0.00  0.00     0.014 A 
ATOM     17  O   LIG d   1       5.264  -0.081 -11.773  0.00  0.00    -0.292 OA
ATOM     18  C   LIG d   1       3.498   1.608  -9.100  0.00  0.00    -0.021 A 
ATOM     19  H   LIG d   1       2.754   0.815 -10.973  0.00  0.00     0.035 H 
ATOM     20  H   LIG d   1       3.846   2.231 -11.146  0.00  0.00     0.035 H 
ATOM     21  H   LIG d   1       3.070   2.618  -9.174  0.00  0.00     0.032 H 
ATOM     22  C   LIG d   1       3.155   0.461  -8.146  0.00  0.00    -0.024 A 
ATOM     23  H   LIG d   1       5.452   0.977  -7.690  0.00  0.00     0.036 H 
BRANCH  22  24
ATOM     24  C   LIG d   1       2.554   0.828  -6.788  0.00  0.00    -0.059 C 
ATOM     25  H   LIG d   1       1.751   0.119  -6.539  0.00  0.00     0.024 H 
ATOM     26  H   LIG d   1       2.144   1.848  -6.832  0.00  0.00     0.024 H 
ATOM     27  H   LIG d   1       3.337   0.781  -6.016  0.00  0.00     0.024 H 
ENDBRANCH  22  24
BRANCH  22  28
ATOM     28  C   LIG d   1       2.643  -0.842  -8.764  0.00  0.00    -0.059 C 
ATOM     29  H   LIG d   1       2.630  -0.747  -9.861  0.00  0.00     0.024 H 
ATOM     30  H   LIG d   1       1.624  -1.043  -8.402  0.00  0.00     0.024 H 
ATOM     31  H   LIG d   1       3.305  -1.671  -8.476  0.00  0.00     0.024 H 
ENDBRANCH  22  28
BRANCH  12  32
ATOM     32  C   LIG d   1       7.162  -1.363 -10.390  0.00  0.00    -0.026 C 
ATOM     33  H   LIG d   1       7.196  -0.676 -11.249  0.00  0.00     0.029 H 
ATOM     34  H   LIG d   1       6.612  -2.273 -10.671  0.00  0.00     0.029 H 
ATOM     35  H   LIG d   1       8.188  -1.631 -10.094  0.00  0.00     0.029 H 
ENDBRANCH  12  32
ENDBRANCH  10  12
ENDBRANCH   7  10
ENDBRANCH   1   7
BRANCH   1  36
ATOM     36  N   LIG d   1       7.194   0.761  -6.077  0.00  0.00    -0.284 NA
BRANCH  36  37
ATOM     37  C   LIG d   1       6.865   0.433  -4.797  0.00  0.00     0.036 C 
BRANCH  37  38
ATOM     38  C   LIG d   1       6.153  -0.694  -4.548  0.00  0.00    -0.035 A 
ATOM     39  C   LIG d   1       6.710  -1.935  -4.235  0.00  0.00    -0.127 A 
ATOM     40  C   LIG d   1       5.624  -2.956  -4.021  0.00  0.00    -0.038 A 
ATOM     41  O   LIG d   1       7.901  -2.160  -4.145  0.00  0.00    -0.876 OA
ATOM     42  C   LIG d   1       4.284  -2.238  -4.238  0.00  0.00    -0.025 A 
ATOM     43  H   LIG d   1       5.664  -3.356  -2.997  0.00  0.00     0.030 H 
ATOM     44  H   LIG d   1       5.719  -3.781  -4.742  0.00  0.00     0.030 H 
ATOM     45  C   LIG d   1       4.652  -0.788  -4.579  0.00  0.00    -0.006 A 
ATOM     46  H   LIG d   1       3.690  -3.086  -4.610  0.00  0.00     0.032 H 
ATOM     47  C   LIG d   1       3.898  -1.086  -3.282  0.00  0.00    -0.024 A 
ATOM     48  H   LIG d   1       4.476  -0.023  -5.350  0.00  0.00     0.036 H 
BRANCH  47  49
ATOM     49  C   LIG d   1       4.671  -0.954  -1.968  0.00  0.00    -0.059 C 
ATOM     50  H   LIG d   1       3.970  -0.733  -1.151  0.00  0.00     0.024 H 
ATOM     51  H   LIG d   1       5.404  -0.137  -2.055  0.00  0.00     0.024 H 
ATOM     52  H   LIG d   1       5.197  -1.896  -1.757  0.00  0.00     0.024 H 
ENDBRANCH  47  49
BRANCH  47  53
ATOM     53  C   LIG d   1       2.419  -0.693  -3.218  0.00  0.00    -0.059 C 
ATOM     54  H   LIG d   1       1.797  -1.575  -3.426  0.00  0.00     0.024 H 
ATOM     55  H   LIG d   1       2.214   0.086  -3.968  0.00  0.00     0.024 H 
ATOM     56  H   LIG d   1       2.186  -0.306  -2.215  0.00  0.00     0.024 H 
ENDBRANCH  47  53
ENDBRANCH  37  38
BRANCH  37  57
ATOM     57  C   LIG d   1       7.290   1.322  -3.657  0.00  0.00    -0.022 C 
ATOM     58  H   LIG d   1       8.374   1.226  -3.501  0.00  0.00     0.029 H 
ATOM     59  H   LIG d   1       6.760   1.021  -2.741  0.00  0.00     0.029 H 
ATOM     60  H   LIG d   1       7.044   2.367  -3.896  0.00  0.00     0.029 H 
ENDBRANCH  37  57
ENDBRANCH  36  37
ENDBRANCH   1  36
TORSDOF 13
ENDMDL
MODEL 9
REMARK VINA RESULT:      -5.4      2.222      4.874
REMARK  13 active torsions:
REMARK  status: ('A' for Active; 'I' for Inactive)
REMARK    1  A    between atoms: C_1  and  C_2 
REMARK    2  A    between atoms: C_2  and  C_4 
REMARK    3  A    between atoms: C_2  and  N_19 
REMARK    4  A    between atoms: C_4  and  N_5 
REMARK    5  A    between atoms: N_5  and  C_6 
REMARK    6  A    between atoms: C_6  and  C_18 
REMARK    7  A    between atoms: C_12  and  C_13 
REMARK    8  A    between atoms: C_12  and  C_14 
REMARK    9  A    between atoms: N_19  and  C_20 
REMARK   10  A    between atoms: C_20  and  C_21 
REMARK   11  A    between atoms: C_20  and  C_32 
REMARK   12  A    between atoms: C_26  and  C_27 
REMARK   13  A    between atoms: C_26  and  C_28 
ROOT
ATOM      1  C   LIG d   1       5.338  -0.308  -7.953  0.00  0.00     0.064 C 
ATOM      2  H   LIG d   1       5.897  -0.901  -7.214  0.00  0.00     0.056 H 
ENDROOT
BRANCH   1   3
ATOM      3  C   LIG d   1       5.592  -0.831  -9.368  0.00  0.00    -0.041 C 
ATOM      4  H   LIG d   1       5.405  -0.027 -10.095  0.00  0.00     0.025 H 
ATOM      5  H   LIG d   1       4.919  -1.676  -9.574  0.00  0.00     0.025 H 
ATOM      6  H   LIG d   1       6.636  -1.165  -9.453  0.00  0.00     0.025 H 
ENDBRANCH   1   3
BRANCH   1   7
ATOM      7  C   LIG d   1       3.837  -0.351  -7.655  0.00  0.00     0.031 C 
ATOM      8  H   LIG d   1       3.422   0.665  -7.717  0.00  0.00     0.048 H 
ATOM      9  H   LIG d   1       3.336  -0.996  -8.392  0.00  0.00     0.048 H 
BRANCH   7  10
ATOM     10  N   LIG d   1       3.621  -0.887  -6.309  0.00  0.00    -0.345 N 
ATOM     11  H   LIG d   1       3.662  -1.972  -6.135  0.00  0.00     0.146 HD
BRANCH  10  12
ATOM     12  C   LIG d   1       3.371  -0.039  -5.271  0.00  0.00     0.008 C 
ATOM     13  C   LIG d   1       4.318   0.168  -4.324  0.00  0.00     0.015 A 
ATOM     14  C   LIG d   1       4.163   1.004  -3.211  0.00  0.00     0.161 A 
ATOM     15  C   LIG d   1       5.678  -0.477  -4.310  0.00  0.00    -0.002 A 
ATOM     16  C   LIG d   1       5.416   0.989  -2.375  0.00  0.00     0.014 A 
ATOM     17  O   LIG d   1       3.168   1.653  -2.959  0.00  0.00    -0.292 OA
ATOM     18  C   LIG d   1       6.409   0.039  -3.062  0.00  0.00    -0.021 A 
ATOM     19  H   LIG d   1       5.200   0.622  -1.361  0.00  0.00     0.035 H 
ATOM     20  H   LIG d   1       5.854   1.996  -2.315  0.00  0.00     0.035 H 
ATOM     21  H   LIG d   1       7.352   0.513  -2.754  0.00  0.00     0.032 H 
ATOM     22  C   LIG d   1       6.043  -1.442  -3.181  0.00  0.00    -0.024 A 
ATOM     23  H   LIG d   1       5.801  -0.567  -5.400  0.00  0.00     0.036 H 
BRANCH  22  24
ATOM     24  C   LIG d   1       7.181  -2.432  -3.437  0.00  0.00    -0.059 C 
ATOM     25  H   LIG d   1       7.558  -2.813  -2.477  0.00  0.00     0.024 H 
ATOM     26  H   LIG d   1       7.994  -1.924  -3.976  0.00  0.00     0.024 H 
ATOM     27  H   LIG d   1       6.808  -3.271  -4.043  0.00  0.00     0.024 H 
ENDBRANCH  22  24
BRANCH  22  28
ATOM     28  C   LIG d   1       4.903  -1.960  -2.300  0.00  0.00    -0.059 C 
ATOM     29  H   LIG d   1       5.011  -1.553  -1.284  0.00  0.00     0.024 H 
ATOM     30  H   LIG d   1       4.941  -3.059  -2.261  0.00  0.00     0.024 H 
ATOM     31  H   LIG d   1       3.939  -1.641  -2.722  0.00  0.00     0.024 H 
ENDBRANCH  22  28
BRANCH  12  32
ATOM     32  C   LIG d   1       2.043   0.665  -5.176  0.00  0.00    -0.026 C 
ATOM     33  H   LIG d   1       2.174   1.629  -4.662  0.00  0.00     0.029 H 
ATOM     34  H   LIG d   1       1.336   0.041  -4.610  0.00  0.00     0.029 H 
ATOM     35  H   LIG d   1       1.648   0.840  -6.188  0.00  0.00     0.029 H 
ENDBRANCH  12  32
ENDBRANCH  10  12
ENDBRANCH   7  10
ENDBRANCH   1   7
BRANCH   1  36
ATOM     36  N   LIG d   1       5.817   1.073  -7.849  0.00  0.00    -0.284 NA
BRANCH  36  37
ATOM     37  C   LIG d   1       7.152   1.336  -7.904  0.00  0.00     0.036 C 
BRANCH  37  38
ATOM     38  C   LIG d   1       7.933   1.105  -6.819  0.00  0.00    -0.035 A 
ATOM     39  C   LIG d   1       8.701  -0.043  -6.621  0.00  0.00    -0.127 A 
ATOM     40  C   LIG d   1       9.440   0.042  -5.312  0.00  0.00    -0.038 A 
ATOM     41  O   LIG d   1       8.768  -0.977  -7.396  0.00  0.00    -0.876 OA
ATOM     42  C   LIG d   1       9.059   1.383  -4.668  0.00  0.00    -0.025 A 
ATOM     43  H   LIG d   1      10.527   0.010  -5.476  0.00  0.00     0.030 H 
ATOM     44  H   LIG d   1       9.146  -0.782  -4.645  0.00  0.00     0.030 H 
ATOM     45  C   LIG d   1       8.087   2.045  -5.654  0.00  0.00    -0.006 A 
ATOM     46  H   LIG d   1       9.151   1.101  -3.609  0.00  0.00     0.032 H 
ATOM     47  C   LIG d   1       9.449   2.691  -5.395  0.00  0.00    -0.024 A 
ATOM     48  H   LIG d   1       7.080   2.487  -5.691  0.00  0.00     0.036 H 
BRANCH  47  49
ATOM     49  C   LIG d   1      10.494   2.608  -6.509  0.00  0.00    -0.059 C 
ATOM     50  H   LIG d   1      10.017   2.253  -7.433  0.00  0.00     0.024 H 
ATOM     51  H   LIG d   1      11.290   1.907  -6.213  0.00  0.00     0.024 H 
ATOM     52  H   LIG d   1      10.929   3.604  -6.679  0.00  0.00     0.024 H 
ENDBRANCH  47  49
BRANCH  47  53
ATOM     53  C   LIG d   1       9.474   3.976  -4.562  0.00  0.00    -0.059 C 
ATOM     54  H   LIG d   1       8.504   4.106  -4.060  0.00  0.00     0.024 H 
ATOM     55  H   LIG d   1       9.664   4.837  -5.221  0.00  0.00     0.024 H 
ATOM     56  H   LIG d   1      10.272   3.909  -3.809  0.00  0.00     0.024 H 
ENDBRANCH  47  53
ENDBRANCH  37  38
BRANCH  37  57
ATOM     57  C   LIG d   1       7.762   1.884  -9.168  0.00  0.00    -0.022 C 
ATOM     58  H   LIG d   1       8.634   1.276  -9.448  0.00  0.00     0.029 H 
ATOM     59  H   LIG d   1       8.079   2.925  -9.000  0.00  0.00     0.029 H 
ATOM     60  H   LIG d   1       7.018   1.855  -9.977  0.00  0.00     0.029 H 
ENDBRANCH  37  57
ENDBRANCH  36  37
ENDBRANCH   1  36
TORSDOF 13
ENDMDL
MODEL 10
REMARK VINA RESULT:      -5.4      2.167      6.067
REMARK  13 active torsions:
REMARK  status: ('A' for Active; 'I' for Inactive)
REMARK    1  A    between atoms: C_1  and  C_2 
REMARK    2  A    between atoms: C_2  and  C_4 
REMARK    3  A    between atoms: C_2  and  N_19 
REMARK    4  A    between atoms: C_4  and  N_5 
REMARK    5  A    between atoms: N_5  and  C_6 
REMARK    6  A    between atoms: C_6  and  C_18 
REMARK    7  A    between atoms: C_12  and  C_13 
REMARK    8  A    between atoms: C_12  and  C_14 
REMARK    9  A    between atoms: N_19  and  C_20 
REMARK   10  A    between atoms: C_20  and  C_21 
REMARK   11  A    between atoms: C_20  and  C_32 
REMARK   12  A    between atoms: C_26  and  C_27 
REMARK   13  A    between atoms: C_26  and  C_28 
ROOT
ATOM      1  C   LIG d   1       7.059   0.147  -7.143  0.00  0.00     0.064 C 
ATOM      2  H   LIG d   1       6.399  -0.683  -6.853  0.00  0.00     0.056 H 
ENDROOT
BRANCH   1   3
ATOM      3  C   LIG d   1       8.430  -0.380  -7.573  0.00  0.00    -0.041 C 
ATOM      4  H   LIG d   1       8.792  -1.107  -6.831  0.00  0.00     0.025 H 
ATOM      5  H   LIG d   1       9.140   0.458  -7.642  0.00  0.00     0.025 H 
ATOM      6  H   LIG d   1       8.344  -0.869  -8.554  0.00  0.00     0.025 H 
ENDBRANCH   1   3
BRANCH   1   7
ATOM      7  C   LIG d   1       6.441   0.954  -8.287  0.00  0.00     0.031 C 
ATOM      8  H   LIG d   1       6.920   1.943  -8.337  0.00  0.00     0.048 H 
ATOM      9  H   LIG d   1       6.599   0.423  -9.237  0.00  0.00     0.048 H 
BRANCH   7  10
ATOM     10  N   LIG d   1       5.005   1.117  -8.049  0.00  0.00    -0.345 N 
ATOM     11  H   LIG d   1       4.649   1.538  -7.097  0.00  0.00     0.146 HD
BRANCH  10  12
ATOM     12  C   LIG d   1       4.110   0.749  -9.009  0.00  0.00     0.008 C 
ATOM     13  C   LIG d   1       3.697  -0.539  -9.091  0.00  0.00     0.015 A 
ATOM     14  C   LIG d   1       2.795  -1.028 -10.043  0.00  0.00     0.161 A 
ATOM     15  C   LIG d   1       4.155  -1.649  -8.182  0.00  0.00    -0.002 A 
ATOM     16  C   LIG d   1       2.571  -2.503  -9.833  0.00  0.00     0.014 A 
ATOM     17  O   LIG d   1       2.262  -0.362 -10.907  0.00  0.00    -0.292 OA
ATOM     18  C   LIG d   1       3.439  -2.928  -8.640  0.00  0.00    -0.021 A 
ATOM     19  H   LIG d   1       2.873  -3.070 -10.726  0.00  0.00     0.035 H 
ATOM     20  H   LIG d   1       1.514  -2.707  -9.609  0.00  0.00     0.035 H 
ATOM     21  H   LIG d   1       2.821  -3.751  -8.252  0.00  0.00     0.032 H 
ATOM     22  C   LIG d   1       4.960  -2.813  -8.762  0.00  0.00    -0.024 A 
ATOM     23  H   LIG d   1       4.324  -1.035  -7.286  0.00  0.00     0.036 H 
BRANCH  22  24
ATOM     24  C   LIG d   1       5.811  -3.635  -7.792  0.00  0.00    -0.059 C 
ATOM     25  H   LIG d   1       6.432  -4.344  -8.359  0.00  0.00     0.024 H 
ATOM     26  H   LIG d   1       5.153  -4.190  -7.107  0.00  0.00     0.024 H 
ATOM     27  H   LIG d   1       6.460  -2.962  -7.212  0.00  0.00     0.024 H 
ENDBRANCH  22  24
BRANCH  22  28
ATOM     28  C   LIG d   1       5.544  -2.637 -10.166  0.00  0.00    -0.059 C 
ATOM     29  H   LIG d   1       5.806  -3.622 -10.580  0.00  0.00     0.024 H 
ATOM     30  H   LIG d   1       6.447  -2.011 -10.111  0.00  0.00     0.024 H 
ATOM     31  H   LIG d   1       4.800  -2.152 -10.815  0.00  0.00     0.024 H 
ENDBRANCH  22  28
BRANCH  12  32
ATOM     32  C   LIG d   1       3.581   1.773  -9.979  0.00  0.00    -0.026 C 
ATOM     33  H   LIG d   1       3.795   1.450 -11.008  0.00  0.00     0.029 H 
ATOM     34  H   LIG d   1       4.066   2.743  -9.790  0.00  0.00     0.029 H 
ATOM     35  H   LIG d   1       2.493   1.877  -9.846  0.00  0.00     0.029 H 
ENDBRANCH  12  32
ENDBRANCH  10  12
ENDBRANCH   7  10
ENDBRANCH   1   7
BRANCH   1  36
ATOM     36  N   LIG d   1       7.214   1.007  -5.966  0.00  0.00    -0.284 NA
BRANCH  36  37
ATOM     37  C   LIG d   1       6.945   0.515  -4.724  0.00  0.00     0.036 C 
BRANCH  37  38
ATOM     38  C   LIG d   1       6.213  -0.618  -4.589  0.00  0.00    -0.035 A 
ATOM     39  C   LIG d   1       6.747  -1.893  -4.395  0.00  0.00    -0.127 A 
ATOM     40  C   LIG d   1       5.644  -2.912  -4.285  0.00  0.00    -0.038 A 
ATOM     41  O   LIG d   1       7.934  -2.145  -4.322  0.00  0.00    -0.876 OA
ATOM     42  C   LIG d   1       4.317  -2.153  -4.437  0.00  0.00    -0.025 A 
ATOM     43  H   LIG d   1       5.671  -3.409  -3.305  0.00  0.00     0.030 H 
ATOM     44  H   LIG d   1       5.729  -3.665  -5.082  0.00  0.00     0.030 H 
ATOM     45  C   LIG d   1       4.710  -0.683  -4.635  0.00  0.00    -0.006 A 
ATOM     46  H   LIG d   1       3.711  -2.951  -4.892  0.00  0.00     0.032 H 
ATOM     47  C   LIG d   1       3.944  -1.092  -3.376  0.00  0.00    -0.024 A 
ATOM     48  H   LIG d   1       4.551   0.156  -5.330  0.00  0.00     0.036 H 
BRANCH  47  49
ATOM     49  C   LIG d   1       4.711  -1.101  -2.053  0.00  0.00    -0.059 C 
ATOM     50  H   LIG d   1       4.425  -0.222  -1.457  0.00  0.00     0.024 H 
ATOM     51  H   LIG d   1       5.793  -1.070  -2.257  0.00  0.00     0.024 H 
ATOM     52  H   LIG d   1       4.470  -2.018  -1.495  0.00  0.00     0.024 H 
ENDBRANCH  47  49
BRANCH  47  53
ATOM     53  C   LIG d   1       2.471  -0.682  -3.281  0.00  0.00    -0.059 C 
ATOM     54  H   LIG d   1       2.350   0.339  -3.669  0.00  0.00     0.024 H 
ATOM     55  H   LIG d   1       2.149  -0.716  -2.229  0.00  0.00     0.024 H 
ATOM     56  H   LIG d   1       1.859  -1.376  -3.875  0.00  0.00     0.024 H 
ENDBRANCH  47  53
ENDBRANCH  37  38
BRANCH  37  57
ATOM     57  C   LIG d   1       7.458   1.231  -3.502  0.00  0.00    -0.022 C 
ATOM     58  H   LIG d   1       6.609   1.596  -2.907  0.00  0.00     0.029 H 
ATOM     59  H   LIG d   1       8.083   2.082  -3.811  0.00  0.00     0.029 H 
ATOM     60  H   LIG d   1       8.060   0.536  -2.896  0.00  0.00     0.029 H 
ENDBRANCH  37  57
ENDBRANCH  36  37
ENDBRANCH   1  36
TORSDOF 13
ENDMDL
