MODEL 1
REMARK VINA RESULT:      -6.0      0.000      0.000
REMARK  12 active torsions:
REMARK  status: ('A' for Active; 'I' for Inactive)
REMARK    1  A    between atoms: C_1  and  C_2 
REMARK    2  A    between atoms: C_2  and  C_3 
REMARK    3  A    between atoms: C_16  and  O_35 
REMARK    4  A    between atoms: N_19  and  C_34 
REMARK    5  A    between atoms: C_22  and  C_29 
REMARK    6  A    between atoms: C_22  and  O_33 
REMARK    7  A    between atoms: C_23  and  O_25 
REMARK    8  A    between atoms: O_25  and  C_26 
REMARK    9  A    between atoms: C_26  and  C_28 
REMARK   10  A    between atoms: C_29  and  O_31 
REMARK   11  A    between atoms: O_31  and  C_32 
REMARK   12  A    between atoms: O_35  and  C_36 
ROOT
ATOM      1  C   LIG d   1       6.125  -0.824  -4.270  0.00  0.00     0.073 C 
ATOM      2  C   LIG d   1       6.810   0.464  -3.922  0.00  0.00    -0.068 C 
ATOM      3  C   LIG d   1       8.064   0.680  -4.181  0.00  0.00    -0.043 C 
ATOM      4  C   LIG d   1       8.918  -0.341  -4.871  0.00  0.00    -0.013 C 
ATOM      5  N   LIG d   1       8.459  -1.700  -4.570  0.00  0.00     0.242 N 
ATOM      6  C   LIG d   1       7.028  -1.853  -4.843  0.00  0.00     0.004 C 
ATOM      7  H   LIG d   1       6.795  -2.728  -4.235  0.00  0.00     0.087 H 
ATOM      8  C   LIG d   1       6.812  -2.401  -6.223  0.00  0.00     0.068 C 
ATOM      9  C   LIG d   1       8.245  -2.556  -6.809  0.00  0.00     0.004 C 
ATOM     10  C   LIG d   1       9.141  -2.621  -5.523  0.00  0.00    -0.030 C 
ATOM     11  C   LIG d   1       6.161  -3.755  -6.211  0.00  0.00    -0.013 A 
ATOM     12  C   LIG d   1       6.538  -4.910  -5.552  0.00  0.00    -0.053 A 
ATOM     13  C   LIG d   1       5.760  -6.041  -5.762  0.00  0.00    -0.020 A 
ATOM     14  C   LIG d   1       4.655  -6.012  -6.597  0.00  0.00     0.122 A 
ATOM     15  C   LIG d   1       4.262  -4.849  -7.249  0.00  0.00     0.001 A 
ATOM     16  C   LIG d   1       5.029  -3.703  -7.029  0.00  0.00     0.037 A 
ATOM     17  N   LIG d   1       4.788  -2.412  -7.469  0.00  0.00    -0.325 N 
ATOM     18  C   LIG d   1       5.975  -1.575  -7.191  0.00  0.00     0.081 C 
ATOM     19  H   LIG d   1       6.533  -1.400  -8.110  0.00  0.00     0.055 H 
ATOM     20  C   LIG d   1       5.496  -0.260  -6.592  0.00  0.00     0.220 C 
ATOM     21  C   LIG d   1       4.941  -0.520  -5.189  0.00  0.00     0.158 C 
ATOM     22  H   LIG d   1       4.258  -1.369  -5.205  0.00  0.00     0.078 H 
ATOM     23  H   LIG d   1       6.239   1.241  -3.436  0.00  0.00     0.058 H 
ATOM     24  H   LIG d   1       8.504   1.623  -3.893  0.00  0.00     0.062 H 
ATOM     25  H   LIG d   1       8.873  -0.178  -5.947  0.00  0.00     0.086 H 
ATOM     26  H   LIG d   1       9.949  -0.230  -4.536  0.00  0.00     0.086 H 
ATOM     27  H   LIG d   1       8.329  -3.481  -7.381  0.00  0.00     0.033 H 
ATOM     28  H   LIG d   1       8.504  -1.695  -7.425  0.00  0.00     0.033 H 
ATOM     29  H   LIG d   1      10.145  -2.261  -5.750  0.00  0.00     0.082 H 
ATOM     30  H   LIG d   1       9.181  -3.632  -5.117  0.00  0.00     0.082 H 
ATOM     31  H   LIG d   1       7.400  -4.932  -4.902  0.00  0.00     0.062 H 
ATOM     32  H   LIG d   1       6.021  -6.962  -5.262  0.00  0.00     0.065 H 
ATOM     33  H   LIG d   1       3.399  -4.833  -7.900  0.00  0.00     0.067 H 
ATOM     34  H   LIG d   1       8.684  -1.947  -3.617  0.00  0.00     0.204 HD
ENDROOT
BRANCH  20  35
ATOM     35  C   LIG d   1       4.413   0.325  -7.462  0.00  0.00     0.345 C 
ATOM     36  O   LIG d   1       3.300   0.478  -7.020  0.00  0.00    -0.247 OA
BRANCH  35  37
ATOM     37  O   LIG d   1       4.686   0.676  -8.729  0.00  0.00    -0.466 OA
BRANCH  37  38
ATOM     38  C   LIG d   1       4.312   1.994  -9.133  0.00  0.00     0.082 C 
ATOM     39  H   LIG d   1       4.093   2.596  -8.250  0.00  0.00     0.066 H 
ATOM     40  H   LIG d   1       5.130   2.450  -9.689  0.00  0.00     0.066 H 
ATOM     41  H   LIG d   1       3.425   1.942  -9.765  0.00  0.00     0.066 H 
ENDBRANCH  37  38
ENDBRANCH  35  37
ENDBRANCH  20  35
BRANCH  20  42
ATOM     42  O   LIG d   1       6.591   0.656  -6.510  0.00  0.00    -0.373 OA
ATOM     43  H   LIG d   1       6.887   0.992  -7.367  0.00  0.00     0.211 HD
ENDBRANCH  20  42
BRANCH  21  44
ATOM     44  O   LIG d   1       4.254   0.645  -4.727  0.00  0.00    -0.457 OA
BRANCH  44  45
ATOM     45  C   LIG d   1       3.292   0.462  -3.810  0.00  0.00     0.304 C 
ATOM     46  O   LIG d   1       2.351  -0.255  -4.055  0.00  0.00    -0.251 OA
BRANCH  45  47
ATOM     47  C   LIG d   1       3.386   1.151  -2.472  0.00  0.00     0.033 C 
ATOM     48  H   LIG d   1       4.429   1.377  -2.253  0.00  0.00     0.034 H 
ATOM     49  H   LIG d   1       2.811   2.077  -2.499  0.00  0.00     0.034 H 
ATOM     50  H   LIG d   1       2.985   0.497  -1.698  0.00  0.00     0.034 H 
ENDBRANCH  45  47
ENDBRANCH  44  45
ENDBRANCH  21  44
BRANCH  17  51
ATOM     51  C   LIG d   1       3.555  -1.950  -8.110  0.00  0.00     0.001 C 
ATOM     52  H   LIG d   1       3.074  -2.785  -8.620  0.00  0.00     0.043 H 
ATOM     53  H   LIG d   1       2.879  -1.549  -7.354  0.00  0.00     0.043 H 
ATOM     54  H   LIG d   1       3.792  -1.170  -8.834  0.00  0.00     0.043 H 
ENDBRANCH  17  51
BRANCH   1  55
ATOM     55  C   LIG d   1       5.552  -1.395  -2.971  0.00  0.00    -0.038 C 
ATOM     56  H   LIG d   1       4.956  -0.632  -2.470  0.00  0.00     0.027 H 
ATOM     57  H   LIG d   1       6.370  -1.704  -2.319  0.00  0.00     0.027 H 
BRANCH  55  58
ATOM     58  C   LIG d   1       4.670  -2.603  -3.290  0.00  0.00    -0.064 C 
ATOM     59  H   LIG d   1       3.773  -2.573  -2.670  0.00  0.00     0.023 H 
ATOM     60  H   LIG d   1       4.385  -2.577  -4.342  0.00  0.00     0.023 H 
ATOM     61  H   LIG d   1       5.222  -3.521  -3.087  0.00  0.00     0.023 H 
ENDBRANCH  55  58
ENDBRANCH   1  55
BRANCH  14  62
ATOM     62  O   LIG d   1       3.937  -7.151  -6.784  0.00  0.00    -0.495 OA
BRANCH  62  63
ATOM     63  C   LIG d   1       4.673  -8.368  -6.911  0.00  0.00     0.079 C 
ATOM     64  H   LIG d   1       4.945  -8.523  -7.955  0.00  0.00     0.066 H 
ATOM     65  H   LIG d   1       5.578  -8.311  -6.305  0.00  0.00     0.066 H 
ATOM     66  H   LIG d   1       4.059  -9.202  -6.568  0.00  0.00     0.066 H 
ENDBRANCH  62  63
ENDBRANCH  14  62
TORSDOF 12
ENDMDL
MODEL 2
REMARK VINA RESULT:      -5.2      2.147      5.996
REMARK  12 active torsions:
REMARK  status: ('A' for Active; 'I' for Inactive)
REMARK    1  A    between atoms: C_1  and  C_2 
REMARK    2  A    between atoms: C_2  and  C_3 
REMARK    3  A    between atoms: C_16  and  O_35 
REMARK    4  A    between atoms: N_19  and  C_34 
REMARK    5  A    between atoms: C_22  and  C_29 
REMARK    6  A    between atoms: C_22  and  O_33 
REMARK    7  A    between atoms: C_23  and  O_25 
REMARK    8  A    between atoms: O_25  and  C_26 
REMARK    9  A    between atoms: C_26  and  C_28 
REMARK   10  A    between atoms: C_29  and  O_31 
REMARK   11  A    between atoms: O_31  and  C_32 
REMARK   12  A    between atoms: O_35  and  C_36 
ROOT
ATOM      1  C   LIG d   1       6.232  -1.460  -7.163  0.00  0.00     0.073 C 
ATOM      2  C   LIG d   1       5.706  -2.774  -7.659  0.00  0.00    -0.068 C 
ATOM      3  C   LIG d   1       6.412  -3.864  -7.633  0.00  0.00    -0.043 C 
ATOM      4  C   LIG d   1       7.807  -3.891  -7.083  0.00  0.00    -0.013 C 
ATOM      5  N   LIG d   1       8.469  -2.596  -7.265  0.00  0.00     0.242 N 
ATOM      6  C   LIG d   1       7.653  -1.500  -6.736  0.00  0.00     0.004 C 
ATOM      7  H   LIG d   1       8.079  -0.651  -7.271  0.00  0.00     0.087 H 
ATOM      8  C   LIG d   1       8.055  -1.178  -5.328  0.00  0.00     0.068 C 
ATOM      9  C   LIG d   1       9.189  -2.193  -5.004  0.00  0.00     0.004 C 
ATOM     10  C   LIG d   1       9.702  -2.606  -6.427  0.00  0.00    -0.030 C 
ATOM     11  C   LIG d   1       8.615   0.210  -5.190  0.00  0.00    -0.013 A 
ATOM     12  C   LIG d   1       9.650   0.817  -5.878  0.00  0.00    -0.053 A 
ATOM     13  C   LIG d   1       9.983   2.112  -5.506  0.00  0.00    -0.020 A 
ATOM     14  C   LIG d   1       9.310   2.766  -4.487  0.00  0.00     0.122 A 
ATOM     15  C   LIG d   1       8.258   2.167  -3.803  0.00  0.00     0.001 A 
ATOM     16  C   LIG d   1       7.905   0.871  -4.185  0.00  0.00     0.037 A 
ATOM     17  N   LIG d   1       6.839   0.107  -3.739  0.00  0.00    -0.325 N 
ATOM     18  C   LIG d   1       6.987  -1.275  -4.246  0.00  0.00     0.081 C 
ATOM     19  H   LIG d   1       7.327  -1.932  -3.446  0.00  0.00     0.055 H 
ATOM     20  C   LIG d   1       5.637  -1.730  -4.780  0.00  0.00     0.220 C 
ATOM     21  C   LIG d   1       5.312  -0.947  -6.054  0.00  0.00     0.158 C 
ATOM     22  H   LIG d   1       5.482   0.118  -5.896  0.00  0.00     0.078 H 
ATOM     23  H   LIG d   1       4.702  -2.816  -8.053  0.00  0.00     0.058 H 
ATOM     24  H   LIG d   1       5.982  -4.777  -8.018  0.00  0.00     0.062 H 
ATOM     25  H   LIG d   1       7.768  -4.127  -6.020  0.00  0.00     0.086 H 
ATOM     26  H   LIG d   1       8.380  -4.661  -7.600  0.00  0.00     0.086 H 
ATOM     27  H   LIG d   1       9.985  -1.713  -4.434  0.00  0.00     0.033 H 
ATOM     28  H   LIG d   1       8.792  -3.054  -4.464  0.00  0.00     0.033 H 
ATOM     29  H   LIG d   1      10.132  -3.608  -6.392  0.00  0.00     0.082 H 
ATOM     30  H   LIG d   1      10.431  -1.891  -6.809  0.00  0.00     0.082 H 
ATOM     31  H   LIG d   1      10.175   0.305  -6.671  0.00  0.00     0.062 H 
ATOM     32  H   LIG d   1      10.784   2.620  -6.022  0.00  0.00     0.065 H 
ATOM     33  H   LIG d   1       7.737   2.683  -3.009  0.00  0.00     0.067 H 
ATOM     34  H   LIG d   1       8.703  -2.451  -8.236  0.00  0.00     0.204 HD
ENDROOT
BRANCH  20  35
ATOM     35  C   LIG d   1       4.573  -1.473  -3.745  0.00  0.00     0.345 C 
ATOM     36  O   LIG d   1       4.486  -2.187  -2.775  0.00  0.00    -0.247 OA
BRANCH  35  37
ATOM     37  O   LIG d   1       3.719  -0.448  -3.902  0.00  0.00    -0.466 OA
BRANCH  37  38
ATOM     38  C   LIG d   1       2.409  -0.604  -3.352  0.00  0.00     0.082 C 
ATOM     39  H   LIG d   1       2.183   0.244  -2.705  0.00  0.00     0.066 H 
ATOM     40  H   LIG d   1       1.680  -0.650  -4.159  0.00  0.00     0.066 H 
ATOM     41  H   LIG d   1       2.367  -1.525  -2.770  0.00  0.00     0.066 H 
ENDBRANCH  37  38
ENDBRANCH  35  37
ENDBRANCH  20  35
BRANCH  20  42
ATOM     42  O   LIG d   1       5.687  -3.128  -5.078  0.00  0.00    -0.373 OA
ATOM     43  H   LIG d   1       5.479  -3.341  -5.998  0.00  0.00     0.211 HD
ENDBRANCH  20  42
BRANCH  21  44
ATOM     44  O   LIG d   1       3.946  -1.171  -6.414  0.00  0.00    -0.457 OA
BRANCH  44  45
ATOM     45  C   LIG d   1       3.304  -0.165  -7.025  0.00  0.00     0.304 C 
ATOM     46  O   LIG d   1       3.374   0.956  -6.580  0.00  0.00    -0.251 OA
BRANCH  45  47
ATOM     47  C   LIG d   1       2.495  -0.432  -8.269  0.00  0.00     0.033 C 
ATOM     48  H   LIG d   1       1.460  -0.136  -8.099  0.00  0.00     0.034 H 
ATOM     49  H   LIG d   1       2.905   0.143  -9.100  0.00  0.00     0.034 H 
ATOM     50  H   LIG d   1       2.535  -1.494  -8.507  0.00  0.00     0.034 H 
ENDBRANCH  45  47
ENDBRANCH  44  45
ENDBRANCH  21  44
BRANCH  17  51
ATOM     51  C   LIG d   1       5.740   0.589  -2.900  0.00  0.00     0.001 C 
ATOM     52  H   LIG d   1       6.146   1.063  -2.006  0.00  0.00     0.043 H 
ATOM     53  H   LIG d   1       5.147   1.315  -3.457  0.00  0.00     0.043 H 
ATOM     54  H   LIG d   1       5.108  -0.251  -2.610  0.00  0.00     0.043 H 
ENDBRANCH  17  51
BRANCH   1  55
ATOM     55  C   LIG d   1       6.135  -0.469  -8.325  0.00  0.00    -0.038 C 
ATOM     56  H   LIG d   1       5.096  -0.384  -8.645  0.00  0.00     0.027 H 
ATOM     57  H   LIG d   1       6.744  -0.824  -9.157  0.00  0.00     0.027 H 
BRANCH  55  58
ATOM     58  C   LIG d   1       6.642   0.901  -7.871  0.00  0.00    -0.064 C 
ATOM     59  H   LIG d   1       7.211   0.791  -6.947  0.00  0.00     0.023 H 
ATOM     60  H   LIG d   1       7.283   1.325  -8.644  0.00  0.00     0.023 H 
ATOM     61  H   LIG d   1       5.794   1.564  -7.699  0.00  0.00     0.023 H 
ENDBRANCH  55  58
ENDBRANCH   1  55
BRANCH  14  62
ATOM     62  O   LIG d   1       9.687   4.027  -4.149  0.00  0.00    -0.495 OA
BRANCH  62  63
ATOM     63  C   LIG d   1      10.105   4.239  -2.799  0.00  0.00     0.079 C 
ATOM     64  H   LIG d   1       9.255   4.108  -2.130  0.00  0.00     0.066 H 
ATOM     65  H   LIG d   1      10.883   3.519  -2.542  0.00  0.00     0.066 H 
ATOM     66  H   LIG d   1      10.498   5.250  -2.695  0.00  0.00     0.066 H 
ENDBRANCH  62  63
ENDBRANCH  14  62
TORSDOF 12
ENDMDL
MODEL 3
REMARK VINA RESULT:      -5.2      2.142      5.522
REMARK  12 active torsions:
REMARK  status: ('A' for Active; 'I' for Inactive)
REMARK    1  A    between atoms: C_1  and  C_2 
REMARK    2  A    between atoms: C_2  and  C_3 
REMARK    3  A    between atoms: C_16  and  O_35 
REMARK    4  A    between atoms: N_19  and  C_34 
REMARK    5  A    between atoms: C_22  and  C_29 
REMARK    6  A    between atoms: C_22  and  O_33 
REMARK    7  A    between atoms: C_23  and  O_25 
REMARK    8  A    between atoms: O_25  and  C_26 
REMARK    9  A    between atoms: C_26  and  C_28 
REMARK   10  A    between atoms: C_29  and  O_31 
REMARK   11  A    between atoms: O_31  and  C_32 
REMARK   12  A    between atoms: O_35  and  C_36 
ROOT
ATOM      1  C   LIG d   1       5.888  -0.976  -4.161  0.00  0.00     0.073 C 
ATOM      2  C   LIG d   1       5.732  -1.205  -2.687  0.00  0.00    -0.068 C 
ATOM      3  C   LIG d   1       4.685  -0.811  -2.027  0.00  0.00    -0.043 C 
ATOM      4  C   LIG d   1       3.540  -0.113  -2.699  0.00  0.00    -0.013 C 
ATOM      5  N   LIG d   1       4.001   0.652  -3.862  0.00  0.00     0.242 N 
ATOM      6  C   LIG d   1       4.793  -0.181  -4.770  0.00  0.00     0.004 C 
ATOM      7  H   LIG d   1       5.342   0.582  -5.322  0.00  0.00     0.087 H 
ATOM      8  C   LIG d   1       3.926  -0.748  -5.855  0.00  0.00     0.068 C 
ATOM      9  C   LIG d   1       2.500  -0.214  -5.532  0.00  0.00     0.004 C 
ATOM     10  C   LIG d   1       2.793   1.044  -4.642  0.00  0.00    -0.030 C 
ATOM     11  C   LIG d   1       4.313  -0.255  -7.220  0.00  0.00    -0.013 A 
ATOM     12  C   LIG d   1       4.459   1.040  -7.683  0.00  0.00    -0.053 A 
ATOM     13  C   LIG d   1       4.789   1.200  -9.022  0.00  0.00    -0.020 A 
ATOM     14  C   LIG d   1       4.962   0.109  -9.858  0.00  0.00     0.122 A 
ATOM     15  C   LIG d   1       4.832  -1.196  -9.394  0.00  0.00     0.001 A 
ATOM     16  C   LIG d   1       4.519  -1.365  -8.044  0.00  0.00     0.037 A 
ATOM     17  N   LIG d   1       4.443  -2.545  -7.323  0.00  0.00    -0.325 N 
ATOM     18  C   LIG d   1       3.861  -2.263  -5.992  0.00  0.00     0.081 C 
ATOM     19  H   LIG d   1       2.824  -2.596  -5.959  0.00  0.00     0.055 H 
ATOM     20  C   LIG d   1       4.695  -2.992  -4.948  0.00  0.00     0.220 C 
ATOM     21  C   LIG d   1       6.072  -2.329  -4.853  0.00  0.00     0.158 C 
ATOM     22  H   LIG d   1       6.489  -2.181  -5.848  0.00  0.00     0.078 H 
ATOM     23  H   LIG d   1       6.519  -1.716  -2.154  0.00  0.00     0.058 H 
ATOM     24  H   LIG d   1       4.636  -0.992  -0.963  0.00  0.00     0.062 H 
ATOM     25  H   LIG d   1       2.811  -0.854  -3.025  0.00  0.00     0.086 H 
ATOM     26  H   LIG d   1       3.068   0.566  -1.989  0.00  0.00     0.086 H 
ATOM     27  H   LIG d   1       1.981   0.075  -6.446  0.00  0.00     0.033 H 
ATOM     28  H   LIG d   1       1.926  -0.960  -4.981  0.00  0.00     0.033 H 
ATOM     29  H   LIG d   1       1.952   1.232  -3.975  0.00  0.00     0.082 H 
ATOM     30  H   LIG d   1       3.001   1.923  -5.253  0.00  0.00     0.082 H 
ATOM     31  H   LIG d   1       4.323   1.890  -7.030  0.00  0.00     0.062 H 
ATOM     32  H   LIG d   1       4.914   2.196  -9.420  0.00  0.00     0.065 H 
ATOM     33  H   LIG d   1       4.968  -2.042 -10.052  0.00  0.00     0.067 H 
ATOM     34  H   LIG d   1       4.512   1.471  -3.567  0.00  0.00     0.204 HD
ENDROOT
BRANCH  20  35
ATOM     35  C   LIG d   1       4.859  -4.435  -5.352  0.00  0.00     0.345 C 
ATOM     36  O   LIG d   1       3.918  -5.190  -5.295  0.00  0.00    -0.247 OA
BRANCH  35  37
ATOM     37  O   LIG d   1       6.053  -4.882  -5.776  0.00  0.00    -0.466 OA
BRANCH  37  38
ATOM     38  C   LIG d   1       6.292  -6.287  -5.678  0.00  0.00     0.082 C 
ATOM     39  H   LIG d   1       6.273  -6.587  -4.630  0.00  0.00     0.066 H 
ATOM     40  H   LIG d   1       5.519  -6.826  -6.225  0.00  0.00     0.066 H 
ATOM     41  H   LIG d   1       7.268  -6.520  -6.104  0.00  0.00     0.066 H 
ENDBRANCH  37  38
ENDBRANCH  35  37
ENDBRANCH  20  35
BRANCH  20  42
ATOM     42  O   LIG d   1       4.042  -2.922  -3.679  0.00  0.00    -0.373 OA
ATOM     43  H   LIG d   1       4.586  -2.538  -2.977  0.00  0.00     0.211 HD
ENDBRANCH  20  42
BRANCH  21  44
ATOM     44  O   LIG d   1       6.945  -3.156  -4.079  0.00  0.00    -0.457 OA
BRANCH  44  45
ATOM     45  C   LIG d   1       8.217  -3.253  -4.494  0.00  0.00     0.304 C 
ATOM     46  O   LIG d   1       8.514  -2.924  -5.618  0.00  0.00    -0.251 OA
BRANCH  45  47
ATOM     47  C   LIG d   1       9.277  -3.775  -3.557  0.00  0.00     0.033 C 
ATOM     48  H   LIG d   1       9.266  -3.190  -2.637  0.00  0.00     0.034 H 
ATOM     49  H   LIG d   1       9.075  -4.820  -3.325  0.00  0.00     0.034 H 
ATOM     50  H   LIG d   1      10.254  -3.689  -4.031  0.00  0.00     0.034 H 
ENDBRANCH  45  47
ENDBRANCH  44  45
ENDBRANCH  21  44
BRANCH  17  51
ATOM     51  C   LIG d   1       4.868  -3.862  -7.802  0.00  0.00     0.001 C 
ATOM     52  H   LIG d   1       5.620  -4.269  -7.126  0.00  0.00     0.043 H 
ATOM     53  H   LIG d   1       4.009  -4.532  -7.835  0.00  0.00     0.043 H 
ATOM     54  H   LIG d   1       5.293  -3.766  -8.801  0.00  0.00     0.043 H 
ENDBRANCH  17  51
BRANCH   1  55
ATOM     55  C   LIG d   1       7.185  -0.190  -4.359  0.00  0.00    -0.038 C 
ATOM     56  H   LIG d   1       7.414  -0.128  -5.424  0.00  0.00     0.027 H 
ATOM     57  H   LIG d   1       8.001  -0.697  -3.842  0.00  0.00     0.027 H 
BRANCH  55  58
ATOM     58  C   LIG d   1       7.020   1.220  -3.791  0.00  0.00    -0.064 C 
ATOM     59  H   LIG d   1       6.341   1.192  -2.938  0.00  0.00     0.023 H 
ATOM     60  H   LIG d   1       7.991   1.598  -3.469  0.00  0.00     0.023 H 
ATOM     61  H   LIG d   1       6.612   1.877  -4.559  0.00  0.00     0.023 H 
ENDBRANCH  55  58
ENDBRANCH   1  55
BRANCH  14  62
ATOM     62  O   LIG d   1       5.265   0.319 -11.165  0.00  0.00    -0.495 OA
BRANCH  62  63
ATOM     63  C   LIG d   1       4.293  -0.085 -12.131  0.00  0.00     0.079 C 
ATOM     64  H   LIG d   1       3.782   0.794 -12.523  0.00  0.00     0.066 H 
ATOM     65  H   LIG d   1       4.790  -0.611 -12.948  0.00  0.00     0.066 H 
ATOM     66  H   LIG d   1       3.568  -0.749 -11.661  0.00  0.00     0.066 H 
ENDBRANCH  62  63
ENDBRANCH  14  62
TORSDOF 12
ENDMDL
MODEL 4
REMARK VINA RESULT:      -5.1      7.719     11.343
REMARK  12 active torsions:
REMARK  status: ('A' for Active; 'I' for Inactive)
REMARK    1  A    between atoms: C_1  and  C_2 
REMARK    2  A    between atoms: C_2  and  C_3 
REMARK    3  A    between atoms: C_16  and  O_35 
REMARK    4  A    between atoms: N_19  and  C_34 
REMARK    5  A    between atoms: C_22  and  C_29 
REMARK    6  A    between atoms: C_22  and  O_33 
REMARK    7  A    between atoms: C_23  and  O_25 
REMARK    8  A    between atoms: O_25  and  C_26 
REMARK    9  A    between atoms: C_26  and  C_28 
REMARK   10  A    between atoms: C_29  and  O_31 
REMARK   11  A    between atoms: O_31  and  C_32 
REMARK   12  A    between atoms: O_35  and  C_36 
ROOT
ATOM      1  C   LIG d   1      12.621   6.187  -2.214  0.00  0.00     0.073 C 
ATOM      2  C   LIG d   1      13.109   5.676  -0.892  0.00  0.00    -0.068 C 
ATOM      3  C   LIG d   1      12.509   5.949   0.227  0.00  0.00    -0.043 C 
ATOM      4  C   LIG d   1      11.265   6.785   0.276  0.00  0.00    -0.013 C 
ATOM      5  N   LIG d   1      11.242   7.757  -0.823  0.00  0.00     0.242 N 
ATOM      6  C   LIG d   1      11.459   7.105  -2.116  0.00  0.00     0.004 C 
ATOM      7  H   LIG d   1      11.784   7.953  -2.721  0.00  0.00     0.087 H 
ATOM      8  C   LIG d   1      10.148   6.779  -2.767  0.00  0.00     0.068 C 
ATOM      9  C   LIG d   1       9.076   7.262  -1.748  0.00  0.00     0.004 C 
ATOM     10  C   LIG d   1       9.861   8.315  -0.891  0.00  0.00    -0.030 C 
ATOM     11  C   LIG d   1       9.940   7.524  -4.055  0.00  0.00    -0.013 A 
ATOM     12  C   LIG d   1      10.001   8.882  -4.309  0.00  0.00    -0.053 A 
ATOM     13  C   LIG d   1       9.719   9.297  -5.603  0.00  0.00    -0.020 A 
ATOM     14  C   LIG d   1       9.390   8.389  -6.597  0.00  0.00     0.122 A 
ATOM     15  C   LIG d   1       9.344   7.021  -6.351  0.00  0.00     0.001 A 
ATOM     16  C   LIG d   1       9.644   6.595  -5.056  0.00  0.00     0.037 A 
ATOM     17  N   LIG d   1       9.771   5.297  -4.588  0.00  0.00    -0.325 N 
ATOM     18  C   LIG d   1       9.871   5.321  -3.113  0.00  0.00     0.081 C 
ATOM     19  H   LIG d   1       8.927   5.006  -2.669  0.00  0.00     0.055 H 
ATOM     20  C   LIG d   1      11.000   4.387  -2.700  0.00  0.00     0.220 C 
ATOM     21  C   LIG d   1      12.337   4.995  -3.130  0.00  0.00     0.158 C 
ATOM     22  H   LIG d   1      12.284   5.329  -4.166  0.00  0.00     0.078 H 
ATOM     23  H   LIG d   1      13.993   5.057  -0.868  0.00  0.00     0.058 H 
ATOM     24  H   LIG d   1      12.918   5.563   1.149  0.00  0.00     0.062 H 
ATOM     25  H   LIG d   1      10.394   6.135   0.198  0.00  0.00     0.086 H 
ATOM     26  H   LIG d   1      11.230   7.319   1.225  0.00  0.00     0.086 H 
ATOM     27  H   LIG d   1       8.240   7.735  -2.264  0.00  0.00     0.033 H 
ATOM     28  H   LIG d   1       8.730   6.433  -1.131  0.00  0.00     0.033 H 
ATOM     29  H   LIG d   1       9.427   8.383   0.106  0.00  0.00     0.082 H 
ATOM     30  H   LIG d   1       9.868   9.294  -1.373  0.00  0.00     0.082 H 
ATOM     31  H   LIG d   1      10.257   9.589  -3.533  0.00  0.00     0.062 H 
ATOM     32  H   LIG d   1       9.759  10.349  -5.842  0.00  0.00     0.065 H 
ATOM     33  H   LIG d   1       9.085   6.318  -7.130  0.00  0.00     0.067 H 
ATOM     34  H   LIG d   1      11.913   8.492  -0.659  0.00  0.00     0.204 HD
ENDROOT
BRANCH  20  35
ATOM     35  C   LIG d   1      10.817   3.049  -3.370  0.00  0.00     0.345 C 
ATOM     36  O   LIG d   1       9.882   2.346  -3.071  0.00  0.00    -0.247 OA
BRANCH  35  37
ATOM     37  O   LIG d   1      11.694   2.639  -4.301  0.00  0.00    -0.466 OA
BRANCH  37  38
ATOM     38  C   LIG d   1      11.928   1.233  -4.398  0.00  0.00     0.082 C 
ATOM     39  H   LIG d   1      10.976   0.713  -4.512  0.00  0.00     0.066 H 
ATOM     40  H   LIG d   1      12.559   1.028  -5.262  0.00  0.00     0.066 H 
ATOM     41  H   LIG d   1      12.425   0.884  -3.493  0.00  0.00     0.066 H 
ENDBRANCH  37  38
ENDBRANCH  35  37
ENDBRANCH  20  35
BRANCH  20  42
ATOM     42  O   LIG d   1      10.987   4.217  -1.281  0.00  0.00    -0.373 OA
ATOM     43  H   LIG d   1      10.336   3.574  -0.968  0.00  0.00     0.211 HD
ENDBRANCH  20  42
BRANCH  21  44
ATOM     44  O   LIG d   1      13.371   4.017  -2.989  0.00  0.00    -0.457 OA
BRANCH  44  45
ATOM     45  C   LIG d   1      14.389   4.076  -3.860  0.00  0.00     0.304 C 
ATOM     46  O   LIG d   1      14.168   4.238  -5.037  0.00  0.00    -0.251 OA
BRANCH  45  47
ATOM     47  C   LIG d   1      15.808   3.940  -3.371  0.00  0.00     0.033 C 
ATOM     48  H   LIG d   1      16.481   4.440  -4.068  0.00  0.00     0.034 H 
ATOM     49  H   LIG d   1      15.899   4.398  -2.386  0.00  0.00     0.034 H 
ATOM     50  H   LIG d   1      16.071   2.884  -3.307  0.00  0.00     0.034 H 
ENDBRANCH  45  47
ENDBRANCH  44  45
ENDBRANCH  21  44
BRANCH  17  51
ATOM     51  C   LIG d   1       9.801   4.093  -5.422  0.00  0.00     0.001 C 
ATOM     52  H   LIG d   1       8.818   3.623  -5.417  0.00  0.00     0.043 H 
ATOM     53  H   LIG d   1      10.069   4.363  -6.443  0.00  0.00     0.043 H 
ATOM     54  H   LIG d   1      10.539   3.395  -5.025  0.00  0.00     0.043 H 
ENDBRANCH  17  51
BRANCH   1  55
ATOM     55  C   LIG d   1      13.771   6.975  -2.845  0.00  0.00    -0.038 C 
ATOM     56  H   LIG d   1      14.641   6.326  -2.954  0.00  0.00     0.027 H 
ATOM     57  H   LIG d   1      14.026   7.820  -2.204  0.00  0.00     0.027 H 
BRANCH  55  58
ATOM     58  C   LIG d   1      13.344   7.490  -4.220  0.00  0.00    -0.064 C 
ATOM     59  H   LIG d   1      12.412   8.049  -4.126  0.00  0.00     0.023 H 
ATOM     60  H   LIG d   1      14.120   8.143  -4.620  0.00  0.00     0.023 H 
ATOM     61  H   LIG d   1      13.196   6.647  -4.895  0.00  0.00     0.023 H 
ENDBRANCH  55  58
ENDBRANCH   1  55
BRANCH  14  62
ATOM     62  O   LIG d   1       9.104   8.848  -7.843  0.00  0.00    -0.495 OA
BRANCH  62  63
ATOM     63  C   LIG d   1       9.503   8.029  -8.944  0.00  0.00     0.079 C 
ATOM     64  H   LIG d   1       9.746   8.660  -9.798  0.00  0.00     0.066 H 
ATOM     65  H   LIG d   1      10.381   7.445  -8.663  0.00  0.00     0.066 H 
ATOM     66  H   LIG d   1       8.689   7.354  -9.209  0.00  0.00     0.066 H 
ENDBRANCH  62  63
ENDBRANCH  14  62
TORSDOF 12
ENDMDL
MODEL 5
REMARK VINA RESULT:      -5.0      7.571     10.234
REMARK  12 active torsions:
REMARK  status: ('A' for Active; 'I' for Inactive)
REMARK    1  A    between atoms: C_1  and  C_2 
REMARK    2  A    between atoms: C_2  and  C_3 
REMARK    3  A    between atoms: C_16  and  O_35 
REMARK    4  A    between atoms: N_19  and  C_34 
REMARK    5  A    between atoms: C_22  and  C_29 
REMARK    6  A    between atoms: C_22  and  O_33 
REMARK    7  A    between atoms: C_23  and  O_25 
REMARK    8  A    between atoms: O_25  and  C_26 
REMARK    9  A    between atoms: C_26  and  C_28 
REMARK   10  A    between atoms: C_29  and  O_31 
REMARK   11  A    between atoms: O_31  and  C_32 
REMARK   12  A    between atoms: O_35  and  C_36 
ROOT
ATOM      1  C   LIG d   1      11.780   6.489  -1.108  0.00  0.00     0.073 C 
ATOM      2  C   LIG d   1      12.857   7.326  -0.486  0.00  0.00    -0.068 C 
ATOM      3  C   LIG d   1      14.120   7.061  -0.633  0.00  0.00    -0.043 C 
ATOM      4  C   LIG d   1      14.596   5.902  -1.457  0.00  0.00    -0.013 C 
ATOM      5  N   LIG d   1      13.617   4.811  -1.444  0.00  0.00     0.242 N 
ATOM      6  C   LIG d   1      12.282   5.285  -1.818  0.00  0.00     0.004 C 
ATOM      7  H   LIG d   1      11.659   4.495  -1.400  0.00  0.00     0.087 H 
ATOM      8  C   LIG d   1      12.046   5.088  -3.285  0.00  0.00     0.068 C 
ATOM      9  C   LIG d   1      13.371   4.465  -3.813  0.00  0.00     0.004 C 
ATOM     10  C   LIG d   1      14.007   3.852  -2.517  0.00  0.00    -0.030 C 
ATOM     11  C   LIG d   1      10.929   4.122  -3.566  0.00  0.00    -0.013 A 
ATOM     12  C   LIG d   1      10.750   2.826  -3.118  0.00  0.00    -0.053 A 
ATOM     13  C   LIG d   1       9.630   2.147  -3.579  0.00  0.00    -0.020 A 
ATOM     14  C   LIG d   1       8.734   2.742  -4.452  0.00  0.00     0.122 A 
ATOM     15  C   LIG d   1       8.900   4.050  -4.892  0.00  0.00     0.001 A 
ATOM     16  C   LIG d   1      10.014   4.746  -4.418  0.00  0.00     0.037 A 
ATOM     17  N   LIG d   1      10.343   6.077  -4.618  0.00  0.00    -0.325 N 
ATOM     18  C   LIG d   1      11.716   6.317  -4.123  0.00  0.00     0.081 C 
ATOM     19  H   LIG d   1      12.408   6.393  -4.961  0.00  0.00     0.055 H 
ATOM     20  C   LIG d   1      11.708   7.605  -3.312  0.00  0.00     0.220 C 
ATOM     21  C   LIG d   1      10.926   7.377  -2.016  0.00  0.00     0.158 C 
ATOM     22  H   LIG d   1       9.977   6.885  -2.228  0.00  0.00     0.078 H 
ATOM     23  H   LIG d   1      12.572   8.182   0.106  0.00  0.00     0.058 H 
ATOM     24  H   LIG d   1      14.848   7.693  -0.148  0.00  0.00     0.062 H 
ATOM     25  H   LIG d   1      14.750   6.233  -2.484  0.00  0.00     0.086 H 
ATOM     26  H   LIG d   1      15.540   5.539  -1.052  0.00  0.00     0.086 H 
ATOM     27  H   LIG d   1      13.164   3.683  -4.545  0.00  0.00     0.033 H 
ATOM     28  H   LIG d   1      14.014   5.234  -4.240  0.00  0.00     0.033 H 
ATOM     29  H   LIG d   1      15.091   3.812  -2.617  0.00  0.00     0.082 H 
ATOM     30  H   LIG d   1      13.605   2.860  -2.308  0.00  0.00     0.082 H 
ATOM     31  H   LIG d   1      11.450   2.363  -2.439  0.00  0.00     0.062 H 
ATOM     32  H   LIG d   1       9.454   1.134  -3.250  0.00  0.00     0.065 H 
ATOM     33  H   LIG d   1       8.198   4.509  -5.573  0.00  0.00     0.067 H 
ATOM     34  H   LIG d   1      13.610   4.352  -0.545  0.00  0.00     0.204 HD
ENDROOT
BRANCH  20  35
ATOM     35  C   LIG d   1      11.048   8.699  -4.111  0.00  0.00     0.345 C 
ATOM     36  O   LIG d   1      11.576   9.117  -5.114  0.00  0.00    -0.247 OA
BRANCH  35  37
ATOM     37  O   LIG d   1       9.873   9.209  -3.709  0.00  0.00    -0.466 OA
BRANCH  37  38
ATOM     38  C   LIG d   1       9.571  10.545  -4.116  0.00  0.00     0.082 C 
ATOM     39  H   LIG d   1       8.611  10.560  -4.632  0.00  0.00     0.066 H 
ATOM     40  H   LIG d   1       9.523  11.190  -3.239  0.00  0.00     0.066 H 
ATOM     41  H   LIG d   1      10.350  10.905  -4.789  0.00  0.00     0.066 H 
ENDBRANCH  37  38
ENDBRANCH  35  37
ENDBRANCH  20  35
BRANCH  20  42
ATOM     42  O   LIG d   1      13.050   7.983  -3.000  0.00  0.00    -0.373 OA
ATOM     43  H   LIG d   1      13.280   8.881  -3.275  0.00  0.00     0.211 HD
ENDBRANCH  20  42
BRANCH  21  44
ATOM     44  O   LIG d   1      10.687   8.634  -1.378  0.00  0.00    -0.457 OA
BRANCH  44  45
ATOM     45  C   LIG d   1       9.469   8.827  -0.848  0.00  0.00     0.304 C 
ATOM     46  O   LIG d   1       8.623   7.971  -0.951  0.00  0.00    -0.251 OA
BRANCH  45  47
ATOM     47  C   LIG d   1       9.157  10.112  -0.124  0.00  0.00     0.033 C 
ATOM     48  H   LIG d   1       8.242   9.988   0.455  0.00  0.00     0.034 H 
ATOM     49  H   LIG d   1       9.980  10.360   0.546  0.00  0.00     0.034 H 
ATOM     50  H   LIG d   1       9.024  10.914  -0.849  0.00  0.00     0.034 H 
ENDBRANCH  45  47
ENDBRANCH  44  45
ENDBRANCH  21  44
BRANCH  17  51
ATOM     51  C   LIG d   1       9.471   7.085  -5.224  0.00  0.00     0.001 C 
ATOM     52  H   LIG d   1       9.899   7.414  -6.171  0.00  0.00     0.043 H 
ATOM     53  H   LIG d   1       8.485   6.656  -5.401  0.00  0.00     0.043 H 
ATOM     54  H   LIG d   1       9.380   7.939  -4.551  0.00  0.00     0.043 H 
ENDBRANCH  17  51
BRANCH   1  55
ATOM     55  C   LIG d   1      10.875   6.003   0.026  0.00  0.00    -0.038 C 
ATOM     56  H   LIG d   1      10.962   4.920   0.122  0.00  0.00     0.027 H 
ATOM     57  H   LIG d   1       9.840   6.266  -0.196  0.00  0.00     0.027 H 
BRANCH  55  58
ATOM     58  C   LIG d   1      11.299   6.665   1.337  0.00  0.00    -0.064 C 
ATOM     59  H   LIG d   1      11.864   5.954   1.939  0.00  0.00     0.023 H 
ATOM     60  H   LIG d   1      11.924   7.533   1.120  0.00  0.00     0.023 H 
ATOM     61  H   LIG d   1      10.414   6.985   1.887  0.00  0.00     0.023 H 
ENDBRANCH  55  58
ENDBRANCH   1  55
BRANCH  14  62
ATOM     62  O   LIG d   1       7.664   2.028  -4.889  0.00  0.00    -0.495 OA
BRANCH  62  63
ATOM     63  C   LIG d   1       7.255   0.916  -4.090  0.00  0.00     0.079 C 
ATOM     64  H   LIG d   1       8.068   0.628  -3.424  0.00  0.00     0.066 H 
ATOM     65  H   LIG d   1       6.382   1.194  -3.499  0.00  0.00     0.066 H 
ATOM     66  H   LIG d   1       7.001   0.077  -4.739  0.00  0.00     0.066 H 
ENDBRANCH  62  63
ENDBRANCH  14  62
TORSDOF 12
ENDMDL
MODEL 6
REMARK VINA RESULT:      -4.9      1.775      5.470
REMARK  12 active torsions:
REMARK  status: ('A' for Active; 'I' for Inactive)
REMARK    1  A    between atoms: C_1  and  C_2 
REMARK    2  A    between atoms: C_2  and  C_3 
REMARK    3  A    between atoms: C_16  and  O_35 
REMARK    4  A    between atoms: N_19  and  C_34 
REMARK    5  A    between atoms: C_22  and  C_29 
REMARK    6  A    between atoms: C_22  and  O_33 
REMARK    7  A    between atoms: C_23  and  O_25 
REMARK    8  A    between atoms: O_25  and  C_26 
REMARK    9  A    between atoms: C_26  and  C_28 
REMARK   10  A    between atoms: C_29  and  O_31 
REMARK   11  A    between atoms: O_31  and  C_32 
REMARK   12  A    between atoms: O_35  and  C_36 
ROOT
ATOM      1  C   LIG d   1       5.265  -2.537  -7.523  0.00  0.00     0.073 C 
ATOM      2  C   LIG d   1       4.114  -3.452  -7.819  0.00  0.00    -0.068 C 
ATOM      3  C   LIG d   1       4.126  -4.713  -7.506  0.00  0.00    -0.043 C 
ATOM      4  C   LIG d   1       5.291  -5.344  -6.804  0.00  0.00    -0.013 C 
ATOM      5  N   LIG d   1       6.544  -4.664  -7.149  0.00  0.00     0.242 N 
ATOM      6  C   LIG d   1       6.444  -3.219  -6.935  0.00  0.00     0.004 C 
ATOM      7  H   LIG d   1       7.256  -2.861  -7.568  0.00  0.00     0.087 H 
ATOM      8  C   LIG d   1       6.962  -2.852  -5.575  0.00  0.00     0.068 C 
ATOM      9  C   LIG d   1       7.375  -4.209  -4.937  0.00  0.00     0.004 C 
ATOM     10  C   LIG d   1       7.582  -5.133  -6.188  0.00  0.00    -0.030 C 
ATOM     11  C   LIG d   1       8.179  -1.973  -5.638  0.00  0.00    -0.013 A 
ATOM     12  C   LIG d   1       9.375  -2.167  -6.305  0.00  0.00    -0.053 A 
ATOM     13  C   LIG d   1      10.352  -1.194  -6.148  0.00  0.00    -0.020 A 
ATOM     14  C   LIG d   1      10.138  -0.078  -5.356  0.00  0.00     0.122 A 
ATOM     15  C   LIG d   1       8.932   0.131  -4.697  0.00  0.00     0.001 A 
ATOM     16  C   LIG d   1       7.937  -0.835  -4.865  0.00  0.00     0.037 A 
ATOM     17  N   LIG d   1       6.629  -0.807  -4.410  0.00  0.00    -0.325 N 
ATOM     18  C   LIG d   1       6.012  -2.134  -4.625  0.00  0.00     0.081 C 
ATOM     19  H   LIG d   1       5.950  -2.675  -3.682  0.00  0.00     0.055 H 
ATOM     20  C   LIG d   1       4.626  -1.920  -5.217  0.00  0.00     0.220 C 
ATOM     21  C   LIG d   1       4.767  -1.387  -6.645  0.00  0.00     0.158 C 
ATOM     22  H   LIG d   1       5.482  -0.565  -6.672  0.00  0.00     0.078 H 
ATOM     23  H   LIG d   1       3.242  -3.048  -8.311  0.00  0.00     0.058 H 
ATOM     24  H   LIG d   1       3.273  -5.324  -7.759  0.00  0.00     0.062 H 
ATOM     25  H   LIG d   1       5.135  -5.282  -5.727  0.00  0.00     0.086 H 
ATOM     26  H   LIG d   1       5.361  -6.391  -7.096  0.00  0.00     0.086 H 
ATOM     27  H   LIG d   1       8.307  -4.105  -4.380  0.00  0.00     0.033 H 
ATOM     28  H   LIG d   1       6.582  -4.590  -4.294  0.00  0.00     0.033 H 
ATOM     29  H   LIG d   1       7.408  -6.174  -5.915  0.00  0.00     0.082 H 
ATOM     30  H   LIG d   1       8.579  -5.010  -6.611  0.00  0.00     0.082 H 
ATOM     31  H   LIG d   1       9.541  -3.039  -6.921  0.00  0.00     0.062 H 
ATOM     32  H   LIG d   1      11.299  -1.309  -6.654  0.00  0.00     0.065 H 
ATOM     33  H   LIG d   1       8.771   1.004  -4.080  0.00  0.00     0.067 H 
ATOM     34  H   LIG d   1       6.815  -4.882  -8.096  0.00  0.00     0.204 HD
ENDROOT
BRANCH  20  35
ATOM     35  C   LIG d   1       3.869  -0.922  -4.379  0.00  0.00     0.345 C 
ATOM     36  O   LIG d   1       3.429  -1.246  -3.302  0.00  0.00    -0.247 OA
BRANCH  35  37
ATOM     37  O   LIG d   1       3.684   0.329  -4.830  0.00  0.00    -0.466 OA
BRANCH  37  38
ATOM     38  C   LIG d   1       2.418   0.936  -4.562  0.00  0.00     0.082 C 
ATOM     39  H   LIG d   1       2.298   1.066  -3.487  0.00  0.00     0.066 H 
ATOM     40  H   LIG d   1       2.369   1.906  -5.054  0.00  0.00     0.066 H 
ATOM     41  H   LIG d   1       1.621   0.295  -4.941  0.00  0.00     0.066 H 
ENDBRANCH  37  38
ENDBRANCH  35  37
ENDBRANCH  20  35
BRANCH  20  42
ATOM     42  O   LIG d   1       3.918  -3.162  -5.238  0.00  0.00    -0.373 OA
ATOM     43  H   LIG d   1       4.269  -3.804  -5.870  0.00  0.00     0.211 HD
ENDBRANCH  20  42
BRANCH  21  44
ATOM     44  O   LIG d   1       3.492  -0.937  -7.111  0.00  0.00    -0.457 OA
BRANCH  44  45
ATOM     45  C   LIG d   1       3.486   0.106  -7.955  0.00  0.00     0.304 C 
ATOM     46  O   LIG d   1       4.230   1.040  -7.767  0.00  0.00    -0.251 OA
BRANCH  45  47
ATOM     47  C   LIG d   1       2.551   0.113  -9.137  0.00  0.00     0.033 C 
ATOM     48  H   LIG d   1       2.609   1.079  -9.639  0.00  0.00     0.034 H 
ATOM     49  H   LIG d   1       2.839  -0.675  -9.833  0.00  0.00     0.034 H 
ATOM     50  H   LIG d   1       1.531  -0.058  -8.794  0.00  0.00     0.034 H 
ENDBRANCH  45  47
ENDBRANCH  44  45
ENDBRANCH  21  44
BRANCH  17  51
ATOM     51  C   LIG d   1       5.963   0.351  -3.809  0.00  0.00     0.001 C 
ATOM     52  H   LIG d   1       6.229   1.251  -4.363  0.00  0.00     0.043 H 
ATOM     53  H   LIG d   1       4.883   0.209  -3.844  0.00  0.00     0.043 H 
ATOM     54  H   LIG d   1       6.282   0.456  -2.771  0.00  0.00     0.043 H 
ENDBRANCH  17  51
BRANCH   1  55
ATOM     55  C   LIG d   1       5.709  -1.927  -8.854  0.00  0.00    -0.038 C 
ATOM     56  H   LIG d   1       4.874  -1.390  -9.305  0.00  0.00     0.027 H 
ATOM     57  H   LIG d   1       6.036  -2.721  -9.526  0.00  0.00     0.027 H 
BRANCH  55  58
ATOM     58  C   LIG d   1       6.867  -0.958  -8.610  0.00  0.00    -0.064 C 
ATOM     59  H   LIG d   1       7.373  -0.751  -9.553  0.00  0.00     0.023 H 
ATOM     60  H   LIG d   1       6.479  -0.027  -8.194  0.00  0.00     0.023 H 
ATOM     61  H   LIG d   1       7.572  -1.402  -7.908  0.00  0.00     0.023 H 
ENDBRANCH  55  58
ENDBRANCH   1  55
BRANCH  14  62
ATOM     62  O   LIG d   1      11.133   0.837  -5.219  0.00  0.00    -0.495 OA
BRANCH  62  63
ATOM     63  C   LIG d   1      10.781   2.101  -4.654  0.00  0.00     0.079 C 
ATOM     64  H   LIG d   1      11.536   2.841  -4.918  0.00  0.00     0.066 H 
ATOM     65  H   LIG d   1       9.812   2.416  -5.043  0.00  0.00     0.066 H 
ATOM     66  H   LIG d   1      10.725   2.010  -3.569  0.00  0.00     0.066 H 
ENDBRANCH  62  63
ENDBRANCH  14  62
TORSDOF 12
ENDMDL
MODEL 7
REMARK VINA RESULT:      -4.9      2.115      4.621
REMARK  12 active torsions:
REMARK  status: ('A' for Active; 'I' for Inactive)
REMARK    1  A    between atoms: C_1  and  C_2 
REMARK    2  A    between atoms: C_2  and  C_3 
REMARK    3  A    between atoms: C_16  and  O_35 
REMARK    4  A    between atoms: N_19  and  C_34 
REMARK    5  A    between atoms: C_22  and  C_29 
REMARK    6  A    between atoms: C_22  and  O_33 
REMARK    7  A    between atoms: C_23  and  O_25 
REMARK    8  A    between atoms: O_25  and  C_26 
REMARK    9  A    between atoms: C_26  and  C_28 
REMARK   10  A    between atoms: C_29  and  O_31 
REMARK   11  A    between atoms: O_31  and  C_32 
REMARK   12  A    between atoms: O_35  and  C_36 
ROOT
ATOM      1  C   LIG d   1       4.685  -0.834  -6.295  0.00  0.00     0.073 C 
ATOM      2  C   LIG d   1       3.655   0.217  -6.008  0.00  0.00    -0.068 C 
ATOM      3  C   LIG d   1       2.984   0.252  -4.896  0.00  0.00    -0.043 C 
ATOM      4  C   LIG d   1       3.208  -0.751  -3.804  0.00  0.00    -0.013 C 
ATOM      5  N   LIG d   1       3.644  -2.038  -4.353  0.00  0.00     0.242 N 
ATOM      6  C   LIG d   1       4.796  -1.876  -5.244  0.00  0.00     0.004 C 
ATOM      7  H   LIG d   1       4.738  -2.796  -5.825  0.00  0.00     0.087 H 
ATOM      8  C   LIG d   1       6.076  -2.095  -4.493  0.00  0.00     0.068 C 
ATOM      9  C   LIG d   1       5.625  -2.387  -3.032  0.00  0.00     0.004 C 
ATOM     10  C   LIG d   1       4.141  -2.861  -3.214  0.00  0.00    -0.030 C 
ATOM     11  C   LIG d   1       6.842  -3.286  -4.994  0.00  0.00    -0.013 A 
ATOM     12  C   LIG d   1       6.432  -4.597  -5.154  0.00  0.00    -0.053 A 
ATOM     13  C   LIG d   1       7.380  -5.506  -5.603  0.00  0.00    -0.020 A 
ATOM     14  C   LIG d   1       8.682  -5.117  -5.875  0.00  0.00     0.122 A 
ATOM     15  C   LIG d   1       9.095  -3.797  -5.732  0.00  0.00     0.001 A 
ATOM     16  C   LIG d   1       8.142  -2.873  -5.299  0.00  0.00     0.037 A 
ATOM     17  N   LIG d   1       8.272  -1.499  -5.182  0.00  0.00    -0.325 N 
ATOM     18  C   LIG d   1       7.091  -0.959  -4.474  0.00  0.00     0.081 C 
ATOM     19  H   LIG d   1       7.352  -0.711  -3.446  0.00  0.00     0.055 H 
ATOM     20  C   LIG d   1       6.615   0.277  -5.223  0.00  0.00     0.220 C 
ATOM     21  C   LIG d   1       6.025  -0.149  -6.570  0.00  0.00     0.158 C 
ATOM     22  H   LIG d   1       6.698  -0.842  -7.075  0.00  0.00     0.078 H 
ATOM     23  H   LIG d   1       3.462   0.974  -6.753  0.00  0.00     0.058 H 
ATOM     24  H   LIG d   1       2.244   1.026  -4.754  0.00  0.00     0.062 H 
ATOM     25  H   LIG d   1       3.971  -0.374  -3.124  0.00  0.00     0.086 H 
ATOM     26  H   LIG d   1       2.278  -0.894  -3.254  0.00  0.00     0.086 H 
ATOM     27  H   LIG d   1       6.230  -3.181  -2.594  0.00  0.00     0.033 H 
ATOM     28  H   LIG d   1       5.677  -1.482  -2.426  0.00  0.00     0.033 H 
ATOM     29  H   LIG d   1       3.569  -2.649  -2.311  0.00  0.00     0.082 H 
ATOM     30  H   LIG d   1       4.091  -3.923  -3.459  0.00  0.00     0.082 H 
ATOM     31  H   LIG d   1       5.418  -4.899  -4.940  0.00  0.00     0.062 H 
ATOM     32  H   LIG d   1       7.097  -6.539  -5.743  0.00  0.00     0.065 H 
ATOM     33  H   LIG d   1      10.112  -3.500  -5.946  0.00  0.00     0.067 H 
ATOM     34  H   LIG d   1       2.878  -2.503  -4.817  0.00  0.00     0.204 HD
ENDROOT
BRANCH  20  35
ATOM     35  C   LIG d   1       7.780   1.205  -5.455  0.00  0.00     0.345 C 
ATOM     36  O   LIG d   1       8.220   1.356  -6.569  0.00  0.00    -0.247 OA
BRANCH  35  37
ATOM     37  O   LIG d   1       8.328   1.865  -4.421  0.00  0.00    -0.466 OA
BRANCH  37  38
ATOM     38  C   LIG d   1       9.017   3.080  -4.719  0.00  0.00     0.082 C 
ATOM     39  H   LIG d   1       9.926   2.855  -5.279  0.00  0.00     0.066 H 
ATOM     40  H   LIG d   1       8.374   3.727  -5.314  0.00  0.00     0.066 H 
ATOM     41  H   LIG d   1       9.280   3.586  -3.789  0.00  0.00     0.066 H 
ENDBRANCH  37  38
ENDBRANCH  35  37
ENDBRANCH  20  35
BRANCH  20  42
ATOM     42  O   LIG d   1       5.614   0.948  -4.454  0.00  0.00    -0.373 OA
ATOM     43  H   LIG d   1       5.398   0.509  -3.621  0.00  0.00     0.211 HD
ENDBRANCH  20  42
BRANCH  21  44
ATOM     44  O   LIG d   1       5.821   1.008  -7.386  0.00  0.00    -0.457 OA
BRANCH  44  45
ATOM     45  C   LIG d   1       6.156   0.907  -8.681  0.00  0.00     0.304 C 
ATOM     46  O   LIG d   1       5.742   1.716  -9.477  0.00  0.00    -0.251 OA
BRANCH  45  47
ATOM     47  C   LIG d   1       7.049  -0.216  -9.143  0.00  0.00     0.033 C 
ATOM     48  H   LIG d   1       7.925  -0.272  -8.496  0.00  0.00     0.034 H 
ATOM     49  H   LIG d   1       6.502  -1.158  -9.098  0.00  0.00     0.034 H 
ATOM     50  H   LIG d   1       7.366  -0.028 -10.169  0.00  0.00     0.034 H 
ENDBRANCH  45  47
ENDBRANCH  44  45
ENDBRANCH  21  44
BRANCH  17  51
ATOM     51  C   LIG d   1       9.399  -0.707  -5.678  0.00  0.00     0.001 C 
ATOM     52  H   LIG d   1      10.107  -1.361  -6.188  0.00  0.00     0.043 H 
ATOM     53  H   LIG d   1       9.036   0.048  -6.375  0.00  0.00     0.043 H 
ATOM     54  H   LIG d   1       9.897  -0.218  -4.839  0.00  0.00     0.043 H 
ENDBRANCH  17  51
BRANCH   1  55
ATOM     55  C   LIG d   1       4.264  -1.536  -7.588  0.00  0.00    -0.038 C 
ATOM     56  H   LIG d   1       4.048  -2.584  -7.379  0.00  0.00     0.027 H 
ATOM     57  H   LIG d   1       5.073  -1.470  -8.316  0.00  0.00     0.027 H 
BRANCH  55  58
ATOM     58  C   LIG d   1       3.014  -0.860  -8.152  0.00  0.00    -0.064 C 
ATOM     59  H   LIG d   1       2.288  -1.620  -8.443  0.00  0.00     0.023 H 
ATOM     60  H   LIG d   1       2.576  -0.212  -7.392  0.00  0.00     0.023 H 
ATOM     61  H   LIG d   1       3.285  -0.264  -9.024  0.00  0.00     0.023 H 
ENDBRANCH  55  58
ENDBRANCH   1  55
BRANCH  14  62
ATOM     62  O   LIG d   1       9.576  -6.049  -6.294  0.00  0.00    -0.495 OA
BRANCH  62  63
ATOM     63  C   LIG d   1      10.942  -5.642  -6.389  0.00  0.00     0.079 C 
ATOM     64  H   LIG d   1      11.232  -5.581  -7.438  0.00  0.00     0.066 H 
ATOM     65  H   LIG d   1      11.063  -4.664  -5.922  0.00  0.00     0.066 H 
ATOM     66  H   LIG d   1      11.575  -6.369  -5.879  0.00  0.00     0.066 H 
ENDBRANCH  62  63
ENDBRANCH  14  62
TORSDOF 12
ENDMDL
MODEL 8
REMARK VINA RESULT:      -4.9      2.258      5.065
REMARK  12 active torsions:
REMARK  status: ('A' for Active; 'I' for Inactive)
REMARK    1  A    between atoms: C_1  and  C_2 
REMARK    2  A    between atoms: C_2  and  C_3 
REMARK    3  A    between atoms: C_16  and  O_35 
REMARK    4  A    between atoms: N_19  and  C_34 
REMARK    5  A    between atoms: C_22  and  C_29 
REMARK    6  A    between atoms: C_22  and  O_33 
REMARK    7  A    between atoms: C_23  and  O_25 
REMARK    8  A    between atoms: O_25  and  C_26 
REMARK    9  A    between atoms: C_26  and  C_28 
REMARK   10  A    between atoms: C_29  and  O_31 
REMARK   11  A    between atoms: O_31  and  C_32 
REMARK   12  A    between atoms: O_35  and  C_36 
ROOT
ATOM      1  C   LIG d   1       5.735   0.605  -9.046  0.00  0.00     0.073 C 
ATOM      2  C   LIG d   1       5.413   2.066  -8.939  0.00  0.00    -0.068 C 
ATOM      3  C   LIG d   1       4.351   2.588  -9.474  0.00  0.00    -0.043 C 
ATOM      4  C   LIG d   1       3.353   1.759 -10.226  0.00  0.00    -0.013 C 
ATOM      5  N   LIG d   1       3.999   0.605 -10.860  0.00  0.00     0.242 N 
ATOM      6  C   LIG d   1       4.789  -0.162  -9.895  0.00  0.00     0.004 C 
ATOM      7  H   LIG d   1       5.463  -0.700 -10.562  0.00  0.00     0.087 H 
ATOM      8  C   LIG d   1       3.980  -1.295  -9.335  0.00  0.00     0.068 C 
ATOM      9  C   LIG d   1       2.590  -1.155 -10.020  0.00  0.00     0.004 C 
ATOM     10  C   LIG d   1       2.918  -0.319 -11.306  0.00  0.00    -0.030 C 
ATOM     11  C   LIG d   1       4.546  -2.640  -9.692  0.00  0.00    -0.013 A 
ATOM     12  C   LIG d   1       4.865  -3.164 -10.931  0.00  0.00    -0.053 A 
ATOM     13  C   LIG d   1       5.338  -4.468 -10.964  0.00  0.00    -0.020 A 
ATOM     14  C   LIG d   1       5.482  -5.213  -9.805  0.00  0.00     0.122 A 
ATOM     15  C   LIG d   1       5.179  -4.686  -8.554  0.00  0.00     0.001 A 
ATOM     16  C   LIG d   1       4.720  -3.368  -8.512  0.00  0.00     0.037 A 
ATOM     17  N   LIG d   1       4.456  -2.588  -7.398  0.00  0.00    -0.325 N 
ATOM     18  C   LIG d   1       3.779  -1.345  -7.826  0.00  0.00     0.081 C 
ATOM     19  H   LIG d   1       2.715  -1.399  -7.594  0.00  0.00     0.055 H 
ATOM     20  C   LIG d   1       4.430  -0.177  -7.099  0.00  0.00     0.220 C 
ATOM     21  C   LIG d   1       5.849   0.020  -7.637  0.00  0.00     0.158 C 
ATOM     22  H   LIG d   1       6.375  -0.933  -7.674  0.00  0.00     0.078 H 
ATOM     23  H   LIG d   1       6.090   2.709  -8.397  0.00  0.00     0.058 H 
ATOM     24  H   LIG d   1       4.181   3.650  -9.375  0.00  0.00     0.062 H 
ATOM     25  H   LIG d   1       2.588   1.405  -9.534  0.00  0.00     0.086 H 
ATOM     26  H   LIG d   1       2.884   2.373 -10.994  0.00  0.00     0.086 H 
ATOM     27  H   LIG d   1       2.194  -2.135 -10.291  0.00  0.00     0.033 H 
ATOM     28  H   LIG d   1       1.893  -0.623  -9.373  0.00  0.00     0.033 H 
ATOM     29  H   LIG d   1       2.039   0.244 -11.619  0.00  0.00     0.082 H 
ATOM     30  H   LIG d   1       3.271  -0.958 -12.116  0.00  0.00     0.082 H 
ATOM     31  H   LIG d   1       4.751  -2.582 -11.834  0.00  0.00     0.062 H 
ATOM     32  H   LIG d   1       5.600  -4.912 -11.913  0.00  0.00     0.065 H 
ATOM     33  H   LIG d   1       5.293  -5.273  -7.654  0.00  0.00     0.067 H 
ATOM     34  H   LIG d   1       4.558   0.901 -11.647  0.00  0.00     0.204 HD
ENDROOT
BRANCH  20  35
ATOM     35  C   LIG d   1       4.488  -0.472  -5.622  0.00  0.00     0.345 C 
ATOM     36  O   LIG d   1       5.547  -0.716  -5.096  0.00  0.00    -0.247 OA
BRANCH  35  37
ATOM     37  O   LIG d   1       3.361  -0.464  -4.892  0.00  0.00    -0.466 OA
BRANCH  37  38
ATOM     38  C   LIG d   1       3.331   0.401  -3.754  0.00  0.00     0.082 C 
ATOM     39  H   LIG d   1       3.474   1.432  -4.077  0.00  0.00     0.066 H 
ATOM     40  H   LIG d   1       2.370   0.307  -3.252  0.00  0.00     0.066 H 
ATOM     41  H   LIG d   1       4.130   0.123  -3.066  0.00  0.00     0.066 H 
ENDBRANCH  37  38
ENDBRANCH  35  37
ENDBRANCH  20  35
BRANCH  20  42
ATOM     42  O   LIG d   1       3.666   1.011  -7.320  0.00  0.00    -0.373 OA
ATOM     43  H   LIG d   1       4.163   1.725  -7.742  0.00  0.00     0.211 HD
ENDBRANCH  20  42
BRANCH  21  44
ATOM     44  O   LIG d   1       6.556   0.930  -6.790  0.00  0.00    -0.457 OA
BRANCH  44  45
ATOM     45  C   LIG d   1       7.875   0.731  -6.648  0.00  0.00     0.304 C 
ATOM     46  O   LIG d   1       8.303  -0.385  -6.473  0.00  0.00    -0.251 OA
BRANCH  45  47
ATOM     47  C   LIG d   1       8.824   1.901  -6.707  0.00  0.00     0.033 C 
ATOM     48  H   LIG d   1       9.667   1.717  -6.041  0.00  0.00     0.034 H 
ATOM     49  H   LIG d   1       9.188   2.022  -7.728  0.00  0.00     0.034 H 
ATOM     50  H   LIG d   1       8.304   2.806  -6.396  0.00  0.00     0.034 H 
ENDBRANCH  45  47
ENDBRANCH  44  45
ENDBRANCH  21  44
BRANCH  17  51
ATOM     51  C   LIG d   1       4.793  -2.938  -6.016  0.00  0.00     0.001 C 
ATOM     52  H   LIG d   1       3.878  -3.031  -5.431  0.00  0.00     0.043 H 
ATOM     53  H   LIG d   1       5.331  -3.886  -6.001  0.00  0.00     0.043 H 
ATOM     54  H   LIG d   1       5.421  -2.157  -5.586  0.00  0.00     0.043 H 
ENDBRANCH  17  51
BRANCH   1  55
ATOM     55  C   LIG d   1       7.117   0.495  -9.693  0.00  0.00    -0.038 C 
ATOM     56  H   LIG d   1       7.847   1.034  -9.088  0.00  0.00     0.027 H 
ATOM     57  H   LIG d   1       7.085   0.928 -10.694  0.00  0.00     0.027 H 
BRANCH  55  58
ATOM     58  C   LIG d   1       7.521  -0.977  -9.787  0.00  0.00    -0.064 C 
ATOM     59  H   LIG d   1       7.532  -1.416  -8.789  0.00  0.00     0.023 H 
ATOM     60  H   LIG d   1       6.803  -1.511 -10.411  0.00  0.00     0.023 H 
ATOM     61  H   LIG d   1       8.514  -1.055 -10.230  0.00  0.00     0.023 H 
ENDBRANCH  55  58
ENDBRANCH   1  55
BRANCH  14  62
ATOM     62  O   LIG d   1       5.932  -6.492  -9.893  0.00  0.00    -0.495 OA
BRANCH  62  63
ATOM     63  C   LIG d   1       5.732  -7.331  -8.753  0.00  0.00     0.079 C 
ATOM     64  H   LIG d   1       4.696  -7.668  -8.726  0.00  0.00     0.066 H 
ATOM     65  H   LIG d   1       6.394  -8.195  -8.817  0.00  0.00     0.066 H 
ATOM     66  H   LIG d   1       5.955  -6.769  -7.845  0.00  0.00     0.066 H 
ENDBRANCH  62  63
ENDBRANCH  14  62
TORSDOF 12
ENDMDL
MODEL 9
REMARK VINA RESULT:      -4.8     10.177     13.512
REMARK  12 active torsions:
REMARK  status: ('A' for Active; 'I' for Inactive)
REMARK    1  A    between atoms: C_1  and  C_2 
REMARK    2  A    between atoms: C_2  and  C_3 
REMARK    3  A    between atoms: C_16  and  O_35 
REMARK    4  A    between atoms: N_19  and  C_34 
REMARK    5  A    between atoms: C_22  and  C_29 
REMARK    6  A    between atoms: C_22  and  O_33 
REMARK    7  A    between atoms: C_23  and  O_25 
REMARK    8  A    between atoms: O_25  and  C_26 
REMARK    9  A    between atoms: C_26  and  C_28 
REMARK   10  A    between atoms: C_29  and  O_31 
REMARK   11  A    between atoms: O_31  and  C_32 
REMARK   12  A    between atoms: O_35  and  C_36 
ROOT
ATOM      1  C   LIG d   1      12.916   9.349  -0.908  0.00  0.00     0.073 C 
ATOM      2  C   LIG d   1      13.400   9.860   0.416  0.00  0.00    -0.068 C 
ATOM      3  C   LIG d   1      12.759  10.764   1.092  0.00  0.00    -0.043 C 
ATOM      4  C   LIG d   1      11.468  11.352   0.605  0.00  0.00    -0.013 C 
ATOM      5  N   LIG d   1      11.415  11.362  -0.861  0.00  0.00     0.242 N 
ATOM      6  C   LIG d   1      11.701  10.036  -1.414  0.00  0.00     0.004 C 
ATOM      7  H   LIG d   1      11.991  10.297  -2.432  0.00  0.00     0.087 H 
ATOM      8  C   LIG d   1      10.427   9.286  -1.665  0.00  0.00     0.068 C 
ATOM      9  C   LIG d   1       9.305  10.255  -1.193  0.00  0.00     0.004 C 
ATOM     10  C   LIG d   1      10.007  11.656  -1.252  0.00  0.00    -0.030 C 
ATOM     11  C   LIG d   1      10.208   8.990  -3.122  0.00  0.00    -0.013 A 
ATOM     12  C   LIG d   1      10.197   9.849  -4.205  0.00  0.00    -0.053 A 
ATOM     13  C   LIG d   1       9.924   9.296  -5.449  0.00  0.00    -0.020 A 
ATOM     14  C   LIG d   1       9.670   7.942  -5.597  0.00  0.00     0.122 A 
ATOM     15  C   LIG d   1       9.697   7.071  -4.514  0.00  0.00     0.001 A 
ATOM     16  C   LIG d   1       9.989   7.617  -3.262  0.00  0.00     0.037 A 
ATOM     17  N   LIG d   1      10.180   6.954  -2.061  0.00  0.00    -0.325 N 
ATOM     18  C   LIG d   1      10.243   7.945  -0.965  0.00  0.00     0.081 C 
ATOM     19  H   LIG d   1       9.308   7.944  -0.405  0.00  0.00     0.055 H 
ATOM     20  C   LIG d   1      11.413   7.580  -0.063  0.00  0.00     0.220 C 
ATOM     21  C   LIG d   1      12.723   7.834  -0.812  0.00  0.00     0.158 C 
ATOM     22  H   LIG d   1      12.676   7.403  -1.812  0.00  0.00     0.078 H 
ATOM     23  H   LIG d   1      14.317   9.462   0.822  0.00  0.00     0.058 H 
ATOM     24  H   LIG d   1      13.166  11.103   2.034  0.00  0.00     0.062 H 
ATOM     25  H   LIG d   1      10.638  10.760   0.989  0.00  0.00     0.086 H 
ATOM     26  H   LIG d   1      11.379  12.374   0.972  0.00  0.00     0.086 H 
ATOM     27  H   LIG d   1       8.455  10.223  -1.876  0.00  0.00     0.033 H 
ATOM     28  H   LIG d   1       8.992  10.015  -0.176  0.00  0.00     0.033 H 
ATOM     29  H   LIG d   1       9.545  12.335  -0.535  0.00  0.00     0.082 H 
ATOM     30  H   LIG d   1       9.970  12.077  -2.257  0.00  0.00     0.082 H 
ATOM     31  H   LIG d   1      10.393  10.905  -4.089  0.00  0.00     0.062 H 
ATOM     32  H   LIG d   1       9.908   9.935  -6.320  0.00  0.00     0.065 H 
ATOM     33  H   LIG d   1       9.498   6.015  -4.636  0.00  0.00     0.067 H 
ATOM     34  H   LIG d   1      12.039  12.062  -1.232  0.00  0.00     0.204 HD
ENDROOT
BRANCH  20  35
ATOM     35  C   LIG d   1      11.323   6.123   0.312  0.00  0.00     0.345 C 
ATOM     36  O   LIG d   1      12.070   5.321  -0.194  0.00  0.00    -0.247 OA
BRANCH  35  37
ATOM     37  O   LIG d   1      10.410   5.716   1.210  0.00  0.00    -0.466 OA
BRANCH  37  38
ATOM     38  C   LIG d   1      10.866   5.499   2.547  0.00  0.00     0.082 C 
ATOM     39  H   LIG d   1      10.149   4.872   3.078  0.00  0.00     0.066 H 
ATOM     40  H   LIG d   1      11.836   5.005   2.525  0.00  0.00     0.066 H 
ATOM     41  H   LIG d   1      10.958   6.458   3.059  0.00  0.00     0.066 H 
ENDBRANCH  37  38
ENDBRANCH  35  37
ENDBRANCH  20  35
BRANCH  20  42
ATOM     42  O   LIG d   1      11.375   8.382   1.120  0.00  0.00    -0.373 OA
ATOM     43  H   LIG d   1      10.863   9.196   1.026  0.00  0.00     0.211 HD
ENDBRANCH  20  42
BRANCH  21  44
ATOM     44  O   LIG d   1      13.807   7.252  -0.084  0.00  0.00    -0.457 OA
BRANCH  44  45
ATOM     45  C   LIG d   1      14.811   6.727  -0.802  0.00  0.00     0.304 C 
ATOM     46  O   LIG d   1      14.573   6.104  -1.809  0.00  0.00    -0.251 OA
BRANCH  45  47
ATOM     47  C   LIG d   1      16.238   6.915  -0.353  0.00  0.00     0.033 C 
ATOM     48  H   LIG d   1      16.707   5.941  -0.219  0.00  0.00     0.034 H 
ATOM     49  H   LIG d   1      16.785   7.481  -1.107  0.00  0.00     0.034 H 
ATOM     50  H   LIG d   1      16.252   7.459   0.592  0.00  0.00     0.034 H 
ENDBRANCH  45  47
ENDBRANCH  44  45
ENDBRANCH  21  44
BRANCH  17  51
ATOM     51  C   LIG d   1      10.299   5.503  -1.901  0.00  0.00     0.001 C 
ATOM     52  H   LIG d   1      11.291   5.259  -1.521  0.00  0.00     0.043 H 
ATOM     53  H   LIG d   1       9.545   5.151  -1.197  0.00  0.00     0.043 H 
ATOM     54  H   LIG d   1      10.150   5.017  -2.866  0.00  0.00     0.043 H 
ENDBRANCH  17  51
BRANCH   1  55
ATOM     55  C   LIG d   1      14.033   9.597  -1.923  0.00  0.00    -0.038 C 
ATOM     56  H   LIG d   1      14.943   9.093  -1.594  0.00  0.00     0.027 H 
ATOM     57  H   LIG d   1      14.221  10.669  -2.003  0.00  0.00     0.027 H 
BRANCH  55  58
ATOM     58  C   LIG d   1      13.614   9.051  -3.288  0.00  0.00    -0.064 C 
ATOM     59  H   LIG d   1      14.499   8.891  -3.905  0.00  0.00     0.023 H 
ATOM     60  H   LIG d   1      13.088   8.105  -3.155  0.00  0.00     0.023 H 
ATOM     61  H   LIG d   1      12.954   9.766  -3.780  0.00  0.00     0.023 H 
ENDBRANCH  55  58
ENDBRANCH   1  55
BRANCH  14  62
ATOM     62  O   LIG d   1       9.389   7.453  -6.833  0.00  0.00    -0.495 OA
BRANCH  62  63
ATOM     63  C   LIG d   1       9.071   8.404  -7.850  0.00  0.00     0.079 C 
ATOM     64  H   LIG d   1       9.884   9.125  -7.943  0.00  0.00     0.066 H 
ATOM     65  H   LIG d   1       8.935   7.887  -8.801  0.00  0.00     0.066 H 
ATOM     66  H   LIG d   1       8.151   8.926  -7.586  0.00  0.00     0.066 H 
ENDBRANCH  62  63
ENDBRANCH  14  62
TORSDOF 12
ENDMDL
MODEL 10
REMARK VINA RESULT:      -4.8      2.168      4.750
REMARK  12 active torsions:
REMARK  status: ('A' for Active; 'I' for Inactive)
REMARK    1  A    between atoms: C_1  and  C_2 
REMARK    2  A    between atoms: C_2  and  C_3 
REMARK    3  A    between atoms: C_16  and  O_35 
REMARK    4  A    between atoms: N_19  and  C_34 
REMARK    5  A    between atoms: C_22  and  C_29 
REMARK    6  A    between atoms: C_22  and  O_33 
REMARK    7  A    between atoms: C_23  and  O_25 
REMARK    8  A    between atoms: O_25  and  C_26 
REMARK    9  A    between atoms: C_26  and  C_28 
REMARK   10  A    between atoms: C_29  and  O_31 
REMARK   11  A    between atoms: O_31  and  C_32 
REMARK   12  A    between atoms: O_35  and  C_36 
ROOT
ATOM      1  C   LIG d   1       5.634  -2.558  -4.715  0.00  0.00     0.073 C 
ATOM      2  C   LIG d   1       4.544  -2.596  -3.685  0.00  0.00    -0.068 C 
ATOM      3  C   LIG d   1       4.397  -1.667  -2.790  0.00  0.00    -0.043 C 
ATOM      4  C   LIG d   1       5.301  -0.471  -2.732  0.00  0.00    -0.013 C 
ATOM      5  N   LIG d   1       6.640  -0.800  -3.231  0.00  0.00     0.242 N 
ATOM      6  C   LIG d   1       6.578  -1.424  -4.555  0.00  0.00     0.004 C 
ATOM      7  H   LIG d   1       7.546  -1.924  -4.592  0.00  0.00     0.087 H 
ATOM      8  C   LIG d   1       6.750  -0.393  -5.631  0.00  0.00     0.068 C 
ATOM      9  C   LIG d   1       6.900   0.951  -4.861  0.00  0.00     0.004 C 
ATOM     10  C   LIG d   1       7.365   0.486  -3.437  0.00  0.00    -0.030 C 
ATOM     11  C   LIG d   1       7.994  -0.609  -6.444  0.00  0.00    -0.013 A 
ATOM     12  C   LIG d   1       9.307  -0.745  -6.032  0.00  0.00    -0.053 A 
ATOM     13  C   LIG d   1      10.269  -0.894  -7.021  0.00  0.00    -0.020 A 
ATOM     14  C   LIG d   1       9.928  -0.904  -8.364  0.00  0.00     0.122 A 
ATOM     15  C   LIG d   1       8.608  -0.785  -8.784  0.00  0.00     0.001 A 
ATOM     16  C   LIG d   1       7.633  -0.653  -7.794  0.00  0.00     0.037 A 
ATOM     17  N   LIG d   1       6.256  -0.627  -7.945  0.00  0.00    -0.325 N 
ATOM     18  C   LIG d   1       5.634  -0.246  -6.657  0.00  0.00     0.081 C 
ATOM     19  H   LIG d   1       5.298   0.789  -6.696  0.00  0.00     0.055 H 
ATOM     20  C   LIG d   1       4.463  -1.184  -6.402  0.00  0.00     0.220 C 
ATOM     21  C   LIG d   1       4.999  -2.587  -6.107  0.00  0.00     0.158 C 
ATOM     22  H   LIG d   1       5.746  -2.870  -6.848  0.00  0.00     0.078 H 
ATOM     23  H   LIG d   1       3.855  -3.426  -3.688  0.00  0.00     0.058 H 
ATOM     24  H   LIG d   1       3.601  -1.757  -2.065  0.00  0.00     0.062 H 
ATOM     25  H   LIG d   1       4.877   0.327  -3.342  0.00  0.00     0.086 H 
ATOM     26  H   LIG d   1       5.378  -0.130  -1.700  0.00  0.00     0.086 H 
ATOM     27  H   LIG d   1       7.662   1.578  -5.326  0.00  0.00     0.033 H 
ATOM     28  H   LIG d   1       5.946   1.475  -4.812  0.00  0.00     0.033 H 
ATOM     29  H   LIG d   1       7.062   1.219  -2.689  0.00  0.00     0.082 H 
ATOM     30  H   LIG d   1       8.443   0.327  -3.403  0.00  0.00     0.082 H 
ATOM     31  H   LIG d   1       9.571  -0.736  -4.984  0.00  0.00     0.062 H 
ATOM     32  H   LIG d   1      11.305  -1.005  -6.738  0.00  0.00     0.065 H 
ATOM     33  H   LIG d   1       8.349  -0.793  -9.833  0.00  0.00     0.067 H 
ATOM     34  H   LIG d   1       7.131  -1.381  -2.568  0.00  0.00     0.204 HD
ENDROOT
BRANCH  20  35
ATOM     35  C   LIG d   1       3.580  -1.230  -7.623  0.00  0.00     0.345 C 
ATOM     36  O   LIG d   1       3.552  -2.221  -8.312  0.00  0.00    -0.247 OA
BRANCH  35  37
ATOM     37  O   LIG d   1       2.823  -0.168  -7.943  0.00  0.00    -0.466 OA
BRANCH  37  38
ATOM     38  C   LIG d   1       2.043  -0.263  -9.137  0.00  0.00     0.082 C 
ATOM     39  H   LIG d   1       1.468   0.654  -9.269  0.00  0.00     0.066 H 
ATOM     40  H   LIG d   1       2.703  -0.405  -9.992  0.00  0.00     0.066 H 
ATOM     41  H   LIG d   1       1.361  -1.110  -9.059  0.00  0.00     0.066 H 
ENDBRANCH  37  38
ENDBRANCH  35  37
ENDBRANCH  20  35
BRANCH  20  42
ATOM     42  O   LIG d   1       3.709  -0.715  -5.282  0.00  0.00    -0.373 OA
ATOM     43  H   LIG d   1       2.802  -0.459  -5.499  0.00  0.00     0.211 HD
ENDBRANCH  20  42
BRANCH  21  44
ATOM     44  O   LIG d   1       3.918  -3.522  -6.128  0.00  0.00    -0.457 OA
BRANCH  44  45
ATOM     45  C   LIG d   1       4.198  -4.768  -6.540  0.00  0.00     0.304 C 
ATOM     46  O   LIG d   1       3.612  -5.709  -6.061  0.00  0.00    -0.251 OA
BRANCH  45  47
ATOM     47  C   LIG d   1       5.244  -4.993  -7.602  0.00  0.00     0.033 C 
ATOM     48  H   LIG d   1       5.992  -4.202  -7.548  0.00  0.00     0.034 H 
ATOM     49  H   LIG d   1       5.723  -5.959  -7.441  0.00  0.00     0.034 H 
ATOM     50  H   LIG d   1       4.772  -4.981  -8.584  0.00  0.00     0.034 H 
ENDBRANCH  45  47
ENDBRANCH  44  45
ENDBRANCH  21  44
BRANCH  17  51
ATOM     51  C   LIG d   1       5.531  -0.927  -9.181  0.00  0.00     0.001 C 
ATOM     52  H   LIG d   1       4.889  -1.794  -9.025  0.00  0.00     0.043 H 
ATOM     53  H   LIG d   1       4.920  -0.069  -9.463  0.00  0.00     0.043 H 
ATOM     54  H   LIG d   1       6.244  -1.141  -9.978  0.00  0.00     0.043 H 
ENDBRANCH  17  51
BRANCH   1  55
ATOM     55  C   LIG d   1       6.443  -3.848  -4.561  0.00  0.00    -0.038 C 
ATOM     56  H   LIG d   1       6.433  -4.398  -5.503  0.00  0.00     0.027 H 
ATOM     57  H   LIG d   1       6.000  -4.463  -3.777  0.00  0.00     0.027 H 
BRANCH  55  58
ATOM     58  C   LIG d   1       7.885  -3.504  -4.187  0.00  0.00    -0.064 C 
ATOM     59  H   LIG d   1       7.892  -2.897  -3.282  0.00  0.00     0.023 H 
ATOM     60  H   LIG d   1       8.444  -4.424  -4.012  0.00  0.00     0.023 H 
ATOM     61  H   LIG d   1       8.350  -2.948  -5.001  0.00  0.00     0.023 H 
ENDBRANCH  55  58
ENDBRANCH   1  55
BRANCH  14  62
ATOM     62  O   LIG d   1      10.910  -1.034  -9.294  0.00  0.00    -0.495 OA
BRANCH  62  63
ATOM     63  C   LIG d   1      12.244  -1.201  -8.811  0.00  0.00     0.079 C 
ATOM     64  H   LIG d   1      12.562  -0.294  -8.298  0.00  0.00     0.066 H 
ATOM     65  H   LIG d   1      12.276  -2.042  -8.117  0.00  0.00     0.066 H 
ATOM     66  H   LIG d   1      12.912  -1.398  -9.650  0.00  0.00     0.066 H 
ENDBRANCH  62  63
ENDBRANCH  14  62
TORSDOF 12
ENDMDL
