MODEL 1
REMARK VINA RESULT:      -6.8      0.000      0.000
REMARK  6 active torsions:
REMARK  status: ('A' for Active; 'I' for Inactive)
REMARK    1  A    between atoms: C_1  and  C_2 
REMARK    2  A    between atoms: C_2  and  O_3 
REMARK    3  A    between atoms: O_3  and  C_4 
REMARK    4  A    between atoms: C_7  and  C_10 
REMARK    5  A    between atoms: C_16  and  C_19 
REMARK    6  A    between atoms: C_24  and  O_25 
ROOT
ATOM      1  C   LIG d   1       8.226   1.718  -4.763  0.00  0.00     0.179 A 
ATOM      2  N   LIG d   1       8.323   1.748  -6.068  0.00  0.00    -0.127 NA
ATOM      3  N   LIG d   1       9.290   2.518  -6.419  0.00  0.00    -0.121 NA
ATOM      4  C   LIG d   1       9.863   3.010  -5.359  0.00  0.00     0.208 A 
ATOM      5  N   LIG d   1       9.228   2.536  -4.244  0.00  0.00    -0.231 N 
ATOM      6  N   LIG d   1       9.654   2.917  -3.012  0.00  0.00    -0.207 NA
ATOM      7  C   LIG d   1      10.804   3.841  -2.948  0.00  0.00     0.109 A 
ATOM      8  H   LIG d   1      11.650   3.382  -2.435  0.00  0.00     0.065 H 
ATOM      9  S   LIG d   1      11.153   4.063  -4.736  0.00  0.00    -0.059 SA
ATOM     10  H   LIG d   1       8.886   3.256  -2.452  0.00  0.00     0.149 HD
ENDROOT
BRANCH   1  11
ATOM     11  C   LIG d   1       7.235   0.949  -3.980  0.00  0.00     0.021 A 
ATOM     12  C   LIG d   1       6.262   1.618  -3.235  0.00  0.00    -0.048 A 
ATOM     13  C   LIG d   1       5.338   0.897  -2.509  0.00  0.00    -0.019 A 
ATOM     14  H   LIG d   1       6.231   2.698  -3.230  0.00  0.00     0.063 H 
ATOM     15  C   LIG d   1       5.379  -0.491  -2.510  0.00  0.00     0.120 A 
ATOM     16  H   LIG d   1       4.582   1.414  -1.934  0.00  0.00     0.065 H 
ATOM     17  C   LIG d   1       6.345  -1.158  -3.251  0.00  0.00    -0.019 A 
ATOM     18  C   LIG d   1       7.270  -0.446  -3.983  0.00  0.00    -0.048 A 
ATOM     19  H   LIG d   1       6.371  -2.238  -3.253  0.00  0.00     0.065 H 
ATOM     20  H   LIG d   1       8.021  -0.967  -4.559  0.00  0.00     0.063 H 
BRANCH  15  21
ATOM     21  O   LIG d   1       4.469  -1.197  -1.790  0.00  0.00    -0.492 OA
BRANCH  21  22
ATOM     22  C   LIG d   1       3.466  -1.901  -2.526  0.00  0.00     0.087 C 
ATOM     23  H   LIG d   1       3.942  -2.525  -3.283  0.00  0.00     0.069 H 
ATOM     24  H   LIG d   1       2.891  -2.530  -1.846  0.00  0.00     0.069 H 
BRANCH  22  25
ATOM     25  C   LIG d   1       2.533  -0.897  -3.205  0.00  0.00    -0.031 C 
ATOM     26  H   LIG d   1       2.518   0.030  -2.632  0.00  0.00     0.026 H 
ATOM     27  H   LIG d   1       2.890  -0.694  -4.214  0.00  0.00     0.026 H 
ATOM     28  H   LIG d   1       1.526  -1.311  -3.253  0.00  0.00     0.026 H 
ENDBRANCH  22  25
ENDBRANCH  21  22
ENDBRANCH  15  21
ENDBRANCH   1  11
BRANCH   7  29
ATOM     29  C   LIG d   1      10.421   5.146  -2.300  0.00  0.00     0.023 A 
ATOM     30  C   LIG d   1      10.807   5.413  -0.994  0.00  0.00     0.122 A 
ATOM     31  C   LIG d   1      10.455   6.617  -0.402  0.00  0.00    -0.020 A 
ATOM     32  C   LIG d   1       9.714   7.544  -1.110  0.00  0.00    -0.058 A 
ATOM     33  H   LIG d   1      10.758   6.830   0.613  0.00  0.00     0.065 H 
ATOM     34  C   LIG d   1       9.326   7.273  -2.409  0.00  0.00    -0.061 A 
ATOM     35  H   LIG d   1       9.438   8.480  -0.648  0.00  0.00     0.062 H 
ATOM     36  C   LIG d   1       9.678   6.075  -3.003  0.00  0.00    -0.053 A 
ATOM     37  H   LIG d   1       8.746   7.997  -2.961  0.00  0.00     0.062 H 
ATOM     38  H   LIG d   1       9.374   5.866  -4.018  0.00  0.00     0.062 H 
BRANCH  30  39
ATOM     39  O   LIG d   1      11.532   4.498  -0.298  0.00  0.00    -0.506 OA
ATOM     40  H   LIG d   1      12.410   4.807  -0.039  0.00  0.00     0.292 HD
ENDBRANCH  30  39
ENDBRANCH   7  29
TORSDOF 6
ENDMDL
MODEL 2
REMARK VINA RESULT:      -6.6      2.138      7.204
REMARK  6 active torsions:
REMARK  status: ('A' for Active; 'I' for Inactive)
REMARK    1  A    between atoms: C_1  and  C_2 
REMARK    2  A    between atoms: C_2  and  O_3 
REMARK    3  A    between atoms: O_3  and  C_4 
REMARK    4  A    between atoms: C_7  and  C_10 
REMARK    5  A    between atoms: C_16  and  C_19 
REMARK    6  A    between atoms: C_24  and  O_25 
ROOT
ATOM      1  C   LIG d   1       9.838   1.931  -4.530  0.00  0.00     0.179 A 
ATOM      2  N   LIG d   1      10.903   1.220  -4.800  0.00  0.00    -0.127 NA
ATOM      3  N   LIG d   1      10.559   0.047  -5.197  0.00  0.00    -0.121 NA
ATOM      4  C   LIG d   1       9.261  -0.046  -5.210  0.00  0.00     0.208 A 
ATOM      5  N   LIG d   1       8.721   1.138  -4.790  0.00  0.00    -0.231 N 
ATOM      6  N   LIG d   1       7.372   1.278  -4.721  0.00  0.00    -0.207 NA
ATOM      7  C   LIG d   1       6.549   0.115  -5.113  0.00  0.00     0.109 A 
ATOM      8  H   LIG d   1       5.923   0.348  -5.975  0.00  0.00     0.065 H 
ATOM      9  S   LIG d   1       7.863  -1.089  -5.552  0.00  0.00    -0.059 SA
ATOM     10  H   LIG d   1       7.091   1.632  -3.819  0.00  0.00     0.149 HD
ENDROOT
BRANCH   1  11
ATOM     11  C   LIG d   1       9.821   3.327  -4.043  0.00  0.00     0.021 A 
ATOM     12  C   LIG d   1       9.367   4.352  -4.875  0.00  0.00    -0.048 A 
ATOM     13  C   LIG d   1       9.350   5.652  -4.416  0.00  0.00    -0.019 A 
ATOM     14  H   LIG d   1       9.026   4.127  -5.875  0.00  0.00     0.063 H 
ATOM     15  C   LIG d   1       9.792   5.944  -3.132  0.00  0.00     0.120 A 
ATOM     16  H   LIG d   1       8.995   6.446  -5.057  0.00  0.00     0.065 H 
ATOM     17  C   LIG d   1      10.244   4.926  -2.303  0.00  0.00    -0.019 A 
ATOM     18  C   LIG d   1      10.260   3.624  -2.752  0.00  0.00    -0.048 A 
ATOM     19  H   LIG d   1      10.582   5.156  -1.303  0.00  0.00     0.065 H 
ATOM     20  H   LIG d   1      10.611   2.833  -2.105  0.00  0.00     0.063 H 
BRANCH  15  21
ATOM     21  O   LIG d   1       9.778   7.226  -2.685  0.00  0.00    -0.492 OA
BRANCH  21  22
ATOM     22  C   LIG d   1       9.830   7.420  -1.270  0.00  0.00     0.087 C 
ATOM     23  H   LIG d   1       9.402   6.552  -0.768  0.00  0.00     0.069 H 
ATOM     24  H   LIG d   1      10.867   7.545  -0.958  0.00  0.00     0.069 H 
BRANCH  22  25
ATOM     25  C   LIG d   1       9.030   8.671  -0.897  0.00  0.00    -0.031 C 
ATOM     26  H   LIG d   1       9.698   9.532  -0.865  0.00  0.00     0.026 H 
ATOM     27  H   LIG d   1       8.253   8.841  -1.641  0.00  0.00     0.026 H 
ATOM     28  H   LIG d   1       8.572   8.530   0.082  0.00  0.00     0.026 H 
ENDBRANCH  22  25
ENDBRANCH  21  22
ENDBRANCH  15  21
ENDBRANCH   1  11
BRANCH   7  29
ATOM     29  C   LIG d   1       5.719  -0.380  -3.958  0.00  0.00     0.023 A 
ATOM     30  C   LIG d   1       5.318   0.501  -2.962  0.00  0.00     0.122 A 
ATOM     31  C   LIG d   1       4.550   0.042  -1.902  0.00  0.00    -0.020 A 
ATOM     32  C   LIG d   1       4.193  -1.291  -1.835  0.00  0.00    -0.058 A 
ATOM     33  H   LIG d   1       4.233   0.726  -1.129  0.00  0.00     0.065 H 
ATOM     34  C   LIG d   1       4.597  -2.167  -2.825  0.00  0.00    -0.061 A 
ATOM     35  H   LIG d   1       3.597  -1.648  -1.008  0.00  0.00     0.062 H 
ATOM     36  C   LIG d   1       5.360  -1.712  -3.884  0.00  0.00    -0.053 A 
ATOM     37  H   LIG d   1       4.318  -3.208  -2.770  0.00  0.00     0.062 H 
ATOM     38  H   LIG d   1       5.674  -2.398  -4.657  0.00  0.00     0.062 H 
BRANCH  30  39
ATOM     39  O   LIG d   1       5.675   1.810  -3.029  0.00  0.00    -0.506 OA
ATOM     40  H   LIG d   1       4.929   2.424  -2.987  0.00  0.00     0.292 HD
ENDBRANCH  30  39
ENDBRANCH   7  29
TORSDOF 6
ENDMDL
MODEL 3
REMARK VINA RESULT:      -6.5      5.106      7.676
REMARK  6 active torsions:
REMARK  status: ('A' for Active; 'I' for Inactive)
REMARK    1  A    between atoms: C_1  and  C_2 
REMARK    2  A    between atoms: C_2  and  O_3 
REMARK    3  A    between atoms: O_3  and  C_4 
REMARK    4  A    between atoms: C_7  and  C_10 
REMARK    5  A    between atoms: C_16  and  C_19 
REMARK    6  A    between atoms: C_24  and  O_25 
ROOT
ATOM      1  C   LIG d   1       8.858  -3.587  -4.748  0.00  0.00     0.179 A 
ATOM      2  N   LIG d   1       9.193  -3.481  -6.010  0.00  0.00    -0.127 NA
ATOM      3  N   LIG d   1       8.800  -2.349  -6.475  0.00  0.00    -0.121 NA
ATOM      4  C   LIG d   1       8.204  -1.674  -5.535  0.00  0.00     0.208 A 
ATOM      5  N   LIG d   1       8.202  -2.412  -4.384  0.00  0.00    -0.231 N 
ATOM      6  N   LIG d   1       7.629  -1.907  -3.260  0.00  0.00    -0.207 NA
ATOM      7  C   LIG d   1       7.029  -0.561  -3.351  0.00  0.00     0.109 A 
ATOM      8  H   LIG d   1       7.530   0.140  -2.683  0.00  0.00     0.065 H 
ATOM      9  S   LIG d   1       7.372  -0.162  -5.110  0.00  0.00    -0.059 SA
ATOM     10  H   LIG d   1       6.979  -2.567  -2.859  0.00  0.00     0.149 HD
ENDROOT
BRANCH   1  11
ATOM     11  C   LIG d   1       9.130  -4.742  -3.868  0.00  0.00     0.021 A 
ATOM     12  C   LIG d   1       9.648  -4.539  -2.587  0.00  0.00    -0.048 A 
ATOM     13  C   LIG d   1       9.897  -5.619  -1.767  0.00  0.00    -0.019 A 
ATOM     14  H   LIG d   1       9.850  -3.537  -2.238  0.00  0.00     0.063 H 
ATOM     15  C   LIG d   1       9.643  -6.908  -2.217  0.00  0.00     0.120 A 
ATOM     16  H   LIG d   1      10.294  -5.463  -0.775  0.00  0.00     0.065 H 
ATOM     17  C   LIG d   1       9.127  -7.114  -3.489  0.00  0.00    -0.019 A 
ATOM     18  C   LIG d   1       8.871  -6.040  -4.313  0.00  0.00    -0.048 A 
ATOM     19  H   LIG d   1       8.927  -8.118  -3.834  0.00  0.00     0.065 H 
ATOM     20  H   LIG d   1       8.470  -6.201  -5.304  0.00  0.00     0.063 H 
BRANCH  15  21
ATOM     21  O   LIG d   1       9.894  -7.970  -1.408  0.00  0.00    -0.492 OA
BRANCH  21  22
ATOM     22  C   LIG d   1      11.016  -7.865  -0.529  0.00  0.00     0.087 C 
ATOM     23  H   LIG d   1      11.938  -7.925  -1.108  0.00  0.00     0.069 H 
ATOM     24  H   LIG d   1      10.978  -6.910  -0.003  0.00  0.00     0.069 H 
BRANCH  22  25
ATOM     25  C   LIG d   1      10.977  -9.008   0.487  0.00  0.00    -0.031 C 
ATOM     26  H   LIG d   1      11.389  -9.910   0.035  0.00  0.00     0.026 H 
ATOM     27  H   LIG d   1      11.568  -8.738   1.361  0.00  0.00     0.026 H 
ATOM     28  H   LIG d   1       9.946  -9.191   0.789  0.00  0.00     0.026 H 
ENDBRANCH  22  25
ENDBRANCH  21  22
ENDBRANCH  15  21
ENDBRANCH   1  11
BRANCH   7  29
ATOM     29  C   LIG d   1       5.548  -0.604  -3.080  0.00  0.00     0.023 A 
ATOM     30  C   LIG d   1       4.848   0.573  -2.859  0.00  0.00     0.122 A 
ATOM     31  C   LIG d   1       3.483   0.530  -2.614  0.00  0.00    -0.020 A 
ATOM     32  C   LIG d   1       2.826  -0.685  -2.582  0.00  0.00    -0.058 A 
ATOM     33  H   LIG d   1       2.935   1.446  -2.445  0.00  0.00     0.065 H 
ATOM     34  C   LIG d   1       3.527  -1.857  -2.798  0.00  0.00    -0.061 A 
ATOM     35  H   LIG d   1       1.764  -0.718  -2.388  0.00  0.00     0.062 H 
ATOM     36  C   LIG d   1       4.886  -1.816  -3.046  0.00  0.00    -0.053 A 
ATOM     37  H   LIG d   1       3.012  -2.805  -2.772  0.00  0.00     0.062 H 
ATOM     38  H   LIG d   1       5.431  -2.733  -3.214  0.00  0.00     0.062 H 
BRANCH  30  39
ATOM     39  O   LIG d   1       5.497   1.766  -2.886  0.00  0.00    -0.506 OA
ATOM     40  H   LIG d   1       5.967   1.940  -3.713  0.00  0.00     0.292 HD
ENDBRANCH  30  39
ENDBRANCH   7  29
TORSDOF 6
ENDMDL
MODEL 4
REMARK VINA RESULT:      -6.5      5.492      7.885
REMARK  6 active torsions:
REMARK  status: ('A' for Active; 'I' for Inactive)
REMARK    1  A    between atoms: C_1  and  C_2 
REMARK    2  A    between atoms: C_2  and  O_3 
REMARK    3  A    between atoms: O_3  and  C_4 
REMARK    4  A    between atoms: C_7  and  C_10 
REMARK    5  A    between atoms: C_16  and  C_19 
REMARK    6  A    between atoms: C_24  and  O_25 
ROOT
ATOM      1  C   LIG d   1       5.338   0.696  -8.892  0.00  0.00     0.179 A 
ATOM      2  N   LIG d   1       6.172   1.625  -9.286  0.00  0.00    -0.127 NA
ATOM      3  N   LIG d   1       7.098   1.784  -8.409  0.00  0.00    -0.121 NA
ATOM      4  C   LIG d   1       6.908   0.961  -7.420  0.00  0.00     0.208 A 
ATOM      5  N   LIG d   1       5.784   0.221  -7.660  0.00  0.00    -0.231 N 
ATOM      6  N   LIG d   1       5.384  -0.712  -6.757  0.00  0.00    -0.207 NA
ATOM      7  C   LIG d   1       6.206  -0.874  -5.541  0.00  0.00     0.109 A 
ATOM      8  H   LIG d   1       6.630  -1.876  -5.482  0.00  0.00     0.065 H 
ATOM      9  S   LIG d   1       7.508   0.382  -5.849  0.00  0.00    -0.059 SA
ATOM     10  H   LIG d   1       4.410  -0.593  -6.522  0.00  0.00     0.149 HD
ENDROOT
BRANCH   1  11
ATOM     11  C   LIG d   1       4.142   0.231  -9.625  0.00  0.00     0.021 A 
ATOM     12  C   LIG d   1       4.222  -0.049 -10.990  0.00  0.00    -0.048 A 
ATOM     13  C   LIG d   1       3.105  -0.487 -11.669  0.00  0.00    -0.019 A 
ATOM     14  H   LIG d   1       5.160   0.073 -11.514  0.00  0.00     0.063 H 
ATOM     15  C   LIG d   1       1.898  -0.640 -11.000  0.00  0.00     0.120 A 
ATOM     16  H   LIG d   1       3.168  -0.707 -12.725  0.00  0.00     0.065 H 
ATOM     17  C   LIG d   1       1.815  -0.363  -9.642  0.00  0.00    -0.019 A 
ATOM     18  C   LIG d   1       2.928   0.070  -8.955  0.00  0.00    -0.048 A 
ATOM     19  H   LIG d   1       0.876  -0.488  -9.124  0.00  0.00     0.065 H 
ATOM     20  H   LIG d   1       2.861   0.285  -7.898  0.00  0.00     0.063 H 
BRANCH  15  21
ATOM     21  O   LIG d   1       0.799  -1.067 -11.673  0.00  0.00    -0.492 OA
BRANCH  21  22
ATOM     22  C   LIG d   1       0.909  -2.309 -12.372  0.00  0.00     0.087 C 
ATOM     23  H   LIG d   1       0.192  -2.329 -13.193  0.00  0.00     0.069 H 
ATOM     24  H   LIG d   1       1.919  -2.415 -12.770  0.00  0.00     0.069 H 
BRANCH  22  25
ATOM     25  C   LIG d   1       0.616  -3.463 -11.411  0.00  0.00    -0.031 C 
ATOM     26  H   LIG d   1       1.538  -4.005 -11.203  0.00  0.00     0.026 H 
ATOM     27  H   LIG d   1       0.209  -3.067 -10.481  0.00  0.00     0.026 H 
ATOM     28  H   LIG d   1      -0.109  -4.139 -11.865  0.00  0.00     0.026 H 
ENDBRANCH  22  25
ENDBRANCH  21  22
ENDBRANCH  15  21
ENDBRANCH   1  11
BRANCH   7  29
ATOM     29  C   LIG d   1       5.415  -0.547  -4.301  0.00  0.00     0.023 A 
ATOM     30  C   LIG d   1       4.302  -1.305  -3.967  0.00  0.00     0.122 A 
ATOM     31  C   LIG d   1       3.579  -1.003  -2.822  0.00  0.00    -0.020 A 
ATOM     32  C   LIG d   1       3.963   0.056  -2.022  0.00  0.00    -0.058 A 
ATOM     33  H   LIG d   1       2.714  -1.594  -2.557  0.00  0.00     0.065 H 
ATOM     34  C   LIG d   1       5.070   0.812  -2.359  0.00  0.00    -0.061 A 
ATOM     35  H   LIG d   1       3.399   0.292  -1.132  0.00  0.00     0.062 H 
ATOM     36  C   LIG d   1       5.795   0.512  -3.498  0.00  0.00    -0.053 A 
ATOM     37  H   LIG d   1       5.368   1.640  -1.733  0.00  0.00     0.062 H 
ATOM     38  H   LIG d   1       6.659   1.104  -3.759  0.00  0.00     0.062 H 
BRANCH  30  39
ATOM     39  O   LIG d   1       3.923  -2.342  -4.758  0.00  0.00    -0.506 OA
ATOM     40  H   LIG d   1       2.968  -2.487  -4.785  0.00  0.00     0.292 HD
ENDBRANCH  30  39
ENDBRANCH   7  29
TORSDOF 6
ENDMDL
MODEL 5
REMARK VINA RESULT:      -6.3      6.608     10.584
REMARK  6 active torsions:
REMARK  status: ('A' for Active; 'I' for Inactive)
REMARK    1  A    between atoms: C_1  and  C_2 
REMARK    2  A    between atoms: C_2  and  O_3 
REMARK    3  A    between atoms: O_3  and  C_4 
REMARK    4  A    between atoms: C_7  and  C_10 
REMARK    5  A    between atoms: C_16  and  C_19 
REMARK    6  A    between atoms: C_24  and  O_25 
ROOT
ATOM      1  C   LIG d   1       3.777   0.247  -8.082  0.00  0.00     0.179 A 
ATOM      2  N   LIG d   1       4.572   1.148  -8.602  0.00  0.00    -0.127 NA
ATOM      3  N   LIG d   1       4.463   1.145  -9.882  0.00  0.00    -0.121 NA
ATOM      4  C   LIG d   1       3.588   0.252 -10.243  0.00  0.00     0.208 A 
ATOM      5  N   LIG d   1       3.099  -0.374  -9.130  0.00  0.00    -0.231 N 
ATOM      6  N   LIG d   1       2.165  -1.352  -9.262  0.00  0.00    -0.207 NA
ATOM      7  C   LIG d   1       1.725  -1.690 -10.630  0.00  0.00     0.109 A 
ATOM      8  H   LIG d   1       0.660  -1.493 -10.762  0.00  0.00     0.065 H 
ATOM      9  S   LIG d   1       2.743  -0.516 -11.607  0.00  0.00    -0.059 SA
ATOM     10  H   LIG d   1       2.437  -2.181  -8.754  0.00  0.00     0.149 HD
ENDROOT
BRANCH   1  11
ATOM     11  C   LIG d   1       3.623  -0.055  -6.644  0.00  0.00     0.021 A 
ATOM     12  C   LIG d   1       2.595   0.541  -5.911  0.00  0.00    -0.048 A 
ATOM     13  C   LIG d   1       2.451   0.254  -4.570  0.00  0.00    -0.019 A 
ATOM     14  H   LIG d   1       1.911   1.224  -6.394  0.00  0.00     0.063 H 
ATOM     15  C   LIG d   1       3.333  -0.618  -3.946  0.00  0.00     0.120 A 
ATOM     16  H   LIG d   1       1.655   0.713  -4.003  0.00  0.00     0.065 H 
ATOM     17  C   LIG d   1       4.356  -1.214  -4.673  0.00  0.00    -0.019 A 
ATOM     18  C   LIG d   1       4.503  -0.936  -6.014  0.00  0.00    -0.048 A 
ATOM     19  H   LIG d   1       5.036  -1.896  -4.185  0.00  0.00     0.065 H 
ATOM     20  H   LIG d   1       5.299  -1.400  -6.578  0.00  0.00     0.063 H 
BRANCH  15  21
ATOM     21  O   LIG d   1       3.191  -0.895  -2.624  0.00  0.00    -0.492 OA
BRANCH  21  22
ATOM     22  C   LIG d   1       4.332  -0.679  -1.791  0.00  0.00     0.087 C 
ATOM     23  H   LIG d   1       4.157  -1.127  -0.812  0.00  0.00     0.069 H 
ATOM     24  H   LIG d   1       5.209  -1.138  -2.249  0.00  0.00     0.069 H 
BRANCH  22  25
ATOM     25  C   LIG d   1       4.569   0.824  -1.629  0.00  0.00    -0.031 C 
ATOM     26  H   LIG d   1       4.522   1.087  -0.572  0.00  0.00     0.026 H 
ATOM     27  H   LIG d   1       5.550   1.082  -2.024  0.00  0.00     0.026 H 
ATOM     28  H   LIG d   1       3.801   1.373  -2.174  0.00  0.00     0.026 H 
ENDBRANCH  22  25
ENDBRANCH  21  22
ENDBRANCH  15  21
ENDBRANCH   1  11
BRANCH   7  29
ATOM     29  C   LIG d   1       2.058  -3.118 -10.974  0.00  0.00     0.023 A 
ATOM     30  C   LIG d   1       1.154  -4.131 -10.687  0.00  0.00     0.122 A 
ATOM     31  C   LIG d   1       1.463  -5.445 -11.009  0.00  0.00    -0.020 A 
ATOM     32  C   LIG d   1       2.673  -5.743 -11.605  0.00  0.00    -0.058 A 
ATOM     33  H   LIG d   1       0.759  -6.234 -10.790  0.00  0.00     0.065 H 
ATOM     34  C   LIG d   1       3.574  -4.733 -11.886  0.00  0.00    -0.061 A 
ATOM     35  H   LIG d   1       2.914  -6.766 -11.853  0.00  0.00     0.062 H 
ATOM     36  C   LIG d   1       3.267  -3.422 -11.569  0.00  0.00    -0.053 A 
ATOM     37  H   LIG d   1       4.519  -4.968 -12.351  0.00  0.00     0.062 H 
ATOM     38  H   LIG d   1       3.973  -2.635 -11.789  0.00  0.00     0.062 H 
BRANCH  30  39
ATOM     39  O   LIG d   1      -0.033  -3.835 -10.096  0.00  0.00    -0.506 OA
ATOM     40  H   LIG d   1       0.050  -3.320  -9.282  0.00  0.00     0.292 HD
ENDBRANCH  30  39
ENDBRANCH   7  29
TORSDOF 6
ENDMDL
MODEL 6
REMARK VINA RESULT:      -6.1      5.898      8.414
REMARK  6 active torsions:
REMARK  status: ('A' for Active; 'I' for Inactive)
REMARK    1  A    between atoms: C_1  and  C_2 
REMARK    2  A    between atoms: C_2  and  O_3 
REMARK    3  A    between atoms: O_3  and  C_4 
REMARK    4  A    between atoms: C_7  and  C_10 
REMARK    5  A    between atoms: C_16  and  C_19 
REMARK    6  A    between atoms: C_24  and  O_25 
ROOT
ATOM      1  C   LIG d   1       4.162  -4.285  -7.466  0.00  0.00     0.179 A 
ATOM      2  N   LIG d   1       3.436  -3.893  -8.483  0.00  0.00    -0.127 NA
ATOM      3  N   LIG d   1       3.466  -2.611  -8.576  0.00  0.00    -0.121 NA
ATOM      4  C   LIG d   1       4.217  -2.123  -7.632  0.00  0.00     0.208 A 
ATOM      5  N   LIG d   1       4.705  -3.148  -6.870  0.00  0.00    -0.231 N 
ATOM      6  N   LIG d   1       5.520  -2.878  -5.818  0.00  0.00    -0.207 NA
ATOM      7  C   LIG d   1       5.838  -1.460  -5.553  0.00  0.00     0.109 A 
ATOM      8  H   LIG d   1       6.907  -1.270  -5.652  0.00  0.00     0.065 H 
ATOM      9  S   LIG d   1       4.891  -0.649  -6.900  0.00  0.00    -0.059 SA
ATOM     10  H   LIG d   1       5.194  -3.338  -4.981  0.00  0.00     0.149 HD
ENDROOT
BRANCH   1  11
ATOM     11  C   LIG d   1       4.372  -5.682  -7.032  0.00  0.00     0.021 A 
ATOM     12  C   LIG d   1       4.199  -6.729  -7.939  0.00  0.00    -0.048 A 
ATOM     13  C   LIG d   1       4.400  -8.031  -7.531  0.00  0.00    -0.019 A 
ATOM     14  H   LIG d   1       3.913  -6.521  -8.960  0.00  0.00     0.063 H 
ATOM     15  C   LIG d   1       4.763  -8.302  -6.219  0.00  0.00     0.120 A 
ATOM     16  H   LIG d   1       4.270  -8.842  -8.233  0.00  0.00     0.065 H 
ATOM     17  C   LIG d   1       4.936  -7.262  -5.315  0.00  0.00    -0.019 A 
ATOM     18  C   LIG d   1       4.742  -5.958  -5.715  0.00  0.00    -0.048 A 
ATOM     19  H   LIG d   1       5.223  -7.477  -4.296  0.00  0.00     0.065 H 
ATOM     20  H   LIG d   1       4.877  -5.150  -5.011  0.00  0.00     0.063 H 
BRANCH  15  21
ATOM     21  O   LIG d   1       4.955  -9.586  -5.820  0.00  0.00    -0.492 OA
BRANCH  21  22
ATOM     22  C   LIG d   1       5.082  -9.816  -4.415  0.00  0.00     0.087 C 
ATOM     23  H   LIG d   1       5.952 -10.446  -4.226  0.00  0.00     0.069 H 
ATOM     24  H   LIG d   1       5.205  -8.862  -3.900  0.00  0.00     0.069 H 
BRANCH  22  25
ATOM     25  C   LIG d   1       3.823 -10.516  -3.897  0.00  0.00    -0.031 C 
ATOM     26  H   LIG d   1       3.269  -9.836  -3.251  0.00  0.00     0.026 H 
ATOM     27  H   LIG d   1       3.198 -10.808  -4.740  0.00  0.00     0.026 H 
ATOM     28  H   LIG d   1       4.108 -11.403  -3.332  0.00  0.00     0.026 H 
ENDBRANCH  22  25
ENDBRANCH  21  22
ENDBRANCH  15  21
ENDBRANCH   1  11
BRANCH   7  29
ATOM     29  C   LIG d   1       5.334  -1.032  -4.198  0.00  0.00     0.023 A 
ATOM     30  C   LIG d   1       5.706   0.199  -3.676  0.00  0.00     0.122 A 
ATOM     31  C   LIG d   1       5.237   0.591  -2.431  0.00  0.00    -0.020 A 
ATOM     32  C   LIG d   1       4.409  -0.248  -1.710  0.00  0.00    -0.058 A 
ATOM     33  H   LIG d   1       5.520   1.551  -2.024  0.00  0.00     0.065 H 
ATOM     34  C   LIG d   1       4.045  -1.476  -2.229  0.00  0.00    -0.061 A 
ATOM     35  H   LIG d   1       4.047   0.056  -0.739  0.00  0.00     0.062 H 
ATOM     36  C   LIG d   1       4.508  -1.868  -3.472  0.00  0.00    -0.053 A 
ATOM     37  H   LIG d   1       3.399  -2.131  -1.664  0.00  0.00     0.062 H 
ATOM     38  H   LIG d   1       4.222  -2.828  -3.876  0.00  0.00     0.062 H 
BRANCH  30  39
ATOM     39  O   LIG d   1       6.523   1.020  -4.386  0.00  0.00    -0.506 OA
ATOM     40  H   LIG d   1       7.411   0.665  -4.527  0.00  0.00     0.292 HD
ENDBRANCH  30  39
ENDBRANCH   7  29
TORSDOF 6
ENDMDL
MODEL 7
REMARK VINA RESULT:      -6.1      3.265      7.630
REMARK  6 active torsions:
REMARK  status: ('A' for Active; 'I' for Inactive)
REMARK    1  A    between atoms: C_1  and  C_2 
REMARK    2  A    between atoms: C_2  and  O_3 
REMARK    3  A    between atoms: O_3  and  C_4 
REMARK    4  A    between atoms: C_7  and  C_10 
REMARK    5  A    between atoms: C_16  and  C_19 
REMARK    6  A    between atoms: C_24  and  O_25 
ROOT
ATOM      1  C   LIG d   1       9.591   1.394  -5.620  0.00  0.00     0.179 A 
ATOM      2  N   LIG d   1      10.599   0.589  -5.397  0.00  0.00    -0.127 NA
ATOM      3  N   LIG d   1      10.168  -0.596  -5.148  0.00  0.00    -0.121 NA
ATOM      4  C   LIG d   1       8.868  -0.609  -5.208  0.00  0.00     0.208 A 
ATOM      5  N   LIG d   1       8.419   0.646  -5.510  0.00  0.00    -0.231 N 
ATOM      6  N   LIG d   1       7.085   0.876  -5.626  0.00  0.00    -0.207 NA
ATOM      7  C   LIG d   1       6.179  -0.271  -5.414  0.00  0.00     0.109 A 
ATOM      8  H   LIG d   1       5.606  -0.492  -6.314  0.00  0.00     0.065 H 
ATOM      9  S   LIG d   1       7.397  -1.597  -5.059  0.00  0.00    -0.059 SA
ATOM     10  H   LIG d   1       6.805   1.667  -5.066  0.00  0.00     0.149 HD
ENDROOT
BRANCH   1  11
ATOM     11  C   LIG d   1       9.678   2.835  -5.937  0.00  0.00     0.021 A 
ATOM     12  C   LIG d   1       9.530   3.784  -4.924  0.00  0.00    -0.048 A 
ATOM     13  C   LIG d   1       9.616   5.127  -5.223  0.00  0.00    -0.019 A 
ATOM     14  H   LIG d   1       9.351   3.467  -3.906  0.00  0.00     0.063 H 
ATOM     15  C   LIG d   1       9.841   5.537  -6.530  0.00  0.00     0.120 A 
ATOM     16  H   LIG d   1       9.505   5.863  -4.439  0.00  0.00     0.065 H 
ATOM     17  C   LIG d   1       9.990   4.595  -7.540  0.00  0.00    -0.019 A 
ATOM     18  C   LIG d   1       9.910   3.251  -7.249  0.00  0.00    -0.048 A 
ATOM     19  H   LIG d   1      10.170   4.918  -8.555  0.00  0.00     0.065 H 
ATOM     20  H   LIG d   1      10.026   2.519  -8.035  0.00  0.00     0.063 H 
BRANCH  15  21
ATOM     21  O   LIG d   1       9.921   6.861  -6.822  0.00  0.00    -0.492 OA
BRANCH  21  22
ATOM     22  C   LIG d   1       9.642   7.247  -8.169  0.00  0.00     0.087 C 
ATOM     23  H   LIG d   1      10.579   7.380  -8.711  0.00  0.00     0.069 H 
ATOM     24  H   LIG d   1       9.049   6.470  -8.654  0.00  0.00     0.069 H 
BRANCH  22  25
ATOM     25  C   LIG d   1       8.861   8.562  -8.172  0.00  0.00    -0.031 C 
ATOM     26  H   LIG d   1       7.863   8.391  -8.577  0.00  0.00     0.026 H 
ATOM     27  H   LIG d   1       8.779   8.938  -7.153  0.00  0.00     0.026 H 
ATOM     28  H   LIG d   1       9.382   9.294  -8.789  0.00  0.00     0.026 H 
ENDBRANCH  22  25
ENDBRANCH  21  22
ENDBRANCH  15  21
ENDBRANCH   1  11
BRANCH   7  29
ATOM     29  C   LIG d   1       5.269  -0.036  -4.236  0.00  0.00     0.023 A 
ATOM     30  C   LIG d   1       3.986  -0.565  -4.234  0.00  0.00     0.122 A 
ATOM     31  C   LIG d   1       3.152  -0.350  -3.145  0.00  0.00    -0.020 A 
ATOM     32  C   LIG d   1       3.598   0.396  -2.072  0.00  0.00    -0.058 A 
ATOM     33  H   LIG d   1       2.155  -0.764  -3.139  0.00  0.00     0.065 H 
ATOM     34  C   LIG d   1       4.875   0.926  -2.079  0.00  0.00    -0.061 A 
ATOM     35  H   LIG d   1       2.948   0.566  -1.226  0.00  0.00     0.062 H 
ATOM     36  C   LIG d   1       5.709   0.711  -3.160  0.00  0.00    -0.053 A 
ATOM     37  H   LIG d   1       5.221   1.510  -1.239  0.00  0.00     0.062 H 
ATOM     38  H   LIG d   1       6.706   1.126  -3.163  0.00  0.00     0.062 H 
BRANCH  30  39
ATOM     39  O   LIG d   1       3.549  -1.294  -5.293  0.00  0.00    -0.506 OA
ATOM     40  H   LIG d   1       2.600  -1.212  -5.462  0.00  0.00     0.292 HD
ENDBRANCH  30  39
ENDBRANCH   7  29
TORSDOF 6
ENDMDL
MODEL 8
REMARK VINA RESULT:      -6.0      5.899      8.393
REMARK  6 active torsions:
REMARK  status: ('A' for Active; 'I' for Inactive)
REMARK    1  A    between atoms: C_1  and  C_2 
REMARK    2  A    between atoms: C_2  and  O_3 
REMARK    3  A    between atoms: O_3  and  C_4 
REMARK    4  A    between atoms: C_7  and  C_10 
REMARK    5  A    between atoms: C_16  and  C_19 
REMARK    6  A    between atoms: C_24  and  O_25 
ROOT
ATOM      1  C   LIG d   1       5.100  -2.288  -8.143  0.00  0.00     0.179 A 
ATOM      2  N   LIG d   1       6.312  -2.602  -8.527  0.00  0.00    -0.127 NA
ATOM      3  N   LIG d   1       7.045  -2.855  -7.503  0.00  0.00    -0.121 NA
ATOM      4  C   LIG d   1       6.339  -2.726  -6.418  0.00  0.00     0.208 A 
ATOM      5  N   LIG d   1       5.065  -2.358  -6.751  0.00  0.00    -0.231 N 
ATOM      6  N   LIG d   1       4.142  -2.163  -5.774  0.00  0.00    -0.207 NA
ATOM      7  C   LIG d   1       4.579  -2.362  -4.378  0.00  0.00     0.109 A 
ATOM      8  H   LIG d   1       4.025  -3.171  -3.902  0.00  0.00     0.065 H 
ATOM      9  S   LIG d   1       6.336  -2.826  -4.642  0.00  0.00    -0.059 SA
ATOM     10  H   LIG d   1       3.682  -1.271  -5.885  0.00  0.00     0.149 HD
ENDROOT
BRANCH   1  11
ATOM     11  C   LIG d   1       3.971  -1.929  -9.026  0.00  0.00     0.021 A 
ATOM     12  C   LIG d   1       3.893  -0.648  -9.576  0.00  0.00    -0.048 A 
ATOM     13  C   LIG d   1       2.840  -0.317 -10.402  0.00  0.00    -0.019 A 
ATOM     14  H   LIG d   1       4.658   0.083  -9.357  0.00  0.00     0.063 H 
ATOM     15  C   LIG d   1       1.853  -1.253 -10.681  0.00  0.00     0.120 A 
ATOM     16  H   LIG d   1       2.780   0.673 -10.831  0.00  0.00     0.065 H 
ATOM     17  C   LIG d   1       1.928  -2.529 -10.136  0.00  0.00    -0.019 A 
ATOM     18  C   LIG d   1       2.979  -2.868  -9.313  0.00  0.00    -0.048 A 
ATOM     19  H   LIG d   1       1.161  -3.255 -10.359  0.00  0.00     0.065 H 
ATOM     20  H   LIG d   1       3.037  -3.861  -8.890  0.00  0.00     0.063 H 
BRANCH  15  21
ATOM     21  O   LIG d   1       0.815  -0.923 -11.492  0.00  0.00    -0.492 OA
BRANCH  21  22
ATOM     22  C   LIG d   1       0.414  -1.895 -12.460  0.00  0.00     0.087 C 
ATOM     23  H   LIG d   1       1.172  -1.966 -13.240  0.00  0.00     0.069 H 
ATOM     24  H   LIG d   1       0.299  -2.865 -11.976  0.00  0.00     0.069 H 
BRANCH  22  25
ATOM     25  C   LIG d   1      -0.920  -1.475 -13.083  0.00  0.00    -0.031 C 
ATOM     26  H   LIG d   1      -0.962  -0.387 -13.149  0.00  0.00     0.026 H 
ATOM     27  H   LIG d   1      -1.006  -1.904 -14.080  0.00  0.00     0.026 H 
ATOM     28  H   LIG d   1      -1.740  -1.833 -12.461  0.00  0.00     0.026 H 
ENDBRANCH  22  25
ENDBRANCH  21  22
ENDBRANCH  15  21
ENDBRANCH   1  11
BRANCH   7  29
ATOM     29  C   LIG d   1       4.466  -1.087  -3.583  0.00  0.00     0.023 A 
ATOM     30  C   LIG d   1       3.228  -0.484  -3.411  0.00  0.00     0.122 A 
ATOM     31  C   LIG d   1       3.126   0.688  -2.675  0.00  0.00    -0.020 A 
ATOM     32  C   LIG d   1       4.258   1.256  -2.123  0.00  0.00    -0.058 A 
ATOM     33  H   LIG d   1       2.163   1.157  -2.536  0.00  0.00     0.065 H 
ATOM     34  C   LIG d   1       5.491   0.656  -2.300  0.00  0.00    -0.061 A 
ATOM     35  H   LIG d   1       4.179   2.170  -1.553  0.00  0.00     0.062 H 
ATOM     36  C   LIG d   1       5.594  -0.513  -3.030  0.00  0.00    -0.053 A 
ATOM     37  H   LIG d   1       6.374   1.102  -1.869  0.00  0.00     0.062 H 
ATOM     38  H   LIG d   1       6.559  -0.980  -3.167  0.00  0.00     0.062 H 
BRANCH  30  39
ATOM     39  O   LIG d   1       2.117  -1.042  -3.959  0.00  0.00    -0.506 OA
ATOM     40  H   LIG d   1       1.395  -1.180  -3.331  0.00  0.00     0.292 HD
ENDBRANCH  30  39
ENDBRANCH   7  29
TORSDOF 6
ENDMDL
MODEL 9
REMARK VINA RESULT:      -5.9      7.075     11.429
REMARK  6 active torsions:
REMARK  status: ('A' for Active; 'I' for Inactive)
REMARK    1  A    between atoms: C_1  and  C_2 
REMARK    2  A    between atoms: C_2  and  O_3 
REMARK    3  A    between atoms: O_3  and  C_4 
REMARK    4  A    between atoms: C_7  and  C_10 
REMARK    5  A    between atoms: C_16  and  C_19 
REMARK    6  A    between atoms: C_24  and  O_25 
ROOT
ATOM      1  C   LIG d   1       6.235  -5.116  -6.231  0.00  0.00     0.179 A 
ATOM      2  N   LIG d   1       6.875  -5.060  -7.372  0.00  0.00    -0.127 NA
ATOM      3  N   LIG d   1       6.807  -6.196  -7.969  0.00  0.00    -0.121 NA
ATOM      4  C   LIG d   1       6.114  -7.028  -7.247  0.00  0.00     0.208 A 
ATOM      5  N   LIG d   1       5.708  -6.400  -6.103  0.00  0.00    -0.231 N 
ATOM      6  N   LIG d   1       4.965  -7.077  -5.189  0.00  0.00    -0.207 NA
ATOM      7  C   LIG d   1       4.633  -8.484  -5.493  0.00  0.00     0.109 A 
ATOM      8  H   LIG d   1       3.555  -8.625  -5.578  0.00  0.00     0.065 H 
ATOM      9  S   LIG d   1       5.460  -8.676  -7.121  0.00  0.00    -0.059 SA
ATOM     10  H   LIG d   1       5.362  -6.991  -4.265  0.00  0.00     0.149 HD
ENDROOT
BRANCH   1  11
ATOM     11  C   LIG d   1       6.092  -4.014  -5.257  0.00  0.00     0.021 A 
ATOM     12  C   LIG d   1       7.226  -3.419  -4.702  0.00  0.00    -0.048 A 
ATOM     13  C   LIG d   1       7.088  -2.388  -3.797  0.00  0.00    -0.019 A 
ATOM     14  H   LIG d   1       8.211  -3.762  -4.984  0.00  0.00     0.063 H 
ATOM     15  C   LIG d   1       5.823  -1.948  -3.429  0.00  0.00     0.120 A 
ATOM     16  H   LIG d   1       7.965  -1.924  -3.369  0.00  0.00     0.065 H 
ATOM     17  C   LIG d   1       4.693  -2.537  -3.980  0.00  0.00    -0.019 A 
ATOM     18  C   LIG d   1       4.822  -3.565  -4.889  0.00  0.00    -0.048 A 
ATOM     19  H   LIG d   1       3.711  -2.189  -3.695  0.00  0.00     0.065 H 
ATOM     20  H   LIG d   1       3.942  -4.022  -5.317  0.00  0.00     0.063 H 
BRANCH  15  21
ATOM     21  O   LIG d   1       5.692  -0.935  -2.533  0.00  0.00    -0.492 OA
BRANCH  21  22
ATOM     22  C   LIG d   1       4.367  -0.628  -2.094  0.00  0.00     0.087 C 
ATOM     23  H   LIG d   1       3.651  -0.925  -2.860  0.00  0.00     0.069 H 
ATOM     24  H   LIG d   1       4.156  -1.167  -1.170  0.00  0.00     0.069 H 
BRANCH  22  25
ATOM     25  C   LIG d   1       4.250   0.878  -1.843  0.00  0.00    -0.031 C 
ATOM     26  H   LIG d   1       4.783   1.136  -0.928  0.00  0.00     0.026 H 
ATOM     27  H   LIG d   1       4.684   1.420  -2.681  0.00  0.00     0.026 H 
ATOM     28  H   LIG d   1       3.199   1.148  -1.740  0.00  0.00     0.026 H 
ENDBRANCH  22  25
ENDBRANCH  21  22
ENDBRANCH  15  21
ENDBRANCH   1  11
BRANCH   7  29
ATOM     29  C   LIG d   1       5.222  -9.417  -4.468  0.00  0.00     0.023 A 
ATOM     30  C   LIG d   1       4.404 -10.009  -3.515  0.00  0.00     0.122 A 
ATOM     31  C   LIG d   1       4.950 -10.871  -2.575  0.00  0.00    -0.020 A 
ATOM     32  C   LIG d   1       6.307 -11.132  -2.584  0.00  0.00    -0.058 A 
ATOM     33  H   LIG d   1       4.315 -11.336  -1.836  0.00  0.00     0.065 H 
ATOM     34  C   LIG d   1       7.120 -10.538  -3.531  0.00  0.00    -0.061 A 
ATOM     35  H   LIG d   1       6.731 -11.801  -1.851  0.00  0.00     0.062 H 
ATOM     36  C   LIG d   1       6.579  -9.681  -4.471  0.00  0.00    -0.053 A 
ATOM     37  H   LIG d   1       8.180 -10.742  -3.535  0.00  0.00     0.062 H 
ATOM     38  H   LIG d   1       7.216  -9.218  -5.209  0.00  0.00     0.062 H 
BRANCH  30  39
ATOM     39  O   LIG d   1       3.071  -9.747  -3.506  0.00  0.00    -0.506 OA
ATOM     40  H   LIG d   1       2.775  -9.188  -4.238  0.00  0.00     0.292 HD
ENDBRANCH  30  39
ENDBRANCH   7  29
TORSDOF 6
ENDMDL
