MODEL 1
REMARK VINA RESULT:      -7.0      0.000      0.000
REMARK  17 active torsions:
REMARK  status: ('A' for Active; 'I' for Inactive)
REMARK    1  A    between atoms: C_1  and  C_2 
REMARK    2  A    between atoms: C_4  and  O_53 
REMARK    3  A    between atoms: C_6  and  O_52 
REMARK    4  A    between atoms: C_8  and  O_51 
REMARK    5  A    between atoms: C_10  and  O_13 
REMARK    6  A    between atoms: O_13  and  C_14 
REMARK    7  A    between atoms: C_14  and  C_15 
REMARK    8  A    between atoms: C_17  and  O_50 
REMARK    9  A    between atoms: C_19  and  O_49 
REMARK   10  A    between atoms: C_21  and  O_48 
REMARK   11  A    between atoms: C_23  and  O_26 
REMARK   12  A    between atoms: O_26  and  C_27 
REMARK   13  A    between atoms: C_31  and  O_47 
REMARK   14  A    between atoms: C_33  and  O_46 
REMARK   15  A    between atoms: C_37  and  C_38 
REMARK   16  A    between atoms: C_41  and  O_45 
REMARK   17  A    between atoms: C_42  and  O_44 
ROOT
ATOM      1  C   LIG d   1       7.305   0.206  -7.814  0.00  0.00     0.114 C 
ATOM      2  H   LIG d   1       8.023  -0.349  -8.418  0.00  0.00     0.065 H 
ATOM      3  C   LIG d   1       6.104   0.596  -8.679  0.00  0.00     0.112 C 
ATOM      4  H   LIG d   1       6.443   1.184  -9.533  0.00  0.00     0.065 H 
ATOM      5  C   LIG d   1       5.409  -0.674  -9.178  0.00  0.00     0.115 C 
ATOM      6  H   LIG d   1       6.091  -1.240  -9.812  0.00  0.00     0.065 H 
ATOM      7  C   LIG d   1       5.003  -1.528  -7.973  0.00  0.00     0.145 C 
ATOM      8  H   LIG d   1       4.557  -2.460  -8.318  0.00  0.00     0.068 H 
ATOM      9  C   LIG d   1       6.247  -1.836  -7.134  0.00  0.00     0.231 C 
ATOM     10  H   LIG d   1       6.951  -2.418  -7.729  0.00  0.00     0.108 H 
ATOM     11  O   LIG d   1       6.863  -0.613  -6.729  0.00  0.00    -0.331 OA
ENDROOT
BRANCH   9  12
ATOM     12  O   LIG d   1       5.868  -2.586  -5.978  0.00  0.00    -0.453 OA
BRANCH  12  13
ATOM     13  C   LIG d   1       6.873  -3.086  -5.209  0.00  0.00     0.214 A 
ATOM     14  C   LIG d   1       7.022  -2.675  -3.918  0.00  0.00     0.181 A 
ATOM     15  O   LIG d   1       7.995  -3.144  -3.120  0.00  0.00    -0.451 OA
ATOM     16  C   LIG d   1       8.898  -4.053  -3.541  0.00  0.00     0.146 A 
ATOM     17  C   LIG d   1       8.839  -4.539  -4.858  0.00  0.00     0.109 A 
ATOM     18  C   LIG d   1       9.890  -4.515  -2.688  0.00  0.00     0.023 A 
ATOM     19  C   LIG d   1       7.781  -4.036  -5.747  0.00  0.00     0.238 A 
ATOM     20  C   LIG d   1       9.774  -5.484  -5.304  0.00  0.00     0.135 A 
ATOM     21  O   LIG d   1       7.682  -4.425  -6.900  0.00  0.00    -0.283 OA
ATOM     22  C   LIG d   1      10.754  -5.933  -4.438  0.00  0.00     0.022 A 
ATOM     23  C   LIG d   1      10.810  -5.450  -3.135  0.00  0.00     0.124 A 
ATOM     24  H   LIG d   1      11.477  -6.660  -4.776  0.00  0.00     0.069 H 
ATOM     25  H   LIG d   1       9.944  -4.148  -1.674  0.00  0.00     0.069 H 
BRANCH  14  26
ATOM     26  C   LIG d   1       6.075  -1.682  -3.377  0.00  0.00     0.025 A 
ATOM     27  C   LIG d   1       6.395  -0.321  -3.404  0.00  0.00    -0.006 A 
ATOM     28  C   LIG d   1       5.507   0.604  -2.890  0.00  0.00     0.159 A 
ATOM     29  H   LIG d   1       7.336   0.006  -3.822  0.00  0.00     0.066 H 
ATOM     30  C   LIG d   1       4.291   0.182  -2.358  0.00  0.00     0.158 A 
ATOM     31  C   LIG d   1       3.971  -1.169  -2.335  0.00  0.00    -0.016 A 
ATOM     32  C   LIG d   1       4.853  -2.098  -2.841  0.00  0.00    -0.047 A 
ATOM     33  H   LIG d   1       3.027  -1.492  -1.921  0.00  0.00     0.066 H 
ATOM     34  H   LIG d   1       4.601  -3.148  -2.823  0.00  0.00     0.063 H 
BRANCH  28  35
ATOM     35  O   LIG d   1       5.817   1.928  -2.911  0.00  0.00    -0.503 OA
ATOM     36  H   LIG d   1       6.747   2.111  -3.107  0.00  0.00     0.292 HD
ENDBRANCH  28  35
BRANCH  30  37
ATOM     37  O   LIG d   1       3.416   1.094  -1.858  0.00  0.00    -0.503 OA
ATOM     38  H   LIG d   1       3.792   1.664  -1.173  0.00  0.00     0.292 HD
ENDBRANCH  30  37
ENDBRANCH  14  26
BRANCH  20  39
ATOM     39  O   LIG d   1       9.718  -5.954  -6.576  0.00  0.00    -0.506 OA
ATOM     40  H   LIG d   1      10.318  -5.506  -7.187  0.00  0.00     0.292 HD
ENDBRANCH  20  39
BRANCH  23  41
ATOM     41  O   LIG d   1      11.776  -5.898  -2.294  0.00  0.00    -0.506 OA
ATOM     42  H   LIG d   1      12.365  -5.206  -1.965  0.00  0.00     0.292 HD
ENDBRANCH  23  41
ENDBRANCH  12  13
ENDBRANCH   9  12
BRANCH   7  43
ATOM     43  O   LIG d   1       4.057  -0.812  -7.176  0.00  0.00    -0.383 OA
ATOM     44  H   LIG d   1       3.283  -1.333  -6.921  0.00  0.00     0.210 HD
ENDBRANCH   7  43
BRANCH   5  45
ATOM     45  O   LIG d   1       4.243  -0.319  -9.926  0.00  0.00    -0.386 OA
ATOM     46  H   LIG d   1       4.343  -0.427 -10.882  0.00  0.00     0.210 HD
ENDBRANCH   5  45
BRANCH   1  47
ATOM     47  C   LIG d   1       7.969   1.469  -7.263  0.00  0.00     0.080 C 
ATOM     48  H   LIG d   1       9.047   1.407  -7.411  0.00  0.00     0.059 H 
ATOM     49  H   LIG d   1       7.579   2.342  -7.788  0.00  0.00     0.059 H 
BRANCH  47  50
ATOM     50  O   LIG d   1       7.685   1.586  -5.867  0.00  0.00    -0.346 OA
BRANCH  50  51
ATOM     51  C   LIG d   1       8.470   2.575  -5.196  0.00  0.00     0.188 C 
ATOM     52  C   LIG d   1       9.147   1.946  -3.975  0.00  0.00     0.134 C 
ATOM     53  C   LIG d   1      10.033   2.996  -3.296  0.00  0.00     0.114 C 
ATOM     54  H   LIG d   1       8.386   1.603  -3.274  0.00  0.00     0.067 H 
ATOM     55  C   LIG d   1      11.047   3.527  -4.314  0.00  0.00     0.110 C 
ATOM     56  H   LIG d   1       9.414   3.817  -2.934  0.00  0.00     0.065 H 
ATOM     57  C   LIG d   1      10.296   4.095  -5.521  0.00  0.00     0.087 C 
ATOM     58  H   LIG d   1      11.699   2.716  -4.638  0.00  0.00     0.065 H 
ATOM     59  H   LIG d   1      11.014   4.435  -6.268  0.00  0.00     0.062 H 
ATOM     60  O   LIG d   1       9.468   3.076  -6.087  0.00  0.00    -0.343 OA
ATOM     61  H   LIG d   1       7.826   3.393  -4.875  0.00  0.00     0.094 H 
BRANCH  52  62
ATOM     62  O   LIG d   1       9.950   0.840  -4.390  0.00  0.00    -0.384 OA
ATOM     63  H   LIG d   1      10.769   0.738  -3.886  0.00  0.00     0.210 HD
ENDBRANCH  52  62
BRANCH  53  64
ATOM     64  O   LIG d   1      10.725   2.399  -2.199  0.00  0.00    -0.386 OA
ATOM     65  H   LIG d   1      10.306   2.551  -1.339  0.00  0.00     0.210 HD
ENDBRANCH  53  64
BRANCH  55  66
ATOM     66  O   LIG d   1      11.831   4.559  -3.712  0.00  0.00    -0.387 OA
ATOM     67  H   LIG d   1      12.642   4.769  -4.194  0.00  0.00     0.210 HD
ENDBRANCH  55  66
BRANCH  57  68
ATOM     68  C   LIG d   1       9.426   5.271  -5.076  0.00  0.00    -0.036 C 
ATOM     69  H   LIG d   1       9.806   6.191  -5.518  0.00  0.00     0.025 H 
ATOM     70  H   LIG d   1       8.399   5.107  -5.403  0.00  0.00     0.025 H 
ATOM     71  H   LIG d   1       9.452   5.352  -3.990  0.00  0.00     0.025 H 
ENDBRANCH  57  68
ENDBRANCH  50  51
ENDBRANCH  47  50
ENDBRANCH   1  47
BRANCH   3  72
ATOM     72  O   LIG d   1       5.186   1.369  -7.902  0.00  0.00    -0.387 OA
ATOM     73  H   LIG d   1       4.593   1.922  -8.428  0.00  0.00     0.210 HD
ENDBRANCH   3  72
TORSDOF 17
ENDMDL
MODEL 2
REMARK VINA RESULT:      -6.9      7.917     12.711
REMARK  17 active torsions:
REMARK  status: ('A' for Active; 'I' for Inactive)
REMARK    1  A    between atoms: C_1  and  C_2 
REMARK    2  A    between atoms: C_4  and  O_53 
REMARK    3  A    between atoms: C_6  and  O_52 
REMARK    4  A    between atoms: C_8  and  O_51 
REMARK    5  A    between atoms: C_10  and  O_13 
REMARK    6  A    between atoms: O_13  and  C_14 
REMARK    7  A    between atoms: C_14  and  C_15 
REMARK    8  A    between atoms: C_17  and  O_50 
REMARK    9  A    between atoms: C_19  and  O_49 
REMARK   10  A    between atoms: C_21  and  O_48 
REMARK   11  A    between atoms: C_23  and  O_26 
REMARK   12  A    between atoms: O_26  and  C_27 
REMARK   13  A    between atoms: C_31  and  O_47 
REMARK   14  A    between atoms: C_33  and  O_46 
REMARK   15  A    between atoms: C_37  and  C_38 
REMARK   16  A    between atoms: C_41  and  O_45 
REMARK   17  A    between atoms: C_42  and  O_44 
ROOT
ATOM      1  C   LIG d   1      12.193   6.926  -3.227  0.00  0.00     0.114 C 
ATOM      2  H   LIG d   1      13.220   7.006  -2.870  0.00  0.00     0.065 H 
ATOM      3  C   LIG d   1      11.710   5.482  -3.073  0.00  0.00     0.112 C 
ATOM      4  H   LIG d   1      12.374   4.813  -3.622  0.00  0.00     0.065 H 
ATOM      5  C   LIG d   1      11.717   5.104  -1.589  0.00  0.00     0.115 C 
ATOM      6  H   LIG d   1      12.737   5.143  -1.206  0.00  0.00     0.065 H 
ATOM      7  C   LIG d   1      10.841   6.095  -0.817  0.00  0.00     0.145 C 
ATOM      8  H   LIG d   1      10.883   5.868   0.248  0.00  0.00     0.068 H 
ATOM      9  C   LIG d   1      11.358   7.516  -1.058  0.00  0.00     0.231 C 
ATOM     10  H   LIG d   1      12.374   7.603  -0.673  0.00  0.00     0.108 H 
ATOM     11  O   LIG d   1      11.355   7.792  -2.460  0.00  0.00    -0.331 OA
ENDROOT
BRANCH   9  12
ATOM     12  O   LIG d   1      10.512   8.452  -0.386  0.00  0.00    -0.453 OA
BRANCH  12  13
ATOM     13  C   LIG d   1      11.123   9.417   0.353  0.00  0.00     0.214 A 
ATOM     14  C   LIG d   1      11.260  10.679  -0.143  0.00  0.00     0.181 A 
ATOM     15  O   LIG d   1      11.851  11.666   0.551  0.00  0.00    -0.451 OA
ATOM     16  C   LIG d   1      12.355  11.477   1.788  0.00  0.00     0.146 A 
ATOM     17  C   LIG d   1      12.271  10.210   2.391  0.00  0.00     0.109 A 
ATOM     18  C   LIG d   1      12.958  12.520   2.475  0.00  0.00     0.023 A 
ATOM     19  C   LIG d   1      11.628   9.117   1.646  0.00  0.00     0.238 A 
ATOM     20  C   LIG d   1      12.792  10.004   3.676  0.00  0.00     0.135 A 
ATOM     21  O   LIG d   1      11.528   7.998   2.122  0.00  0.00    -0.283 OA
ATOM     22  C   LIG d   1      13.388  11.057   4.345  0.00  0.00     0.022 A 
ATOM     23  C   LIG d   1      13.470  12.310   3.746  0.00  0.00     0.124 A 
ATOM     24  H   LIG d   1      13.792  10.906   5.336  0.00  0.00     0.069 H 
ATOM     25  H   LIG d   1      13.028  13.497   2.021  0.00  0.00     0.069 H 
BRANCH  14  26
ATOM     26  C   LIG d   1      10.736  10.972  -1.490  0.00  0.00     0.025 A 
ATOM     27  C   LIG d   1       9.365  11.159  -1.683  0.00  0.00    -0.006 A 
ATOM     28  C   LIG d   1       8.878  11.428  -2.947  0.00  0.00     0.159 A 
ATOM     29  H   LIG d   1       8.685  11.088  -0.845  0.00  0.00     0.066 H 
ATOM     30  C   LIG d   1       9.755  11.525  -4.025  0.00  0.00     0.158 A 
ATOM     31  C   LIG d   1      11.118  11.345  -3.833  0.00  0.00    -0.016 A 
ATOM     32  C   LIG d   1      11.611  11.071  -2.576  0.00  0.00    -0.047 A 
ATOM     33  H   LIG d   1      11.795  11.421  -4.672  0.00  0.00     0.066 H 
ATOM     34  H   LIG d   1      12.672  10.932  -2.429  0.00  0.00     0.063 H 
BRANCH  28  35
ATOM     35  O   LIG d   1       7.544  11.605  -3.139  0.00  0.00    -0.503 OA
ATOM     36  H   LIG d   1       7.022  11.572  -2.325  0.00  0.00     0.292 HD
ENDBRANCH  28  35
BRANCH  30  37
ATOM     37  O   LIG d   1       9.276  11.795  -5.268  0.00  0.00    -0.503 OA
ATOM     38  H   LIG d   1       8.830  12.651  -5.339  0.00  0.00     0.292 HD
ENDBRANCH  30  37
ENDBRANCH  14  26
BRANCH  20  39
ATOM     39  O   LIG d   1      12.712   8.781   4.260  0.00  0.00    -0.506 OA
ATOM     40  H   LIG d   1      12.151   8.155   3.782  0.00  0.00     0.292 HD
ENDBRANCH  20  39
BRANCH  23  41
ATOM     41  O   LIG d   1      14.057  13.336   4.413  0.00  0.00    -0.506 OA
ATOM     42  H   LIG d   1      13.532  13.681   5.146  0.00  0.00     0.292 HD
ENDBRANCH  23  41
ENDBRANCH  12  13
ENDBRANCH   9  12
BRANCH   7  43
ATOM     43  O   LIG d   1       9.490   5.996  -1.273  0.00  0.00    -0.383 OA
ATOM     44  H   LIG d   1       9.235   6.686  -1.901  0.00  0.00     0.210 HD
ENDBRANCH   7  43
BRANCH   5  45
ATOM     45  O   LIG d   1      11.197   3.782  -1.429  0.00  0.00    -0.386 OA
ATOM     46  H   LIG d   1      10.235   3.724  -1.520  0.00  0.00     0.210 HD
ENDBRANCH   5  45
BRANCH   1  47
ATOM     47  C   LIG d   1      12.132   7.330  -4.701  0.00  0.00     0.080 C 
ATOM     48  H   LIG d   1      12.949   8.016  -4.924  0.00  0.00     0.059 H 
ATOM     49  H   LIG d   1      12.224   6.441  -5.325  0.00  0.00     0.059 H 
BRANCH  47  50
ATOM     50  O   LIG d   1      10.884   7.973  -4.967  0.00  0.00    -0.346 OA
BRANCH  50  51
ATOM     51  C   LIG d   1      10.240   7.521  -6.161  0.00  0.00     0.188 C 
ATOM     52  C   LIG d   1       9.504   8.691  -6.818  0.00  0.00     0.134 C 
ATOM     53  C   LIG d   1       8.868   8.214  -8.127  0.00  0.00     0.114 C 
ATOM     54  H   LIG d   1       8.726   9.054  -6.146  0.00  0.00     0.067 H 
ATOM     55  C   LIG d   1       9.961   7.634  -9.031  0.00  0.00     0.110 C 
ATOM     56  H   LIG d   1       8.124   7.445  -7.914  0.00  0.00     0.065 H 
ATOM     57  C   LIG d   1      10.679   6.504  -8.288  0.00  0.00     0.087 C 
ATOM     58  H   LIG d   1      10.676   8.416  -9.287  0.00  0.00     0.065 H 
ATOM     59  H   LIG d   1      11.486   6.117  -8.910  0.00  0.00     0.062 H 
ATOM     60  O   LIG d   1      11.221   7.010  -7.066  0.00  0.00    -0.343 OA
ATOM     61  H   LIG d   1       9.528   6.734  -5.915  0.00  0.00     0.094 H 
BRANCH  52  62
ATOM     62  O   LIG d   1      10.428   9.745  -7.093  0.00  0.00    -0.384 OA
ATOM     63  H   LIG d   1      10.112  10.622  -6.839  0.00  0.00     0.210 HD
ENDBRANCH  52  62
BRANCH  53  64
ATOM     64  O   LIG d   1       8.240   9.316  -8.784  0.00  0.00    -0.386 OA
ATOM     65  H   LIG d   1       8.025   9.151  -9.713  0.00  0.00     0.210 HD
ENDBRANCH  53  64
BRANCH  55  66
ATOM     66  O   LIG d   1       9.369   7.119 -10.224  0.00  0.00    -0.387 OA
ATOM     67  H   LIG d   1       8.606   7.625 -10.536  0.00  0.00     0.210 HD
ENDBRANCH  55  66
BRANCH  57  68
ATOM     68  C   LIG d   1       9.687   5.381  -7.981  0.00  0.00    -0.036 C 
ATOM     69  H   LIG d   1       8.770   5.542  -8.549  0.00  0.00     0.025 H 
ATOM     70  H   LIG d   1      10.125   4.423  -8.261  0.00  0.00     0.025 H 
ATOM     71  H   LIG d   1       9.459   5.379  -6.916  0.00  0.00     0.025 H 
ENDBRANCH  57  68
ENDBRANCH  50  51
ENDBRANCH  47  50
ENDBRANCH   1  47
BRANCH   3  72
ATOM     72  O   LIG d   1      10.382   5.365  -3.589  0.00  0.00    -0.387 OA
ATOM     73  H   LIG d   1       9.780   6.058  -3.287  0.00  0.00     0.210 HD
ENDBRANCH   3  72
TORSDOF 17
ENDMDL
MODEL 3
REMARK VINA RESULT:      -6.8      3.496      9.314
REMARK  17 active torsions:
REMARK  status: ('A' for Active; 'I' for Inactive)
REMARK    1  A    between atoms: C_1  and  C_2 
REMARK    2  A    between atoms: C_4  and  O_53 
REMARK    3  A    between atoms: C_6  and  O_52 
REMARK    4  A    between atoms: C_8  and  O_51 
REMARK    5  A    between atoms: C_10  and  O_13 
REMARK    6  A    between atoms: O_13  and  C_14 
REMARK    7  A    between atoms: C_14  and  C_15 
REMARK    8  A    between atoms: C_17  and  O_50 
REMARK    9  A    between atoms: C_19  and  O_49 
REMARK   10  A    between atoms: C_21  and  O_48 
REMARK   11  A    between atoms: C_23  and  O_26 
REMARK   12  A    between atoms: O_26  and  C_27 
REMARK   13  A    between atoms: C_31  and  O_47 
REMARK   14  A    between atoms: C_33  and  O_46 
REMARK   15  A    between atoms: C_37  and  C_38 
REMARK   16  A    between atoms: C_41  and  O_45 
REMARK   17  A    between atoms: C_42  and  O_44 
ROOT
ATOM      1  C   LIG d   1       8.574   2.185  -6.395  0.00  0.00     0.114 C 
ATOM      2  H   LIG d   1       7.699   2.755  -6.080  0.00  0.00     0.065 H 
ATOM      3  C   LIG d   1       8.576   2.056  -7.920  0.00  0.00     0.112 C 
ATOM      4  H   LIG d   1       7.653   1.579  -8.249  0.00  0.00     0.065 H 
ATOM      5  C   LIG d   1       8.681   3.451  -8.543  0.00  0.00     0.115 C 
ATOM      6  H   LIG d   1       7.805   4.040  -8.273  0.00  0.00     0.065 H 
ATOM      7  C   LIG d   1       9.943   4.140  -8.017  0.00  0.00     0.145 C 
ATOM      8  H   LIG d   1       9.998   5.155  -8.411  0.00  0.00     0.068 H 
ATOM      9  C   LIG d   1       9.888   4.189  -6.487  0.00  0.00     0.231 C 
ATOM     10  H   LIG d   1       9.031   4.785  -6.174  0.00  0.00     0.108 H 
ATOM     11  O   LIG d   1       9.759   2.862  -5.973  0.00  0.00    -0.331 OA
ENDROOT
BRANCH   9  12
ATOM     12  O   LIG d   1      11.089   4.781  -5.986  0.00  0.00    -0.453 OA
BRANCH  12  13
ATOM     13  C   LIG d   1      10.968   5.603  -4.908  0.00  0.00     0.214 A 
ATOM     14  C   LIG d   1      10.754   6.938  -5.084  0.00  0.00     0.181 A 
ATOM     15  O   LIG d   1      10.623   7.789  -4.052  0.00  0.00    -0.451 OA
ATOM     16  C   LIG d   1      10.700   7.382  -2.767  0.00  0.00     0.146 A 
ATOM     17  C   LIG d   1      10.926   6.026  -2.475  0.00  0.00     0.109 A 
ATOM     18  C   LIG d   1      10.561   8.289  -1.727  0.00  0.00     0.023 A 
ATOM     19  C   LIG d   1      11.072   5.080  -3.593  0.00  0.00     0.238 A 
ATOM     20  C   LIG d   1      11.008   5.595  -1.144  0.00  0.00     0.135 A 
ATOM     21  O   LIG d   1      11.269   3.892  -3.397  0.00  0.00    -0.283 OA
ATOM     22  C   LIG d   1      10.865   6.514  -0.121  0.00  0.00     0.022 A 
ATOM     23  C   LIG d   1      10.642   7.856  -0.413  0.00  0.00     0.124 A 
ATOM     24  H   LIG d   1      10.927   6.189   0.907  0.00  0.00     0.069 H 
ATOM     25  H   LIG d   1      10.387   9.333  -1.941  0.00  0.00     0.069 H 
BRANCH  14  26
ATOM     26  C   LIG d   1      10.656   7.466  -6.456  0.00  0.00     0.025 A 
ATOM     27  C   LIG d   1       9.444   7.984  -6.923  0.00  0.00    -0.006 A 
ATOM     28  C   LIG d   1       9.355   8.473  -8.212  0.00  0.00     0.159 A 
ATOM     29  H   LIG d   1       8.577   7.999  -6.278  0.00  0.00     0.066 H 
ATOM     30  C   LIG d   1      10.476   8.460  -9.040  0.00  0.00     0.158 A 
ATOM     31  C   LIG d   1      11.680   7.951  -8.576  0.00  0.00    -0.016 A 
ATOM     32  C   LIG d   1      11.775   7.456  -7.293  0.00  0.00    -0.047 A 
ATOM     33  H   LIG d   1      12.547   7.943  -9.222  0.00  0.00     0.066 H 
ATOM     34  H   LIG d   1      12.714   7.061  -6.934  0.00  0.00     0.063 H 
BRANCH  28  35
ATOM     35  O   LIG d   1       8.177   8.974  -8.670  0.00  0.00    -0.503 OA
ATOM     36  H   LIG d   1       8.182   9.932  -8.801  0.00  0.00     0.292 HD
ENDBRANCH  28  35
BRANCH  30  37
ATOM     37  O   LIG d   1      10.388   8.947 -10.306  0.00  0.00    -0.503 OA
ATOM     38  H   LIG d   1       9.607   8.646 -10.790  0.00  0.00     0.292 HD
ENDBRANCH  30  37
ENDBRANCH  14  26
BRANCH  20  39
ATOM     39  O   LIG d   1      11.226   4.286  -0.861  0.00  0.00    -0.506 OA
ATOM     40  H   LIG d   1      11.182   3.705  -1.632  0.00  0.00     0.292 HD
ENDBRANCH  20  39
BRANCH  23  41
ATOM     41  O   LIG d   1      10.502   8.749   0.600  0.00  0.00    -0.506 OA
ATOM     42  H   LIG d   1       9.614   8.780   0.978  0.00  0.00     0.292 HD
ENDBRANCH  23  41
ENDBRANCH  12  13
ENDBRANCH   9  12
BRANCH   7  43
ATOM     43  O   LIG d   1      11.097   3.404  -8.429  0.00  0.00    -0.383 OA
ATOM     44  H   LIG d   1      11.600   3.826  -9.140  0.00  0.00     0.210 HD
ENDBRANCH   7  43
BRANCH   5  45
ATOM     45  O   LIG d   1       8.759   3.335  -9.966  0.00  0.00    -0.386 OA
ATOM     46  H   LIG d   1       9.657   3.205 -10.301  0.00  0.00     0.210 HD
ENDBRANCH   5  45
BRANCH   1  47
ATOM     47  C   LIG d   1       8.530   0.793  -5.765  0.00  0.00     0.080 C 
ATOM     48  H   LIG d   1       8.002   0.109  -6.430  0.00  0.00     0.059 H 
ATOM     49  H   LIG d   1       9.547   0.433  -5.607  0.00  0.00     0.059 H 
BRANCH  47  50
ATOM     50  O   LIG d   1       7.847   0.859  -4.510  0.00  0.00    -0.346 OA
BRANCH  50  51
ATOM     51  C   LIG d   1       6.765  -0.066  -4.388  0.00  0.00     0.188 C 
ATOM     52  C   LIG d   1       6.172   0.025  -2.980  0.00  0.00     0.134 C 
ATOM     53  C   LIG d   1       4.975  -0.925  -2.875  0.00  0.00     0.114 C 
ATOM     54  H   LIG d   1       6.928  -0.260  -2.248  0.00  0.00     0.067 H 
ATOM     55  C   LIG d   1       3.955  -0.564  -3.960  0.00  0.00     0.110 C 
ATOM     56  H   LIG d   1       5.310  -1.953  -3.017  0.00  0.00     0.065 H 
ATOM     57  C   LIG d   1       4.633  -0.633  -5.330  0.00  0.00     0.087 C 
ATOM     58  H   LIG d   1       3.581   0.446  -3.788  0.00  0.00     0.065 H 
ATOM     59  H   LIG d   1       3.924  -0.334  -6.102  0.00  0.00     0.062 H 
ATOM     60  O   LIG d   1       5.756   0.252  -5.349  0.00  0.00    -0.343 OA
ATOM     61  H   LIG d   1       7.129  -1.078  -4.565  0.00  0.00     0.094 H 
BRANCH  52  62
ATOM     62  O   LIG d   1       5.743   1.364  -2.727  0.00  0.00    -0.384 OA
ATOM     63  H   LIG d   1       5.439   1.515  -1.822  0.00  0.00     0.210 HD
ENDBRANCH  52  62
BRANCH  53  64
ATOM     64  O   LIG d   1       4.371  -0.793  -1.588  0.00  0.00    -0.386 OA
ATOM     65  H   LIG d   1       4.631  -1.480  -0.958  0.00  0.00     0.210 HD
ENDBRANCH  53  64
BRANCH  55  66
ATOM     66  O   LIG d   1       2.867  -1.489  -3.919  0.00  0.00    -0.387 OA
ATOM     67  H   LIG d   1       2.001  -1.074  -3.803  0.00  0.00     0.210 HD
ENDBRANCH  55  66
BRANCH  57  68
ATOM     68  C   LIG d   1       5.105  -2.063  -5.596  0.00  0.00    -0.036 C 
ATOM     69  H   LIG d   1       5.250  -2.205  -6.666  0.00  0.00     0.025 H 
ATOM     70  H   LIG d   1       6.047  -2.237  -5.075  0.00  0.00     0.025 H 
ATOM     71  H   LIG d   1       4.356  -2.767  -5.234  0.00  0.00     0.025 H 
ENDBRANCH  57  68
ENDBRANCH  50  51
ENDBRANCH  47  50
ENDBRANCH   1  47
BRANCH   3  72
ATOM     72  O   LIG d   1       9.694   1.265  -8.331  0.00  0.00    -0.387 OA
ATOM     73  H   LIG d   1       9.680   0.359  -7.994  0.00  0.00     0.210 HD
ENDBRANCH   3  72
TORSDOF 17
ENDMDL
MODEL 4
REMARK VINA RESULT:      -6.7      1.739      1.902
REMARK  17 active torsions:
REMARK  status: ('A' for Active; 'I' for Inactive)
REMARK    1  A    between atoms: C_1  and  C_2 
REMARK    2  A    between atoms: C_4  and  O_53 
REMARK    3  A    between atoms: C_6  and  O_52 
REMARK    4  A    between atoms: C_8  and  O_51 
REMARK    5  A    between atoms: C_10  and  O_13 
REMARK    6  A    between atoms: O_13  and  C_14 
REMARK    7  A    between atoms: C_14  and  C_15 
REMARK    8  A    between atoms: C_17  and  O_50 
REMARK    9  A    between atoms: C_19  and  O_49 
REMARK   10  A    between atoms: C_21  and  O_48 
REMARK   11  A    between atoms: C_23  and  O_26 
REMARK   12  A    between atoms: O_26  and  C_27 
REMARK   13  A    between atoms: C_31  and  O_47 
REMARK   14  A    between atoms: C_33  and  O_46 
REMARK   15  A    between atoms: C_37  and  C_38 
REMARK   16  A    between atoms: C_41  and  O_45 
REMARK   17  A    between atoms: C_42  and  O_44 
ROOT
ATOM      1  C   LIG d   1       6.507  -0.885  -8.082  0.00  0.00     0.114 C 
ATOM      2  H   LIG d   1       6.789  -1.622  -8.835  0.00  0.00     0.065 H 
ATOM      3  C   LIG d   1       5.175  -0.240  -8.473  0.00  0.00     0.112 C 
ATOM      4  H   LIG d   1       5.263   0.214  -9.460  0.00  0.00     0.065 H 
ATOM      5  C   LIG d   1       4.085  -1.316  -8.500  0.00  0.00     0.115 C 
ATOM      6  H   LIG d   1       4.319  -2.056  -9.266  0.00  0.00     0.065 H 
ATOM      7  C   LIG d   1       4.021  -1.998  -7.131  0.00  0.00     0.145 C 
ATOM      8  H   LIG d   1       3.286  -2.802  -7.156  0.00  0.00     0.068 H 
ATOM      9  C   LIG d   1       5.398  -2.575  -6.792  0.00  0.00     0.231 C 
ATOM     10  H   LIG d   1       5.664  -3.334  -7.527  0.00  0.00     0.108 H 
ATOM     11  O   LIG d   1       6.371  -1.528  -6.814  0.00  0.00    -0.331 OA
ENDROOT
BRANCH   9  12
ATOM     12  O   LIG d   1       5.361  -3.164  -5.490  0.00  0.00    -0.453 OA
BRANCH  12  13
ATOM     13  C   LIG d   1       6.557  -3.443  -4.905  0.00  0.00     0.214 A 
ATOM     14  C   LIG d   1       6.973  -2.732  -3.819  0.00  0.00     0.181 A 
ATOM     15  O   LIG d   1       8.142  -2.975  -3.203  0.00  0.00    -0.451 OA
ATOM     16  C   LIG d   1       8.991  -3.937  -3.620  0.00  0.00     0.146 A 
ATOM     17  C   LIG d   1       8.661  -4.725  -4.736  0.00  0.00     0.109 A 
ATOM     18  C   LIG d   1      10.190  -4.159  -2.960  0.00  0.00     0.023 A 
ATOM     19  C   LIG d   1       7.385  -4.473  -5.423  0.00  0.00     0.238 A 
ATOM     20  C   LIG d   1       9.538  -5.727  -5.177  0.00  0.00     0.135 A 
ATOM     21  O   LIG d   1       7.048  -5.128  -6.396  0.00  0.00    -0.283 OA
ATOM     22  C   LIG d   1      10.727  -5.933  -4.504  0.00  0.00     0.022 A 
ATOM     23  C   LIG d   1      11.052  -5.152  -3.400  0.00  0.00     0.124 A 
ATOM     24  H   LIG d   1      11.407  -6.704  -4.838  0.00  0.00     0.069 H 
ATOM     25  H   LIG d   1      10.453  -3.560  -2.101  0.00  0.00     0.069 H 
BRANCH  14  26
ATOM     26  C   LIG d   1       6.104  -1.662  -3.297  0.00  0.00     0.025 A 
ATOM     27  C   LIG d   1       6.459  -0.321  -3.476  0.00  0.00    -0.006 A 
ATOM     28  C   LIG d   1       5.645   0.679  -2.980  0.00  0.00     0.159 A 
ATOM     29  H   LIG d   1       7.370  -0.068  -3.997  0.00  0.00     0.066 H 
ATOM     30  C   LIG d   1       4.466   0.350  -2.313  0.00  0.00     0.158 A 
ATOM     31  C   LIG d   1       4.110  -0.981  -2.140  0.00  0.00    -0.016 A 
ATOM     32  C   LIG d   1       4.920  -1.983  -2.627  0.00  0.00    -0.047 A 
ATOM     33  H   LIG d   1       3.195  -1.231  -1.622  0.00  0.00     0.066 H 
ATOM     34  H   LIG d   1       4.641  -3.018  -2.491  0.00  0.00     0.063 H 
BRANCH  28  35
ATOM     35  O   LIG d   1       5.989   1.983  -3.148  0.00  0.00    -0.503 OA
ATOM     36  H   LIG d   1       6.943   2.145  -3.112  0.00  0.00     0.292 HD
ENDBRANCH  28  35
BRANCH  30  37
ATOM     37  O   LIG d   1       3.663   1.335  -1.831  0.00  0.00    -0.503 OA
ATOM     38  H   LIG d   1       3.757   2.179  -2.292  0.00  0.00     0.292 HD
ENDBRANCH  30  37
ENDBRANCH  14  26
BRANCH  20  39
ATOM     39  O   LIG d   1       9.220  -6.488  -6.254  0.00  0.00    -0.506 OA
ATOM     40  H   LIG d   1       9.659  -7.350  -6.269  0.00  0.00     0.292 HD
ENDBRANCH  20  39
BRANCH  23  41
ATOM     41  O   LIG d   1      12.223  -5.365  -2.747  0.00  0.00    -0.506 OA
ATOM     42  H   LIG d   1      12.927  -5.718  -3.306  0.00  0.00     0.292 HD
ENDBRANCH  23  41
ENDBRANCH  12  13
ENDBRANCH   9  12
BRANCH   7  43
ATOM     43  O   LIG d   1       3.647  -1.041  -6.137  0.00  0.00    -0.383 OA
ATOM     44  H   LIG d   1       3.445  -0.164  -6.491  0.00  0.00     0.210 HD
ENDBRANCH   7  43
BRANCH   5  45
ATOM     45  O   LIG d   1       2.823  -0.710  -8.792  0.00  0.00    -0.386 OA
ATOM     46  H   LIG d   1       2.206  -1.292  -9.258  0.00  0.00     0.210 HD
ENDBRANCH   5  45
BRANCH   1  47
ATOM     47  C   LIG d   1       7.589   0.193  -7.995  0.00  0.00     0.080 C 
ATOM     48  H   LIG d   1       8.521  -0.193  -8.407  0.00  0.00     0.059 H 
ATOM     49  H   LIG d   1       7.275   1.069  -8.563  0.00  0.00     0.059 H 
BRANCH  47  50
ATOM     50  O   LIG d   1       7.788   0.558  -6.627  0.00  0.00    -0.346 OA
BRANCH  50  51
ATOM     51  C   LIG d   1       9.154   0.794  -6.281  0.00  0.00     0.188 C 
ATOM     52  C   LIG d   1       9.630  -0.290  -5.311  0.00  0.00     0.134 C 
ATOM     53  C   LIG d   1      11.111  -0.064  -4.993  0.00  0.00     0.114 C 
ATOM     54  H   LIG d   1       9.048  -0.235  -4.391  0.00  0.00     0.067 H 
ATOM     55  C   LIG d   1      11.909  -0.065  -6.301  0.00  0.00     0.110 C 
ATOM     56  H   LIG d   1      11.236   0.895  -4.489  0.00  0.00     0.065 H 
ATOM     57  C   LIG d   1      11.345   1.010  -7.233  0.00  0.00     0.087 C 
ATOM     58  H   LIG d   1      11.827  -1.042  -6.778  0.00  0.00     0.065 H 
ATOM     59  H   LIG d   1      11.881   0.986  -8.182  0.00  0.00     0.062 H 
ATOM     60  O   LIG d   1       9.957   0.758  -7.463  0.00  0.00    -0.343 OA
ATOM     61  H   LIG d   1       9.246   1.772  -5.809  0.00  0.00     0.094 H 
BRANCH  52  62
ATOM     62  O   LIG d   1       9.461  -1.576  -5.909  0.00  0.00    -0.384 OA
ATOM     63  H   LIG d   1      10.082  -1.760  -6.627  0.00  0.00     0.210 HD
ENDBRANCH  52  62
BRANCH  53  64
ATOM     64  O   LIG d   1      11.583  -1.113  -4.145  0.00  0.00    -0.386 OA
ATOM     65  H   LIG d   1      12.128  -1.771  -4.598  0.00  0.00     0.210 HD
ENDBRANCH  53  64
BRANCH  55  66
ATOM     66  O   LIG d   1      13.282   0.217  -6.022  0.00  0.00    -0.387 OA
ATOM     67  H   LIG d   1      13.489   0.274  -5.079  0.00  0.00     0.210 HD
ENDBRANCH  55  66
BRANCH  57  68
ATOM     68  C   LIG d   1      11.514   2.387  -6.587  0.00  0.00    -0.036 C 
ATOM     69  H   LIG d   1      10.834   2.476  -5.740  0.00  0.00     0.025 H 
ATOM     70  H   LIG d   1      12.542   2.503  -6.242  0.00  0.00     0.025 H 
ATOM     71  H   LIG d   1      11.287   3.162  -7.318  0.00  0.00     0.025 H 
ENDBRANCH  57  68
ENDBRANCH  50  51
ENDBRANCH  47  50
ENDBRANCH   1  47
BRANCH   3  72
ATOM     72  O   LIG d   1       4.831   0.763  -7.515  0.00  0.00    -0.387 OA
ATOM     73  H   LIG d   1       5.485   1.470  -7.433  0.00  0.00     0.210 HD
ENDBRANCH   3  72
TORSDOF 17
ENDMDL
MODEL 5
REMARK VINA RESULT:      -6.7      2.699      8.028
REMARK  17 active torsions:
REMARK  status: ('A' for Active; 'I' for Inactive)
REMARK    1  A    between atoms: C_1  and  C_2 
REMARK    2  A    between atoms: C_4  and  O_53 
REMARK    3  A    between atoms: C_6  and  O_52 
REMARK    4  A    between atoms: C_8  and  O_51 
REMARK    5  A    between atoms: C_10  and  O_13 
REMARK    6  A    between atoms: O_13  and  C_14 
REMARK    7  A    between atoms: C_14  and  C_15 
REMARK    8  A    between atoms: C_17  and  O_50 
REMARK    9  A    between atoms: C_19  and  O_49 
REMARK   10  A    between atoms: C_21  and  O_48 
REMARK   11  A    between atoms: C_23  and  O_26 
REMARK   12  A    between atoms: O_26  and  C_27 
REMARK   13  A    between atoms: C_31  and  O_47 
REMARK   14  A    between atoms: C_33  and  O_46 
REMARK   15  A    between atoms: C_37  and  C_38 
REMARK   16  A    between atoms: C_41  and  O_45 
REMARK   17  A    between atoms: C_42  and  O_44 
ROOT
ATOM      1  C   LIG d   1       8.538  -2.193  -6.809  0.00  0.00     0.114 C 
ATOM      2  H   LIG d   1       8.989  -1.962  -7.775  0.00  0.00     0.065 H 
ATOM      3  C   LIG d   1       9.533  -1.869  -5.691  0.00  0.00     0.112 C 
ATOM      4  H   LIG d   1      10.453  -2.434  -5.845  0.00  0.00     0.065 H 
ATOM      5  C   LIG d   1       9.843  -0.370  -5.713  0.00  0.00     0.115 C 
ATOM      6  H   LIG d   1      10.324  -0.108  -6.655  0.00  0.00     0.065 H 
ATOM      7  C   LIG d   1       8.534   0.413  -5.571  0.00  0.00     0.145 C 
ATOM      8  H   LIG d   1       8.738   1.482  -5.640  0.00  0.00     0.068 H 
ATOM      9  C   LIG d   1       7.578   0.001  -6.694  0.00  0.00     0.231 C 
ATOM     10  H   LIG d   1       8.016   0.261  -7.657  0.00  0.00     0.108 H 
ATOM     11  O   LIG d   1       7.356  -1.409  -6.636  0.00  0.00    -0.331 OA
ENDROOT
BRANCH   9  12
ATOM     12  O   LIG d   1       6.334   0.687  -6.536  0.00  0.00    -0.453 OA
BRANCH  12  13
ATOM     13  C   LIG d   1       5.286   0.244  -7.282  0.00  0.00     0.214 A 
ATOM     14  C   LIG d   1       4.264  -0.440  -6.694  0.00  0.00     0.181 A 
ATOM     15  O   LIG d   1       3.206  -0.893  -7.387  0.00  0.00    -0.451 OA
ATOM     16  C   LIG d   1       3.082  -0.706  -8.718  0.00  0.00     0.146 A 
ATOM     17  C   LIG d   1       4.084  -0.017  -9.424  0.00  0.00     0.109 A 
ATOM     18  C   LIG d   1       1.975  -1.187  -9.401  0.00  0.00     0.023 A 
ATOM     19  C   LIG d   1       5.250   0.485  -8.680  0.00  0.00     0.238 A 
ATOM     20  C   LIG d   1       3.963   0.181 -10.806  0.00  0.00     0.135 A 
ATOM     21  O   LIG d   1       6.148   1.089  -9.243  0.00  0.00    -0.283 OA
ATOM     22  C   LIG d   1       2.851  -0.305 -11.469  0.00  0.00     0.022 A 
ATOM     23  C   LIG d   1       1.862  -0.986 -10.768  0.00  0.00     0.124 A 
ATOM     24  H   LIG d   1       2.752  -0.155 -12.534  0.00  0.00     0.069 H 
ATOM     25  H   LIG d   1       1.200  -1.717  -8.869  0.00  0.00     0.069 H 
BRANCH  14  26
ATOM     26  C   LIG d   1       4.320  -0.688  -5.241  0.00  0.00     0.025 A 
ATOM     27  C   LIG d   1       3.840   0.273  -4.347  0.00  0.00    -0.006 A 
ATOM     28  C   LIG d   1       3.900   0.039  -2.987  0.00  0.00     0.159 A 
ATOM     29  H   LIG d   1       3.427   1.200  -4.719  0.00  0.00     0.066 H 
ATOM     30  C   LIG d   1       4.427  -1.160  -2.510  0.00  0.00     0.158 A 
ATOM     31  C   LIG d   1       4.898  -2.117  -3.397  0.00  0.00    -0.016 A 
ATOM     32  C   LIG d   1       4.847  -1.888  -4.755  0.00  0.00    -0.047 A 
ATOM     33  H   LIG d   1       5.306  -3.045  -3.022  0.00  0.00     0.066 H 
ATOM     34  H   LIG d   1       5.214  -2.635  -5.443  0.00  0.00     0.063 H 
BRANCH  28  35
ATOM     35  O   LIG d   1       3.438   0.974  -2.115  0.00  0.00    -0.503 OA
ATOM     36  H   LIG d   1       3.427   1.873  -2.472  0.00  0.00     0.292 HD
ENDBRANCH  28  35
BRANCH  30  37
ATOM     37  O   LIG d   1       4.479  -1.391  -1.171  0.00  0.00    -0.503 OA
ATOM     38  H   LIG d   1       3.685  -1.812  -0.814  0.00  0.00     0.292 HD
ENDBRANCH  30  37
ENDBRANCH  14  26
BRANCH  20  39
ATOM     39  O   LIG d   1       4.930   0.846 -11.489  0.00  0.00    -0.506 OA
ATOM     40  H   LIG d   1       4.621   1.256 -12.308  0.00  0.00     0.292 HD
ENDBRANCH  20  39
BRANCH  23  41
ATOM     41  O   LIG d   1       0.775  -1.458 -11.430  0.00  0.00    -0.506 OA
ATOM     42  H   LIG d   1       0.273  -0.779 -11.899  0.00  0.00     0.292 HD
ENDBRANCH  23  41
ENDBRANCH  12  13
ENDBRANCH   9  12
BRANCH   7  43
ATOM     43  O   LIG d   1       7.937   0.122  -4.305  0.00  0.00    -0.383 OA
ATOM     44  H   LIG d   1       7.571   0.896  -3.855  0.00  0.00     0.210 HD
ENDBRANCH   7  43
BRANCH   5  45
ATOM     45  O   LIG d   1      10.713  -0.046  -4.625  0.00  0.00    -0.386 OA
ATOM     46  H   LIG d   1      10.369  -0.299  -3.757  0.00  0.00     0.210 HD
ENDBRANCH   5  45
BRANCH   1  47
ATOM     47  C   LIG d   1       8.178  -3.678  -6.757  0.00  0.00     0.080 C 
ATOM     48  H   LIG d   1       9.080  -4.266  -6.587  0.00  0.00     0.059 H 
ATOM     49  H   LIG d   1       7.472  -3.853  -5.944  0.00  0.00     0.059 H 
BRANCH  47  50
ATOM     50  O   LIG d   1       7.581  -4.068  -7.997  0.00  0.00    -0.346 OA
BRANCH  50  51
ATOM     51  C   LIG d   1       6.623  -5.121  -7.875  0.00  0.00     0.188 C 
ATOM     52  C   LIG d   1       5.362  -4.587  -7.192  0.00  0.00     0.134 C 
ATOM     53  C   LIG d   1       4.317  -5.705  -7.120  0.00  0.00     0.114 C 
ATOM     54  H   LIG d   1       5.608  -4.253  -6.184  0.00  0.00     0.067 H 
ATOM     55  C   LIG d   1       4.038  -6.220  -8.536  0.00  0.00     0.110 C 
ATOM     56  H   LIG d   1       4.696  -6.521  -6.503  0.00  0.00     0.065 H 
ATOM     57  C   LIG d   1       5.351  -6.692  -9.166  0.00  0.00     0.087 C 
ATOM     58  H   LIG d   1       3.611  -5.419  -9.138  0.00  0.00     0.065 H 
ATOM     59  H   LIG d   1       5.166  -7.019 -10.190  0.00  0.00     0.062 H 
ATOM     60  O   LIG d   1       6.288  -5.612  -9.175  0.00  0.00    -0.343 OA
ATOM     61  H   LIG d   1       7.045  -5.930  -7.279  0.00  0.00     0.094 H 
BRANCH  52  62
ATOM     62  O   LIG d   1       4.837  -3.492  -7.945  0.00  0.00    -0.384 OA
ATOM     63  H   LIG d   1       5.256  -2.643  -7.748  0.00  0.00     0.210 HD
ENDBRANCH  52  62
BRANCH  53  64
ATOM     64  O   LIG d   1       3.110  -5.197  -6.550  0.00  0.00    -0.386 OA
ATOM     65  H   LIG d   1       2.398  -5.849  -6.488  0.00  0.00     0.210 HD
ENDBRANCH  53  64
BRANCH  55  66
ATOM     66  O   LIG d   1       3.120  -7.313  -8.473  0.00  0.00    -0.387 OA
ATOM     67  H   LIG d   1       3.241  -7.970  -9.173  0.00  0.00     0.210 HD
ENDBRANCH  55  66
BRANCH  57  68
ATOM     68  C   LIG d   1       5.920  -7.856  -8.353  0.00  0.00    -0.036 C 
ATOM     69  H   LIG d   1       5.118  -8.547  -8.099  0.00  0.00     0.025 H 
ATOM     70  H   LIG d   1       6.676  -8.375  -8.943  0.00  0.00     0.025 H 
ATOM     71  H   LIG d   1       6.374  -7.473  -7.439  0.00  0.00     0.025 H 
ENDBRANCH  57  68
ENDBRANCH  50  51
ENDBRANCH  47  50
ENDBRANCH   1  47
BRANCH   3  72
ATOM     72  O   LIG d   1       8.963  -2.221  -4.428  0.00  0.00    -0.387 OA
ATOM     73  H   LIG d   1       8.215  -2.830  -4.490  0.00  0.00     0.210 HD
ENDBRANCH   3  72
TORSDOF 17
ENDMDL
MODEL 6
REMARK VINA RESULT:      -6.6      3.738     10.388
REMARK  17 active torsions:
REMARK  status: ('A' for Active; 'I' for Inactive)
REMARK    1  A    between atoms: C_1  and  C_2 
REMARK    2  A    between atoms: C_4  and  O_53 
REMARK    3  A    between atoms: C_6  and  O_52 
REMARK    4  A    between atoms: C_8  and  O_51 
REMARK    5  A    between atoms: C_10  and  O_13 
REMARK    6  A    between atoms: O_13  and  C_14 
REMARK    7  A    between atoms: C_14  and  C_15 
REMARK    8  A    between atoms: C_17  and  O_50 
REMARK    9  A    between atoms: C_19  and  O_49 
REMARK   10  A    between atoms: C_21  and  O_48 
REMARK   11  A    between atoms: C_23  and  O_26 
REMARK   12  A    between atoms: O_26  and  C_27 
REMARK   13  A    between atoms: C_31  and  O_47 
REMARK   14  A    between atoms: C_33  and  O_46 
REMARK   15  A    between atoms: C_37  and  C_38 
REMARK   16  A    between atoms: C_41  and  O_45 
REMARK   17  A    between atoms: C_42  and  O_44 
ROOT
ATOM      1  C   LIG d   1       9.465   2.681  -5.387  0.00  0.00     0.114 C 
ATOM      2  H   LIG d   1      10.005   2.870  -6.315  0.00  0.00     0.065 H 
ATOM      3  C   LIG d   1      10.392   1.981  -4.391  0.00  0.00     0.112 C 
ATOM      4  H   LIG d   1      10.768   1.055  -4.828  0.00  0.00     0.065 H 
ATOM      5  C   LIG d   1      11.568   2.905  -4.063  0.00  0.00     0.115 C 
ATOM      6  H   LIG d   1      12.150   3.092  -4.966  0.00  0.00     0.065 H 
ATOM      7  C   LIG d   1      11.026   4.230  -3.520  0.00  0.00     0.145 C 
ATOM      8  H   LIG d   1      11.853   4.916  -3.335  0.00  0.00     0.068 H 
ATOM      9  C   LIG d   1      10.074   4.844  -4.550  0.00  0.00     0.231 C 
ATOM     10  H   LIG d   1      10.622   5.062  -5.466  0.00  0.00     0.108 H 
ATOM     11  O   LIG d   1       9.021   3.920  -4.833  0.00  0.00    -0.331 OA
ENDROOT
BRANCH   9  12
ATOM     12  O   LIG d   1       9.520   6.053  -4.027  0.00  0.00    -0.453 OA
BRANCH  12  13
ATOM     13  C   LIG d   1      10.062   7.221  -4.466  0.00  0.00     0.214 A 
ATOM     14  C   LIG d   1      10.812   7.989  -3.626  0.00  0.00     0.181 A 
ATOM     15  O   LIG d   1      11.372   9.147  -4.015  0.00  0.00    -0.451 OA
ATOM     16  C   LIG d   1      11.228   9.635  -5.266  0.00  0.00     0.146 A 
ATOM     17  C   LIG d   1      10.468   8.923  -6.210  0.00  0.00     0.109 A 
ATOM     18  C   LIG d   1      11.820  10.833  -5.632  0.00  0.00     0.023 A 
ATOM     19  C   LIG d   1       9.846   7.653  -5.801  0.00  0.00     0.238 A 
ATOM     20  C   LIG d   1      10.312   9.422  -7.511  0.00  0.00     0.135 A 
ATOM     21  O   LIG d   1       9.177   6.995  -6.580  0.00  0.00    -0.283 OA
ATOM     22  C   LIG d   1      10.912  10.618  -7.857  0.00  0.00     0.022 A 
ATOM     23  C   LIG d   1      11.663  11.321  -6.920  0.00  0.00     0.124 A 
ATOM     24  H   LIG d   1      10.796  11.008  -8.857  0.00  0.00     0.069 H 
ATOM     25  H   LIG d   1      12.406  11.388  -4.914  0.00  0.00     0.069 H 
BRANCH  14  26
ATOM     26  C   LIG d   1      11.021   7.530  -2.241  0.00  0.00     0.025 A 
ATOM     27  C   LIG d   1      12.283   7.091  -1.831  0.00  0.00    -0.006 A 
ATOM     28  C   LIG d   1      12.472   6.656  -0.534  0.00  0.00     0.159 A 
ATOM     29  H   LIG d   1      13.108   7.088  -2.528  0.00  0.00     0.066 H 
ATOM     30  C   LIG d   1      11.409   6.667   0.367  0.00  0.00     0.158 A 
ATOM     31  C   LIG d   1      10.157   7.108  -0.038  0.00  0.00    -0.016 A 
ATOM     32  C   LIG d   1       9.959   7.538  -1.332  0.00  0.00    -0.047 A 
ATOM     33  H   LIG d   1       9.335   7.115   0.663  0.00  0.00     0.066 H 
ATOM     34  H   LIG d   1       8.983   7.881  -1.645  0.00  0.00     0.063 H 
BRANCH  28  35
ATOM     35  O   LIG d   1      13.698   6.224  -0.133  0.00  0.00    -0.503 OA
ATOM     36  H   LIG d   1      14.356   6.196  -0.842  0.00  0.00     0.292 HD
ENDBRANCH  28  35
BRANCH  30  37
ATOM     37  O   LIG d   1      11.598   6.244   1.645  0.00  0.00    -0.503 OA
ATOM     38  H   LIG d   1      12.220   5.508   1.727  0.00  0.00     0.292 HD
ENDBRANCH  30  37
ENDBRANCH  14  26
BRANCH  20  39
ATOM     39  O   LIG d   1       9.578   8.735  -8.423  0.00  0.00    -0.506 OA
ATOM     40  H   LIG d   1       8.632   8.707  -8.225  0.00  0.00     0.292 HD
ENDBRANCH  20  39
BRANCH  23  41
ATOM     41  O   LIG d   1      12.248  12.494  -7.272  0.00  0.00    -0.506 OA
ATOM     42  H   LIG d   1      11.647  13.123  -7.693  0.00  0.00     0.292 HD
ENDBRANCH  23  41
ENDBRANCH  12  13
ENDBRANCH   9  12
BRANCH   7  43
ATOM     43  O   LIG d   1      10.320   3.994  -2.300  0.00  0.00    -0.383 OA
ATOM     44  H   LIG d   1      10.686   3.274  -1.767  0.00  0.00     0.210 HD
ENDBRANCH   7  43
BRANCH   5  45
ATOM     45  O   LIG d   1      12.401   2.289  -3.077  0.00  0.00    -0.386 OA
ATOM     46  H   LIG d   1      12.879   2.918  -2.519  0.00  0.00     0.210 HD
ENDBRANCH   5  45
BRANCH   1  47
ATOM     47  C   LIG d   1       8.257   1.787  -5.673  0.00  0.00     0.080 C 
ATOM     48  H   LIG d   1       7.746   2.142  -6.569  0.00  0.00     0.059 H 
ATOM     49  H   LIG d   1       8.592   0.761  -5.829  0.00  0.00     0.059 H 
BRANCH  47  50
ATOM     50  O   LIG d   1       7.358   1.831  -4.562  0.00  0.00    -0.346 OA
BRANCH  50  51
ATOM     51  C   LIG d   1       6.673   0.600  -4.320  0.00  0.00     0.188 C 
ATOM     52  C   LIG d   1       5.875   0.709  -3.019  0.00  0.00     0.134 C 
ATOM     53  C   LIG d   1       5.096  -0.592  -2.797  0.00  0.00     0.114 C 
ATOM     54  H   LIG d   1       6.558   0.870  -2.185  0.00  0.00     0.067 H 
ATOM     55  C   LIG d   1       4.197  -0.849  -4.011  0.00  0.00     0.110 C 
ATOM     56  H   LIG d   1       5.794  -1.421  -2.678  0.00  0.00     0.065 H 
ATOM     57  C   LIG d   1       5.060  -0.897  -5.274  0.00  0.00     0.087 C 
ATOM     58  H   LIG d   1       3.465  -0.046  -4.100  0.00  0.00     0.065 H 
ATOM     59  H   LIG d   1       4.421  -1.037  -6.146  0.00  0.00     0.062 H 
ATOM     60  O   LIG d   1       5.781   0.331  -5.404  0.00  0.00    -0.343 OA
ATOM     61  H   LIG d   1       7.398  -0.209  -4.237  0.00  0.00     0.094 H 
BRANCH  52  62
ATOM     62  O   LIG d   1       4.961   1.803  -3.108  0.00  0.00    -0.384 OA
ATOM     63  H   LIG d   1       5.381   2.672  -3.053  0.00  0.00     0.210 HD
ENDBRANCH  52  62
BRANCH  53  64
ATOM     64  O   LIG d   1       4.291  -0.473  -1.623  0.00  0.00    -0.386 OA
ATOM     65  H   LIG d   1       3.564  -1.110  -1.578  0.00  0.00     0.210 HD
ENDBRANCH  53  64
BRANCH  55  66
ATOM     66  O   LIG d   1       3.521  -2.097  -3.848  0.00  0.00    -0.387 OA
ATOM     67  H   LIG d   1       2.615  -2.013  -3.519  0.00  0.00     0.210 HD
ENDBRANCH  55  66
BRANCH  57  68
ATOM     68  C   LIG d   1       6.049  -2.061  -5.174  0.00  0.00    -0.036 C 
ATOM     69  H   LIG d   1       6.926  -1.744  -4.612  0.00  0.00     0.025 H 
ATOM     70  H   LIG d   1       5.573  -2.899  -4.664  0.00  0.00     0.025 H 
ATOM     71  H   LIG d   1       6.350  -2.369  -6.175  0.00  0.00     0.025 H 
ENDBRANCH  57  68
ENDBRANCH  50  51
ENDBRANCH  47  50
ENDBRANCH   1  47
BRANCH   3  72
ATOM     72  O   LIG d   1       9.671   1.684  -3.193  0.00  0.00    -0.387 OA
ATOM     73  H   LIG d   1       9.805   2.326  -2.483  0.00  0.00     0.210 HD
ENDBRANCH   3  72
TORSDOF 17
ENDMDL
MODEL 7
REMARK VINA RESULT:      -6.6      3.734     10.438
REMARK  17 active torsions:
REMARK  status: ('A' for Active; 'I' for Inactive)
REMARK    1  A    between atoms: C_1  and  C_2 
REMARK    2  A    between atoms: C_4  and  O_53 
REMARK    3  A    between atoms: C_6  and  O_52 
REMARK    4  A    between atoms: C_8  and  O_51 
REMARK    5  A    between atoms: C_10  and  O_13 
REMARK    6  A    between atoms: O_13  and  C_14 
REMARK    7  A    between atoms: C_14  and  C_15 
REMARK    8  A    between atoms: C_17  and  O_50 
REMARK    9  A    between atoms: C_19  and  O_49 
REMARK   10  A    between atoms: C_21  and  O_48 
REMARK   11  A    between atoms: C_23  and  O_26 
REMARK   12  A    between atoms: O_26  and  C_27 
REMARK   13  A    between atoms: C_31  and  O_47 
REMARK   14  A    between atoms: C_33  and  O_46 
REMARK   15  A    between atoms: C_37  and  C_38 
REMARK   16  A    between atoms: C_41  and  O_45 
REMARK   17  A    between atoms: C_42  and  O_44 
ROOT
ATOM      1  C   LIG d   1       9.410   2.782  -5.338  0.00  0.00     0.114 C 
ATOM      2  H   LIG d   1       9.932   3.041  -6.259  0.00  0.00     0.065 H 
ATOM      3  C   LIG d   1      10.398   2.155  -4.351  0.00  0.00     0.112 C 
ATOM      4  H   LIG d   1      10.862   1.278  -4.805  0.00  0.00     0.065 H 
ATOM      5  C   LIG d   1      11.478   3.182  -4.000  0.00  0.00     0.115 C 
ATOM      6  H   LIG d   1      12.042   3.441  -4.896  0.00  0.00     0.065 H 
ATOM      7  C   LIG d   1      10.809   4.437  -3.433  0.00  0.00     0.145 C 
ATOM      8  H   LIG d   1      11.566   5.195  -3.231  0.00  0.00     0.068 H 
ATOM      9  C   LIG d   1       9.805   4.976  -4.456  0.00  0.00     0.231 C 
ATOM     10  H   LIG d   1      10.332   5.264  -5.365  0.00  0.00     0.108 H 
ATOM     11  O   LIG d   1       8.847   3.962  -4.762  0.00  0.00    -0.331 OA
ENDROOT
BRANCH   9  12
ATOM     12  O   LIG d   1       9.136   6.116  -3.911  0.00  0.00    -0.453 OA
BRANCH  12  13
ATOM     13  C   LIG d   1       9.915   7.159  -3.515  0.00  0.00     0.214 A 
ATOM     14  C   LIG d   1      10.500   7.970  -4.441  0.00  0.00     0.181 A 
ATOM     15  O   LIG d   1      11.273   9.014  -4.098  0.00  0.00    -0.451 OA
ATOM     16  C   LIG d   1      11.529   9.332  -2.811  0.00  0.00     0.146 A 
ATOM     17  C   LIG d   1      10.979   8.555  -1.777  0.00  0.00     0.109 A 
ATOM     18  C   LIG d   1      12.332  10.417  -2.495  0.00  0.00     0.023 A 
ATOM     19  C   LIG d   1      10.131   7.407  -2.134  0.00  0.00     0.238 A 
ATOM     20  C   LIG d   1      11.240   8.877  -0.438  0.00  0.00     0.135 A 
ATOM     21  O   LIG d   1       9.627   6.700  -1.276  0.00  0.00    -0.283 OA
ATOM     22  C   LIG d   1      12.041   9.964  -0.143  0.00  0.00     0.022 A 
ATOM     23  C   LIG d   1      12.585  10.731  -1.169  0.00  0.00     0.124 A 
ATOM     24  H   LIG d   1      12.246  10.217   0.886  0.00  0.00     0.069 H 
ATOM     25  H   LIG d   1      12.759  11.021  -3.282  0.00  0.00     0.069 H 
BRANCH  14  26
ATOM     26  C   LIG d   1      10.272   7.694  -5.871  0.00  0.00     0.025 A 
ATOM     27  C   LIG d   1       9.323   8.433  -6.584  0.00  0.00    -0.006 A 
ATOM     28  C   LIG d   1       9.109   8.167  -7.923  0.00  0.00     0.159 A 
ATOM     29  H   LIG d   1       8.755   9.207  -6.089  0.00  0.00     0.066 H 
ATOM     30  C   LIG d   1       9.847   7.173  -8.562  0.00  0.00     0.158 A 
ATOM     31  C   LIG d   1      10.793   6.443  -7.856  0.00  0.00    -0.016 A 
ATOM     32  C   LIG d   1      11.008   6.698  -6.519  0.00  0.00    -0.047 A 
ATOM     33  H   LIG d   1      11.363   5.673  -8.356  0.00  0.00     0.066 H 
ATOM     34  H   LIG d   1      11.745   6.129  -5.972  0.00  0.00     0.063 H 
BRANCH  28  35
ATOM     35  O   LIG d   1       8.184   8.880  -8.618  0.00  0.00    -0.503 OA
ATOM     36  H   LIG d   1       7.286   8.524  -8.558  0.00  0.00     0.292 HD
ENDBRANCH  28  35
BRANCH  30  37
ATOM     37  O   LIG d   1       9.639   6.916  -9.881  0.00  0.00    -0.503 OA
ATOM     38  H   LIG d   1       9.551   5.976 -10.089  0.00  0.00     0.292 HD
ENDBRANCH  30  37
ENDBRANCH  14  26
BRANCH  20  39
ATOM     39  O   LIG d   1      10.709   8.127   0.562  0.00  0.00    -0.506 OA
ATOM     40  H   LIG d   1      11.336   7.912   1.266  0.00  0.00     0.292 HD
ENDBRANCH  20  39
BRANCH  23  41
ATOM     41  O   LIG d   1      13.370  11.796  -0.867  0.00  0.00    -0.506 OA
ATOM     42  H   LIG d   1      13.232  12.147   0.022  0.00  0.00     0.292 HD
ENDBRANCH  23  41
ENDBRANCH  12  13
ENDBRANCH   9  12
BRANCH   7  43
ATOM     43  O   LIG d   1      10.126   4.109  -2.221  0.00  0.00    -0.383 OA
ATOM     44  H   LIG d   1       9.800   4.878  -1.733  0.00  0.00     0.210 HD
ENDBRANCH   7  43
BRANCH   5  45
ATOM     45  O   LIG d   1      12.363   2.629  -3.023  0.00  0.00    -0.386 OA
ATOM     46  H   LIG d   1      13.281   2.921  -3.114  0.00  0.00     0.210 HD
ENDBRANCH   5  45
BRANCH   1  47
ATOM     47  C   LIG d   1       8.294   1.782  -5.648  0.00  0.00     0.080 C 
ATOM     48  H   LIG d   1       7.818   2.050  -6.591  0.00  0.00     0.059 H 
ATOM     49  H   LIG d   1       8.716   0.780  -5.725  0.00  0.00     0.059 H 
BRANCH  47  50
ATOM     50  O   LIG d   1       7.324   1.811  -4.598  0.00  0.00    -0.346 OA
BRANCH  50  51
ATOM     51  C   LIG d   1       6.670   0.560  -4.377  0.00  0.00     0.188 C 
ATOM     52  C   LIG d   1       5.892   0.617  -3.060  0.00  0.00     0.134 C 
ATOM     53  C   LIG d   1       5.145  -0.705  -2.860  0.00  0.00     0.114 C 
ATOM     54  H   LIG d   1       6.586   0.772  -2.234  0.00  0.00     0.067 H 
ATOM     55  C   LIG d   1       4.231  -0.951  -4.065  0.00  0.00     0.110 C 
ATOM     56  H   LIG d   1       5.863  -1.522  -2.774  0.00  0.00     0.065 H 
ATOM     57  C   LIG d   1       5.074  -0.947  -5.343  0.00  0.00     0.087 C 
ATOM     58  H   LIG d   1       3.480  -0.162  -4.120  0.00  0.00     0.065 H 
ATOM     59  H   LIG d   1       4.423  -1.078  -6.208  0.00  0.00     0.062 H 
ATOM     60  O   LIG d   1       5.765   0.299  -5.452  0.00  0.00    -0.343 OA
ATOM     61  H   LIG d   1       7.413  -0.236  -4.327  0.00  0.00     0.094 H 
BRANCH  52  62
ATOM     62  O   LIG d   1       4.953   1.693  -3.105  0.00  0.00    -0.384 OA
ATOM     63  H   LIG d   1       4.780   2.026  -3.997  0.00  0.00     0.210 HD
ENDBRANCH  52  62
BRANCH  53  64
ATOM     64  O   LIG d   1       4.358  -0.635  -1.670  0.00  0.00    -0.386 OA
ATOM     65  H   LIG d   1       4.410  -1.426  -1.116  0.00  0.00     0.210 HD
ENDBRANCH  53  64
BRANCH  55  66
ATOM     66  O   LIG d   1       3.585  -2.217  -3.923  0.00  0.00    -0.387 OA
ATOM     67  H   LIG d   1       3.377  -2.649  -4.763  0.00  0.00     0.210 HD
ENDBRANCH  55  66
BRANCH  57  68
ATOM     68  C   LIG d   1       6.088  -2.091  -5.290  0.00  0.00    -0.036 C 
ATOM     69  H   LIG d   1       7.052  -1.706  -4.958  0.00  0.00     0.025 H 
ATOM     70  H   LIG d   1       5.741  -2.853  -4.591  0.00  0.00     0.025 H 
ATOM     71  H   LIG d   1       6.194  -2.530  -6.281  0.00  0.00     0.025 H 
ENDBRANCH  57  68
ENDBRANCH  50  51
ENDBRANCH  47  50
ENDBRANCH   1  47
BRANCH   3  72
ATOM     72  O   LIG d   1       9.705   1.766  -3.163  0.00  0.00    -0.387 OA
ATOM     73  H   LIG d   1       8.938   2.317  -2.956  0.00  0.00     0.210 HD
ENDBRANCH   3  72
TORSDOF 17
ENDMDL
MODEL 8
REMARK VINA RESULT:      -6.5      2.778      3.573
REMARK  17 active torsions:
REMARK  status: ('A' for Active; 'I' for Inactive)
REMARK    1  A    between atoms: C_1  and  C_2 
REMARK    2  A    between atoms: C_4  and  O_53 
REMARK    3  A    between atoms: C_6  and  O_52 
REMARK    4  A    between atoms: C_8  and  O_51 
REMARK    5  A    between atoms: C_10  and  O_13 
REMARK    6  A    between atoms: O_13  and  C_14 
REMARK    7  A    between atoms: C_14  and  C_15 
REMARK    8  A    between atoms: C_17  and  O_50 
REMARK    9  A    between atoms: C_19  and  O_49 
REMARK   10  A    between atoms: C_21  and  O_48 
REMARK   11  A    between atoms: C_23  and  O_26 
REMARK   12  A    between atoms: O_26  and  C_27 
REMARK   13  A    between atoms: C_31  and  O_47 
REMARK   14  A    between atoms: C_33  and  O_46 
REMARK   15  A    between atoms: C_37  and  C_38 
REMARK   16  A    between atoms: C_41  and  O_45 
REMARK   17  A    between atoms: C_42  and  O_44 
ROOT
ATOM      1  C   LIG d   1       6.497   0.701  -8.474  0.00  0.00     0.114 C 
ATOM      2  H   LIG d   1       7.143  -0.056  -8.918  0.00  0.00     0.065 H 
ATOM      3  C   LIG d   1       5.694   1.397  -9.577  0.00  0.00     0.112 C 
ATOM      4  H   LIG d   1       6.377   1.834 -10.306  0.00  0.00     0.065 H 
ATOM      5  C   LIG d   1       4.797   0.368 -10.270  0.00  0.00     0.115 C 
ATOM      6  H   LIG d   1       5.413  -0.391 -10.753  0.00  0.00     0.065 H 
ATOM      7  C   LIG d   1       3.894  -0.294  -9.224  0.00  0.00     0.145 C 
ATOM      8  H   LIG d   1       3.290  -1.067  -9.699  0.00  0.00     0.068 H 
ATOM      9  C   LIG d   1       4.767  -0.924  -8.135  0.00  0.00     0.231 C 
ATOM     10  H   LIG d   1       5.390  -1.703  -8.575  0.00  0.00     0.108 H 
ATOM     11  O   LIG d   1       5.600   0.080  -7.552  0.00  0.00    -0.331 OA
ENDROOT
BRANCH   9  12
ATOM     12  O   LIG d   1       3.931  -1.496  -7.126  0.00  0.00    -0.453 OA
BRANCH  12  13
ATOM     13  C   LIG d   1       4.173  -2.790  -6.784  0.00  0.00     0.214 A 
ATOM     14  C   LIG d   1       4.616  -3.099  -5.533  0.00  0.00     0.181 A 
ATOM     15  O   LIG d   1       4.863  -4.362  -5.147  0.00  0.00    -0.451 OA
ATOM     16  C   LIG d   1       4.694  -5.416  -5.974  0.00  0.00     0.146 A 
ATOM     17  C   LIG d   1       4.246  -5.207  -7.290  0.00  0.00     0.109 A 
ATOM     18  C   LIG d   1       4.959  -6.706  -5.541  0.00  0.00     0.023 A 
ATOM     19  C   LIG d   1       3.971  -3.830  -7.730  0.00  0.00     0.238 A 
ATOM     20  C   LIG d   1       4.068  -6.295  -8.155  0.00  0.00     0.135 A 
ATOM     21  O   LIG d   1       3.579  -3.592  -8.860  0.00  0.00    -0.283 OA
ATOM     22  C   LIG d   1       4.337  -7.574  -7.704  0.00  0.00     0.022 A 
ATOM     23  C   LIG d   1       4.780  -7.778  -6.402  0.00  0.00     0.124 A 
ATOM     24  H   LIG d   1       4.202  -8.417  -8.366  0.00  0.00     0.069 H 
ATOM     25  H   LIG d   1       5.304  -6.878  -4.532  0.00  0.00     0.069 H 
BRANCH  14  26
ATOM     26  C   LIG d   1       4.827  -2.007  -4.566  0.00  0.00     0.025 A 
ATOM     27  C   LIG d   1       6.123  -1.574  -4.269  0.00  0.00    -0.006 A 
ATOM     28  C   LIG d   1       6.316  -0.554  -3.357  0.00  0.00     0.159 A 
ATOM     29  H   LIG d   1       6.972  -2.038  -4.749  0.00  0.00     0.066 H 
ATOM     30  C   LIG d   1       5.219   0.048  -2.744  0.00  0.00     0.158 A 
ATOM     31  C   LIG d   1       3.932  -0.378  -3.042  0.00  0.00    -0.016 A 
ATOM     32  C   LIG d   1       3.732  -1.398  -3.947  0.00  0.00    -0.047 A 
ATOM     33  H   LIG d   1       3.085   0.092  -2.565  0.00  0.00     0.066 H 
ATOM     34  H   LIG d   1       2.730  -1.727  -4.177  0.00  0.00     0.063 H 
BRANCH  28  35
ATOM     35  O   LIG d   1       7.575  -0.133  -3.064  0.00  0.00    -0.503 OA
ATOM     36  H   LIG d   1       8.034  -0.687  -2.417  0.00  0.00     0.292 HD
ENDBRANCH  28  35
BRANCH  30  37
ATOM     37  O   LIG d   1       5.410   1.056  -1.852  0.00  0.00    -0.503 OA
ATOM     38  H   LIG d   1       5.363   1.940  -2.241  0.00  0.00     0.292 HD
ENDBRANCH  30  37
ENDBRANCH  14  26
BRANCH  20  39
ATOM     39  O   LIG d   1       3.635  -6.095  -9.426  0.00  0.00    -0.506 OA
ATOM     40  H   LIG d   1       2.874  -5.503  -9.492  0.00  0.00     0.292 HD
ENDBRANCH  20  39
BRANCH  23  41
ATOM     41  O   LIG d   1       5.040  -9.038  -5.970  0.00  0.00    -0.506 OA
ATOM     42  H   LIG d   1       5.120  -9.117  -5.011  0.00  0.00     0.292 HD
ENDBRANCH  23  41
ENDBRANCH  12  13
ENDBRANCH   9  12
BRANCH   7  43
ATOM     43  O   LIG d   1       3.039   0.690  -8.640  0.00  0.00    -0.383 OA
ATOM     44  H   LIG d   1       3.351   1.028  -7.789  0.00  0.00     0.210 HD
ENDBRANCH   7  43
BRANCH   5  45
ATOM     45  O   LIG d   1       3.989   1.022 -11.252  0.00  0.00    -0.386 OA
ATOM     46  H   LIG d   1       3.663   1.891 -10.977  0.00  0.00     0.210 HD
ENDBRANCH   5  45
BRANCH   1  47
ATOM     47  C   LIG d   1       7.352   1.733  -7.738  0.00  0.00     0.080 C 
ATOM     48  H   LIG d   1       8.321   1.821  -8.230  0.00  0.00     0.059 H 
ATOM     49  H   LIG d   1       6.848   2.700  -7.753  0.00  0.00     0.059 H 
BRANCH  47  50
ATOM     50  O   LIG d   1       7.541   1.316  -6.384  0.00  0.00    -0.346 OA
BRANCH  50  51
ATOM     51  C   LIG d   1       8.764   1.771  -5.801  0.00  0.00     0.188 C 
ATOM     52  C   LIG d   1       8.470   2.912  -4.823  0.00  0.00     0.134 C 
ATOM     53  C   LIG d   1       9.777   3.353  -4.158  0.00  0.00     0.114 C 
ATOM     54  H   LIG d   1       8.035   3.752  -5.364  0.00  0.00     0.067 H 
ATOM     55  C   LIG d   1      10.419   2.146  -3.466  0.00  0.00     0.110 C 
ATOM     56  H   LIG d   1      10.459   3.746  -4.913  0.00  0.00     0.065 H 
ATOM     57  C   LIG d   1      10.638   1.036  -4.497  0.00  0.00     0.087 C 
ATOM     58  H   LIG d   1       9.761   1.786  -2.675  0.00  0.00     0.065 H 
ATOM     59  H   LIG d   1      11.054   0.157  -4.002  0.00  0.00     0.062 H 
ATOM     60  O   LIG d   1       9.387   0.693  -5.099  0.00  0.00    -0.343 OA
ATOM     61  H   LIG d   1       9.431   2.127  -6.586  0.00  0.00     0.094 H 
BRANCH  52  62
ATOM     62  O   LIG d   1       7.555   2.461  -3.823  0.00  0.00    -0.384 OA
ATOM     63  H   LIG d   1       6.639   2.399  -4.128  0.00  0.00     0.210 HD
ENDBRANCH  52  62
BRANCH  53  64
ATOM     64  O   LIG d   1       9.503   4.368  -3.190  0.00  0.00    -0.386 OA
ATOM     65  H   LIG d   1       8.741   4.924  -3.408  0.00  0.00     0.210 HD
ENDBRANCH  53  64
BRANCH  55  66
ATOM     66  O   LIG d   1      11.675   2.530  -2.905  0.00  0.00    -0.387 OA
ATOM     67  H   LIG d   1      12.313   2.858  -3.553  0.00  0.00     0.210 HD
ENDBRANCH  55  66
BRANCH  57  68
ATOM     68  C   LIG d   1      11.608   1.522  -5.575  0.00  0.00    -0.036 C 
ATOM     69  H   LIG d   1      12.394   2.119  -5.113  0.00  0.00     0.025 H 
ATOM     70  H   LIG d   1      12.052   0.663  -6.078  0.00  0.00     0.025 H 
ATOM     71  H   LIG d   1      11.069   2.130  -6.301  0.00  0.00     0.025 H 
ENDBRANCH  57  68
ENDBRANCH  50  51
ENDBRANCH  47  50
ENDBRANCH   1  47
BRANCH   3  72
ATOM     72  O   LIG d   1       4.885   2.425  -9.002  0.00  0.00    -0.387 OA
ATOM     73  H   LIG d   1       5.323   2.924  -8.299  0.00  0.00     0.210 HD
ENDBRANCH   3  72
TORSDOF 17
ENDMDL
MODEL 9
REMARK VINA RESULT:      -6.5      3.834      7.541
REMARK  17 active torsions:
REMARK  status: ('A' for Active; 'I' for Inactive)
REMARK    1  A    between atoms: C_1  and  C_2 
REMARK    2  A    between atoms: C_4  and  O_53 
REMARK    3  A    between atoms: C_6  and  O_52 
REMARK    4  A    between atoms: C_8  and  O_51 
REMARK    5  A    between atoms: C_10  and  O_13 
REMARK    6  A    between atoms: O_13  and  C_14 
REMARK    7  A    between atoms: C_14  and  C_15 
REMARK    8  A    between atoms: C_17  and  O_50 
REMARK    9  A    between atoms: C_19  and  O_49 
REMARK   10  A    between atoms: C_21  and  O_48 
REMARK   11  A    between atoms: C_23  and  O_26 
REMARK   12  A    between atoms: O_26  and  C_27 
REMARK   13  A    between atoms: C_31  and  O_47 
REMARK   14  A    between atoms: C_33  and  O_46 
REMARK   15  A    between atoms: C_37  and  C_38 
REMARK   16  A    between atoms: C_41  and  O_45 
REMARK   17  A    between atoms: C_42  and  O_44 
ROOT
ATOM      1  C   LIG d   1      10.488   4.315  -2.704  0.00  0.00     0.114 C 
ATOM      2  H   LIG d   1      10.250   3.861  -1.742  0.00  0.00     0.065 H 
ATOM      3  C   LIG d   1      11.980   4.133  -2.999  0.00  0.00     0.112 C 
ATOM      4  H   LIG d   1      12.569   4.575  -2.195  0.00  0.00     0.065 H 
ATOM      5  C   LIG d   1      12.293   2.638  -3.100  0.00  0.00     0.115 C 
ATOM      6  H   LIG d   1      12.095   2.156  -2.143  0.00  0.00     0.065 H 
ATOM      7  C   LIG d   1      11.407   2.012  -4.182  0.00  0.00     0.145 C 
ATOM      8  H   LIG d   1      11.583   0.938  -4.223  0.00  0.00     0.068 H 
ATOM      9  C   LIG d   1       9.938   2.276  -3.840  0.00  0.00     0.231 C 
ATOM     10  H   LIG d   1       9.693   1.796  -2.894  0.00  0.00     0.108 H 
ATOM     11  O   LIG d   1       9.720   3.684  -3.730  0.00  0.00    -0.331 OA
ENDROOT
BRANCH   9  12
ATOM     12  O   LIG d   1       9.106   1.745  -4.874  0.00  0.00    -0.453 OA
BRANCH  12  13
ATOM     13  C   LIG d   1       8.195   0.801  -4.510  0.00  0.00     0.214 A 
ATOM     14  C   LIG d   1       8.330  -0.485  -4.938  0.00  0.00     0.181 A 
ATOM     15  O   LIG d   1       7.460  -1.452  -4.601  0.00  0.00    -0.451 OA
ATOM     16  C   LIG d   1       6.387  -1.217  -3.817  0.00  0.00     0.146 A 
ATOM     17  C   LIG d   1       6.151   0.079  -3.326  0.00  0.00     0.109 A 
ATOM     18  C   LIG d   1       5.510  -2.239  -3.489  0.00  0.00     0.023 A 
ATOM     19  C   LIG d   1       7.093   1.151  -3.686  0.00  0.00     0.238 A 
ATOM     20  C   LIG d   1       5.039   0.333  -2.511  0.00  0.00     0.135 A 
ATOM     21  O   LIG d   1       6.937   2.293  -3.286  0.00  0.00    -0.283 OA
ATOM     22  C   LIG d   1       4.177  -0.700  -2.195  0.00  0.00     0.022 A 
ATOM     23  C   LIG d   1       4.412  -1.981  -2.682  0.00  0.00     0.124 A 
ATOM     24  H   LIG d   1       3.318  -0.511  -1.568  0.00  0.00     0.069 H 
ATOM     25  H   LIG d   1       5.682  -3.238  -3.861  0.00  0.00     0.069 H 
BRANCH  14  26
ATOM     26  C   LIG d   1       9.476  -0.830  -5.799  0.00  0.00     0.025 A 
ATOM     27  C   LIG d   1      10.621  -1.407  -5.244  0.00  0.00    -0.006 A 
ATOM     28  C   LIG d   1      11.695  -1.723  -6.054  0.00  0.00     0.159 A 
ATOM     29  H   LIG d   1      10.669  -1.602  -4.182  0.00  0.00     0.066 H 
ATOM     30  C   LIG d   1      11.629  -1.477  -7.424  0.00  0.00     0.158 A 
ATOM     31  C   LIG d   1      10.490  -0.909  -7.977  0.00  0.00    -0.016 A 
ATOM     32  C   LIG d   1       9.417  -0.586  -7.175  0.00  0.00    -0.047 A 
ATOM     33  H   LIG d   1      10.444  -0.721  -9.040  0.00  0.00     0.066 H 
ATOM     34  H   LIG d   1       8.532  -0.145  -7.608  0.00  0.00     0.063 H 
BRANCH  28  35
ATOM     35  O   LIG d   1      12.812  -2.280  -5.516  0.00  0.00    -0.503 OA
ATOM     36  H   LIG d   1      12.779  -2.377  -4.553  0.00  0.00     0.292 HD
ENDBRANCH  28  35
BRANCH  30  37
ATOM     37  O   LIG d   1      12.684  -1.794  -8.220  0.00  0.00    -0.503 OA
ATOM     38  H   LIG d   1      12.691  -2.715  -8.516  0.00  0.00     0.292 HD
ENDBRANCH  30  37
ENDBRANCH  14  26
BRANCH  20  39
ATOM     39  O   LIG d   1       4.810   1.584  -2.036  0.00  0.00    -0.506 OA
ATOM     40  H   LIG d   1       5.521   2.212  -2.226  0.00  0.00     0.292 HD
ENDBRANCH  20  39
BRANCH  23  41
ATOM     41  O   LIG d   1       3.560  -2.988  -2.365  0.00  0.00    -0.506 OA
ATOM     42  H   LIG d   1       3.689  -3.348  -1.477  0.00  0.00     0.292 HD
ENDBRANCH  23  41
ENDBRANCH  12  13
ENDBRANCH   9  12
BRANCH   7  43
ATOM     43  O   LIG d   1      11.714   2.597  -5.449  0.00  0.00    -0.383 OA
ATOM     44  H   LIG d   1      11.273   2.170  -6.197  0.00  0.00     0.210 HD
ENDBRANCH   7  43
BRANCH   5  45
ATOM     45  O   LIG d   1      13.669   2.460  -3.449  0.00  0.00    -0.386 OA
ATOM     46  H   LIG d   1      13.829   1.721  -4.052  0.00  0.00     0.210 HD
ENDBRANCH   5  45
BRANCH   1  47
ATOM     47  C   LIG d   1      10.155   5.807  -2.661  0.00  0.00     0.080 C 
ATOM     48  H   LIG d   1      10.897   6.362  -3.236  0.00  0.00     0.059 H 
ATOM     49  H   LIG d   1       9.166   5.971  -3.090  0.00  0.00     0.059 H 
BRANCH  47  50
ATOM     50  O   LIG d   1      10.167   6.258  -1.305  0.00  0.00    -0.346 OA
BRANCH  50  51
ATOM     51  C   LIG d   1      10.344   7.670  -1.163  0.00  0.00     0.188 C 
ATOM     52  C   LIG d   1       9.072   8.391  -1.615  0.00  0.00     0.134 C 
ATOM     53  C   LIG d   1       9.246   9.898  -1.403  0.00  0.00     0.114 C 
ATOM     54  H   LIG d   1       8.895   8.189  -2.671  0.00  0.00     0.067 H 
ATOM     55  C   LIG d   1       9.572  10.162   0.070  0.00  0.00     0.110 C 
ATOM     56  H   LIG d   1      10.062  10.263  -2.029  0.00  0.00     0.065 H 
ATOM     57  C   LIG d   1      10.825   9.372   0.456  0.00  0.00     0.087 C 
ATOM     58  H   LIG d   1       8.735   9.844   0.692  0.00  0.00     0.065 H 
ATOM     59  H   LIG d   1      11.038   9.522   1.515  0.00  0.00     0.062 H 
ATOM     60  O   LIG d   1      10.606   7.982   0.207  0.00  0.00    -0.343 OA
ATOM     61  H   LIG d   1      11.184   7.995  -1.777  0.00  0.00     0.094 H 
BRANCH  52  62
ATOM     62  O   LIG d   1       7.961   7.927  -0.846  0.00  0.00    -0.384 OA
ATOM     63  H   LIG d   1       7.473   7.200  -1.258  0.00  0.00     0.210 HD
ENDBRANCH  52  62
BRANCH  53  64
ATOM     64  O   LIG d   1       8.037  10.573  -1.754  0.00  0.00    -0.386 OA
ATOM     65  H   LIG d   1       7.398  10.637  -1.030  0.00  0.00     0.210 HD
ENDBRANCH  53  64
BRANCH  55  66
ATOM     66  O   LIG d   1       9.809  11.557   0.264  0.00  0.00    -0.387 OA
ATOM     67  H   LIG d   1      10.353  11.761   1.038  0.00  0.00     0.210 HD
ENDBRANCH  55  66
BRANCH  57  68
ATOM     68  C   LIG d   1      12.013   9.859  -0.376  0.00  0.00    -0.036 C 
ATOM     69  H   LIG d   1      12.331   9.067  -1.053  0.00  0.00     0.025 H 
ATOM     70  H   LIG d   1      11.717  10.735  -0.954  0.00  0.00     0.025 H 
ATOM     71  H   LIG d   1      12.837  10.123   0.286  0.00  0.00     0.025 H 
ENDBRANCH  57  68
ENDBRANCH  50  51
ENDBRANCH  47  50
ENDBRANCH   1  47
BRANCH   3  72
ATOM     72  O   LIG d   1      12.303   4.773  -4.236  0.00  0.00    -0.387 OA
ATOM     73  H   LIG d   1      13.252   4.836  -4.410  0.00  0.00     0.210 HD
ENDBRANCH   3  72
TORSDOF 17
ENDMDL
MODEL 10
REMARK VINA RESULT:      -6.5      2.963      7.159
REMARK  17 active torsions:
REMARK  status: ('A' for Active; 'I' for Inactive)
REMARK    1  A    between atoms: C_1  and  C_2 
REMARK    2  A    between atoms: C_4  and  O_53 
REMARK    3  A    between atoms: C_6  and  O_52 
REMARK    4  A    between atoms: C_8  and  O_51 
REMARK    5  A    between atoms: C_10  and  O_13 
REMARK    6  A    between atoms: O_13  and  C_14 
REMARK    7  A    between atoms: C_14  and  C_15 
REMARK    8  A    between atoms: C_17  and  O_50 
REMARK    9  A    between atoms: C_19  and  O_49 
REMARK   10  A    between atoms: C_21  and  O_48 
REMARK   11  A    between atoms: C_23  and  O_26 
REMARK   12  A    between atoms: O_26  and  C_27 
REMARK   13  A    between atoms: C_31  and  O_47 
REMARK   14  A    between atoms: C_33  and  O_46 
REMARK   15  A    between atoms: C_37  and  C_38 
REMARK   16  A    between atoms: C_41  and  O_45 
REMARK   17  A    between atoms: C_42  and  O_44 
ROOT
ATOM      1  C   LIG d   1       3.538  -0.267  -4.679  0.00  0.00     0.114 C 
ATOM      2  H   LIG d   1       2.951  -1.170  -4.511  0.00  0.00     0.065 H 
ATOM      3  C   LIG d   1       3.555   0.575  -3.400  0.00  0.00     0.112 C 
ATOM      4  H   LIG d   1       2.533   0.814  -3.106  0.00  0.00     0.065 H 
ATOM      5  C   LIG d   1       4.235  -0.221  -2.283  0.00  0.00     0.115 C 
ATOM      6  H   LIG d   1       3.656  -1.119  -2.068  0.00  0.00     0.065 H 
ATOM      7  C   LIG d   1       5.644  -0.616  -2.737  0.00  0.00     0.145 C 
ATOM      8  H   LIG d   1       6.116  -1.230  -1.971  0.00  0.00     0.068 H 
ATOM      9  C   LIG d   1       5.546  -1.413  -4.041  0.00  0.00     0.231 C 
ATOM     10  H   LIG d   1       4.986  -2.330  -3.865  0.00  0.00     0.108 H 
ATOM     11  O   LIG d   1       4.875  -0.627  -5.029  0.00  0.00    -0.331 OA
ENDROOT
BRANCH   9  12
ATOM     12  O   LIG d   1       6.860  -1.737  -4.501  0.00  0.00    -0.453 OA
BRANCH  12  13
ATOM     13  C   LIG d   1       7.149  -1.446  -5.798  0.00  0.00     0.214 A 
ATOM     14  C   LIG d   1       6.881  -2.350  -6.782  0.00  0.00     0.181 A 
ATOM     15  O   LIG d   1       7.144  -2.106  -8.077  0.00  0.00    -0.451 OA
ATOM     16  C   LIG d   1       7.697  -0.949  -8.495  0.00  0.00     0.146 A 
ATOM     17  C   LIG d   1       8.020   0.050  -7.560  0.00  0.00     0.109 A 
ATOM     18  C   LIG d   1       7.955  -0.731  -9.840  0.00  0.00     0.023 A 
ATOM     19  C   LIG d   1       7.739  -0.200  -6.138  0.00  0.00     0.238 A 
ATOM     20  C   LIG d   1       8.596   1.256  -7.986  0.00  0.00     0.135 A 
ATOM     21  O   LIG d   1       7.998   0.633  -5.284  0.00  0.00    -0.283 OA
ATOM     22  C   LIG d   1       8.843   1.453  -9.332  0.00  0.00     0.022 A 
ATOM     23  C   LIG d   1       8.523   0.463 -10.255  0.00  0.00     0.124 A 
ATOM     24  H   LIG d   1       9.286   2.380  -9.666  0.00  0.00     0.069 H 
ATOM     25  H   LIG d   1       7.711  -1.492 -10.567  0.00  0.00     0.069 H 
BRANCH  14  26
ATOM     26  C   LIG d   1       6.275  -3.642  -6.412  0.00  0.00     0.025 A 
ATOM     27  C   LIG d   1       4.897  -3.836  -6.552  0.00  0.00    -0.006 A 
ATOM     28  C   LIG d   1       4.333  -5.046  -6.199  0.00  0.00     0.159 A 
ATOM     29  H   LIG d   1       4.275  -3.039  -6.933  0.00  0.00     0.066 H 
ATOM     30  C   LIG d   1       5.138  -6.075  -5.714  0.00  0.00     0.158 A 
ATOM     31  C   LIG d   1       6.507  -5.885  -5.579  0.00  0.00    -0.016 A 
ATOM     32  C   LIG d   1       7.076  -4.679  -5.925  0.00  0.00    -0.047 A 
ATOM     33  H   LIG d   1       7.127  -6.685  -5.203  0.00  0.00     0.066 H 
ATOM     34  H   LIG d   1       8.141  -4.534  -5.819  0.00  0.00     0.063 H 
BRANCH  28  35
ATOM     35  O   LIG d   1       2.993  -5.236  -6.331  0.00  0.00    -0.503 OA
ATOM     36  H   LIG d   1       2.753  -5.894  -6.998  0.00  0.00     0.292 HD
ENDBRANCH  28  35
BRANCH  30  37
ATOM     37  O   LIG d   1       4.582  -7.267  -5.372  0.00  0.00    -0.503 OA
ATOM     38  H   LIG d   1       3.619  -7.290  -5.456  0.00  0.00     0.292 HD
ENDBRANCH  30  37
ENDBRANCH  14  26
BRANCH  20  39
ATOM     39  O   LIG d   1       8.907   2.221  -7.084  0.00  0.00    -0.506 OA
ATOM     40  H   LIG d   1       9.826   2.197  -6.785  0.00  0.00     0.292 HD
ENDBRANCH  20  39
BRANCH  23  41
ATOM     41  O   LIG d   1       8.770   0.669 -11.573  0.00  0.00    -0.506 OA
ATOM     42  H   LIG d   1       8.434   1.510 -11.910  0.00  0.00     0.292 HD
ENDBRANCH  23  41
ENDBRANCH  12  13
ENDBRANCH   9  12
BRANCH   7  43
ATOM     43  O   LIG d   1       6.424   0.561  -2.954  0.00  0.00    -0.383 OA
ATOM     44  H   LIG d   1       6.724   0.990  -2.141  0.00  0.00     0.210 HD
ENDBRANCH   7  43
BRANCH   5  45
ATOM     45  O   LIG d   1       4.322   0.585  -1.105  0.00  0.00    -0.386 OA
ATOM     46  H   LIG d   1       5.149   0.478  -0.616  0.00  0.00     0.210 HD
ENDBRANCH   5  45
BRANCH   1  47
ATOM     47  C   LIG d   1       2.913   0.544  -5.815  0.00  0.00     0.080 C 
ATOM     48  H   LIG d   1       1.986   1.001  -5.469  0.00  0.00     0.059 H 
ATOM     49  H   LIG d   1       3.608   1.324  -6.129  0.00  0.00     0.059 H 
BRANCH  47  50
ATOM     50  O   LIG d   1       2.636  -0.320  -6.920  0.00  0.00    -0.346 OA
BRANCH  50  51
ATOM     51  C   LIG d   1       3.428  -0.052  -8.080  0.00  0.00     0.188 C 
ATOM     52  C   LIG d   1       3.495  -1.308  -8.953  0.00  0.00     0.134 C 
ATOM     53  C   LIG d   1       4.294  -0.995 -10.222  0.00  0.00     0.114 C 
ATOM     54  H   LIG d   1       3.987  -2.108  -8.401  0.00  0.00     0.067 H 
ATOM     55  C   LIG d   1       3.638   0.183 -10.948  0.00  0.00     0.110 C 
ATOM     56  H   LIG d   1       5.318  -0.735  -9.955  0.00  0.00     0.065 H 
ATOM     57  C   LIG d   1       3.566   1.381  -9.998  0.00  0.00     0.087 C 
ATOM     58  H   LIG d   1       2.631  -0.095 -11.261  0.00  0.00     0.065 H 
ATOM     59  H   LIG d   1       3.060   2.210 -10.495  0.00  0.00     0.062 H 
ATOM     60  O   LIG d   1       2.835   1.014  -8.825  0.00  0.00    -0.343 OA
ATOM     61  H   LIG d   1       4.435   0.234  -7.775  0.00  0.00     0.094 H 
BRANCH  52  62
ATOM     62  O   LIG d   1       2.172  -1.713  -9.309  0.00  0.00    -0.384 OA
ATOM     63  H   LIG d   1       2.065  -1.923 -10.247  0.00  0.00     0.210 HD
ENDBRANCH  52  62
BRANCH  53  64
ATOM     64  O   LIG d   1       4.300  -2.140 -11.077  0.00  0.00    -0.386 OA
ATOM     65  H   LIG d   1       4.321  -1.926 -12.020  0.00  0.00     0.210 HD
ENDBRANCH  53  64
BRANCH  55  66
ATOM     66  O   LIG d   1       4.416   0.530 -12.095  0.00  0.00    -0.387 OA
ATOM     67  H   LIG d   1       4.557   1.481 -12.202  0.00  0.00     0.210 HD
ENDBRANCH  55  66
BRANCH  57  68
ATOM     68  C   LIG d   1       4.981   1.808  -9.605  0.00  0.00    -0.036 C 
ATOM     69  H   LIG d   1       5.330   1.191  -8.778  0.00  0.00     0.025 H 
ATOM     70  H   LIG d   1       5.648   1.685 -10.459  0.00  0.00     0.025 H 
ATOM     71  H   LIG d   1       4.974   2.854  -9.299  0.00  0.00     0.025 H 
ENDBRANCH  57  68
ENDBRANCH  50  51
ENDBRANCH  47  50
ENDBRANCH   1  47
BRANCH   3  72
ATOM     72  O   LIG d   1       4.280   1.784  -3.634  0.00  0.00    -0.387 OA
ATOM     73  H   LIG d   1       4.437   2.310  -2.838  0.00  0.00     0.210 HD
ENDBRANCH   3  72
TORSDOF 17
ENDMDL
