MODEL 1
REMARK VINA RESULT:      -6.7      0.000      0.000
REMARK  9 active torsions:
REMARK  status: ('A' for Active; 'I' for Inactive)
REMARK    1  A    between atoms: C_1  and  C_2 
REMARK    2  A    between atoms: C_4  and  O_26 
REMARK    3  A    between atoms: C_5  and  C_25 
REMARK    4  A    between atoms: C_10  and  C_15 
REMARK    5  A    between atoms: C_12  and  O_14 
REMARK    6  A    between atoms: C_15  and  C_17 
REMARK    7  A    between atoms: C_15  and  C_18 
REMARK       I    between atoms: C_18  and  N_20 
REMARK    8  A    between atoms: O_26  and  C_27 
REMARK    9  A    between atoms: C_27  and  C_28 
ROOT
ATOM      1  C   LIG d   1       9.317   3.576  -7.566  0.00  0.00    -0.043 A 
ATOM      2  C   LIG d   1       9.967   4.309  -6.597  0.00  0.00    -0.017 A 
ATOM      3  C   LIG d   1       9.887   3.916  -5.269  0.00  0.00     0.124 A 
ATOM      4  C   LIG d   1       9.162   2.786  -4.931  0.00  0.00    -0.003 A 
ATOM      5  C   LIG d   1       8.509   2.051  -5.909  0.00  0.00    -0.009 A 
ATOM      6  C   LIG d   1       8.588   2.444  -7.227  0.00  0.00    -0.038 A 
ATOM      7  C   LIG d   1       7.910   1.688  -8.340  0.00  0.00    -0.027 C 
ATOM      8  C   LIG d   1       6.829   0.765  -7.783  0.00  0.00    -0.043 C 
ATOM      9  C   LIG d   1       7.445  -0.077  -6.659  0.00  0.00     0.000 C 
ATOM     10  H   LIG d   1       8.375  -0.527  -7.005  0.00  0.00     0.034 H 
ATOM     11  C   LIG d   1       7.728   0.839  -5.470  0.00  0.00     0.084 C 
ATOM     12  H   LIG d   1       6.784   1.160  -5.031  0.00  0.00     0.065 H 
ATOM     13  H   LIG d   1      10.533   5.189  -6.869  0.00  0.00     0.066 H 
ATOM     14  H   LIG d   1       8.651   1.092  -8.873  0.00  0.00     0.031 H 
ATOM     15  H   LIG d   1       7.456   2.398  -9.031  0.00  0.00     0.031 H 
ATOM     16  H   LIG d   1       6.462   0.110  -8.573  0.00  0.00     0.027 H 
ATOM     17  H   LIG d   1       6.006   1.360  -7.387  0.00  0.00     0.027 H 
ENDROOT
BRANCH   9  18
ATOM     18  C   LIG d   1       6.464  -1.175  -6.240  0.00  0.00     0.038 C 
ATOM     19  H   LIG d   1       6.903  -1.767  -5.436  0.00  0.00     0.040 H 
BRANCH  18  20
ATOM     20  C   LIG d   1       6.170  -2.080  -7.438  0.00  0.00    -0.054 C 
ATOM     21  H   LIG d   1       6.923  -1.920  -8.209  0.00  0.00     0.024 H 
ATOM     22  H   LIG d   1       6.191  -3.122  -7.121  0.00  0.00     0.024 H 
ATOM     23  H   LIG d   1       5.184  -1.842  -7.838  0.00  0.00     0.024 H 
ENDBRANCH  18  20
BRANCH  18  24
ATOM     24  C   LIG d   1       5.183  -0.546  -5.759  0.00  0.00     0.219 C 
ATOM     25  O   LIG d   1       4.542   0.168  -6.500  0.00  0.00    -0.275 OA
ATOM     26  N   LIG d   1       4.749  -0.777  -4.504  0.00  0.00    -0.301 N 
ATOM     27  C   LIG d   1       3.470  -0.312  -3.936  0.00  0.00     0.015 C 
ATOM     28  C   LIG d   1       5.470  -1.541  -3.474  0.00  0.00     0.015 C 
ATOM     29  C   LIG d   1       3.164  -1.300  -2.784  0.00  0.00    -0.036 C 
ATOM     30  H   LIG d   1       3.573   0.702  -3.550  0.00  0.00     0.046 H 
ATOM     31  H   LIG d   1       2.684  -0.353  -4.691  0.00  0.00     0.046 H 
ATOM     32  C   LIG d   1       4.583  -1.561  -2.213  0.00  0.00    -0.036 C 
ATOM     33  H   LIG d   1       2.520  -0.840  -2.035  0.00  0.00     0.028 H 
ATOM     34  H   LIG d   1       2.721  -2.220  -3.166  0.00  0.00     0.028 H 
ATOM     35  H   LIG d   1       4.871  -0.771  -1.521  0.00  0.00     0.028 H 
ATOM     36  H   LIG d   1       4.629  -2.535  -1.725  0.00  0.00     0.028 H 
ATOM     37  H   LIG d   1       5.647  -2.558  -3.824  0.00  0.00     0.046 H 
ATOM     38  H   LIG d   1       6.420  -1.054  -3.249  0.00  0.00     0.046 H 
ENDBRANCH  18  24
ENDBRANCH   9  18
BRANCH  11  39
ATOM     39  O   LIG d   1       8.483   0.122  -4.491  0.00  0.00    -0.387 OA
ATOM     40  H   LIG d   1       8.919  -0.669  -4.834  0.00  0.00     0.210 HD
ENDBRANCH  11  39
BRANCH   4  41
ATOM     41  C   LIG d   1       9.078   2.355  -3.490  0.00  0.00    -0.036 C 
ATOM     42  H   LIG d   1       9.146   1.269  -3.430  0.00  0.00     0.028 H 
ATOM     43  H   LIG d   1       9.899   2.802  -2.928  0.00  0.00     0.028 H 
ATOM     44  H   LIG d   1       8.128   2.683  -3.067  0.00  0.00     0.028 H 
ENDBRANCH   4  41
BRANCH   1  45
ATOM     45  C   LIG d   1       9.398   4.008  -9.008  0.00  0.00    -0.039 C 
ATOM     46  H   LIG d   1       8.800   4.908  -9.152  0.00  0.00     0.028 H 
ATOM     47  H   LIG d   1      10.437   4.216  -9.267  0.00  0.00     0.028 H 
ATOM     48  H   LIG d   1       9.017   3.212  -9.648  0.00  0.00     0.028 H 
ENDBRANCH   1  45
BRANCH   3  49
ATOM     49  O   LIG d   1      10.523   4.634  -4.305  0.00  0.00    -0.487 OA
BRANCH  49  50
ATOM     50  C   LIG d   1       9.813   5.739  -3.743  0.00  0.00     0.116 C 
ATOM     51  H   LIG d   1      10.049   6.645  -4.303  0.00  0.00     0.075 H 
ATOM     52  H   LIG d   1       8.741   5.548  -3.798  0.00  0.00     0.075 H 
BRANCH  50  53
ATOM     53  C   LIG d   1      10.219   5.919  -2.303  0.00  0.00     0.008 A 
ATOM     54  C   LIG d   1       9.682   6.943  -1.547  0.00  0.00     0.034 A 
ATOM     55  N   LIG d   1      10.033   7.107  -0.286  0.00  0.00    -0.263 NA
ATOM     56  H   LIG d   1       8.966   7.618  -1.994  0.00  0.00     0.083 H 
ATOM     57  C   LIG d   1      10.903   6.308   0.300  0.00  0.00     0.028 A 
ATOM     58  C   LIG d   1      11.482   5.263  -0.394  0.00  0.00    -0.043 A 
ATOM     59  H   LIG d   1      11.167   6.474   1.334  0.00  0.00     0.083 H 
ATOM     60  C   LIG d   1      11.134   5.056  -1.720  0.00  0.00    -0.052 A 
ATOM     61  H   LIG d   1      12.195   4.612   0.092  0.00  0.00     0.063 H 
ATOM     62  H   LIG d   1      11.567   4.244  -2.286  0.00  0.00     0.062 H 
ENDBRANCH  50  53
ENDBRANCH  49  50
ENDBRANCH   3  49
TORSDOF 9
ENDMDL
MODEL 2
REMARK VINA RESULT:      -6.7      5.563     11.015
REMARK  9 active torsions:
REMARK  status: ('A' for Active; 'I' for Inactive)
REMARK    1  A    between atoms: C_1  and  C_2 
REMARK    2  A    between atoms: C_4  and  O_26 
REMARK    3  A    between atoms: C_5  and  C_25 
REMARK    4  A    between atoms: C_10  and  C_15 
REMARK    5  A    between atoms: C_12  and  O_14 
REMARK    6  A    between atoms: C_15  and  C_17 
REMARK    7  A    between atoms: C_15  and  C_18 
REMARK       I    between atoms: C_18  and  N_20 
REMARK    8  A    between atoms: O_26  and  C_27 
REMARK    9  A    between atoms: C_27  and  C_28 
ROOT
ATOM      1  C   LIG d   1       3.021  -1.536 -10.479  0.00  0.00    -0.043 A 
ATOM      2  C   LIG d   1       2.385  -2.562 -11.144  0.00  0.00    -0.017 A 
ATOM      3  C   LIG d   1       2.396  -3.841 -10.605  0.00  0.00     0.124 A 
ATOM      4  C   LIG d   1       3.039  -4.071  -9.401  0.00  0.00    -0.003 A 
ATOM      5  C   LIG d   1       3.679  -3.036  -8.735  0.00  0.00    -0.009 A 
ATOM      6  C   LIG d   1       3.668  -1.768  -9.272  0.00  0.00    -0.038 A 
ATOM      7  C   LIG d   1       4.335  -0.597  -8.599  0.00  0.00    -0.027 C 
ATOM      8  C   LIG d   1       5.338  -1.078  -7.553  0.00  0.00    -0.043 C 
ATOM      9  C   LIG d   1       4.636  -2.085  -6.636  0.00  0.00     0.000 C 
ATOM     10  H   LIG d   1       3.691  -1.668  -6.287  0.00  0.00     0.034 H 
ATOM     11  C   LIG d   1       4.369  -3.360  -7.435  0.00  0.00     0.084 C 
ATOM     12  H   LIG d   1       5.316  -3.857  -7.646  0.00  0.00     0.065 H 
ATOM     13  H   LIG d   1       1.883  -2.373 -12.082  0.00  0.00     0.066 H 
ATOM     14  H   LIG d   1       3.577   0.018  -8.113  0.00  0.00     0.031 H 
ATOM     15  H   LIG d   1       4.855  -0.000  -9.348  0.00  0.00     0.031 H 
ATOM     16  H   LIG d   1       5.691  -0.231  -6.966  0.00  0.00     0.027 H 
ATOM     17  H   LIG d   1       6.183  -1.559  -8.048  0.00  0.00     0.027 H 
ENDROOT
BRANCH   9  18
ATOM     18  C   LIG d   1       5.532  -2.407  -5.439  0.00  0.00     0.038 C 
ATOM     19  H   LIG d   1       6.343  -1.680  -5.387  0.00  0.00     0.040 H 
BRANCH  18  20
ATOM     20  C   LIG d   1       6.115  -3.812  -5.601  0.00  0.00    -0.054 C 
ATOM     21  H   LIG d   1       6.879  -3.979  -4.842  0.00  0.00     0.024 H 
ATOM     22  H   LIG d   1       5.322  -4.550  -5.487  0.00  0.00     0.024 H 
ATOM     23  H   LIG d   1       6.561  -3.907  -6.591  0.00  0.00     0.024 H 
ENDBRANCH  18  20
BRANCH  18  24
ATOM     24  C   LIG d   1       4.719  -2.343  -4.172  0.00  0.00     0.219 C 
ATOM     25  O   LIG d   1       4.167  -3.340  -3.755  0.00  0.00    -0.275 OA
ATOM     26  N   LIG d   1       4.604  -1.179  -3.503  0.00  0.00    -0.301 N 
ATOM     27  C   LIG d   1       3.928  -0.996  -2.205  0.00  0.00     0.015 C 
ATOM     28  C   LIG d   1       5.138   0.119  -3.942  0.00  0.00     0.015 C 
ATOM     29  C   LIG d   1       4.580   0.269  -1.593  0.00  0.00    -0.036 C 
ATOM     30  H   LIG d   1       2.860  -0.839  -2.352  0.00  0.00     0.046 H 
ATOM     31  H   LIG d   1       4.100  -1.861  -1.563  0.00  0.00     0.046 H 
ATOM     32  C   LIG d   1       4.788   1.152  -2.851  0.00  0.00    -0.036 C 
ATOM     33  H   LIG d   1       3.907   0.751  -0.885  0.00  0.00     0.028 H 
ATOM     34  H   LIG d   1       5.533   0.028  -1.123  0.00  0.00     0.028 H 
ATOM     35  H   LIG d   1       3.873   1.688  -3.102  0.00  0.00     0.028 H 
ATOM     36  H   LIG d   1       5.612   1.849  -2.702  0.00  0.00     0.028 H 
ATOM     37  H   LIG d   1       6.220   0.053  -4.061  0.00  0.00     0.046 H 
ATOM     38  H   LIG d   1       4.676   0.409  -4.886  0.00  0.00     0.046 H 
ENDBRANCH  18  24
ENDBRANCH   9  18
BRANCH  11  39
ATOM     39  O   LIG d   1       3.540  -4.234  -6.667  0.00  0.00    -0.387 OA
ATOM     40  H   LIG d   1       2.669  -3.869  -6.460  0.00  0.00     0.210 HD
ENDBRANCH  11  39
BRANCH   4  41
ATOM     41  C   LIG d   1       3.049  -5.458  -8.812  0.00  0.00    -0.036 C 
ATOM     42  H   LIG d   1       2.419  -6.114  -9.414  0.00  0.00     0.028 H 
ATOM     43  H   LIG d   1       4.070  -5.842  -8.805  0.00  0.00     0.028 H 
ATOM     44  H   LIG d   1       2.667  -5.423  -7.792  0.00  0.00     0.028 H 
ENDBRANCH   4  41
BRANCH   1  45
ATOM     45  C   LIG d   1       3.015  -0.148 -11.068  0.00  0.00    -0.039 C 
ATOM     46  H   LIG d   1       2.303  -0.107 -11.893  0.00  0.00     0.028 H 
ATOM     47  H   LIG d   1       2.724   0.570 -10.301  0.00  0.00     0.028 H 
ATOM     48  H   LIG d   1       4.011   0.095 -11.435  0.00  0.00     0.028 H 
ENDBRANCH   1  45
BRANCH   3  49
ATOM     49  O   LIG d   1       1.774  -4.860 -11.254  0.00  0.00    -0.487 OA
BRANCH  49  50
ATOM     50  C   LIG d   1       0.393  -4.678 -11.576  0.00  0.00     0.116 C 
ATOM     51  H   LIG d   1       0.115  -3.637 -11.405  0.00  0.00     0.075 H 
ATOM     52  H   LIG d   1       0.228  -4.931 -12.623  0.00  0.00     0.075 H 
BRANCH  50  53
ATOM     53  C   LIG d   1      -0.449  -5.572 -10.703  0.00  0.00     0.008 A 
ATOM     54  C   LIG d   1      -1.493  -5.048  -9.965  0.00  0.00     0.034 A 
ATOM     55  N   LIG d   1      -2.234  -5.824  -9.198  0.00  0.00    -0.263 NA
ATOM     56  H   LIG d   1      -1.704  -3.989 -10.016  0.00  0.00     0.083 H 
ATOM     57  C   LIG d   1      -2.013  -7.121  -9.105  0.00  0.00     0.028 A 
ATOM     58  C   LIG d   1      -0.986  -7.715  -9.814  0.00  0.00    -0.043 A 
ATOM     59  H   LIG d   1      -2.641  -7.724  -8.466  0.00  0.00     0.083 H 
ATOM     60  C   LIG d   1      -0.189  -6.932 -10.634  0.00  0.00    -0.052 A 
ATOM     61  H   LIG d   1      -0.810  -8.778  -9.732  0.00  0.00     0.063 H 
ATOM     62  H   LIG d   1       0.618  -7.371 -11.203  0.00  0.00     0.062 H 
ENDBRANCH  50  53
ENDBRANCH  49  50
ENDBRANCH   3  49
TORSDOF 9
ENDMDL
MODEL 3
REMARK VINA RESULT:      -6.6      5.498      8.441
REMARK  9 active torsions:
REMARK  status: ('A' for Active; 'I' for Inactive)
REMARK    1  A    between atoms: C_1  and  C_2 
REMARK    2  A    between atoms: C_4  and  O_26 
REMARK    3  A    between atoms: C_5  and  C_25 
REMARK    4  A    between atoms: C_10  and  C_15 
REMARK    5  A    between atoms: C_12  and  O_14 
REMARK    6  A    between atoms: C_15  and  C_17 
REMARK    7  A    between atoms: C_15  and  C_18 
REMARK       I    between atoms: C_18  and  N_20 
REMARK    8  A    between atoms: O_26  and  C_27 
REMARK    9  A    between atoms: C_27  and  C_28 
ROOT
ATOM      1  C   LIG d   1       9.410  -4.014  -3.716  0.00  0.00    -0.043 A 
ATOM      2  C   LIG d   1       8.952  -2.724  -3.876  0.00  0.00    -0.017 A 
ATOM      3  C   LIG d   1       7.812  -2.487  -4.629  0.00  0.00     0.124 A 
ATOM      4  C   LIG d   1       7.139  -3.552  -5.206  0.00  0.00    -0.003 A 
ATOM      5  C   LIG d   1       7.602  -4.849  -5.043  0.00  0.00    -0.009 A 
ATOM      6  C   LIG d   1       8.736  -5.081  -4.296  0.00  0.00    -0.038 A 
ATOM      7  C   LIG d   1       9.290  -6.464  -4.072  0.00  0.00    -0.027 C 
ATOM      8  C   LIG d   1       8.721  -7.443  -5.095  0.00  0.00    -0.043 C 
ATOM      9  C   LIG d   1       7.193  -7.309  -5.096  0.00  0.00     0.000 C 
ATOM     10  H   LIG d   1       6.819  -7.361  -4.073  0.00  0.00     0.034 H 
ATOM     11  C   LIG d   1       6.829  -5.958  -5.708  0.00  0.00     0.084 C 
ATOM     12  H   LIG d   1       7.062  -5.971  -6.772  0.00  0.00     0.065 H 
ATOM     13  H   LIG d   1       9.482  -1.899  -3.421  0.00  0.00     0.066 H 
ATOM     14  H   LIG d   1       9.025  -6.799  -3.069  0.00  0.00     0.031 H 
ATOM     15  H   LIG d   1      10.375  -6.436  -4.166  0.00  0.00     0.031 H 
ATOM     16  H   LIG d   1       8.999  -8.461  -4.824  0.00  0.00     0.027 H 
ATOM     17  H   LIG d   1       9.110  -7.208  -6.086  0.00  0.00     0.027 H 
ENDROOT
BRANCH   9  18
ATOM     18  C   LIG d   1       6.576  -8.435  -5.929  0.00  0.00     0.038 C 
ATOM     19  H   LIG d   1       7.212  -9.319  -5.873  0.00  0.00     0.040 H 
BRANCH  18  20
ATOM     20  C   LIG d   1       6.454  -7.983  -7.385  0.00  0.00    -0.054 C 
ATOM     21  H   LIG d   1       6.689  -8.818  -8.045  0.00  0.00     0.024 H 
ATOM     22  H   LIG d   1       5.437  -7.643  -7.576  0.00  0.00     0.024 H 
ATOM     23  H   LIG d   1       7.152  -7.166  -7.570  0.00  0.00     0.024 H 
ENDBRANCH  18  20
BRANCH  18  24
ATOM     24  C   LIG d   1       5.209  -8.766  -5.389  0.00  0.00     0.219 C 
ATOM     25  O   LIG d   1       4.217  -8.389  -5.976  0.00  0.00    -0.275 OA
ATOM     26  N   LIG d   1       5.088  -9.481  -4.253  0.00  0.00    -0.301 N 
ATOM     27  C   LIG d   1       3.822  -9.961  -3.669  0.00  0.00     0.015 C 
ATOM     28  C   LIG d   1       6.198  -9.919  -3.393  0.00  0.00     0.015 C 
ATOM     29  C   LIG d   1       4.220 -11.183  -2.805  0.00  0.00    -0.036 C 
ATOM     30  H   LIG d   1       3.373  -9.186  -3.047  0.00  0.00     0.046 H 
ATOM     31  H   LIG d   1       3.131 -10.262  -4.458  0.00  0.00     0.046 H 
ATOM     32  C   LIG d   1       5.585 -10.724  -2.228  0.00  0.00    -0.036 C 
ATOM     33  H   LIG d   1       3.496 -11.351  -2.008  0.00  0.00     0.028 H 
ATOM     34  H   LIG d   1       4.336 -12.075  -3.420  0.00  0.00     0.028 H 
ATOM     35  H   LIG d   1       5.441 -10.093  -1.352  0.00  0.00     0.028 H 
ATOM     36  H   LIG d   1       6.210 -11.583  -1.984  0.00  0.00     0.028 H 
ATOM     37  H   LIG d   1       6.882 -10.548  -3.963  0.00  0.00     0.046 H 
ATOM     38  H   LIG d   1       6.728  -9.050  -3.002  0.00  0.00     0.046 H 
ENDBRANCH  18  24
ENDBRANCH   9  18
BRANCH  11  39
ATOM     39  O   LIG d   1       5.429  -5.725  -5.536  0.00  0.00    -0.387 OA
ATOM     40  H   LIG d   1       4.865  -6.334  -6.030  0.00  0.00     0.210 HD
ENDBRANCH  11  39
BRANCH   4  41
ATOM     41  C   LIG d   1       5.897  -3.298  -6.021  0.00  0.00    -0.036 C 
ATOM     42  H   LIG d   1       5.847  -4.015  -6.841  0.00  0.00     0.028 H 
ATOM     43  H   LIG d   1       5.017  -3.410  -5.387  0.00  0.00     0.028 H 
ATOM     44  H   LIG d   1       5.928  -2.286  -6.425  0.00  0.00     0.028 H 
ENDBRANCH   4  41
BRANCH   1  45
ATOM     45  C   LIG d   1      10.654  -4.269  -2.903  0.00  0.00    -0.039 C 
ATOM     46  H   LIG d   1      10.656  -5.303  -2.557  0.00  0.00     0.028 H 
ATOM     47  H   LIG d   1      11.534  -4.091  -3.521  0.00  0.00     0.028 H 
ATOM     48  H   LIG d   1      10.671  -3.599  -2.045  0.00  0.00     0.028 H 
ENDBRANCH   1  45
BRANCH   3  49
ATOM     49  O   LIG d   1       7.353  -1.219  -4.796  0.00  0.00    -0.487 OA
BRANCH  49  50
ATOM     50  C   LIG d   1       6.934  -0.521  -3.621  0.00  0.00     0.116 C 
ATOM     51  H   LIG d   1       7.470  -0.912  -2.755  0.00  0.00     0.075 H 
ATOM     52  H   LIG d   1       7.149   0.541  -3.733  0.00  0.00     0.075 H 
BRANCH  50  53
ATOM     53  C   LIG d   1       5.453  -0.716  -3.423  0.00  0.00     0.008 A 
ATOM     54  C   LIG d   1       4.545   0.066  -4.112  0.00  0.00     0.034 A 
ATOM     55  N   LIG d   1       3.247  -0.098  -3.943  0.00  0.00    -0.263 NA
ATOM     56  H   LIG d   1       4.903   0.821  -4.797  0.00  0.00     0.083 H 
ATOM     57  C   LIG d   1       2.766  -1.007  -3.117  0.00  0.00     0.028 A 
ATOM     58  C   LIG d   1       3.613  -1.825  -2.394  0.00  0.00    -0.043 A 
ATOM     59  H   LIG d   1       1.697  -1.113  -3.005  0.00  0.00     0.083 H 
ATOM     60  C   LIG d   1       4.984  -1.685  -2.549  0.00  0.00    -0.052 A 
ATOM     61  H   LIG d   1       3.212  -2.568  -1.719  0.00  0.00     0.063 H 
ATOM     62  H   LIG d   1       5.669  -2.313  -2.000  0.00  0.00     0.062 H 
ENDBRANCH  50  53
ENDBRANCH  49  50
ENDBRANCH   3  49
TORSDOF 9
ENDMDL
MODEL 4
REMARK VINA RESULT:      -6.5      5.798      7.728
REMARK  9 active torsions:
REMARK  status: ('A' for Active; 'I' for Inactive)
REMARK    1  A    between atoms: C_1  and  C_2 
REMARK    2  A    between atoms: C_4  and  O_26 
REMARK    3  A    between atoms: C_5  and  C_25 
REMARK    4  A    between atoms: C_10  and  C_15 
REMARK    5  A    between atoms: C_12  and  O_14 
REMARK    6  A    between atoms: C_15  and  C_17 
REMARK    7  A    between atoms: C_15  and  C_18 
REMARK       I    between atoms: C_18  and  N_20 
REMARK    8  A    between atoms: O_26  and  C_27 
REMARK    9  A    between atoms: C_27  and  C_28 
ROOT
ATOM      1  C   LIG d   1       2.272  -1.051  -9.162  0.00  0.00    -0.043 A 
ATOM      2  C   LIG d   1       2.454  -0.091  -8.190  0.00  0.00    -0.017 A 
ATOM      3  C   LIG d   1       3.375  -0.306  -7.175  0.00  0.00     0.124 A 
ATOM      4  C   LIG d   1       4.109  -1.479  -7.155  0.00  0.00    -0.003 A 
ATOM      5  C   LIG d   1       3.925  -2.443  -8.135  0.00  0.00    -0.009 A 
ATOM      6  C   LIG d   1       3.009  -2.229  -9.140  0.00  0.00    -0.038 A 
ATOM      7  C   LIG d   1       2.763  -3.228 -10.240  0.00  0.00    -0.027 C 
ATOM      8  C   LIG d   1       3.301  -4.602  -9.848  0.00  0.00    -0.043 C 
ATOM      9  C   LIG d   1       4.753  -4.438  -9.382  0.00  0.00     0.000 C 
ATOM     10  H   LIG d   1       5.312  -3.860 -10.118  0.00  0.00     0.034 H 
ATOM     11  C   LIG d   1       4.750  -3.701  -8.045  0.00  0.00     0.084 C 
ATOM     12  H   LIG d   1       4.330  -4.351  -7.277  0.00  0.00     0.065 H 
ATOM     13  H   LIG d   1       1.877   0.823  -8.215  0.00  0.00     0.066 H 
ATOM     14  H   LIG d   1       3.264  -2.893 -11.149  0.00  0.00     0.031 H 
ATOM     15  H   LIG d   1       1.692  -3.301 -10.427  0.00  0.00     0.031 H 
ATOM     16  H   LIG d   1       3.264  -5.270 -10.707  0.00  0.00     0.027 H 
ATOM     17  H   LIG d   1       2.700  -5.014  -9.037  0.00  0.00     0.027 H 
ENDROOT
BRANCH   9  18
ATOM     18  C   LIG d   1       5.398  -5.815  -9.210  0.00  0.00     0.038 C 
ATOM     19  H   LIG d   1       6.458  -5.694  -8.983  0.00  0.00     0.040 H 
BRANCH  18  20
ATOM     20  C   LIG d   1       5.240  -6.618 -10.502  0.00  0.00    -0.054 C 
ATOM     21  H   LIG d   1       6.220  -6.939 -10.853  0.00  0.00     0.024 H 
ATOM     22  H   LIG d   1       4.617  -7.492 -10.313  0.00  0.00     0.024 H 
ATOM     23  H   LIG d   1       4.769  -5.993 -11.261  0.00  0.00     0.024 H 
ENDBRANCH  18  20
BRANCH  18  24
ATOM     24  C   LIG d   1       4.723  -6.546  -8.078  0.00  0.00     0.219 C 
ATOM     25  O   LIG d   1       3.549  -6.839  -8.159  0.00  0.00    -0.275 OA
ATOM     26  N   LIG d   1       5.425  -6.875  -6.975  0.00  0.00    -0.301 N 
ATOM     27  C   LIG d   1       4.923  -7.674  -5.842  0.00  0.00     0.015 C 
ATOM     28  C   LIG d   1       6.822  -6.502  -6.705  0.00  0.00     0.015 C 
ATOM     29  C   LIG d   1       6.190  -8.281  -5.191  0.00  0.00    -0.036 C 
ATOM     30  H   LIG d   1       4.398  -7.037  -5.131  0.00  0.00     0.046 H 
ATOM     31  H   LIG d   1       4.264  -8.466  -6.200  0.00  0.00     0.046 H 
ATOM     32  C   LIG d   1       7.205  -7.117  -5.342  0.00  0.00    -0.036 C 
ATOM     33  H   LIG d   1       6.017  -8.512  -4.140  0.00  0.00     0.028 H 
ATOM     34  H   LIG d   1       6.524  -9.164  -5.735  0.00  0.00     0.028 H 
ATOM     35  H   LIG d   1       7.082  -6.391  -4.539  0.00  0.00     0.028 H 
ATOM     36  H   LIG d   1       8.227  -7.496  -5.364  0.00  0.00     0.028 H 
ATOM     37  H   LIG d   1       7.469  -6.897  -7.488  0.00  0.00     0.046 H 
ATOM     38  H   LIG d   1       6.913  -5.416  -6.658  0.00  0.00     0.046 H 
ENDBRANCH  18  24
ENDBRANCH   9  18
BRANCH  11  39
ATOM     39  O   LIG d   1       6.092  -3.360  -7.691  0.00  0.00    -0.387 OA
ATOM     40  H   LIG d   1       6.281  -2.413  -7.733  0.00  0.00     0.210 HD
ENDBRANCH  11  39
BRANCH   4  41
ATOM     41  C   LIG d   1       5.114  -1.713  -6.055  0.00  0.00    -0.036 C 
ATOM     42  H   LIG d   1       5.523  -0.758  -5.726  0.00  0.00     0.028 H 
ATOM     43  H   LIG d   1       4.624  -2.208  -5.216  0.00  0.00     0.028 H 
ATOM     44  H   LIG d   1       5.920  -2.344  -6.428  0.00  0.00     0.028 H 
ENDBRANCH   4  41
BRANCH   1  45
ATOM     45  C   LIG d   1       1.266  -0.819 -10.261  0.00  0.00    -0.039 C 
ATOM     46  H   LIG d   1       0.776   0.141 -10.108  0.00  0.00     0.028 H 
ATOM     47  H   LIG d   1       1.775  -0.818 -11.225  0.00  0.00     0.028 H 
ATOM     48  H   LIG d   1       0.522  -1.615 -10.245  0.00  0.00     0.028 H 
ENDBRANCH   1  45
BRANCH   3  49
ATOM     49  O   LIG d   1       3.559   0.633  -6.210  0.00  0.00    -0.487 OA
BRANCH  49  50
ATOM     50  C   LIG d   1       2.596   0.678  -5.155  0.00  0.00     0.116 C 
ATOM     51  H   LIG d   1       2.207   1.693  -5.061  0.00  0.00     0.075 H 
ATOM     52  H   LIG d   1       1.777  -0.004  -5.381  0.00  0.00     0.075 H 
BRANCH  50  53
ATOM     53  C   LIG d   1       3.248   0.269  -3.860  0.00  0.00     0.008 A 
ATOM     54  C   LIG d   1       3.171  -1.039  -3.419  0.00  0.00     0.034 A 
ATOM     55  N   LIG d   1       3.740  -1.404  -2.286  0.00  0.00    -0.263 NA
ATOM     56  H   LIG d   1       2.638  -1.770  -4.009  0.00  0.00     0.083 H 
ATOM     57  C   LIG d   1       4.400  -0.545  -1.534  0.00  0.00     0.028 A 
ATOM     58  C   LIG d   1       4.518   0.780  -1.911  0.00  0.00    -0.043 A 
ATOM     59  H   LIG d   1       4.853  -0.881  -0.613  0.00  0.00     0.083 H 
ATOM     60  C   LIG d   1       3.938   1.200  -3.098  0.00  0.00    -0.052 A 
ATOM     61  H   LIG d   1       5.061   1.478  -1.290  0.00  0.00     0.063 H 
ATOM     62  H   LIG d   1       4.019   2.227  -3.419  0.00  0.00     0.062 H 
ENDBRANCH  50  53
ENDBRANCH  49  50
ENDBRANCH   3  49
TORSDOF 9
ENDMDL
MODEL 5
REMARK VINA RESULT:      -6.5      3.212      5.840
REMARK  9 active torsions:
REMARK  status: ('A' for Active; 'I' for Inactive)
REMARK    1  A    between atoms: C_1  and  C_2 
REMARK    2  A    between atoms: C_4  and  O_26 
REMARK    3  A    between atoms: C_5  and  C_25 
REMARK    4  A    between atoms: C_10  and  C_15 
REMARK    5  A    between atoms: C_12  and  O_14 
REMARK    6  A    between atoms: C_15  and  C_17 
REMARK    7  A    between atoms: C_15  and  C_18 
REMARK       I    between atoms: C_18  and  N_20 
REMARK    8  A    between atoms: O_26  and  C_27 
REMARK    9  A    between atoms: C_27  and  C_28 
ROOT
ATOM      1  C   LIG d   1      10.079   5.329  -5.199  0.00  0.00    -0.043 A 
ATOM      2  C   LIG d   1      10.334   5.801  -6.469  0.00  0.00    -0.017 A 
ATOM      3  C   LIG d   1      10.053   5.002  -7.568  0.00  0.00     0.124 A 
ATOM      4  C   LIG d   1       9.510   3.743  -7.378  0.00  0.00    -0.003 A 
ATOM      5  C   LIG d   1       9.255   3.271  -6.099  0.00  0.00    -0.009 A 
ATOM      6  C   LIG d   1       9.537   4.065  -5.009  0.00  0.00    -0.038 A 
ATOM      7  C   LIG d   1       9.278   3.620  -3.593  0.00  0.00    -0.027 C 
ATOM      8  C   LIG d   1       9.104   2.104  -3.529  0.00  0.00    -0.043 C 
ATOM      9  C   LIG d   1       8.065   1.692  -4.578  0.00  0.00     0.000 C 
ATOM     10  H   LIG d   1       7.175   2.314  -4.479  0.00  0.00     0.034 H 
ATOM     11  C   LIG d   1       8.675   1.887  -5.965  0.00  0.00     0.084 C 
ATOM     12  H   LIG d   1       9.465   1.150  -6.116  0.00  0.00     0.065 H 
ATOM     13  H   LIG d   1      10.755   6.786  -6.608  0.00  0.00     0.066 H 
ATOM     14  H   LIG d   1       8.371   4.101  -3.226  0.00  0.00     0.031 H 
ATOM     15  H   LIG d   1      10.119   3.912  -2.965  0.00  0.00     0.031 H 
ATOM     16  H   LIG d   1       8.759   1.815  -2.537  0.00  0.00     0.027 H 
ATOM     17  H   LIG d   1      10.056   1.616  -3.744  0.00  0.00     0.027 H 
ENDROOT
BRANCH   9  18
ATOM     18  C   LIG d   1       7.690   0.221  -4.383  0.00  0.00     0.038 C 
ATOM     19  H   LIG d   1       7.813  -0.049  -3.334  0.00  0.00     0.040 H 
BRANCH  18  20
ATOM     20  C   LIG d   1       8.599  -0.656  -5.247  0.00  0.00    -0.054 C 
ATOM     21  H   LIG d   1       8.356  -1.705  -5.081  0.00  0.00     0.024 H 
ATOM     22  H   LIG d   1       8.449  -0.409  -6.297  0.00  0.00     0.024 H 
ATOM     23  H   LIG d   1       9.639  -0.476  -4.975  0.00  0.00     0.024 H 
ENDBRANCH  18  20
BRANCH  18  24
ATOM     24  C   LIG d   1       6.254   0.011  -4.790  0.00  0.00     0.219 C 
ATOM     25  O   LIG d   1       5.992  -0.391  -5.904  0.00  0.00    -0.275 OA
ATOM     26  N   LIG d   1       5.261   0.271  -3.917  0.00  0.00    -0.301 N 
ATOM     27  C   LIG d   1       3.827   0.017  -4.144  0.00  0.00     0.015 C 
ATOM     28  C   LIG d   1       5.430   0.849  -2.575  0.00  0.00     0.015 C 
ATOM     29  C   LIG d   1       3.218  -0.120  -2.726  0.00  0.00    -0.036 C 
ATOM     30  H   LIG d   1       3.372   0.854  -4.674  0.00  0.00     0.046 H 
ATOM     31  H   LIG d   1       3.691  -0.907  -4.707  0.00  0.00     0.046 H 
ATOM     32  C   LIG d   1       4.028   0.941  -1.936  0.00  0.00    -0.036 C 
ATOM     33  H   LIG d   1       2.156   0.124  -2.732  0.00  0.00     0.028 H 
ATOM     34  H   LIG d   1       3.386  -1.119  -2.325  0.00  0.00     0.028 H 
ATOM     35  H   LIG d   1       3.601   1.934  -2.074  0.00  0.00     0.028 H 
ATOM     36  H   LIG d   1       4.070   0.685  -0.877  0.00  0.00     0.028 H 
ATOM     37  H   LIG d   1       6.073   0.208  -1.973  0.00  0.00     0.046 H 
ATOM     38  H   LIG d   1       5.865   1.846  -2.653  0.00  0.00     0.046 H 
ENDBRANCH  18  24
ENDBRANCH   9  18
BRANCH  11  39
ATOM     39  O   LIG d   1       7.663   1.702  -6.956  0.00  0.00    -0.387 OA
ATOM     40  H   LIG d   1       8.007   1.548  -7.846  0.00  0.00     0.210 HD
ENDBRANCH  11  39
BRANCH   4  41
ATOM     41  C   LIG d   1       9.200   2.875  -8.570  0.00  0.00    -0.036 C 
ATOM     42  H   LIG d   1       8.246   3.177  -9.002  0.00  0.00     0.028 H 
ATOM     43  H   LIG d   1       9.988   2.987  -9.316  0.00  0.00     0.028 H 
ATOM     44  H   LIG d   1       9.143   1.833  -8.256  0.00  0.00     0.028 H 
ENDBRANCH   4  41
BRANCH   1  45
ATOM     45  C   LIG d   1      10.391   6.195  -4.005  0.00  0.00    -0.039 C 
ATOM     46  H   LIG d   1       9.545   6.186  -3.318  0.00  0.00     0.028 H 
ATOM     47  H   LIG d   1      11.276   5.809  -3.497  0.00  0.00     0.028 H 
ATOM     48  H   LIG d   1      10.580   7.216  -4.336  0.00  0.00     0.028 H 
ENDBRANCH   1  45
BRANCH   3  49
ATOM     49  O   LIG d   1      10.303   5.457  -8.824  0.00  0.00    -0.487 OA
BRANCH  49  50
ATOM     50  C   LIG d   1       9.995   6.826  -9.093  0.00  0.00     0.116 C 
ATOM     51  H   LIG d   1       9.113   7.119  -8.521  0.00  0.00     0.075 H 
ATOM     52  H   LIG d   1      10.839   7.452  -8.804  0.00  0.00     0.075 H 
BRANCH  50  53
ATOM     53  C   LIG d   1       9.719   7.001 -10.564  0.00  0.00     0.008 A 
ATOM     54  C   LIG d   1       9.010   6.042 -11.262  0.00  0.00     0.034 A 
ATOM     55  N   LIG d   1       8.766   6.187 -12.550  0.00  0.00    -0.263 NA
ATOM     56  H   LIG d   1       8.653   5.162 -10.747  0.00  0.00     0.083 H 
ATOM     57  C   LIG d   1       9.182   7.245 -13.219  0.00  0.00     0.028 A 
ATOM     58  C   LIG d   1       9.898   8.244 -12.587  0.00  0.00    -0.043 A 
ATOM     59  H   LIG d   1       8.963   7.329 -14.273  0.00  0.00     0.083 H 
ATOM     60  C   LIG d   1      10.170   8.129 -11.232  0.00  0.00    -0.052 A 
ATOM     61  H   LIG d   1      10.236   9.108 -13.142  0.00  0.00     0.063 H 
ATOM     62  H   LIG d   1      10.722   8.896 -10.712  0.00  0.00     0.062 H 
ENDBRANCH  50  53
ENDBRANCH  49  50
ENDBRANCH   3  49
TORSDOF 9
ENDMDL
MODEL 6
REMARK VINA RESULT:      -6.2      2.963      4.616
REMARK  9 active torsions:
REMARK  status: ('A' for Active; 'I' for Inactive)
REMARK    1  A    between atoms: C_1  and  C_2 
REMARK    2  A    between atoms: C_4  and  O_26 
REMARK    3  A    between atoms: C_5  and  C_25 
REMARK    4  A    between atoms: C_10  and  C_15 
REMARK    5  A    between atoms: C_12  and  O_14 
REMARK    6  A    between atoms: C_15  and  C_17 
REMARK    7  A    between atoms: C_15  and  C_18 
REMARK       I    between atoms: C_18  and  N_20 
REMARK    8  A    between atoms: O_26  and  C_27 
REMARK    9  A    between atoms: C_27  and  C_28 
ROOT
ATOM      1  C   LIG d   1       9.943   5.033  -5.117  0.00  0.00    -0.043 A 
ATOM      2  C   LIG d   1      10.205   5.663  -6.315  0.00  0.00    -0.017 A 
ATOM      3  C   LIG d   1       9.899   5.026  -7.508  0.00  0.00     0.124 A 
ATOM      4  C   LIG d   1       9.324   3.766  -7.484  0.00  0.00    -0.003 A 
ATOM      5  C   LIG d   1       9.062   3.135  -6.277  0.00  0.00    -0.009 A 
ATOM      6  C   LIG d   1       9.368   3.768  -5.093  0.00  0.00    -0.038 A 
ATOM      7  C   LIG d   1       9.103   3.145  -3.748  0.00  0.00    -0.027 C 
ATOM      8  C   LIG d   1       8.890   1.640  -3.885  0.00  0.00    -0.043 C 
ATOM      9  C   LIG d   1       7.836   1.397  -4.972  0.00  0.00     0.000 C 
ATOM     10  H   LIG d   1       6.964   2.023  -4.784  0.00  0.00     0.034 H 
ATOM     11  C   LIG d   1       8.446   1.760  -6.324  0.00  0.00     0.084 C 
ATOM     12  H   LIG d   1       9.216   1.031  -6.579  0.00  0.00     0.065 H 
ATOM     13  H   LIG d   1      10.652   6.647  -6.324  0.00  0.00     0.066 H 
ATOM     14  H   LIG d   1       8.210   3.596  -3.313  0.00  0.00     0.031 H 
ATOM     15  H   LIG d   1       9.954   3.330  -3.092  0.00  0.00     0.031 H 
ATOM     16  H   LIG d   1       8.541   1.230  -2.938  0.00  0.00     0.027 H 
ATOM     17  H   LIG d   1       9.827   1.160  -4.170  0.00  0.00     0.027 H 
ENDROOT
BRANCH   9  18
ATOM     18  C   LIG d   1       7.423  -0.076  -4.972  0.00  0.00     0.038 C 
ATOM     19  H   LIG d   1       7.705  -0.532  -4.023  0.00  0.00     0.040 H 
BRANCH  18  20
ATOM     20  C   LIG d   1       8.130  -0.803  -6.118  0.00  0.00    -0.054 C 
ATOM     21  H   LIG d   1       7.411  -1.025  -6.906  0.00  0.00     0.024 H 
ATOM     22  H   LIG d   1       8.923  -0.171  -6.515  0.00  0.00     0.024 H 
ATOM     23  H   LIG d   1       8.559  -1.734  -5.746  0.00  0.00     0.024 H 
ENDBRANCH  18  20
BRANCH  18  24
ATOM     24  C   LIG d   1       5.931  -0.179  -5.156  0.00  0.00     0.219 C 
ATOM     25  O   LIG d   1       5.440   0.005  -6.249  0.00  0.00    -0.275 OA
ATOM     26  N   LIG d   1       5.142  -0.475  -4.104  0.00  0.00    -0.301 N 
ATOM     27  C   LIG d   1       3.687  -0.705  -4.159  0.00  0.00     0.015 C 
ATOM     28  C   LIG d   1       5.590  -0.628  -2.712  0.00  0.00     0.015 C 
ATOM     29  C   LIG d   1       3.376  -1.581  -2.920  0.00  0.00    -0.036 C 
ATOM     30  H   LIG d   1       3.150   0.242  -4.099  0.00  0.00     0.046 H 
ATOM     31  H   LIG d   1       3.421  -1.235  -5.075  0.00  0.00     0.046 H 
ATOM     32  C   LIG d   1       4.350  -0.988  -1.868  0.00  0.00    -0.036 C 
ATOM     33  H   LIG d   1       2.340  -1.459  -2.605  0.00  0.00     0.028 H 
ATOM     34  H   LIG d   1       3.603  -2.629  -3.116  0.00  0.00     0.028 H 
ATOM     35  H   LIG d   1       3.923  -0.100  -1.405  0.00  0.00     0.028 H 
ATOM     36  H   LIG d   1       4.601  -1.732  -1.112  0.00  0.00     0.028 H 
ATOM     37  H   LIG d   1       6.331  -1.426  -2.647  0.00  0.00     0.046 H 
ATOM     38  H   LIG d   1       6.019   0.309  -2.355  0.00  0.00     0.046 H 
ENDBRANCH  18  24
ENDBRANCH   9  18
BRANCH  11  39
ATOM     39  O   LIG d   1       7.426   1.735  -7.324  0.00  0.00    -0.387 OA
ATOM     40  H   LIG d   1       7.751   1.544  -8.214  0.00  0.00     0.210 HD
ENDBRANCH  11  39
BRANCH   4  41
ATOM     41  C   LIG d   1       8.987   3.073  -8.779  0.00  0.00    -0.036 C 
ATOM     42  H   LIG d   1       8.832   2.010  -8.594  0.00  0.00     0.028 H 
ATOM     43  H   LIG d   1       8.077   3.506  -9.195  0.00  0.00     0.028 H 
ATOM     44  H   LIG d   1       9.807   3.203  -9.485  0.00  0.00     0.028 H 
ENDBRANCH   4  41
BRANCH   1  45
ATOM     45  C   LIG d   1      10.282   5.723  -3.820  0.00  0.00    -0.039 C 
ATOM     46  H   LIG d   1       9.632   5.350  -3.029  0.00  0.00     0.028 H 
ATOM     47  H   LIG d   1      11.322   5.520  -3.562  0.00  0.00     0.028 H 
ATOM     48  H   LIG d   1      10.140   6.797  -3.932  0.00  0.00     0.028 H 
ENDBRANCH   1  45
BRANCH   3  49
ATOM     49  O   LIG d   1      10.156   5.637  -8.694  0.00  0.00    -0.487 OA
BRANCH  49  50
ATOM     50  C   LIG d   1       9.278   6.696  -9.083  0.00  0.00     0.116 C 
ATOM     51  H   LIG d   1       9.036   6.596 -10.142  0.00  0.00     0.075 H 
ATOM     52  H   LIG d   1       8.363   6.643  -8.494  0.00  0.00     0.075 H 
BRANCH  50  53
ATOM     53  C   LIG d   1       9.953   8.022  -8.846  0.00  0.00     0.008 A 
ATOM     54  C   LIG d   1       9.353   8.982  -8.054  0.00  0.00     0.034 A 
ATOM     55  N   LIG d   1       9.938  10.145  -7.843  0.00  0.00    -0.263 NA
ATOM     56  H   LIG d   1       8.392   8.777  -7.604  0.00  0.00     0.083 H 
ATOM     57  C   LIG d   1      11.109  10.438  -8.373  0.00  0.00     0.028 A 
ATOM     58  C   LIG d   1      11.769   9.527  -9.177  0.00  0.00    -0.043 A 
ATOM     59  H   LIG d   1      11.558  11.401  -8.178  0.00  0.00     0.083 H 
ATOM     60  C   LIG d   1      11.188   8.291  -9.417  0.00  0.00    -0.052 A 
ATOM     61  H   LIG d   1      12.729   9.773  -9.608  0.00  0.00     0.063 H 
ATOM     62  H   LIG d   1      11.683   7.559 -10.037  0.00  0.00     0.062 H 
ENDBRANCH  50  53
ENDBRANCH  49  50
ENDBRANCH   3  49
TORSDOF 9
ENDMDL
MODEL 7
REMARK VINA RESULT:      -6.2      5.203      8.266
REMARK  9 active torsions:
REMARK  status: ('A' for Active; 'I' for Inactive)
REMARK    1  A    between atoms: C_1  and  C_2 
REMARK    2  A    between atoms: C_4  and  O_26 
REMARK    3  A    between atoms: C_5  and  C_25 
REMARK    4  A    between atoms: C_10  and  C_15 
REMARK    5  A    between atoms: C_12  and  O_14 
REMARK    6  A    between atoms: C_15  and  C_17 
REMARK    7  A    between atoms: C_15  and  C_18 
REMARK       I    between atoms: C_18  and  N_20 
REMARK    8  A    between atoms: O_26  and  C_27 
REMARK    9  A    between atoms: C_27  and  C_28 
ROOT
ATOM      1  C   LIG d   1       3.249   0.092  -8.215  0.00  0.00    -0.043 A 
ATOM      2  C   LIG d   1       4.016  -0.211  -7.111  0.00  0.00    -0.017 A 
ATOM      3  C   LIG d   1       4.384  -1.527  -6.870  0.00  0.00     0.124 A 
ATOM      4  C   LIG d   1       3.983  -2.521  -7.746  0.00  0.00    -0.003 A 
ATOM      5  C   LIG d   1       3.211  -2.213  -8.856  0.00  0.00    -0.009 A 
ATOM      6  C   LIG d   1       2.845  -0.907  -9.093  0.00  0.00    -0.038 A 
ATOM      7  C   LIG d   1       2.015  -0.500 -10.282  0.00  0.00    -0.027 C 
ATOM      8  C   LIG d   1       1.307  -1.711 -10.883  0.00  0.00    -0.043 C 
ATOM      9  C   LIG d   1       2.348  -2.812 -11.119  0.00  0.00     0.000 C 
ATOM     10  H   LIG d   1       3.204  -2.401 -11.654  0.00  0.00     0.034 H 
ATOM     11  C   LIG d   1       2.801  -3.346  -9.761  0.00  0.00     0.084 C 
ATOM     12  H   LIG d   1       1.980  -3.896  -9.299  0.00  0.00     0.065 H 
ATOM     13  H   LIG d   1       4.326   0.571  -6.434  0.00  0.00     0.066 H 
ATOM     14  H   LIG d   1       2.663  -0.052 -11.036  0.00  0.00     0.031 H 
ATOM     15  H   LIG d   1       1.272   0.232  -9.967  0.00  0.00     0.031 H 
ATOM     16  H   LIG d   1       0.845  -1.435 -11.830  0.00  0.00     0.027 H 
ATOM     17  H   LIG d   1       0.543  -2.070 -10.193  0.00  0.00     0.027 H 
ENDROOT
BRANCH   9  18
ATOM     18  C   LIG d   1       1.725  -3.946 -11.936  0.00  0.00     0.038 C 
ATOM     19  H   LIG d   1       2.500  -4.661 -12.215  0.00  0.00     0.040 H 
BRANCH  18  20
ATOM     20  C   LIG d   1       1.080  -3.371 -13.198  0.00  0.00    -0.054 C 
ATOM     21  H   LIG d   1       1.802  -3.385 -14.014  0.00  0.00     0.024 H 
ATOM     22  H   LIG d   1       0.213  -3.971 -13.469  0.00  0.00     0.024 H 
ATOM     23  H   LIG d   1       0.766  -2.344 -13.008  0.00  0.00     0.024 H 
ENDBRANCH  18  20
BRANCH  18  24
ATOM     24  C   LIG d   1       0.676  -4.642 -11.108  0.00  0.00     0.219 C 
ATOM     25  O   LIG d   1      -0.297  -4.030 -10.722  0.00  0.00    -0.275 OA
ATOM     26  N   LIG d   1       0.819  -5.946 -10.796  0.00  0.00    -0.301 N 
ATOM     27  C   LIG d   1      -0.172  -6.774 -10.084  0.00  0.00     0.015 C 
ATOM     28  C   LIG d   1       1.987  -6.780 -11.115  0.00  0.00     0.015 C 
ATOM     29  C   LIG d   1       0.145  -8.228 -10.512  0.00  0.00    -0.036 C 
ATOM     30  H   LIG d   1      -0.056  -6.661  -9.006  0.00  0.00     0.046 H 
ATOM     31  H   LIG d   1      -1.183  -6.499 -10.388  0.00  0.00     0.046 H 
ATOM     32  C   LIG d   1       1.694  -8.200 -10.587  0.00  0.00    -0.036 C 
ATOM     33  H   LIG d   1      -0.197  -8.939  -9.761  0.00  0.00     0.028 H 
ATOM     34  H   LIG d   1      -0.290  -8.451 -11.486  0.00  0.00     0.028 H 
ATOM     35  H   LIG d   1       2.130  -8.346  -9.600  0.00  0.00     0.028 H 
ATOM     36  H   LIG d   1       2.060  -8.954 -11.284  0.00  0.00     0.028 H 
ATOM     37  H   LIG d   1       2.139  -6.807 -12.194  0.00  0.00     0.046 H 
ATOM     38  H   LIG d   1       2.874  -6.380 -10.623  0.00  0.00     0.046 H 
ENDBRANCH  18  24
ENDBRANCH   9  18
BRANCH  11  39
ATOM     39  O   LIG d   1       3.911  -4.226  -9.946  0.00  0.00    -0.387 OA
ATOM     40  H   LIG d   1       4.728  -3.779 -10.204  0.00  0.00     0.210 HD
ENDBRANCH  11  39
BRANCH   4  41
ATOM     41  C   LIG d   1       4.385  -3.951  -7.488  0.00  0.00    -0.036 C 
ATOM     42  H   LIG d   1       3.735  -4.619  -8.053  0.00  0.00     0.028 H 
ATOM     43  H   LIG d   1       5.419  -4.099  -7.801  0.00  0.00     0.028 H 
ATOM     44  H   LIG d   1       4.293  -4.168  -6.424  0.00  0.00     0.028 H 
ENDBRANCH   4  41
BRANCH   1  45
ATOM     45  C   LIG d   1       2.844   1.521  -8.473  0.00  0.00    -0.039 C 
ATOM     46  H   LIG d   1       1.989   1.775  -7.846  0.00  0.00     0.028 H 
ATOM     47  H   LIG d   1       3.677   2.183  -8.237  0.00  0.00     0.028 H 
ATOM     48  H   LIG d   1       2.573   1.638  -9.522  0.00  0.00     0.028 H 
ENDBRANCH   1  45
BRANCH   3  49
ATOM     49  O   LIG d   1       5.138  -1.837  -5.782  0.00  0.00    -0.487 OA
BRANCH  49  50
ATOM     50  C   LIG d   1       6.013  -0.820  -5.287  0.00  0.00     0.116 C 
ATOM     51  H   LIG d   1       7.017  -1.231  -5.171  0.00  0.00     0.075 H 
ATOM     52  H   LIG d   1       6.039   0.011  -5.991  0.00  0.00     0.075 H 
BRANCH  50  53
ATOM     53  C   LIG d   1       5.513  -0.333  -3.952  0.00  0.00     0.008 A 
ATOM     54  C   LIG d   1       5.875   0.914  -3.481  0.00  0.00     0.034 A 
ATOM     55  N   LIG d   1       5.442   1.347  -2.313  0.00  0.00    -0.263 NA
ATOM     56  H   LIG d   1       6.522   1.542  -4.077  0.00  0.00     0.083 H 
ATOM     57  C   LIG d   1       4.652   0.615  -1.552  0.00  0.00     0.028 A 
ATOM     58  C   LIG d   1       4.248  -0.643  -1.958  0.00  0.00    -0.043 A 
ATOM     59  H   LIG d   1       4.317   1.003  -0.602  0.00  0.00     0.083 H 
ATOM     60  C   LIG d   1       4.679  -1.131  -3.182  0.00  0.00    -0.052 A 
ATOM     61  H   LIG d   1       3.601  -1.238  -1.329  0.00  0.00     0.063 H 
ATOM     62  H   LIG d   1       4.376  -2.108  -3.526  0.00  0.00     0.062 H 
ENDBRANCH  50  53
ENDBRANCH  49  50
ENDBRANCH   3  49
TORSDOF 9
ENDMDL
MODEL 8
REMARK VINA RESULT:      -6.1      2.773      8.040
REMARK  9 active torsions:
REMARK  status: ('A' for Active; 'I' for Inactive)
REMARK    1  A    between atoms: C_1  and  C_2 
REMARK    2  A    between atoms: C_4  and  O_26 
REMARK    3  A    between atoms: C_5  and  C_25 
REMARK    4  A    between atoms: C_10  and  C_15 
REMARK    5  A    between atoms: C_12  and  O_14 
REMARK    6  A    between atoms: C_15  and  C_17 
REMARK    7  A    between atoms: C_15  and  C_18 
REMARK       I    between atoms: C_18  and  N_20 
REMARK    8  A    between atoms: O_26  and  C_27 
REMARK    9  A    between atoms: C_27  and  C_28 
ROOT
ATOM      1  C   LIG d   1       8.642   2.341  -7.591  0.00  0.00    -0.043 A 
ATOM      2  C   LIG d   1       8.319   1.295  -6.753  0.00  0.00    -0.017 A 
ATOM      3  C   LIG d   1       8.648   1.365  -5.408  0.00  0.00     0.124 A 
ATOM      4  C   LIG d   1       9.290   2.489  -4.917  0.00  0.00    -0.003 A 
ATOM      5  C   LIG d   1       9.614   3.540  -5.763  0.00  0.00    -0.009 A 
ATOM      6  C   LIG d   1       9.289   3.468  -7.099  0.00  0.00    -0.038 A 
ATOM      7  C   LIG d   1       9.603   4.575  -8.071  0.00  0.00    -0.027 C 
ATOM      8  C   LIG d   1      10.664   5.511  -7.495  0.00  0.00    -0.043 C 
ATOM      9  C   LIG d   1      10.221   5.938  -6.091  0.00  0.00     0.000 C 
ATOM     10  H   LIG d   1       9.190   6.289  -6.122  0.00  0.00     0.034 H 
ATOM     11  C   LIG d   1      10.324   4.728  -5.164  0.00  0.00     0.084 C 
ATOM     12  H   LIG d   1      11.374   4.479  -5.012  0.00  0.00     0.065 H 
ATOM     13  H   LIG d   1       7.815   0.423  -7.144  0.00  0.00     0.066 H 
ATOM     14  H   LIG d   1       8.696   5.144  -8.274  0.00  0.00     0.031 H 
ATOM     15  H   LIG d   1       9.972   4.142  -9.001  0.00  0.00     0.031 H 
ATOM     16  H   LIG d   1      10.763   6.389  -8.132  0.00  0.00     0.027 H 
ATOM     17  H   LIG d   1      11.620   4.990  -7.436  0.00  0.00     0.027 H 
ENDROOT
BRANCH   9  18
ATOM     18  C   LIG d   1      11.132   7.056  -5.580  0.00  0.00     0.038 C 
ATOM     19  H   LIG d   1      11.662   7.505  -6.420  0.00  0.00     0.040 H 
BRANCH  18  20
ATOM     20  C   LIG d   1      12.143   6.477  -4.589  0.00  0.00    -0.054 C 
ATOM     21  H   LIG d   1      11.951   6.881  -3.595  0.00  0.00     0.024 H 
ATOM     22  H   LIG d   1      12.048   5.392  -4.565  0.00  0.00     0.024 H 
ATOM     23  H   LIG d   1      13.152   6.746  -4.902  0.00  0.00     0.024 H 
ENDBRANCH  18  20
BRANCH  18  24
ATOM     24  C   LIG d   1      10.299   8.106  -4.892  0.00  0.00     0.219 C 
ATOM     25  O   LIG d   1       9.844   7.893  -3.788  0.00  0.00    -0.275 OA
ATOM     26  N   LIG d   1      10.059   9.283  -5.504  0.00  0.00    -0.301 N 
ATOM     27  C   LIG d   1       9.351  10.432  -4.911  0.00  0.00     0.015 C 
ATOM     28  C   LIG d   1      10.467   9.637  -6.872  0.00  0.00     0.015 C 
ATOM     29  C   LIG d   1       9.865  11.664  -5.697  0.00  0.00    -0.036 C 
ATOM     30  H   LIG d   1       8.274  10.322  -5.039  0.00  0.00     0.046 H 
ATOM     31  H   LIG d   1       9.600  10.526  -3.853  0.00  0.00     0.046 H 
ATOM     32  C   LIG d   1      10.000  11.085  -7.129  0.00  0.00    -0.036 C 
ATOM     33  H   LIG d   1       9.137  12.475  -5.671  0.00  0.00     0.028 H 
ATOM     34  H   LIG d   1      10.830  11.995  -5.316  0.00  0.00     0.028 H 
ATOM     35  H   LIG d   1       9.040  11.098  -7.644  0.00  0.00     0.028 H 
ATOM     36  H   LIG d   1      10.748  11.635  -7.699  0.00  0.00     0.028 H 
ATOM     37  H   LIG d   1      11.551   9.572  -6.964  0.00  0.00     0.046 H 
ATOM     38  H   LIG d   1       9.991   8.964  -7.586  0.00  0.00     0.046 H 
ENDBRANCH  18  24
ENDBRANCH   9  18
BRANCH  11  39
ATOM     39  O   LIG d   1       9.729   5.046  -3.905  0.00  0.00    -0.387 OA
ATOM     40  H   LIG d   1      10.017   5.892  -3.536  0.00  0.00     0.210 HD
ENDBRANCH  11  39
BRANCH   4  41
ATOM     41  C   LIG d   1       9.645   2.569  -3.455  0.00  0.00    -0.036 C 
ATOM     42  H   LIG d   1      10.023   3.566  -3.226  0.00  0.00     0.028 H 
ATOM     43  H   LIG d   1       8.756   2.371  -2.855  0.00  0.00     0.028 H 
ATOM     44  H   LIG d   1      10.411   1.829  -3.225  0.00  0.00     0.028 H 
ENDBRANCH   4  41
BRANCH   1  45
ATOM     45  C   LIG d   1       8.291   2.262  -9.055  0.00  0.00    -0.039 C 
ATOM     46  H   LIG d   1       8.761   1.382  -9.494  0.00  0.00     0.028 H 
ATOM     47  H   LIG d   1       7.209   2.189  -9.165  0.00  0.00     0.028 H 
ATOM     48  H   LIG d   1       8.648   3.157  -9.563  0.00  0.00     0.028 H 
ENDBRANCH   1  45
BRANCH   3  49
ATOM     49  O   LIG d   1       8.335   0.338  -4.574  0.00  0.00    -0.487 OA
BRANCH  49  50
ATOM     50  C   LIG d   1       7.127  -0.375  -4.847  0.00  0.00     0.116 C 
ATOM     51  H   LIG d   1       6.678   0.010  -5.763  0.00  0.00     0.075 H 
ATOM     52  H   LIG d   1       7.350  -1.434  -4.968  0.00  0.00     0.075 H 
BRANCH  50  53
ATOM     53  C   LIG d   1       6.165  -0.190  -3.701  0.00  0.00     0.008 A 
ATOM     54  C   LIG d   1       5.991   1.055  -3.127  0.00  0.00     0.034 A 
ATOM     55  N   LIG d   1       5.151   1.224  -2.124  0.00  0.00    -0.263 NA
ATOM     56  H   LIG d   1       6.550   1.899  -3.504  0.00  0.00     0.083 H 
ATOM     57  C   LIG d   1       4.449   0.222  -1.632  0.00  0.00     0.028 A 
ATOM     58  C   LIG d   1       4.571  -1.052  -2.156  0.00  0.00    -0.043 A 
ATOM     59  H   LIG d   1       3.771   0.399  -0.810  0.00  0.00     0.083 H 
ATOM     60  C   LIG d   1       5.441  -1.267  -3.214  0.00  0.00    -0.052 A 
ATOM     61  H   LIG d   1       3.993  -1.868  -1.748  0.00  0.00     0.063 H 
ATOM     62  H   LIG d   1       5.553  -2.250  -3.646  0.00  0.00     0.062 H 
ENDBRANCH  50  53
ENDBRANCH  49  50
ENDBRANCH   3  49
TORSDOF 9
ENDMDL
MODEL 9
REMARK VINA RESULT:      -6.1      5.869      8.884
REMARK  9 active torsions:
REMARK  status: ('A' for Active; 'I' for Inactive)
REMARK    1  A    between atoms: C_1  and  C_2 
REMARK    2  A    between atoms: C_4  and  O_26 
REMARK    3  A    between atoms: C_5  and  C_25 
REMARK    4  A    between atoms: C_10  and  C_15 
REMARK    5  A    between atoms: C_12  and  O_14 
REMARK    6  A    between atoms: C_15  and  C_17 
REMARK    7  A    between atoms: C_15  and  C_18 
REMARK       I    between atoms: C_18  and  N_20 
REMARK    8  A    between atoms: O_26  and  C_27 
REMARK    9  A    between atoms: C_27  and  C_28 
ROOT
ATOM      1  C   LIG d   1       4.293  -2.701  -7.429  0.00  0.00    -0.043 A 
ATOM      2  C   LIG d   1       4.216  -1.589  -6.618  0.00  0.00    -0.017 A 
ATOM      3  C   LIG d   1       3.543  -0.460  -7.060  0.00  0.00     0.124 A 
ATOM      4  C   LIG d   1       2.947  -0.464  -8.310  0.00  0.00    -0.003 A 
ATOM      5  C   LIG d   1       3.026  -1.584  -9.124  0.00  0.00    -0.009 A 
ATOM      6  C   LIG d   1       3.696  -2.704  -8.684  0.00  0.00    -0.038 A 
ATOM      7  C   LIG d   1       3.814  -3.957  -9.512  0.00  0.00    -0.027 C 
ATOM      8  C   LIG d   1       3.504  -3.663 -10.978  0.00  0.00    -0.043 C 
ATOM      9  C   LIG d   1       2.166  -2.918 -11.050  0.00  0.00     0.000 C 
ATOM     10  H   LIG d   1       1.417  -3.450 -10.464  0.00  0.00     0.034 H 
ATOM     11  C   LIG d   1       2.364  -1.516 -10.477  0.00  0.00     0.084 C 
ATOM     12  H   LIG d   1       2.991  -0.935 -11.154  0.00  0.00     0.065 H 
ATOM     13  H   LIG d   1       4.683  -1.596  -5.643  0.00  0.00     0.066 H 
ATOM     14  H   LIG d   1       3.111  -4.701  -9.139  0.00  0.00     0.031 H 
ATOM     15  H   LIG d   1       4.828  -4.347  -9.430  0.00  0.00     0.031 H 
ATOM     16  H   LIG d   1       3.434  -4.598 -11.533  0.00  0.00     0.027 H 
ATOM     17  H   LIG d   1       4.293  -3.042 -11.403  0.00  0.00     0.027 H 
ENDROOT
BRANCH   9  18
ATOM     18  C   LIG d   1       1.708  -2.818 -12.506  0.00  0.00     0.038 C 
ATOM     19  H   LIG d   1       2.017  -3.713 -13.046  0.00  0.00     0.040 H 
BRANCH  18  20
ATOM     20  C   LIG d   1       2.339  -1.585 -13.156  0.00  0.00    -0.054 C 
ATOM     21  H   LIG d   1       3.081  -1.159 -12.482  0.00  0.00     0.024 H 
ATOM     22  H   LIG d   1       2.819  -1.873 -14.091  0.00  0.00     0.024 H 
ATOM     23  H   LIG d   1       1.564  -0.846 -13.358  0.00  0.00     0.024 H 
ENDBRANCH  18  20
BRANCH  18  24
ATOM     24  C   LIG d   1       0.206  -2.698 -12.552  0.00  0.00     0.219 C 
ATOM     25  O   LIG d   1      -0.310  -1.620 -12.761  0.00  0.00    -0.275 OA
ATOM     26  N   LIG d   1      -0.563  -3.788 -12.361  0.00  0.00    -0.301 N 
ATOM     27  C   LIG d   1      -2.032  -3.835 -12.479  0.00  0.00     0.015 C 
ATOM     28  C   LIG d   1      -0.076  -5.129 -12.008  0.00  0.00     0.015 C 
ATOM     29  C   LIG d   1      -2.358  -5.317 -12.789  0.00  0.00    -0.036 C 
ATOM     30  H   LIG d   1      -2.498  -3.531 -11.541  0.00  0.00     0.046 H 
ATOM     31  H   LIG d   1      -2.367  -3.194 -13.295  0.00  0.00     0.046 H 
ATOM     32  C   LIG d   1      -1.307  -6.055 -11.919  0.00  0.00    -0.036 C 
ATOM     33  H   LIG d   1      -3.371  -5.568 -12.474  0.00  0.00     0.028 H 
ATOM     34  H   LIG d   1      -2.213  -5.536 -13.846  0.00  0.00     0.028 H 
ATOM     35  H   LIG d   1      -1.653  -6.146 -10.890  0.00  0.00     0.028 H 
ATOM     36  H   LIG d   1      -1.082  -7.037 -12.335  0.00  0.00     0.028 H 
ATOM     37  H   LIG d   1       0.608  -5.490 -12.776  0.00  0.00     0.046 H 
ATOM     38  H   LIG d   1       0.431  -5.097 -11.043  0.00  0.00     0.046 H 
ENDBRANCH  18  24
ENDBRANCH   9  18
BRANCH  11  39
ATOM     39  O   LIG d   1       1.093  -0.875 -10.347  0.00  0.00    -0.387 OA
ATOM     40  H   LIG d   1       0.940  -0.477  -9.480  0.00  0.00     0.210 HD
ENDBRANCH  11  39
BRANCH   4  41
ATOM     41  C   LIG d   1       2.211   0.760  -8.791  0.00  0.00    -0.036 C 
ATOM     42  H   LIG d   1       1.583   0.496  -9.643  0.00  0.00     0.028 H 
ATOM     43  H   LIG d   1       1.586   1.148  -7.986  0.00  0.00     0.028 H 
ATOM     44  H   LIG d   1       2.930   1.521  -9.092  0.00  0.00     0.028 H 
ENDBRANCH   4  41
BRANCH   1  45
ATOM     45  C   LIG d   1       5.031  -3.925  -6.951  0.00  0.00    -0.039 C 
ATOM     46  H   LIG d   1       4.366  -4.788  -6.988  0.00  0.00     0.028 H 
ATOM     47  H   LIG d   1       5.894  -4.103  -7.593  0.00  0.00     0.028 H 
ATOM     48  H   LIG d   1       5.367  -3.769  -5.926  0.00  0.00     0.028 H 
ENDBRANCH   1  45
BRANCH   3  49
ATOM     49  O   LIG d   1       3.464   0.642  -6.269  0.00  0.00    -0.487 OA
BRANCH  49  50
ATOM     50  C   LIG d   1       2.510   0.610  -5.205  0.00  0.00     0.116 C 
ATOM     51  H   LIG d   1       2.020   1.582  -5.127  0.00  0.00     0.075 H 
ATOM     52  H   LIG d   1       1.764  -0.157  -5.408  0.00  0.00     0.075 H 
BRANCH  50  53
ATOM     53  C   LIG d   1       3.213   0.299  -3.909  0.00  0.00     0.008 A 
ATOM     54  C   LIG d   1       3.818   1.305  -3.181  0.00  0.00     0.034 A 
ATOM     55  N   LIG d   1       4.436   1.040  -2.046  0.00  0.00    -0.263 NA
ATOM     56  H   LIG d   1       3.786   2.322  -3.546  0.00  0.00     0.083 H 
ATOM     57  C   LIG d   1       4.500  -0.185  -1.562  0.00  0.00     0.028 A 
ATOM     58  C   LIG d   1       3.918  -1.243  -2.235  0.00  0.00    -0.043 A 
ATOM     59  H   LIG d   1       5.014  -0.364  -0.629  0.00  0.00     0.083 H 
ATOM     60  C   LIG d   1       3.256  -1.002  -3.430  0.00  0.00    -0.052 A 
ATOM     61  H   LIG d   1       3.975  -2.244  -1.833  0.00  0.00     0.063 H 
ATOM     62  H   LIG d   1       2.788  -1.808  -3.975  0.00  0.00     0.062 H 
ENDBRANCH  50  53
ENDBRANCH  49  50
ENDBRANCH   3  49
TORSDOF 9
ENDMDL
MODEL 10
REMARK VINA RESULT:      -6.0      5.937      9.361
REMARK  9 active torsions:
REMARK  status: ('A' for Active; 'I' for Inactive)
REMARK    1  A    between atoms: C_1  and  C_2 
REMARK    2  A    between atoms: C_4  and  O_26 
REMARK    3  A    between atoms: C_5  and  C_25 
REMARK    4  A    between atoms: C_10  and  C_15 
REMARK    5  A    between atoms: C_12  and  O_14 
REMARK    6  A    between atoms: C_15  and  C_17 
REMARK    7  A    between atoms: C_15  and  C_18 
REMARK       I    between atoms: C_18  and  N_20 
REMARK    8  A    between atoms: O_26  and  C_27 
REMARK    9  A    between atoms: C_27  and  C_28 
ROOT
ATOM      1  C   LIG d   1       7.752  -6.825  -4.918  0.00  0.00    -0.043 A 
ATOM      2  C   LIG d   1       8.840  -7.287  -4.209  0.00  0.00    -0.017 A 
ATOM      3  C   LIG d   1       9.712  -6.383  -3.621  0.00  0.00     0.124 A 
ATOM      4  C   LIG d   1       9.476  -5.025  -3.744  0.00  0.00    -0.003 A 
ATOM      5  C   LIG d   1       8.380  -4.562  -4.457  0.00  0.00    -0.009 A 
ATOM      6  C   LIG d   1       7.516  -5.461  -5.043  0.00  0.00    -0.038 A 
ATOM      7  C   LIG d   1       6.303  -5.030  -5.824  0.00  0.00    -0.027 C 
ATOM      8  C   LIG d   1       6.420  -3.563  -6.231  0.00  0.00    -0.043 C 
ATOM      9  C   LIG d   1       6.759  -2.740  -4.983  0.00  0.00     0.000 C 
ATOM     10  H   LIG d   1       6.071  -2.995  -4.177  0.00  0.00     0.034 H 
ATOM     11  C   LIG d   1       8.189  -3.071  -4.561  0.00  0.00     0.084 C 
ATOM     12  H   LIG d   1       8.884  -2.670  -5.300  0.00  0.00     0.065 H 
ATOM     13  H   LIG d   1       9.016  -8.349  -4.117  0.00  0.00     0.066 H 
ATOM     14  H   LIG d   1       5.413  -5.161  -5.208  0.00  0.00     0.031 H 
ATOM     15  H   LIG d   1       6.215  -5.645  -6.719  0.00  0.00     0.031 H 
ATOM     16  H   LIG d   1       5.474  -3.221  -6.650  0.00  0.00     0.027 H 
ATOM     17  H   LIG d   1       7.212  -3.449  -6.972  0.00  0.00     0.027 H 
ENDROOT
BRANCH   9  18
ATOM     18  C   LIG d   1       6.649  -1.247  -5.302  0.00  0.00     0.038 C 
ATOM     19  H   LIG d   1       5.797  -1.079  -5.961  0.00  0.00     0.040 H 
BRANCH  18  20
ATOM     20  C   LIG d   1       7.931  -0.778  -5.993  0.00  0.00    -0.054 C 
ATOM     21  H   LIG d   1       8.520  -1.644  -6.294  0.00  0.00     0.024 H 
ATOM     22  H   LIG d   1       7.674  -0.189  -6.873  0.00  0.00     0.024 H 
ATOM     23  H   LIG d   1       8.511  -0.166  -5.302  0.00  0.00     0.024 H 
ENDBRANCH  18  20
BRANCH  18  24
ATOM     24  C   LIG d   1       6.455  -0.474  -4.023  0.00  0.00     0.219 C 
ATOM     25  O   LIG d   1       7.401   0.065  -3.491  0.00  0.00    -0.275 OA
ATOM     26  N   LIG d   1       5.229  -0.382  -3.471  0.00  0.00    -0.301 N 
ATOM     27  C   LIG d   1       4.877   0.421  -2.286  0.00  0.00     0.015 C 
ATOM     28  C   LIG d   1       4.017  -1.061  -3.955  0.00  0.00     0.015 C 
ATOM     29  C   LIG d   1       3.360   0.696  -2.428  0.00  0.00    -0.036 C 
ATOM     30  H   LIG d   1       5.078  -0.141  -1.373  0.00  0.00     0.046 H 
ATOM     31  H   LIG d   1       5.435   1.358  -2.284  0.00  0.00     0.046 H 
ATOM     32  C   LIG d   1       2.856  -0.642  -3.030  0.00  0.00    -0.036 C 
ATOM     33  H   LIG d   1       2.904   0.882  -1.456  0.00  0.00     0.028 H 
ATOM     34  H   LIG d   1       3.176   1.526  -3.110  0.00  0.00     0.028 H 
ATOM     35  H   LIG d   1       2.696  -1.382  -2.247  0.00  0.00     0.028 H 
ATOM     36  H   LIG d   1       1.942  -0.487  -3.604  0.00  0.00     0.028 H 
ATOM     37  H   LIG d   1       3.807  -0.757  -4.981  0.00  0.00     0.046 H 
ATOM     38  H   LIG d   1       4.154  -2.142  -3.908  0.00  0.00     0.046 H 
ENDBRANCH  18  24
ENDBRANCH   9  18
BRANCH  11  39
ATOM     39  O   LIG d   1       8.457  -2.473  -3.291  0.00  0.00    -0.387 OA
ATOM     40  H   LIG d   1       7.670  -2.338  -2.746  0.00  0.00     0.210 HD
ENDBRANCH  11  39
BRANCH   4  41
ATOM     41  C   LIG d   1      10.419  -4.040  -3.102  0.00  0.00    -0.036 C 
ATOM     42  H   LIG d   1       9.990  -3.682  -2.166  0.00  0.00     0.028 H 
ATOM     43  H   LIG d   1      11.373  -4.530  -2.901  0.00  0.00     0.028 H 
ATOM     44  H   LIG d   1      10.578  -3.197  -3.774  0.00  0.00     0.028 H 
ENDBRANCH   4  41
BRANCH   1  45
ATOM     45  C   LIG d   1       6.809  -7.808  -5.563  0.00  0.00    -0.039 C 
ATOM     46  H   LIG d   1       6.968  -7.809  -6.641  0.00  0.00     0.028 H 
ATOM     47  H   LIG d   1       6.997  -8.806  -5.167  0.00  0.00     0.028 H 
ATOM     48  H   LIG d   1       5.780  -7.520  -5.348  0.00  0.00     0.028 H 
ENDBRANCH   1  45
BRANCH   3  49
ATOM     49  O   LIG d   1      10.790  -6.829  -2.923  0.00  0.00    -0.487 OA
BRANCH  49  50
ATOM     50  C   LIG d   1      10.971  -8.244  -2.842  0.00  0.00     0.116 C 
ATOM     51  H   LIG d   1      10.190  -8.743  -3.417  0.00  0.00     0.075 H 
ATOM     52  H   LIG d   1      11.947  -8.509  -3.249  0.00  0.00     0.075 H 
BRANCH  50  53
ATOM     53  C   LIG d   1      10.891  -8.681  -1.402  0.00  0.00     0.008 A 
ATOM     54  C   LIG d   1      11.550  -7.969  -0.418  0.00  0.00     0.034 A 
ATOM     55  N   LIG d   1      11.485  -8.346   0.845  0.00  0.00    -0.263 NA
ATOM     56  H   LIG d   1      12.125  -7.095  -0.685  0.00  0.00     0.083 H 
ATOM     57  C   LIG d   1      10.795  -9.406   1.217  0.00  0.00     0.028 A 
ATOM     58  C   LIG d   1      10.111 -10.167   0.288  0.00  0.00    -0.043 A 
ATOM     59  H   LIG d   1      10.765  -9.684   2.261  0.00  0.00     0.083 H 
ATOM     60  C   LIG d   1      10.152  -9.799  -1.049  0.00  0.00    -0.052 A 
ATOM     61  H   LIG d   1       9.548 -11.035   0.599  0.00  0.00     0.063 H 
ATOM     62  H   LIG d   1       9.624 -10.372  -1.796  0.00  0.00     0.062 H 
ENDBRANCH  50  53
ENDBRANCH  49  50
ENDBRANCH   3  49
TORSDOF 9
ENDMDL
