MODEL 1
REMARK VINA RESULT:      -6.8      0.000      0.000
REMARK  7 active torsions:
REMARK  status: ('A' for Active; 'I' for Inactive)
REMARK    1  A    between atoms: C_1  and  C_2 
REMARK    2  A    between atoms: C_5  and  C_14 
REMARK    3  A    between atoms: C_12  and  C_13 
REMARK    4  A    between atoms: C_14  and  N_15 
REMARK    5  A    between atoms: N_18  and  C_21 
REMARK    6  A    between atoms: C_21  and  C_22 
REMARK    7  A    between atoms: C_22  and  C_23 
ROOT
ATOM      1  N   LIG d   1       5.992  -6.794  -5.314  0.00  0.00    -0.296 N 
ATOM      2  C   LIG d   1       7.158  -5.982  -5.688  0.00  0.00     0.012 C 
ATOM      3  C   LIG d   1       6.979  -4.560  -5.151  0.00  0.00     0.012 C 
ATOM      4  N   LIG d   1       5.743  -3.984  -5.698  0.00  0.00    -0.300 N 
ATOM      5  C   LIG d   1       4.577  -4.797  -5.323  0.00  0.00     0.012 C 
ATOM      6  C   LIG d   1       4.755  -6.219  -5.860  0.00  0.00     0.012 C 
ATOM      7  H   LIG d   1       8.059  -6.422  -5.261  0.00  0.00     0.044 H 
ATOM      8  H   LIG d   1       7.246  -5.953  -6.774  0.00  0.00     0.044 H 
ATOM      9  H   LIG d   1       6.918  -4.588  -4.063  0.00  0.00     0.044 H 
ATOM     10  H   LIG d   1       7.830  -3.949  -5.453  0.00  0.00     0.044 H 
ATOM     11  H   LIG d   1       4.489  -4.826  -4.237  0.00  0.00     0.044 H 
ATOM     12  H   LIG d   1       3.676  -4.356  -5.750  0.00  0.00     0.044 H 
ATOM     13  H   LIG d   1       4.817  -6.191  -6.948  0.00  0.00     0.044 H 
ATOM     14  H   LIG d   1       3.905  -6.830  -5.559  0.00  0.00     0.044 H 
ENDROOT
BRANCH   1  15
ATOM     15  C   LIG d   1       6.159  -8.188  -5.746  0.00  0.00     0.025 C 
ATOM     16  H   LIG d   1       7.216  -8.390  -5.920  0.00  0.00     0.048 H 
ATOM     17  H   LIG d   1       5.601  -8.352  -6.668  0.00  0.00     0.048 H 
BRANCH  15  18
ATOM     18  C   LIG d   1       5.641  -9.112  -4.674  0.00  0.00    -0.016 A 
ATOM     19  C   LIG d   1       6.476  -9.478  -3.526  0.00  0.00     0.022 A 
ATOM     20  C   LIG d   1       7.776  -8.981  -3.393  0.00  0.00    -0.048 A 
ATOM     21  C   LIG d   1       5.952 -10.342  -2.550  0.00  0.00     0.140 A 
ATOM     22  C   LIG d   1       8.531  -9.339  -2.312  0.00  0.00    -0.047 A 
ATOM     23  H   LIG d   1       8.182  -8.315  -4.141  0.00  0.00     0.063 H 
ATOM     24  C   LIG d   1       8.019 -10.197  -1.350  0.00  0.00    -0.044 A 
ATOM     25  C   LIG d   1       6.737 -10.694  -1.460  0.00  0.00    -0.015 A 
ATOM     26  H   LIG d   1       6.346 -11.357  -0.702  0.00  0.00     0.066 H 
ATOM     27  O   LIG d   1       4.697 -10.822  -2.681  0.00  0.00    -0.422 OA
ATOM     28  C   LIG d   1       3.926 -10.492  -3.729  0.00  0.00     0.338 A 
ATOM     29  C   LIG d   1       4.389  -9.629  -4.745  0.00  0.00     0.028 A 
ATOM     30  O   LIG d   1       2.799 -10.948  -3.804  0.00  0.00    -0.245 OA
ATOM     31  H   LIG d   1       3.746  -9.380  -5.577  0.00  0.00     0.069 H 
BRANCH  22  32
ATOM     32  C   LIG d   1       9.933  -8.804  -2.168  0.00  0.00    -0.039 C 
ATOM     33  H   LIG d   1       9.935  -7.734  -2.369  0.00  0.00     0.028 H 
ATOM     34  H   LIG d   1      10.288  -8.985  -1.153  0.00  0.00     0.028 H 
ATOM     35  H   LIG d   1      10.588  -9.309  -2.878  0.00  0.00     0.028 H 
ENDBRANCH  22  32
BRANCH  24  36
ATOM     36  C   LIG d   1       8.871 -10.586  -0.168  0.00  0.00    -0.039 C 
ATOM     37  H   LIG d   1       8.329 -11.300   0.452  0.00  0.00     0.028 H 
ATOM     38  H   LIG d   1       9.796 -11.039  -0.521  0.00  0.00     0.028 H 
ATOM     39  H   LIG d   1       9.102  -9.698   0.420  0.00  0.00     0.028 H 
ENDBRANCH  24  36
ENDBRANCH  15  18
ENDBRANCH   1  15
BRANCH   4  40
ATOM     40  C   LIG d   1       5.576  -2.591  -5.265  0.00  0.00     0.003 C 
ATOM     41  H   LIG d   1       6.544  -2.090  -5.269  0.00  0.00     0.043 H 
ATOM     42  H   LIG d   1       4.899  -2.077  -5.947  0.00  0.00     0.043 H 
BRANCH  40  43
ATOM     43  C   LIG d   1       4.993  -2.562  -3.851  0.00  0.00    -0.015 C 
ATOM     44  H   LIG d   1       3.939  -2.837  -3.886  0.00  0.00     0.033 H 
ATOM     45  H   LIG d   1       5.531  -3.271  -3.221  0.00  0.00     0.033 H 
BRANCH  43  46
ATOM     46  C   LIG d   1       5.133  -1.175  -3.278  0.00  0.00    -0.043 A 
ATOM     47  C   LIG d   1       6.077  -0.292  -3.778  0.00  0.00    -0.040 A 
ATOM     48  C   LIG d   1       6.171   0.974  -3.232  0.00  0.00     0.028 A 
ATOM     49  H   LIG d   1       6.727  -0.588  -4.588  0.00  0.00     0.064 H 
ATOM     50  N   LIG d   1       5.386   1.340  -2.239  0.00  0.00    -0.263 NA
ATOM     51  H   LIG d   1       6.901   1.670  -3.620  0.00  0.00     0.083 H 
ATOM     52  C   LIG d   1       4.481   0.525  -1.733  0.00  0.00     0.028 A 
ATOM     53  C   LIG d   1       4.324  -0.754  -2.233  0.00  0.00    -0.040 A 
ATOM     54  H   LIG d   1       3.855   0.860  -0.920  0.00  0.00     0.083 H 
ATOM     55  H   LIG d   1       3.581  -1.418  -1.816  0.00  0.00     0.064 H 
ENDBRANCH  43  46
ENDBRANCH  40  43
ENDBRANCH   4  40
TORSDOF 7
ENDMDL
MODEL 2
REMARK VINA RESULT:      -6.8      6.971     10.557
REMARK  7 active torsions:
REMARK  status: ('A' for Active; 'I' for Inactive)
REMARK    1  A    between atoms: C_1  and  C_2 
REMARK    2  A    between atoms: C_5  and  C_14 
REMARK    3  A    between atoms: C_12  and  C_13 
REMARK    4  A    between atoms: C_14  and  N_15 
REMARK    5  A    between atoms: N_18  and  C_21 
REMARK    6  A    between atoms: C_21  and  C_22 
REMARK    7  A    between atoms: C_22  and  C_23 
ROOT
ATOM      1  N   LIG d   1       9.565   3.216  -4.511  0.00  0.00    -0.296 N 
ATOM      2  C   LIG d   1       9.723   4.586  -5.019  0.00  0.00     0.012 C 
ATOM      3  C   LIG d   1      11.145   5.073  -4.730  0.00  0.00     0.012 C 
ATOM      4  N   LIG d   1      11.394   5.019  -3.283  0.00  0.00    -0.300 N 
ATOM      5  C   LIG d   1      11.236   3.649  -2.775  0.00  0.00     0.012 C 
ATOM      6  C   LIG d   1       9.815   3.161  -3.065  0.00  0.00     0.012 C 
ATOM      7  H   LIG d   1       9.545   4.598  -6.094  0.00  0.00     0.044 H 
ATOM      8  H   LIG d   1       9.006   5.242  -4.524  0.00  0.00     0.044 H 
ATOM      9  H   LIG d   1      11.860   4.434  -5.247  0.00  0.00     0.044 H 
ATOM     10  H   LIG d   1      11.255   6.100  -5.080  0.00  0.00     0.044 H 
ATOM     11  H   LIG d   1      11.953   2.994  -3.270  0.00  0.00     0.044 H 
ATOM     12  H   LIG d   1      11.414   3.637  -1.700  0.00  0.00     0.044 H 
ATOM     13  H   LIG d   1       9.099   3.801  -2.548  0.00  0.00     0.044 H 
ATOM     14  H   LIG d   1       9.704   2.135  -2.714  0.00  0.00     0.044 H 
ENDROOT
BRANCH   1  15
ATOM     15  C   LIG d   1       8.235   2.684  -4.836  0.00  0.00     0.025 C 
ATOM     16  H   LIG d   1       7.956   2.993  -5.843  0.00  0.00     0.048 H 
ATOM     17  H   LIG d   1       7.505   3.067  -4.123  0.00  0.00     0.048 H 
BRANCH  15  18
ATOM     18  C   LIG d   1       8.265   1.179  -4.763  0.00  0.00    -0.016 A 
ATOM     19  C   LIG d   1       7.229   0.439  -4.035  0.00  0.00     0.022 A 
ATOM     20  C   LIG d   1       6.185   1.108  -3.389  0.00  0.00    -0.048 A 
ATOM     21  C   LIG d   1       7.296  -0.964  -3.993  0.00  0.00     0.140 A 
ATOM     22  C   LIG d   1       5.233   0.391  -2.719  0.00  0.00    -0.047 A 
ATOM     23  H   LIG d   1       6.130   2.187  -3.421  0.00  0.00     0.063 H 
ATOM     24  C   LIG d   1       5.300  -0.993  -2.670  0.00  0.00    -0.044 A 
ATOM     25  C   LIG d   1       6.319  -1.672  -3.305  0.00  0.00    -0.015 A 
ATOM     26  H   LIG d   1       6.359  -2.751  -3.266  0.00  0.00     0.066 H 
ATOM     27  O   LIG d   1       8.306  -1.608  -4.616  0.00  0.00    -0.422 OA
ATOM     28  C   LIG d   1       9.258  -0.938  -5.284  0.00  0.00     0.338 A 
ATOM     29  C   LIG d   1       9.252   0.471  -5.367  0.00  0.00     0.028 A 
ATOM     30  O   LIG d   1      10.149  -1.562  -5.832  0.00  0.00    -0.245 OA
ATOM     31  H   LIG d   1      10.031   0.984  -5.912  0.00  0.00     0.069 H 
BRANCH  22  32
ATOM     32  C   LIG d   1       4.108   1.112  -2.022  0.00  0.00    -0.039 C 
ATOM     33  H   LIG d   1       3.154   0.701  -2.352  0.00  0.00     0.028 H 
ATOM     34  H   LIG d   1       4.206   0.983  -0.945  0.00  0.00     0.028 H 
ATOM     35  H   LIG d   1       4.150   2.174  -2.267  0.00  0.00     0.028 H 
ENDBRANCH  22  32
BRANCH  24  36
ATOM     36  C   LIG d   1       4.244  -1.764  -1.920  0.00  0.00    -0.039 C 
ATOM     37  H   LIG d   1       4.672  -2.693  -1.541  0.00  0.00     0.028 H 
ATOM     38  H   LIG d   1       3.880  -1.164  -1.086  0.00  0.00     0.028 H 
ATOM     39  H   LIG d   1       3.417  -1.993  -2.591  0.00  0.00     0.028 H 
ENDBRANCH  24  36
ENDBRANCH  15  18
ENDBRANCH   1  15
BRANCH   4  40
ATOM     40  C   LIG d   1      12.724   5.551  -2.958  0.00  0.00     0.003 C 
ATOM     41  H   LIG d   1      13.451   5.178  -3.679  0.00  0.00     0.043 H 
ATOM     42  H   LIG d   1      12.700   6.640  -2.997  0.00  0.00     0.043 H 
BRANCH  40  43
ATOM     43  C   LIG d   1      13.124   5.101  -1.552  0.00  0.00    -0.015 C 
ATOM     44  H   LIG d   1      12.744   4.095  -1.371  0.00  0.00     0.033 H 
ATOM     45  H   LIG d   1      14.211   5.098  -1.466  0.00  0.00     0.033 H 
BRANCH  43  46
ATOM     46  C   LIG d   1      12.542   6.049  -0.535  0.00  0.00    -0.043 A 
ATOM     47  C   LIG d   1      12.923   7.381  -0.509  0.00  0.00    -0.040 A 
ATOM     48  C   LIG d   1      12.362   8.223   0.435  0.00  0.00     0.028 A 
ATOM     49  H   LIG d   1      13.644   7.759  -1.218  0.00  0.00     0.064 H 
ATOM     50  N   LIG d   1      11.486   7.769   1.308  0.00  0.00    -0.263 NA
ATOM     51  H   LIG d   1      12.650   9.264   0.459  0.00  0.00     0.083 H 
ATOM     52  C   LIG d   1      11.106   6.506   1.316  0.00  0.00     0.028 A 
ATOM     53  C   LIG d   1      11.618   5.608   0.399  0.00  0.00    -0.040 A 
ATOM     54  H   LIG d   1      10.385   6.170   2.048  0.00  0.00     0.083 H 
ATOM     55  H   LIG d   1      11.302   4.575   0.410  0.00  0.00     0.064 H 
ENDBRANCH  43  46
ENDBRANCH  40  43
ENDBRANCH   4  40
TORSDOF 7
ENDMDL
MODEL 3
REMARK VINA RESULT:      -6.8      5.116      7.684
REMARK  7 active torsions:
REMARK  status: ('A' for Active; 'I' for Inactive)
REMARK    1  A    between atoms: C_1  and  C_2 
REMARK    2  A    between atoms: C_5  and  C_14 
REMARK    3  A    between atoms: C_12  and  C_13 
REMARK    4  A    between atoms: C_14  and  N_15 
REMARK    5  A    between atoms: N_18  and  C_21 
REMARK    6  A    between atoms: C_21  and  C_22 
REMARK    7  A    between atoms: C_22  and  C_23 
ROOT
ATOM      1  N   LIG d   1       4.779  -4.341  -6.894  0.00  0.00    -0.296 N 
ATOM      2  C   LIG d   1       3.574  -5.024  -7.383  0.00  0.00     0.012 C 
ATOM      3  C   LIG d   1       3.395  -4.730  -8.875  0.00  0.00     0.012 C 
ATOM      4  N   LIG d   1       3.294  -3.278  -9.077  0.00  0.00    -0.300 N 
ATOM      5  C   LIG d   1       4.500  -2.596  -8.588  0.00  0.00     0.012 C 
ATOM      6  C   LIG d   1       4.679  -2.890  -7.096  0.00  0.00     0.012 C 
ATOM      7  H   LIG d   1       3.677  -6.098  -7.233  0.00  0.00     0.044 H 
ATOM      8  H   LIG d   1       2.703  -4.662  -6.834  0.00  0.00     0.044 H 
ATOM      9  H   LIG d   1       4.252  -5.116  -9.426  0.00  0.00     0.044 H 
ATOM     10  H   LIG d   1       2.484  -5.211  -9.233  0.00  0.00     0.044 H 
ATOM     11  H   LIG d   1       5.370  -2.958  -9.136  0.00  0.00     0.044 H 
ATOM     12  H   LIG d   1       4.396  -1.522  -8.737  0.00  0.00     0.044 H 
ATOM     13  H   LIG d   1       3.822  -2.504  -6.545  0.00  0.00     0.044 H 
ATOM     14  H   LIG d   1       5.589  -2.408  -6.738  0.00  0.00     0.044 H 
ENDROOT
BRANCH   1  15
ATOM     15  C   LIG d   1       5.028  -4.659  -5.481  0.00  0.00     0.025 C 
ATOM     16  H   LIG d   1       5.383  -5.686  -5.397  0.00  0.00     0.048 H 
ATOM     17  H   LIG d   1       4.103  -4.547  -4.915  0.00  0.00     0.048 H 
BRANCH  15  18
ATOM     18  C   LIG d   1       6.071  -3.720  -4.931  0.00  0.00    -0.016 A 
ATOM     19  C   LIG d   1       5.687  -2.562  -4.117  0.00  0.00     0.022 A 
ATOM     20  C   LIG d   1       4.346  -2.297  -3.827  0.00  0.00    -0.048 A 
ATOM     21  C   LIG d   1       6.692  -1.713  -3.624  0.00  0.00     0.140 A 
ATOM     22  C   LIG d   1       4.019  -1.211  -3.065  0.00  0.00    -0.047 A 
ATOM     23  H   LIG d   1       3.570  -2.949  -4.204  0.00  0.00     0.063 H 
ATOM     24  C   LIG d   1       5.008  -0.367  -2.583  0.00  0.00    -0.044 A 
ATOM     25  C   LIG d   1       6.338  -0.614  -2.852  0.00  0.00    -0.015 A 
ATOM     26  H   LIG d   1       7.101   0.046  -2.467  0.00  0.00     0.066 H 
ATOM     27  O   LIG d   1       7.988  -1.970  -3.905  0.00  0.00    -0.422 OA
ATOM     28  C   LIG d   1       8.347  -3.028  -4.650  0.00  0.00     0.338 A 
ATOM     29  C   LIG d   1       7.389  -3.921  -5.177  0.00  0.00     0.028 A 
ATOM     30  O   LIG d   1       9.527  -3.221  -4.877  0.00  0.00    -0.245 OA
ATOM     31  H   LIG d   1       7.707  -4.765  -5.773  0.00  0.00     0.069 H 
BRANCH  22  32
ATOM     32  C   LIG d   1       2.572  -0.924  -2.753  0.00  0.00    -0.039 C 
ATOM     33  H   LIG d   1       1.945  -1.695  -3.199  0.00  0.00     0.028 H 
ATOM     34  H   LIG d   1       2.428  -0.916  -1.673  0.00  0.00     0.028 H 
ATOM     35  H   LIG d   1       2.299   0.049  -3.163  0.00  0.00     0.028 H 
ENDBRANCH  22  32
BRANCH  24  36
ATOM     36  C   LIG d   1       4.626   0.830  -1.749  0.00  0.00    -0.039 C 
ATOM     37  H   LIG d   1       3.623   1.158  -2.022  0.00  0.00     0.028 H 
ATOM     38  H   LIG d   1       4.646   0.558  -0.694  0.00  0.00     0.028 H 
ATOM     39  H   LIG d   1       5.334   1.638  -1.929  0.00  0.00     0.028 H 
ENDBRANCH  24  36
ENDBRANCH  15  18
ENDBRANCH   1  15
BRANCH   4  40
ATOM     40  C   LIG d   1       3.045  -2.960 -10.489  0.00  0.00     0.003 C 
ATOM     41  H   LIG d   1       3.957  -2.567 -10.939  0.00  0.00     0.043 H 
ATOM     42  H   LIG d   1       2.740  -3.863 -11.017  0.00  0.00     0.043 H 
BRANCH  40  43
ATOM     43  C   LIG d   1       1.935  -1.912 -10.588  0.00  0.00    -0.015 C 
ATOM     44  H   LIG d   1       1.487  -1.949 -11.582  0.00  0.00     0.033 H 
ATOM     45  H   LIG d   1       1.172  -2.118  -9.838  0.00  0.00     0.033 H 
BRANCH  43  46
ATOM     46  C   LIG d   1       2.516  -0.541 -10.351  0.00  0.00    -0.043 A 
ATOM     47  C   LIG d   1       3.448  -0.004 -11.225  0.00  0.00    -0.040 A 
ATOM     48  C   LIG d   1       3.953   1.259 -10.978  0.00  0.00     0.028 A 
ATOM     49  H   LIG d   1       3.771  -0.562 -12.091  0.00  0.00     0.064 H 
ATOM     50  N   LIG d   1       3.568   1.944  -9.920  0.00  0.00    -0.263 NA
ATOM     51  H   LIG d   1       4.676   1.687 -11.658  0.00  0.00     0.083 H 
ATOM     52  C   LIG d   1       2.688   1.462  -9.064  0.00  0.00     0.028 A 
ATOM     53  C   LIG d   1       2.135   0.209  -9.250  0.00  0.00    -0.040 A 
ATOM     54  H   LIG d   1       2.397   2.053  -8.208  0.00  0.00     0.083 H 
ATOM     55  H   LIG d   1       1.414  -0.180  -8.545  0.00  0.00     0.064 H 
ENDBRANCH  43  46
ENDBRANCH  40  43
ENDBRANCH   4  40
TORSDOF 7
ENDMDL
MODEL 4
REMARK VINA RESULT:      -6.5      2.051      3.624
REMARK  7 active torsions:
REMARK  status: ('A' for Active; 'I' for Inactive)
REMARK    1  A    between atoms: C_1  and  C_2 
REMARK    2  A    between atoms: C_5  and  C_14 
REMARK    3  A    between atoms: C_12  and  C_13 
REMARK    4  A    between atoms: C_14  and  N_15 
REMARK    5  A    between atoms: N_18  and  C_21 
REMARK    6  A    between atoms: C_21  and  C_22 
REMARK    7  A    between atoms: C_22  and  C_23 
ROOT
ATOM      1  N   LIG d   1       8.856  -6.300  -3.880  0.00  0.00    -0.296 N 
ATOM      2  C   LIG d   1       9.842  -5.344  -3.359  0.00  0.00     0.012 C 
ATOM      3  C   LIG d   1       9.171  -3.984  -3.152  0.00  0.00     0.012 C 
ATOM      4  N   LIG d   1       8.613  -3.518  -4.428  0.00  0.00    -0.300 N 
ATOM      5  C   LIG d   1       7.625  -4.474  -4.949  0.00  0.00     0.012 C 
ATOM      6  C   LIG d   1       8.296  -5.834  -5.155  0.00  0.00     0.012 C 
ATOM      7  H   LIG d   1      10.232  -5.706  -2.408  0.00  0.00     0.044 H 
ATOM      8  H   LIG d   1      10.660  -5.242  -4.073  0.00  0.00     0.044 H 
ATOM      9  H   LIG d   1       8.371  -4.082  -2.418  0.00  0.00     0.044 H 
ATOM     10  H   LIG d   1       9.909  -3.266  -2.793  0.00  0.00     0.044 H 
ATOM     11  H   LIG d   1       6.808  -4.576  -4.236  0.00  0.00     0.044 H 
ATOM     12  H   LIG d   1       7.236  -4.112  -5.900  0.00  0.00     0.044 H 
ATOM     13  H   LIG d   1       9.097  -5.736  -5.889  0.00  0.00     0.044 H 
ATOM     14  H   LIG d   1       7.559  -6.552  -5.515  0.00  0.00     0.044 H 
ENDROOT
BRANCH   1  15
ATOM     15  C   LIG d   1       9.443  -7.639  -4.021  0.00  0.00     0.025 C 
ATOM     16  H   LIG d   1      10.527  -7.571  -3.944  0.00  0.00     0.048 H 
ATOM     17  H   LIG d   1       9.173  -8.054  -4.992  0.00  0.00     0.048 H 
BRANCH  15  18
ATOM     18  C   LIG d   1       8.917  -8.536  -2.929  0.00  0.00    -0.016 A 
ATOM     19  C   LIG d   1       7.588  -9.146  -3.030  0.00  0.00     0.022 A 
ATOM     20  C   LIG d   1       6.771  -8.915  -4.141  0.00  0.00    -0.048 A 
ATOM     21  C   LIG d   1       7.138  -9.976  -1.989  0.00  0.00     0.140 A 
ATOM     22  C   LIG d   1       5.537  -9.499  -4.208  0.00  0.00    -0.047 A 
ATOM     23  H   LIG d   1       7.114  -8.279  -4.944  0.00  0.00     0.063 H 
ATOM     24  C   LIG d   1       5.087 -10.313  -3.179  0.00  0.00    -0.044 A 
ATOM     25  C   LIG d   1       5.880 -10.558  -2.077  0.00  0.00    -0.015 A 
ATOM     26  H   LIG d   1       5.523 -11.198  -1.284  0.00  0.00     0.066 H 
ATOM     27  O   LIG d   1       7.927 -10.197  -0.916  0.00  0.00    -0.422 OA
ATOM     28  C   LIG d   1       9.145  -9.642  -0.816  0.00  0.00     0.338 A 
ATOM     29  C   LIG d   1       9.660  -8.799  -1.825  0.00  0.00     0.028 A 
ATOM     30  O   LIG d   1       9.823  -9.870   0.170  0.00  0.00    -0.245 OA
ATOM     31  H   LIG d   1      10.644  -8.366  -1.718  0.00  0.00     0.069 H 
BRANCH  22  32
ATOM     32  C   LIG d   1       4.656  -9.250  -5.405  0.00  0.00    -0.039 C 
ATOM     33  H   LIG d   1       4.565  -8.177  -5.573  0.00  0.00     0.028 H 
ATOM     34  H   LIG d   1       5.096  -9.720  -6.284  0.00  0.00     0.028 H 
ATOM     35  H   LIG d   1       3.668  -9.674  -5.222  0.00  0.00     0.028 H 
ENDBRANCH  22  32
BRANCH  24  36
ATOM     36  C   LIG d   1       3.720 -10.942  -3.269  0.00  0.00    -0.039 C 
ATOM     37  H   LIG d   1       3.013 -10.364  -2.673  0.00  0.00     0.028 H 
ATOM     38  H   LIG d   1       3.394 -10.954  -4.309  0.00  0.00     0.028 H 
ATOM     39  H   LIG d   1       3.765 -11.963  -2.890  0.00  0.00     0.028 H 
ENDBRANCH  24  36
ENDBRANCH  15  18
ENDBRANCH   1  15
BRANCH   4  40
ATOM     40  C   LIG d   1       8.025  -2.179  -4.287  0.00  0.00     0.003 C 
ATOM     41  H   LIG d   1       8.286  -1.769  -3.311  0.00  0.00     0.043 H 
ATOM     42  H   LIG d   1       8.413  -1.527  -5.070  0.00  0.00     0.043 H 
BRANCH  40  43
ATOM     43  C   LIG d   1       6.503  -2.274  -4.409  0.00  0.00    -0.015 C 
ATOM     44  H   LIG d   1       6.209  -2.089  -5.443  0.00  0.00     0.033 H 
ATOM     45  H   LIG d   1       6.176  -3.270  -4.112  0.00  0.00     0.033 H 
BRANCH  43  46
ATOM     46  C   LIG d   1       5.862  -1.245  -3.514  0.00  0.00    -0.043 A 
ATOM     47  C   LIG d   1       6.203   0.095  -3.614  0.00  0.00    -0.040 A 
ATOM     48  C   LIG d   1       5.589   1.010  -2.780  0.00  0.00     0.028 A 
ATOM     49  H   LIG d   1       6.936   0.420  -4.337  0.00  0.00     0.064 H 
ATOM     50  N   LIG d   1       4.698   0.621  -1.890  0.00  0.00    -0.263 NA
ATOM     51  H   LIG d   1       5.846   2.057  -2.855  0.00  0.00     0.083 H 
ATOM     52  C   LIG d   1       4.354  -0.646  -1.762  0.00  0.00     0.028 A 
ATOM     53  C   LIG d   1       4.921  -1.617  -2.566  0.00  0.00    -0.040 A 
ATOM     54  H   LIG d   1       3.620  -0.928  -1.021  0.00  0.00     0.083 H 
ATOM     55  H   LIG d   1       4.634  -2.653  -2.458  0.00  0.00     0.064 H 
ENDBRANCH  43  46
ENDBRANCH  40  43
ENDBRANCH   4  40
TORSDOF 7
ENDMDL
MODEL 5
REMARK VINA RESULT:      -6.5      2.040      3.289
REMARK  7 active torsions:
REMARK  status: ('A' for Active; 'I' for Inactive)
REMARK    1  A    between atoms: C_1  and  C_2 
REMARK    2  A    between atoms: C_5  and  C_14 
REMARK    3  A    between atoms: C_12  and  C_13 
REMARK    4  A    between atoms: C_14  and  N_15 
REMARK    5  A    between atoms: N_18  and  C_21 
REMARK    6  A    between atoms: C_21  and  C_22 
REMARK    7  A    between atoms: C_22  and  C_23 
ROOT
ATOM      1  N   LIG d   1       7.228  -6.140  -4.936  0.00  0.00    -0.296 N 
ATOM      2  C   LIG d   1       7.947  -4.880  -5.169  0.00  0.00     0.012 C 
ATOM      3  C   LIG d   1       7.051  -3.704  -4.773  0.00  0.00     0.012 C 
ATOM      4  N   LIG d   1       5.808  -3.752  -5.556  0.00  0.00    -0.300 N 
ATOM      5  C   LIG d   1       5.090  -5.012  -5.321  0.00  0.00     0.012 C 
ATOM      6  C   LIG d   1       5.985  -6.189  -5.718  0.00  0.00     0.012 C 
ATOM      7  H   LIG d   1       8.856  -4.864  -4.570  0.00  0.00     0.044 H 
ATOM      8  H   LIG d   1       8.205  -4.801  -6.226  0.00  0.00     0.044 H 
ATOM      9  H   LIG d   1       6.815  -3.770  -3.711  0.00  0.00     0.044 H 
ATOM     10  H   LIG d   1       7.572  -2.768  -4.974  0.00  0.00     0.044 H 
ATOM     11  H   LIG d   1       4.831  -5.092  -4.265  0.00  0.00     0.044 H 
ATOM     12  H   LIG d   1       4.180  -5.029  -5.921  0.00  0.00     0.044 H 
ATOM     13  H   LIG d   1       6.221  -6.123  -6.780  0.00  0.00     0.044 H 
ATOM     14  H   LIG d   1       5.465  -7.125  -5.518  0.00  0.00     0.044 H 
ENDROOT
BRANCH   1  15
ATOM     15  C   LIG d   1       8.082  -7.297  -5.234  0.00  0.00     0.025 C 
ATOM     16  H   LIG d   1       8.857  -7.004  -5.941  0.00  0.00     0.048 H 
ATOM     17  H   LIG d   1       7.477  -8.094  -5.666  0.00  0.00     0.048 H 
BRANCH  15  18
ATOM     18  C   LIG d   1       8.723  -7.789  -3.961  0.00  0.00    -0.016 A 
ATOM     19  C   LIG d   1       8.054  -8.782  -3.115  0.00  0.00     0.022 A 
ATOM     20  C   LIG d   1       6.803  -9.301  -3.464  0.00  0.00    -0.048 A 
ATOM     21  C   LIG d   1       8.688  -9.213  -1.938  0.00  0.00     0.140 A 
ATOM     22  C   LIG d   1       6.204 -10.226  -2.656  0.00  0.00    -0.047 A 
ATOM     23  H   LIG d   1       6.313  -8.973  -4.370  0.00  0.00     0.063 H 
ATOM     24  C   LIG d   1       6.825 -10.649  -1.490  0.00  0.00    -0.044 A 
ATOM     25  C   LIG d   1       8.061 -10.153  -1.131  0.00  0.00    -0.015 A 
ATOM     26  H   LIG d   1       8.538 -10.493  -0.223  0.00  0.00     0.066 H 
ATOM     27  O   LIG d   1       9.895  -8.710  -1.602  0.00  0.00    -0.422 OA
ATOM     28  C   LIG d   1      10.515  -7.801  -2.370  0.00  0.00     0.338 A 
ATOM     29  C   LIG d   1       9.935  -7.324  -3.566  0.00  0.00     0.028 A 
ATOM     30  O   LIG d   1      11.603  -7.376  -2.028  0.00  0.00    -0.245 OA
ATOM     31  H   LIG d   1      10.457  -6.592  -4.166  0.00  0.00     0.069 H 
BRANCH  22  32
ATOM     32  C   LIG d   1       4.856 -10.786  -3.031  0.00  0.00    -0.039 C 
ATOM     33  H   LIG d   1       4.781 -10.856  -4.116  0.00  0.00     0.028 H 
ATOM     34  H   LIG d   1       4.739 -11.777  -2.594  0.00  0.00     0.028 H 
ATOM     35  H   LIG d   1       4.073 -10.127  -2.654  0.00  0.00     0.028 H 
ENDBRANCH  22  32
BRANCH  24  36
ATOM     36  C   LIG d   1       6.144 -11.665  -0.609  0.00  0.00    -0.039 C 
ATOM     37  H   LIG d   1       6.847 -12.025   0.143  0.00  0.00     0.028 H 
ATOM     38  H   LIG d   1       5.289 -11.202  -0.115  0.00  0.00     0.028 H 
ATOM     39  H   LIG d   1       5.803 -12.502  -1.217  0.00  0.00     0.028 H 
ENDBRANCH  24  36
ENDBRANCH  15  18
ENDBRANCH   1  15
BRANCH   4  40
ATOM     40  C   LIG d   1       4.954  -2.595  -5.258  0.00  0.00     0.003 C 
ATOM     41  H   LIG d   1       5.470  -1.678  -5.545  0.00  0.00     0.043 H 
ATOM     42  H   LIG d   1       4.022  -2.677  -5.816  0.00  0.00     0.043 H 
BRANCH  40  43
ATOM     43  C   LIG d   1       4.650  -2.558  -3.759  0.00  0.00    -0.015 C 
ATOM     44  H   LIG d   1       3.603  -2.815  -3.594  0.00  0.00     0.033 H 
ATOM     45  H   LIG d   1       5.285  -3.277  -3.241  0.00  0.00     0.033 H 
BRANCH  43  46
ATOM     46  C   LIG d   1       4.918  -1.175  -3.225  0.00  0.00    -0.043 A 
ATOM     47  C   LIG d   1       5.916  -0.384  -3.773  0.00  0.00    -0.040 A 
ATOM     48  C   LIG d   1       6.129   0.883  -3.261  0.00  0.00     0.028 A 
ATOM     49  H   LIG d   1       6.517  -0.751  -4.591  0.00  0.00     0.064 H 
ATOM     50  N   LIG d   1       5.404   1.335  -2.258  0.00  0.00    -0.263 NA
ATOM     51  H   LIG d   1       6.902   1.507  -3.685  0.00  0.00     0.083 H 
ATOM     52  C   LIG d   1       4.450   0.609  -1.708  0.00  0.00     0.028 A 
ATOM     53  C   LIG d   1       4.175  -0.664  -2.171  0.00  0.00    -0.040 A 
ATOM     54  H   LIG d   1       3.876   1.014  -0.888  0.00  0.00     0.083 H 
ATOM     55  H   LIG d   1       3.392  -1.254  -1.718  0.00  0.00     0.064 H 
ENDBRANCH  43  46
ENDBRANCH  40  43
ENDBRANCH   4  40
TORSDOF 7
ENDMDL
MODEL 6
REMARK VINA RESULT:      -6.4      5.729      9.462
REMARK  7 active torsions:
REMARK  status: ('A' for Active; 'I' for Inactive)
REMARK    1  A    between atoms: C_1  and  C_2 
REMARK    2  A    between atoms: C_5  and  C_14 
REMARK    3  A    between atoms: C_12  and  C_13 
REMARK    4  A    between atoms: C_14  and  N_15 
REMARK    5  A    between atoms: N_18  and  C_21 
REMARK    6  A    between atoms: C_21  and  C_22 
REMARK    7  A    between atoms: C_22  and  C_23 
ROOT
ATOM      1  N   LIG d   1       8.811   2.061  -4.270  0.00  0.00    -0.296 N 
ATOM      2  C   LIG d   1      10.139   1.826  -3.687  0.00  0.00     0.012 C 
ATOM      3  C   LIG d   1      10.593   3.080  -2.935  0.00  0.00     0.012 C 
ATOM      4  N   LIG d   1      10.621   4.220  -3.861  0.00  0.00    -0.300 N 
ATOM      5  C   LIG d   1       9.291   4.455  -4.443  0.00  0.00     0.012 C 
ATOM      6  C   LIG d   1       8.838   3.201  -5.195  0.00  0.00     0.012 C 
ATOM      7  H   LIG d   1      10.090   0.985  -2.996  0.00  0.00     0.044 H 
ATOM      8  H   LIG d   1      10.850   1.602  -4.483  0.00  0.00     0.044 H 
ATOM      9  H   LIG d   1       9.896   3.287  -2.123  0.00  0.00     0.044 H 
ATOM     10  H   LIG d   1      11.591   2.917  -2.527  0.00  0.00     0.044 H 
ATOM     11  H   LIG d   1       8.581   4.679  -3.647  0.00  0.00     0.044 H 
ATOM     12  H   LIG d   1       9.342   5.296  -5.134  0.00  0.00     0.044 H 
ATOM     13  H   LIG d   1       9.534   2.994  -6.007  0.00  0.00     0.044 H 
ATOM     14  H   LIG d   1       7.841   3.364  -5.603  0.00  0.00     0.044 H 
ENDROOT
BRANCH   1  15
ATOM     15  C   LIG d   1       8.307   0.854  -4.937  0.00  0.00     0.025 C 
ATOM     16  H   LIG d   1       9.088   0.094  -4.953  0.00  0.00     0.048 H 
ATOM     17  H   LIG d   1       8.017   1.097  -5.959  0.00  0.00     0.048 H 
BRANCH  15  18
ATOM     18  C   LIG d   1       7.110   0.328  -4.188  0.00  0.00    -0.016 A 
ATOM     19  C   LIG d   1       6.565  -1.003  -4.476  0.00  0.00     0.022 A 
ATOM     20  C   LIG d   1       7.140  -1.821  -5.453  0.00  0.00    -0.048 A 
ATOM     21  C   LIG d   1       5.448  -1.453  -3.753  0.00  0.00     0.140 A 
ATOM     22  C   LIG d   1       6.611  -3.057  -5.700  0.00  0.00    -0.047 A 
ATOM     23  H   LIG d   1       8.000  -1.478  -6.011  0.00  0.00     0.063 H 
ATOM     24  C   LIG d   1       5.504  -3.502  -4.992  0.00  0.00    -0.044 A 
ATOM     25  C   LIG d   1       4.926  -2.713  -4.020  0.00  0.00    -0.015 A 
ATOM     26  H   LIG d   1       4.068  -3.070  -3.471  0.00  0.00     0.066 H 
ATOM     27  O   LIG d   1       4.893  -0.662  -2.810  0.00  0.00    -0.422 OA
ATOM     28  C   LIG d   1       5.386   0.557  -2.540  0.00  0.00     0.338 A 
ATOM     29  C   LIG d   1       6.505   1.072  -3.229  0.00  0.00     0.028 A 
ATOM     30  O   LIG d   1       4.853   1.236  -1.681  0.00  0.00    -0.245 OA
ATOM     31  H   LIG d   1       6.881   2.057  -2.990  0.00  0.00     0.069 H 
BRANCH  22  32
ATOM     32  C   LIG d   1       7.230  -3.939  -6.754  0.00  0.00    -0.039 C 
ATOM     33  H   LIG d   1       6.608  -4.821  -6.900  0.00  0.00     0.028 H 
ATOM     34  H   LIG d   1       7.305  -3.388  -7.691  0.00  0.00     0.028 H 
ATOM     35  H   LIG d   1       8.226  -4.245  -6.431  0.00  0.00     0.028 H 
ENDBRANCH  22  32
BRANCH  24  36
ATOM     36  C   LIG d   1       4.932  -4.865  -5.284  0.00  0.00    -0.039 C 
ATOM     37  H   LIG d   1       4.855  -5.005  -6.362  0.00  0.00     0.028 H 
ATOM     38  H   LIG d   1       5.584  -5.630  -4.863  0.00  0.00     0.028 H 
ATOM     39  H   LIG d   1       3.941  -4.946  -4.836  0.00  0.00     0.028 H 
ENDBRANCH  24  36
ENDBRANCH  15  18
ENDBRANCH   1  15
BRANCH   4  40
ATOM     40  C   LIG d   1      11.124   5.428  -3.193  0.00  0.00     0.003 C 
ATOM     41  H   LIG d   1      11.913   5.153  -2.492  0.00  0.00     0.043 H 
ATOM     42  H   LIG d   1      11.524   6.115  -3.938  0.00  0.00     0.043 H 
BRANCH  40  43
ATOM     43  C   LIG d   1       9.982   6.105  -2.434  0.00  0.00    -0.015 C 
ATOM     44  H   LIG d   1       9.630   6.968  -3.000  0.00  0.00     0.033 H 
ATOM     45  H   LIG d   1       9.162   5.398  -2.304  0.00  0.00     0.033 H 
BRANCH  43  46
ATOM     46  C   LIG d   1      10.474   6.556  -1.083  0.00  0.00    -0.043 A 
ATOM     47  C   LIG d   1      10.830   5.632  -0.113  0.00  0.00    -0.040 A 
ATOM     48  C   LIG d   1      11.283   6.084   1.113  0.00  0.00     0.028 A 
ATOM     49  H   LIG d   1      10.759   4.574  -0.313  0.00  0.00     0.064 H 
ATOM     50  N   LIG d   1      11.367   7.374   1.368  0.00  0.00    -0.263 NA
ATOM     51  H   LIG d   1      11.567   5.370   1.873  0.00  0.00     0.083 H 
ATOM     52  C   LIG d   1      11.030   8.281   0.471  0.00  0.00     0.028 A 
ATOM     53  C   LIG d   1      10.575   7.905  -0.779  0.00  0.00    -0.040 A 
ATOM     54  H   LIG d   1      11.112   9.330   0.716  0.00  0.00     0.083 H 
ATOM     55  H   LIG d   1      10.302   8.652  -1.510  0.00  0.00     0.064 H 
ENDBRANCH  43  46
ENDBRANCH  40  43
ENDBRANCH   4  40
TORSDOF 7
ENDMDL
MODEL 7
REMARK VINA RESULT:      -6.4      7.991     13.293
REMARK  7 active torsions:
REMARK  status: ('A' for Active; 'I' for Inactive)
REMARK    1  A    between atoms: C_1  and  C_2 
REMARK    2  A    between atoms: C_5  and  C_14 
REMARK    3  A    between atoms: C_12  and  C_13 
REMARK    4  A    between atoms: C_14  and  N_15 
REMARK    5  A    between atoms: N_18  and  C_21 
REMARK    6  A    between atoms: C_21  and  C_22 
REMARK    7  A    between atoms: C_22  and  C_23 
ROOT
ATOM      1  N   LIG d   1       9.536   3.040  -6.248  0.00  0.00    -0.296 N 
ATOM      2  C   LIG d   1       9.707   1.663  -6.730  0.00  0.00     0.012 C 
ATOM      3  C   LIG d   1       8.541   0.803  -6.236  0.00  0.00     0.012 C 
ATOM      4  N   LIG d   1       8.495   0.843  -4.768  0.00  0.00    -0.300 N 
ATOM      5  C   LIG d   1       8.323   2.220  -4.286  0.00  0.00     0.012 C 
ATOM      6  C   LIG d   1       9.488   3.080  -4.780  0.00  0.00     0.012 C 
ATOM      7  H   LIG d   1       9.727   1.659  -7.820  0.00  0.00     0.044 H 
ATOM      8  H   LIG d   1      10.645   1.259  -6.348  0.00  0.00     0.044 H 
ATOM      9  H   LIG d   1       7.607   1.192  -6.640  0.00  0.00     0.044 H 
ATOM     10  H   LIG d   1       8.682  -0.225  -6.568  0.00  0.00     0.044 H 
ATOM     11  H   LIG d   1       7.385   2.624  -4.668  0.00  0.00     0.044 H 
ATOM     12  H   LIG d   1       8.304   2.224  -3.196  0.00  0.00     0.044 H 
ATOM     13  H   LIG d   1      10.423   2.691  -4.376  0.00  0.00     0.044 H 
ATOM     14  H   LIG d   1       9.348   4.108  -4.448  0.00  0.00     0.044 H 
ENDROOT
BRANCH   1  15
ATOM     15  C   LIG d   1      10.597   3.915  -6.764  0.00  0.00     0.025 C 
ATOM     16  H   LIG d   1      11.267   3.338  -7.400  0.00  0.00     0.048 H 
ATOM     17  H   LIG d   1      11.159   4.336  -5.930  0.00  0.00     0.048 H 
BRANCH  15  18
ATOM     18  C   LIG d   1       9.980   5.032  -7.567  0.00  0.00    -0.016 A 
ATOM     19  C   LIG d   1       9.853   6.381  -7.007  0.00  0.00     0.022 A 
ATOM     20  C   LIG d   1      10.300   6.671  -5.715  0.00  0.00    -0.048 A 
ATOM     21  C   LIG d   1       9.272   7.392  -7.791  0.00  0.00     0.140 A 
ATOM     22  C   LIG d   1      10.169   7.938  -5.220  0.00  0.00    -0.047 A 
ATOM     23  H   LIG d   1      10.749   5.896  -5.109  0.00  0.00     0.063 H 
ATOM     24  C   LIG d   1       9.591   8.937  -5.989  0.00  0.00    -0.044 A 
ATOM     25  C   LIG d   1       9.149   8.673  -7.268  0.00  0.00    -0.015 A 
ATOM     26  H   LIG d   1       8.704   9.460  -7.861  0.00  0.00     0.066 H 
ATOM     27  O   LIG d   1       8.840   7.112  -9.039  0.00  0.00    -0.422 OA
ATOM     28  C   LIG d   1       8.952   5.879  -9.559  0.00  0.00     0.338 A 
ATOM     29  C   LIG d   1       9.525   4.817  -8.827  0.00  0.00     0.028 A 
ATOM     30  O   LIG d   1       8.549   5.672 -10.689  0.00  0.00    -0.245 OA
ATOM     31  H   LIG d   1       9.603   3.834  -9.270  0.00  0.00     0.069 H 
BRANCH  22  32
ATOM     32  C   LIG d   1      10.651   8.250  -3.826  0.00  0.00    -0.039 C 
ATOM     33  H   LIG d   1      10.195   9.179  -3.484  0.00  0.00     0.028 H 
ATOM     34  H   LIG d   1      10.371   7.439  -3.155  0.00  0.00     0.028 H 
ATOM     35  H   LIG d   1      11.736   8.359  -3.833  0.00  0.00     0.028 H 
ENDBRANCH  22  32
BRANCH  24  36
ATOM     36  C   LIG d   1       9.450  10.327  -5.422  0.00  0.00    -0.039 C 
ATOM     37  H   LIG d   1       8.392  10.574  -5.324  0.00  0.00     0.028 H 
ATOM     38  H   LIG d   1       9.925  10.369  -4.442  0.00  0.00     0.028 H 
ATOM     39  H   LIG d   1       9.929  11.041  -6.090  0.00  0.00     0.028 H 
ENDBRANCH  24  36
ENDBRANCH  15  18
ENDBRANCH   1  15
BRANCH   4  40
ATOM     40  C   LIG d   1       7.434  -0.032  -4.252  0.00  0.00     0.003 C 
ATOM     41  H   LIG d   1       6.826  -0.395  -5.081  0.00  0.00     0.043 H 
ATOM     42  H   LIG d   1       7.881  -0.879  -3.732  0.00  0.00     0.043 H 
BRANCH  40  43
ATOM     43  C   LIG d   1       6.551   0.754  -3.280  0.00  0.00    -0.015 C 
ATOM     44  H   LIG d   1       7.067   0.861  -2.326  0.00  0.00     0.033 H 
ATOM     45  H   LIG d   1       6.345   1.741  -3.694  0.00  0.00     0.033 H 
BRANCH  43  46
ATOM     46  C   LIG d   1       5.254   0.017  -3.070  0.00  0.00    -0.043 A 
ATOM     47  C   LIG d   1       4.037   0.653  -3.260  0.00  0.00    -0.040 A 
ATOM     48  C   LIG d   1       2.868  -0.057  -3.063  0.00  0.00     0.028 A 
ATOM     49  H   LIG d   1       4.003   1.689  -3.561  0.00  0.00     0.064 H 
ATOM     50  N   LIG d   1       2.901  -1.321  -2.689  0.00  0.00    -0.263 NA
ATOM     51  H   LIG d   1       1.915   0.430  -3.214  0.00  0.00     0.083 H 
ATOM     52  C   LIG d   1       4.039  -1.957  -2.493  0.00  0.00     0.028 A 
ATOM     53  C   LIG d   1       5.249  -1.313  -2.677  0.00  0.00    -0.040 A 
ATOM     54  H   LIG d   1       4.027  -2.992  -2.187  0.00  0.00     0.083 H 
ATOM     55  H   LIG d   1       6.178  -1.839  -2.516  0.00  0.00     0.064 H 
ENDBRANCH  43  46
ENDBRANCH  40  43
ENDBRANCH   4  40
TORSDOF 7
ENDMDL
MODEL 8
REMARK VINA RESULT:      -6.3      8.206     13.091
REMARK  7 active torsions:
REMARK  status: ('A' for Active; 'I' for Inactive)
REMARK    1  A    between atoms: C_1  and  C_2 
REMARK    2  A    between atoms: C_5  and  C_14 
REMARK    3  A    between atoms: C_12  and  C_13 
REMARK    4  A    between atoms: C_14  and  N_15 
REMARK    5  A    between atoms: N_18  and  C_21 
REMARK    6  A    between atoms: C_21  and  C_22 
REMARK    7  A    between atoms: C_22  and  C_23 
ROOT
ATOM      1  N   LIG d   1       9.674   3.466  -4.930  0.00  0.00    -0.296 N 
ATOM      2  C   LIG d   1       9.678   2.577  -6.100  0.00  0.00     0.012 C 
ATOM      3  C   LIG d   1       8.390   1.749  -6.113  0.00  0.00     0.012 C 
ATOM      4  N   LIG d   1       8.295   0.976  -4.868  0.00  0.00    -0.300 N 
ATOM      5  C   LIG d   1       8.290   1.866  -3.698  0.00  0.00     0.012 C 
ATOM      6  C   LIG d   1       9.578   2.694  -3.685  0.00  0.00     0.012 C 
ATOM      7  H   LIG d   1       9.737   3.173  -7.010  0.00  0.00     0.044 H 
ATOM      8  H   LIG d   1      10.539   1.909  -6.045  0.00  0.00     0.044 H 
ATOM      9  H   LIG d   1       7.531   2.416  -6.195  0.00  0.00     0.044 H 
ATOM     10  H   LIG d   1       8.405   1.068  -6.964  0.00  0.00     0.044 H 
ATOM     11  H   LIG d   1       7.430   2.533  -3.752  0.00  0.00     0.044 H 
ATOM     12  H   LIG d   1       8.232   1.269  -2.788  0.00  0.00     0.044 H 
ATOM     13  H   LIG d   1      10.437   2.028  -3.603  0.00  0.00     0.044 H 
ATOM     14  H   LIG d   1       9.563   3.374  -2.834  0.00  0.00     0.044 H 
ENDROOT
BRANCH   1  15
ATOM     15  C   LIG d   1      10.860   4.332  -4.922  0.00  0.00     0.025 C 
ATOM     16  H   LIG d   1      11.399   4.218  -5.862  0.00  0.00     0.048 H 
ATOM     17  H   LIG d   1      11.510   4.051  -4.094  0.00  0.00     0.048 H 
BRANCH  15  18
ATOM     18  C   LIG d   1      10.432   5.768  -4.759  0.00  0.00    -0.016 A 
ATOM     19  C   LIG d   1      10.551   6.448  -3.466  0.00  0.00     0.022 A 
ATOM     20  C   LIG d   1      11.065   5.784  -2.347  0.00  0.00    -0.048 A 
ATOM     21  C   LIG d   1      10.141   7.787  -3.359  0.00  0.00     0.140 A 
ATOM     22  C   LIG d   1      11.165   6.444  -1.155  0.00  0.00    -0.047 A 
ATOM     23  H   LIG d   1      11.383   4.755  -2.426  0.00  0.00     0.063 H 
ATOM     24  C   LIG d   1      10.755   7.764  -1.044  0.00  0.00    -0.044 A 
ATOM     25  C   LIG d   1      10.251   8.438  -2.137  0.00  0.00    -0.015 A 
ATOM     26  H   LIG d   1       9.939   9.468  -2.042  0.00  0.00     0.066 H 
ATOM     27  O   LIG d   1       9.644   8.427  -4.439  0.00  0.00    -0.422 OA
ATOM     28  C   LIG d   1       9.531   7.812  -5.627  0.00  0.00     0.338 A 
ATOM     29  C   LIG d   1       9.924   6.468  -5.805  0.00  0.00     0.028 A 
ATOM     30  O   LIG d   1       9.078   8.428  -6.575  0.00  0.00    -0.245 OA
ATOM     31  H   LIG d   1       9.823   5.998  -6.773  0.00  0.00     0.069 H 
BRANCH  22  32
ATOM     32  C   LIG d   1      11.719   5.729   0.051  0.00  0.00    -0.039 C 
ATOM     33  H   LIG d   1      12.796   5.610  -0.059  0.00  0.00     0.028 H 
ATOM     34  H   LIG d   1      11.507   6.311   0.948  0.00  0.00     0.028 H 
ATOM     35  H   LIG d   1      11.252   4.747   0.137  0.00  0.00     0.028 H 
ENDBRANCH  22  32
BRANCH  24  36
ATOM     36  C   LIG d   1      10.868   8.472   0.282  0.00  0.00    -0.039 C 
ATOM     37  H   LIG d   1      11.712   8.067   0.840  0.00  0.00     0.028 H 
ATOM     38  H   LIG d   1      11.021   9.538   0.112  0.00  0.00     0.028 H 
ATOM     39  H   LIG d   1       9.951   8.322   0.852  0.00  0.00     0.028 H 
ENDBRANCH  24  36
ENDBRANCH  15  18
ENDBRANCH   1  15
BRANCH   4  40
ATOM     40  C   LIG d   1       7.109   0.110  -4.876  0.00  0.00     0.003 C 
ATOM     41  H   LIG d   1       6.233   0.696  -5.158  0.00  0.00     0.043 H 
ATOM     42  H   LIG d   1       7.252  -0.697  -5.593  0.00  0.00     0.043 H 
BRANCH  40  43
ATOM     43  C   LIG d   1       6.898  -0.480  -3.480  0.00  0.00    -0.015 C 
ATOM     44  H   LIG d   1       7.347  -1.472  -3.433  0.00  0.00     0.033 H 
ATOM     45  H   LIG d   1       7.367   0.166  -2.737  0.00  0.00     0.033 H 
BRANCH  43  46
ATOM     46  C   LIG d   1       5.422  -0.583  -3.195  0.00  0.00    -0.043 A 
ATOM     47  C   LIG d   1       4.603   0.533  -3.281  0.00  0.00    -0.040 A 
ATOM     48  C   LIG d   1       3.253   0.399  -3.018  0.00  0.00     0.028 A 
ATOM     49  H   LIG d   1       5.014   1.493  -3.554  0.00  0.00     0.064 H 
ATOM     50  N   LIG d   1       2.744  -0.769  -2.678  0.00  0.00    -0.263 NA
ATOM     51  H   LIG d   1       2.607   1.263  -3.088  0.00  0.00     0.083 H 
ATOM     52  C   LIG d   1       3.494  -1.850  -2.580  0.00  0.00     0.028 A 
ATOM     53  C   LIG d   1       4.851  -1.793  -2.835  0.00  0.00    -0.040 A 
ATOM     54  H   LIG d   1       3.041  -2.789  -2.299  0.00  0.00     0.083 H 
ATOM     55  H   LIG d   1       5.460  -2.682  -2.754  0.00  0.00     0.064 H 
ENDBRANCH  43  46
ENDBRANCH  40  43
ENDBRANCH   4  40
TORSDOF 7
ENDMDL
MODEL 9
REMARK VINA RESULT:      -6.2      8.068     14.019
REMARK  7 active torsions:
REMARK  status: ('A' for Active; 'I' for Inactive)
REMARK    1  A    between atoms: C_1  and  C_2 
REMARK    2  A    between atoms: C_5  and  C_14 
REMARK    3  A    between atoms: C_12  and  C_13 
REMARK    4  A    between atoms: C_14  and  N_15 
REMARK    5  A    between atoms: N_18  and  C_21 
REMARK    6  A    between atoms: C_21  and  C_22 
REMARK    7  A    between atoms: C_22  and  C_23 
ROOT
ATOM      1  N   LIG d   1      11.405   3.897  -2.803  0.00  0.00    -0.296 N 
ATOM      2  C   LIG d   1      10.079   4.237  -3.336  0.00  0.00     0.012 C 
ATOM      3  C   LIG d   1       9.250   2.959  -3.489  0.00  0.00     0.012 C 
ATOM      4  N   LIG d   1       9.951   2.028  -4.384  0.00  0.00    -0.300 N 
ATOM      5  C   LIG d   1      11.278   1.688  -3.850  0.00  0.00     0.012 C 
ATOM      6  C   LIG d   1      12.106   2.966  -3.696  0.00  0.00     0.012 C 
ATOM      7  H   LIG d   1       9.575   4.918  -2.650  0.00  0.00     0.044 H 
ATOM      8  H   LIG d   1      10.190   4.717  -4.309  0.00  0.00     0.044 H 
ATOM      9  H   LIG d   1       9.116   2.494  -2.513  0.00  0.00     0.044 H 
ATOM     10  H   LIG d   1       8.276   3.207  -3.912  0.00  0.00     0.044 H 
ATOM     11  H   LIG d   1      11.166   1.208  -2.878  0.00  0.00     0.044 H 
ATOM     12  H   LIG d   1      11.782   1.007  -4.537  0.00  0.00     0.044 H 
ATOM     13  H   LIG d   1      12.241   3.431  -4.673  0.00  0.00     0.044 H 
ATOM     14  H   LIG d   1      13.080   2.719  -3.274  0.00  0.00     0.044 H 
ENDROOT
BRANCH   1  15
ATOM     15  C   LIG d   1      12.205   5.106  -2.570  0.00  0.00     0.025 C 
ATOM     16  H   LIG d   1      12.192   5.729  -3.464  0.00  0.00     0.048 H 
ATOM     17  H   LIG d   1      13.232   4.824  -2.338  0.00  0.00     0.048 H 
BRANCH  15  18
ATOM     18  C   LIG d   1      11.624   5.878  -1.413  0.00  0.00    -0.016 A 
ATOM     19  C   LIG d   1      11.018   7.198  -1.616  0.00  0.00     0.022 A 
ATOM     20  C   LIG d   1      10.961   7.777  -2.887  0.00  0.00    -0.048 A 
ATOM     21  C   LIG d   1      10.488   7.882  -0.509  0.00  0.00     0.140 A 
ATOM     22  C   LIG d   1      10.389   9.008  -3.045  0.00  0.00    -0.047 A 
ATOM     23  H   LIG d   1      11.367   7.253  -3.740  0.00  0.00     0.063 H 
ATOM     24  C   LIG d   1       9.871   9.689  -1.954  0.00  0.00    -0.044 A 
ATOM     25  C   LIG d   1       9.912   9.132  -0.692  0.00  0.00    -0.015 A 
ATOM     26  H   LIG d   1       9.500   9.668   0.150  0.00  0.00     0.066 H 
ATOM     27  O   LIG d   1      10.544   7.321   0.718  0.00  0.00    -0.422 OA
ATOM     28  C   LIG d   1      11.097   6.113   0.913  0.00  0.00     0.338 A 
ATOM     29  C   LIG d   1      11.649   5.372  -0.154  0.00  0.00     0.028 A 
ATOM     30  O   LIG d   1      11.125   5.647   2.037  0.00  0.00    -0.245 OA
ATOM     31  H   LIG d   1      12.087   4.402   0.031  0.00  0.00     0.069 H 
BRANCH  22  32
ATOM     32  C   LIG d   1      10.328   9.634  -4.415  0.00  0.00    -0.039 C 
ATOM     33  H   LIG d   1      10.240  10.715  -4.317  0.00  0.00     0.028 H 
ATOM     34  H   LIG d   1      11.237   9.392  -4.966  0.00  0.00     0.028 H 
ATOM     35  H   LIG d   1       9.463   9.246  -4.953  0.00  0.00     0.028 H 
ENDBRANCH  22  32
BRANCH  24  36
ATOM     36  C   LIG d   1       9.250  11.049  -2.148  0.00  0.00    -0.039 C 
ATOM     37  H   LIG d   1       9.300  11.609  -1.214  0.00  0.00     0.028 H 
ATOM     38  H   LIG d   1       9.794  11.588  -2.925  0.00  0.00     0.028 H 
ATOM     39  H   LIG d   1       8.209  10.933  -2.448  0.00  0.00     0.028 H 
ENDBRANCH  24  36
ENDBRANCH  15  18
ENDBRANCH   1  15
BRANCH   4  40
ATOM     40  C   LIG d   1       9.151   0.819  -4.617  0.00  0.00     0.003 C 
ATOM     41  H   LIG d   1       9.541   0.287  -5.485  0.00  0.00     0.043 H 
ATOM     42  H   LIG d   1       9.204   0.174  -3.741  0.00  0.00     0.043 H 
BRANCH  40  43
ATOM     43  C   LIG d   1       7.695   1.213  -4.873  0.00  0.00    -0.015 C 
ATOM     44  H   LIG d   1       7.557   2.269  -4.639  0.00  0.00     0.033 H 
ATOM     45  H   LIG d   1       7.450   1.038  -5.920  0.00  0.00     0.033 H 
BRANCH  43  46
ATOM     46  C   LIG d   1       6.789   0.383  -4.000  0.00  0.00    -0.043 A 
ATOM     47  C   LIG d   1       6.827  -1.002  -4.053  0.00  0.00    -0.040 A 
ATOM     48  C   LIG d   1       5.985  -1.730  -3.232  0.00  0.00     0.028 A 
ATOM     49  H   LIG d   1       7.508  -1.506  -4.722  0.00  0.00     0.064 H 
ATOM     50  N   LIG d   1       5.146  -1.123  -2.417  0.00  0.00    -0.263 NA
ATOM     51  H   LIG d   1       6.012  -2.810  -3.264  0.00  0.00     0.083 H 
ATOM     52  C   LIG d   1       5.078   0.192  -2.345  0.00  0.00     0.028 A 
ATOM     53  C   LIG d   1       5.894   0.986  -3.130  0.00  0.00    -0.040 A 
ATOM     54  H   LIG d   1       4.378   0.654  -1.665  0.00  0.00     0.083 H 
ATOM     55  H   LIG d   1       5.835   2.062  -3.066  0.00  0.00     0.064 H 
ENDBRANCH  43  46
ENDBRANCH  40  43
ENDBRANCH   4  40
TORSDOF 7
ENDMDL
