MODEL 1
REMARK VINA RESULT:      -6.4      0.000      0.000
REMARK  9 active torsions:
REMARK  status: ('A' for Active; 'I' for Inactive)
REMARK    1  A    between atoms: C_1  and  N_60 
REMARK    2  A    between atoms: C_2  and  C_3 
REMARK    3  A    between atoms: C_2  and  N_60 
REMARK    4  A    between atoms: C_3  and  C_4 
REMARK    5  A    between atoms: C_10  and  C_11 
REMARK    6  A    between atoms: C_10  and  N_60 
REMARK    7  A    between atoms: C_19  and  C_21 
REMARK    8  A    between atoms: C_21  and  N_22 
REMARK       I    between atoms: N_22  and  C_23 
REMARK    9  A    between atoms: C_23  and  C_25 
ROOT
ATOM      1  C   LIG d   1       3.983  -1.622  -9.833  0.00  0.00     0.042 C 
ATOM      2  H   LIG d   1       4.137  -2.223 -10.729  0.00  0.00     0.041 H 
ATOM      3  C   LIG d   1       2.733  -0.753 -10.006  0.00  0.00    -0.024 C 
ATOM      4  C   LIG d   1       4.048   1.042 -10.965  0.00  0.00    -0.031 C 
ATOM      5  C   LIG d   1       5.334   0.223 -10.819  0.00  0.00    -0.009 C 
ATOM      6  C   LIG d   1       5.194  -0.709  -9.610  0.00  0.00    -0.019 C 
ATOM      7  H   LIG d   1       6.096  -1.307  -9.476  0.00  0.00     0.031 H 
ATOM      8  C   LIG d   1       4.939   0.146  -8.361  0.00  0.00    -0.005 C 
ATOM      9  C   LIG d   1       3.664   0.966  -8.575  0.00  0.00    -0.005 C 
ATOM     10  H   LIG d   1       3.901   2.029  -8.514  0.00  0.00     0.087 H 
ATOM     11  H   LIG d   1       2.293  -0.942 -10.985  0.00  0.00     0.082 H 
ATOM     12  H   LIG d   1       2.010  -0.997  -9.229  0.00  0.00     0.082 H 
ATOM     13  H   LIG d   1       3.598   0.842 -11.937  0.00  0.00     0.081 H 
ATOM     14  H   LIG d   1       4.282   2.103 -10.883  0.00  0.00     0.081 H 
ATOM     15  H   LIG d   1       6.179   0.895 -10.667  0.00  0.00     0.032 H 
ATOM     16  H   LIG d   1       5.496  -0.369 -11.720  0.00  0.00     0.032 H 
ATOM     17  H   LIG d   1       5.782   0.817  -8.199  0.00  0.00     0.032 H 
ATOM     18  H   LIG d   1       4.815  -0.503  -7.494  0.00  0.00     0.032 H 
ATOM     19  N   LIG d   1       3.084   0.680  -9.905  0.00  0.00     0.239 N 
ATOM     20  H   LIG d   1       2.232   1.240 -10.024  0.00  0.00     0.204 HD
ENDROOT
BRANCH   1  21
ATOM     21  C   LIG d   1       3.804  -2.542  -8.623  0.00  0.00    -0.024 C 
ATOM     22  H   LIG d   1       2.771  -2.888  -8.579  0.00  0.00     0.082 H 
ATOM     23  H   LIG d   1       4.043  -1.994  -7.712  0.00  0.00     0.082 H 
BRANCH  21  24
ATOM     24  N   LIG d   1       4.700  -3.708  -8.777  0.00  0.00     0.234 N 
ATOM     25  H   LIG d   1       5.261  -3.587  -9.629  0.00  0.00     0.203 HD
BRANCH  24  26
ATOM     26  C   LIG d   1       3.900  -4.945  -8.899  0.00  0.00    -0.043 C 
ATOM     27  H   LIG d   1       3.990  -5.519  -7.976  0.00  0.00     0.078 H 
ATOM     28  H   LIG d   1       2.855  -4.675  -9.057  0.00  0.00     0.078 H 
ATOM     29  H   LIG d   1       4.251  -5.546  -9.737  0.00  0.00     0.078 H 
ENDBRANCH  24  26
BRANCH  24  30
ATOM     30  C   LIG d   1       5.607  -3.804  -7.614  0.00  0.00    -0.027 C 
ATOM     31  H   LIG d   1       5.895  -4.845  -7.472  0.00  0.00     0.082 H 
ATOM     32  H   LIG d   1       6.499  -3.198  -7.774  0.00  0.00     0.082 H 
BRANCH  30  33
ATOM     33  C   LIG d   1       4.868  -3.306  -6.370  0.00  0.00     0.030 C 
ATOM     34  H   LIG d   1       4.034  -2.673  -6.672  0.00  0.00     0.038 H 
ATOM     35  H   LIG d   1       4.491  -4.159  -5.805  0.00  0.00     0.038 H 
BRANCH  33  36
ATOM     36  C   LIG d   1       5.815  -2.511  -5.508  0.00  0.00     0.046 A 
ATOM     37  N   LIG d   1       6.026  -1.237  -5.776  0.00  0.00    -0.260 NA
ATOM     38  C   LIG d   1       6.845  -0.502  -5.049  0.00  0.00     0.028 A 
ATOM     39  C   LIG d   1       7.518  -1.048  -3.973  0.00  0.00    -0.044 A 
ATOM     40  H   LIG d   1       6.993   0.538  -5.299  0.00  0.00     0.083 H 
ATOM     41  C   LIG d   1       7.321  -2.385  -3.660  0.00  0.00    -0.059 A 
ATOM     42  H   LIG d   1       8.188  -0.441  -3.382  0.00  0.00     0.063 H 
ATOM     43  C   LIG d   1       6.448  -3.123  -4.443  0.00  0.00    -0.040 A 
ATOM     44  H   LIG d   1       7.833  -2.839  -2.825  0.00  0.00     0.062 H 
ATOM     45  H   LIG d   1       6.266  -4.166  -4.225  0.00  0.00     0.064 H 
ENDBRANCH  33  36
ENDBRANCH  30  33
ENDBRANCH  24  30
ENDBRANCH  21  24
ENDBRANCH   1  21
BRANCH   9  46
ATOM     46  C   LIG d   1       2.639   0.607  -7.498  0.00  0.00     0.055 C 
ATOM     47  H   LIG d   1       1.961   1.448  -7.347  0.00  0.00     0.052 H 
ATOM     48  H   LIG d   1       2.070  -0.266  -7.813  0.00  0.00     0.052 H 
BRANCH  46  49
ATOM     49  N   LIG d   1       3.335   0.311  -6.243  0.00  0.00    -0.306 N 
ATOM     50  C   LIG d   1       2.635   0.193  -5.096  0.00  0.00     0.244 C 
ATOM     51  O   LIG d   1       1.428   0.335  -5.104  0.00  0.00    -0.270 OA
ATOM     52  H   LIG d   1       4.298   0.198  -6.236  0.00  0.00     0.149 HD
BRANCH  50  53
ATOM     53  C   LIG d   1       3.337  -0.106  -3.830  0.00  0.00     0.037 A 
ATOM     54  C   LIG d   1       3.331  -1.404  -3.316  0.00  0.00    -0.050 A 
ATOM     55  C   LIG d   1       3.988  -1.677  -2.134  0.00  0.00    -0.061 A 
ATOM     56  H   LIG d   1       2.812  -2.192  -3.841  0.00  0.00     0.062 H 
ATOM     57  C   LIG d   1       4.652  -0.668  -1.459  0.00  0.00    -0.062 A 
ATOM     58  H   LIG d   1       3.984  -2.681  -1.735  0.00  0.00     0.062 H 
ATOM     59  C   LIG d   1       4.663   0.619  -1.964  0.00  0.00    -0.061 A 
ATOM     60  H   LIG d   1       5.165  -0.887  -0.533  0.00  0.00     0.062 H 
ATOM     61  C   LIG d   1       4.014   0.905  -3.147  0.00  0.00    -0.050 A 
ATOM     62  H   LIG d   1       5.183   1.402  -1.432  0.00  0.00     0.062 H 
ATOM     63  H   LIG d   1       4.026   1.911  -3.542  0.00  0.00     0.062 H 
ENDBRANCH  50  53
ENDBRANCH  46  49
ENDBRANCH   9  46
TORSDOF 9
ENDMDL
MODEL 2
REMARK VINA RESULT:      -6.3      1.907      6.381
REMARK  9 active torsions:
REMARK  status: ('A' for Active; 'I' for Inactive)
REMARK    1  A    between atoms: C_1  and  N_60 
REMARK    2  A    between atoms: C_2  and  C_3 
REMARK    3  A    between atoms: C_2  and  N_60 
REMARK    4  A    between atoms: C_3  and  C_4 
REMARK    5  A    between atoms: C_10  and  C_11 
REMARK    6  A    between atoms: C_10  and  N_60 
REMARK    7  A    between atoms: C_19  and  C_21 
REMARK    8  A    between atoms: C_21  and  N_22 
REMARK       I    between atoms: N_22  and  C_23 
REMARK    9  A    between atoms: C_23  and  C_25 
ROOT
ATOM      1  C   LIG d   1       4.759  -2.851  -4.179  0.00  0.00     0.042 C 
ATOM      2  H   LIG d   1       4.484  -3.752  -3.631  0.00  0.00     0.041 H 
ATOM      3  C   LIG d   1       6.085  -2.307  -3.642  0.00  0.00    -0.024 C 
ATOM      4  C   LIG d   1       4.927  -0.942  -2.009  0.00  0.00    -0.031 C 
ATOM      5  C   LIG d   1       3.568  -1.448  -2.500  0.00  0.00    -0.009 C 
ATOM      6  C   LIG d   1       3.673  -1.784  -3.993  0.00  0.00    -0.019 C 
ATOM      7  H   LIG d   1       2.720  -2.147  -4.376  0.00  0.00     0.031 H 
ATOM      8  C   LIG d   1       4.097  -0.518  -4.750  0.00  0.00    -0.005 C 
ATOM      9  C   LIG d   1       5.443  -0.038  -4.196  0.00  0.00    -0.005 C 
ATOM     10  H   LIG d   1       5.331   0.970  -3.795  0.00  0.00     0.087 H 
ATOM     11  H   LIG d   1       6.442  -2.950  -2.837  0.00  0.00     0.082 H 
ATOM     12  H   LIG d   1       6.822  -2.285  -4.445  0.00  0.00     0.082 H 
ATOM     13  H   LIG d   1       5.293  -1.594  -1.217  0.00  0.00     0.081 H 
ATOM     14  H   LIG d   1       4.821   0.073  -1.626  0.00  0.00     0.081 H 
ATOM     15  H   LIG d   1       2.815  -0.674  -2.352  0.00  0.00     0.032 H 
ATOM     16  H   LIG d   1       3.287  -2.342  -1.944  0.00  0.00     0.032 H 
ATOM     17  H   LIG d   1       3.347   0.260  -4.611  0.00  0.00     0.032 H 
ATOM     18  H   LIG d   1       4.199  -0.744  -5.811  0.00  0.00     0.032 H 
ATOM     19  N   LIG d   1       5.906  -0.936  -3.117  0.00  0.00     0.239 N 
ATOM     20  H   LIG d   1       6.807  -0.594  -2.763  0.00  0.00     0.204 HD
ENDROOT
BRANCH   1  21
ATOM     21  C   LIG d   1       4.904  -3.180  -5.666  0.00  0.00    -0.024 C 
ATOM     22  H   LIG d   1       5.935  -3.464  -5.877  0.00  0.00     0.082 H 
ATOM     23  H   LIG d   1       4.639  -2.305  -6.260  0.00  0.00     0.082 H 
BRANCH  21  24
ATOM     24  N   LIG d   1       4.013  -4.315  -5.990  0.00  0.00     0.234 N 
ATOM     25  H   LIG d   1       3.102  -4.163  -5.541  0.00  0.00     0.203 HD
BRANCH  24  26
ATOM     26  C   LIG d   1       4.596  -5.574  -5.482  0.00  0.00    -0.043 C 
ATOM     27  H   LIG d   1       4.872  -6.205  -6.327  0.00  0.00     0.078 H 
ATOM     28  H   LIG d   1       5.487  -5.340  -4.898  0.00  0.00     0.078 H 
ATOM     29  H   LIG d   1       3.879  -6.101  -4.853  0.00  0.00     0.078 H 
ENDBRANCH  24  26
BRANCH  24  30
ATOM     30  C   LIG d   1       3.819  -4.402  -7.453  0.00  0.00    -0.027 C 
ATOM     31  H   LIG d   1       4.345  -5.278  -7.831  0.00  0.00     0.082 H 
ATOM     32  H   LIG d   1       2.758  -4.484  -7.693  0.00  0.00     0.082 H 
BRANCH  30  33
ATOM     33  C   LIG d   1       4.393  -3.141  -8.103  0.00  0.00     0.030 C 
ATOM     34  H   LIG d   1       4.714  -2.447  -7.326  0.00  0.00     0.038 H 
ATOM     35  H   LIG d   1       5.247  -3.410  -8.725  0.00  0.00     0.038 H 
BRANCH  33  36
ATOM     36  C   LIG d   1       3.336  -2.489  -8.955  0.00  0.00     0.046 A 
ATOM     37  N   LIG d   1       3.021  -3.018 -10.122  0.00  0.00    -0.260 NA
ATOM     38  C   LIG d   1       2.102  -2.483 -10.901  0.00  0.00     0.028 A 
ATOM     39  C   LIG d   1       1.433  -1.335 -10.519  0.00  0.00    -0.044 A 
ATOM     40  H   LIG d   1       1.872  -2.945 -11.849  0.00  0.00     0.083 H 
ATOM     41  C   LIG d   1       1.737  -0.750  -9.299  0.00  0.00    -0.059 A 
ATOM     42  H   LIG d   1       0.682  -0.901 -11.162  0.00  0.00     0.063 H 
ATOM     43  C   LIG d   1       2.704  -1.346  -8.505  0.00  0.00    -0.040 A 
ATOM     44  H   LIG d   1       1.230   0.147  -8.975  0.00  0.00     0.062 H 
ATOM     45  H   LIG d   1       2.962  -0.919  -7.546  0.00  0.00     0.064 H 
ENDBRANCH  33  36
ENDBRANCH  30  33
ENDBRANCH  24  30
ENDBRANCH  21  24
ENDBRANCH   1  21
BRANCH   9  46
ATOM     46  C   LIG d   1       6.482  -0.030  -5.318  0.00  0.00     0.055 C 
ATOM     47  H   LIG d   1       7.110   0.857  -5.224  0.00  0.00     0.052 H 
ATOM     48  H   LIG d   1       7.102  -0.922  -5.246  0.00  0.00     0.052 H 
BRANCH  46  49
ATOM     49  N   LIG d   1       5.801  -0.011  -6.614  0.00  0.00    -0.306 N 
ATOM     50  C   LIG d   1       6.207   0.841  -7.577  0.00  0.00     0.244 C 
ATOM     51  O   LIG d   1       7.137   1.595  -7.368  0.00  0.00    -0.270 OA
ATOM     52  H   LIG d   1       5.058  -0.612  -6.781  0.00  0.00     0.149 HD
BRANCH  50  53
ATOM     53  C   LIG d   1       5.519   0.860  -8.885  0.00  0.00     0.037 A 
ATOM     54  C   LIG d   1       4.540   1.820  -9.149  0.00  0.00    -0.050 A 
ATOM     55  C   LIG d   1       3.903   1.832 -10.373  0.00  0.00    -0.061 A 
ATOM     56  H   LIG d   1       4.282   2.550  -8.397  0.00  0.00     0.062 H 
ATOM     57  C   LIG d   1       4.232   0.896 -11.337  0.00  0.00    -0.062 A 
ATOM     58  H   LIG d   1       3.145   2.574 -10.578  0.00  0.00     0.062 H 
ATOM     59  C   LIG d   1       5.201  -0.057 -11.082  0.00  0.00    -0.061 A 
ATOM     60  H   LIG d   1       3.729   0.910 -12.294  0.00  0.00     0.062 H 
ATOM     61  C   LIG d   1       5.850  -0.077  -9.866  0.00  0.00    -0.050 A 
ATOM     62  H   LIG d   1       5.453  -0.785 -11.840  0.00  0.00     0.062 H 
ATOM     63  H   LIG d   1       6.610  -0.820  -9.669  0.00  0.00     0.062 H 
ENDBRANCH  50  53
ENDBRANCH  46  49
ENDBRANCH   9  46
TORSDOF 9
ENDMDL
MODEL 3
REMARK VINA RESULT:      -6.1      3.952      6.315
REMARK  9 active torsions:
REMARK  status: ('A' for Active; 'I' for Inactive)
REMARK    1  A    between atoms: C_1  and  N_60 
REMARK    2  A    between atoms: C_2  and  C_3 
REMARK    3  A    between atoms: C_2  and  N_60 
REMARK    4  A    between atoms: C_3  and  C_4 
REMARK    5  A    between atoms: C_10  and  C_11 
REMARK    6  A    between atoms: C_10  and  N_60 
REMARK    7  A    between atoms: C_19  and  C_21 
REMARK    8  A    between atoms: C_21  and  N_22 
REMARK       I    between atoms: N_22  and  C_23 
REMARK    9  A    between atoms: C_23  and  C_25 
ROOT
ATOM      1  C   LIG d   1       6.177  -1.526  -5.852  0.00  0.00     0.042 C 
ATOM      2  H   LIG d   1       5.611  -2.444  -6.012  0.00  0.00     0.041 H 
ATOM      3  C   LIG d   1       7.429  -1.535  -6.734  0.00  0.00    -0.024 C 
ATOM      4  C   LIG d   1       8.718  -2.614  -4.989  0.00  0.00    -0.031 C 
ATOM      5  C   LIG d   1       7.502  -2.636  -4.059  0.00  0.00    -0.009 C 
ATOM      6  C   LIG d   1       6.607  -1.434  -4.383  0.00  0.00    -0.019 C 
ATOM      7  H   LIG d   1       5.730  -1.419  -3.735  0.00  0.00     0.031 H 
ATOM      8  C   LIG d   1       7.425  -0.150  -4.192  0.00  0.00    -0.005 C 
ATOM      9  C   LIG d   1       8.642  -0.196  -5.120  0.00  0.00    -0.005 C 
ATOM     10  H   LIG d   1       9.555  -0.146  -4.525  0.00  0.00     0.087 H 
ATOM     11  H   LIG d   1       7.458  -2.457  -7.314  0.00  0.00     0.082 H 
ATOM     12  H   LIG d   1       7.404  -0.680  -7.410  0.00  0.00     0.082 H 
ATOM     13  H   LIG d   1       8.739  -3.528  -5.582  0.00  0.00     0.081 H 
ATOM     14  H   LIG d   1       9.629  -2.543  -4.396  0.00  0.00     0.081 H 
ATOM     15  H   LIG d   1       7.835  -2.575  -3.022  0.00  0.00     0.032 H 
ATOM     16  H   LIG d   1       6.943  -3.559  -4.209  0.00  0.00     0.032 H 
ATOM     17  H   LIG d   1       7.757  -0.079  -3.157  0.00  0.00     0.032 H 
ATOM     18  H   LIG d   1       6.810   0.715  -4.441  0.00  0.00     0.032 H 
ATOM     19  N   LIG d   1       8.648  -1.452  -5.901  0.00  0.00     0.239 N 
ATOM     20  H   LIG d   1       9.472  -1.459  -6.514  0.00  0.00     0.204 HD
ENDROOT
BRANCH   1  21
ATOM     21  C   LIG d   1       5.307  -0.319  -6.208  0.00  0.00    -0.024 C 
ATOM     22  H   LIG d   1       5.607   0.071  -7.180  0.00  0.00     0.082 H 
ATOM     23  H   LIG d   1       5.432   0.455  -5.451  0.00  0.00     0.082 H 
BRANCH  21  24
ATOM     24  N   LIG d   1       3.896  -0.755  -6.276  0.00  0.00     0.234 N 
ATOM     25  H   LIG d   1       3.726  -1.451  -5.540  0.00  0.00     0.203 HD
BRANCH  24  26
ATOM     26  C   LIG d   1       3.620  -1.369  -7.592  0.00  0.00    -0.043 C 
ATOM     27  H   LIG d   1       3.346  -0.586  -8.299  0.00  0.00     0.078 H 
ATOM     28  H   LIG d   1       4.522  -1.873  -7.941  0.00  0.00     0.078 H 
ATOM     29  H   LIG d   1       2.808  -2.091  -7.515  0.00  0.00     0.078 H 
ENDBRANCH  24  26
BRANCH  24  30
ATOM     30  C   LIG d   1       3.000   0.400  -6.059  0.00  0.00    -0.027 C 
ATOM     31  H   LIG d   1       3.602   1.288  -5.868  0.00  0.00     0.082 H 
ATOM     32  H   LIG d   1       2.373   0.568  -6.936  0.00  0.00     0.082 H 
BRANCH  30  33
ATOM     33  C   LIG d   1       2.112   0.115  -4.845  0.00  0.00     0.030 C 
ATOM     34  H   LIG d   1       1.548   1.012  -4.589  0.00  0.00     0.038 H 
ATOM     35  H   LIG d   1       1.421  -0.694  -5.082  0.00  0.00     0.038 H 
BRANCH  33  36
ATOM     36  C   LIG d   1       2.975  -0.287  -3.676  0.00  0.00     0.046 A 
ATOM     37  N   LIG d   1       3.112  -1.565  -3.377  0.00  0.00    -0.260 NA
ATOM     38  C   LIG d   1       3.856  -1.963  -2.364  0.00  0.00     0.028 A 
ATOM     39  C   LIG d   1       4.522  -1.047  -1.573  0.00  0.00    -0.044 A 
ATOM     40  H   LIG d   1       3.945  -3.018  -2.150  0.00  0.00     0.083 H 
ATOM     41  C   LIG d   1       4.402   0.306  -1.857  0.00  0.00    -0.059 A 
ATOM     42  H   LIG d   1       5.130  -1.379  -0.744  0.00  0.00     0.063 H 
ATOM     43  C   LIG d   1       3.616   0.686  -2.933  0.00  0.00    -0.040 A 
ATOM     44  H   LIG d   1       4.911   1.044  -1.256  0.00  0.00     0.062 H 
ATOM     45  H   LIG d   1       3.504   1.730  -3.187  0.00  0.00     0.064 H 
ENDBRANCH  33  36
ENDBRANCH  30  33
ENDBRANCH  24  30
ENDBRANCH  21  24
ENDBRANCH   1  21
BRANCH   9  46
ATOM     46  C   LIG d   1       8.595   0.990  -6.084  0.00  0.00     0.055 C 
ATOM     47  H   LIG d   1       9.479   0.974  -6.723  0.00  0.00     0.052 H 
ATOM     48  H   LIG d   1       7.700   0.921  -6.701  0.00  0.00     0.052 H 
BRANCH  46  49
ATOM     49  N   LIG d   1       8.567   2.239  -5.320  0.00  0.00    -0.306 N 
ATOM     50  C   LIG d   1       9.712   2.910  -5.083  0.00  0.00     0.244 C 
ATOM     51  O   LIG d   1      10.768   2.477  -5.503  0.00  0.00    -0.270 OA
ATOM     52  H   LIG d   1       7.725   2.584  -4.985  0.00  0.00     0.149 HD
BRANCH  50  53
ATOM     53  C   LIG d   1       9.684   4.170  -4.312  0.00  0.00     0.037 A 
ATOM     54  C   LIG d   1      10.014   4.169  -2.955  0.00  0.00    -0.050 A 
ATOM     55  C   LIG d   1       9.987   5.350  -2.241  0.00  0.00    -0.061 A 
ATOM     56  H   LIG d   1      10.290   3.246  -2.466  0.00  0.00     0.062 H 
ATOM     57  C   LIG d   1       9.634   6.532  -2.866  0.00  0.00    -0.062 A 
ATOM     58  H   LIG d   1      10.242   5.350  -1.191  0.00  0.00     0.062 H 
ATOM     59  C   LIG d   1       9.307   6.539  -4.210  0.00  0.00    -0.061 A 
ATOM     60  H   LIG d   1       9.613   7.453  -2.302  0.00  0.00     0.062 H 
ATOM     61  C   LIG d   1       9.335   5.368  -4.937  0.00  0.00    -0.050 A 
ATOM     62  H   LIG d   1       9.032   7.467  -4.692  0.00  0.00     0.062 H 
ATOM     63  H   LIG d   1       9.083   5.376  -5.988  0.00  0.00     0.062 H 
ENDBRANCH  50  53
ENDBRANCH  46  49
ENDBRANCH   9  46
TORSDOF 9
ENDMDL
MODEL 4
REMARK VINA RESULT:      -6.0      1.867      3.055
REMARK  9 active torsions:
REMARK  status: ('A' for Active; 'I' for Inactive)
REMARK    1  A    between atoms: C_1  and  N_60 
REMARK    2  A    between atoms: C_2  and  C_3 
REMARK    3  A    between atoms: C_2  and  N_60 
REMARK    4  A    between atoms: C_3  and  C_4 
REMARK    5  A    between atoms: C_10  and  C_11 
REMARK    6  A    between atoms: C_10  and  N_60 
REMARK    7  A    between atoms: C_19  and  C_21 
REMARK    8  A    between atoms: C_21  and  N_22 
REMARK       I    between atoms: N_22  and  C_23 
REMARK    9  A    between atoms: C_23  and  C_25 
ROOT
ATOM      1  C   LIG d   1       3.047  -1.618 -10.617  0.00  0.00     0.042 C 
ATOM      2  H   LIG d   1       3.021  -1.909 -11.667  0.00  0.00     0.041 H 
ATOM      3  C   LIG d   1       2.232  -0.336 -10.420  0.00  0.00    -0.024 C 
ATOM      4  C   LIG d   1       4.188   1.035 -10.832  0.00  0.00    -0.031 C 
ATOM      5  C   LIG d   1       5.056  -0.208 -11.042  0.00  0.00    -0.009 C 
ATOM      6  C   LIG d   1       4.496  -1.354 -10.191  0.00  0.00    -0.019 C 
ATOM      7  H   LIG d   1       5.095  -2.257 -10.316  0.00  0.00     0.031 H 
ATOM      8  C   LIG d   1       4.501  -0.919  -8.719  0.00  0.00    -0.005 C 
ATOM      9  C   LIG d   1       3.646   0.344  -8.575  0.00  0.00    -0.005 C 
ATOM     10  H   LIG d   1       4.262   1.157  -8.189  0.00  0.00     0.087 H 
ATOM     11  H   LIG d   1       1.819  -0.018 -11.377  0.00  0.00     0.082 H 
ATOM     12  H   LIG d   1       1.421  -0.525  -9.718  0.00  0.00     0.082 H 
ATOM     13  H   LIG d   1       3.759   1.344 -11.785  0.00  0.00     0.081 H 
ATOM     14  H   LIG d   1       4.798   1.842 -10.428  0.00  0.00     0.081 H 
ATOM     15  H   LIG d   1       6.081   0.007 -10.736  0.00  0.00     0.032 H 
ATOM     16  H   LIG d   1       5.041  -0.493 -12.093  0.00  0.00     0.032 H 
ATOM     17  H   LIG d   1       5.523  -0.706  -8.405  0.00  0.00     0.032 H 
ATOM     18  H   LIG d   1       4.084  -1.714  -8.102  0.00  0.00     0.032 H 
ATOM     19  N   LIG d   1       3.090   0.743  -9.885  0.00  0.00     0.239 N 
ATOM     20  H   LIG d   1       2.523   1.590  -9.762  0.00  0.00     0.204 HD
ENDROOT
BRANCH   1  21
ATOM     21  C   LIG d   1       2.456  -2.738  -9.760  0.00  0.00    -0.024 C 
ATOM     22  H   LIG d   1       1.404  -2.529  -9.563  0.00  0.00     0.082 H 
ATOM     23  H   LIG d   1       2.998  -2.798  -8.816  0.00  0.00     0.082 H 
BRANCH  21  24
ATOM     24  N   LIG d   1       2.566  -4.012 -10.502  0.00  0.00     0.234 N 
ATOM     25  H   LIG d   1       2.961  -3.824 -11.431  0.00  0.00     0.203 HD
BRANCH  24  26
ATOM     26  C   LIG d   1       1.228  -4.619 -10.663  0.00  0.00    -0.043 C 
ATOM     27  H   LIG d   1       1.248  -5.635 -10.270  0.00  0.00     0.078 H 
ATOM     28  H   LIG d   1       0.503  -4.027 -10.103  0.00  0.00     0.078 H 
ATOM     29  H   LIG d   1       0.942  -4.641 -11.715  0.00  0.00     0.078 H 
ENDBRANCH  24  26
BRANCH  24  30
ATOM     30  C   LIG d   1       3.459  -4.942  -9.779  0.00  0.00    -0.027 C 
ATOM     31  H   LIG d   1       3.072  -5.956  -9.876  0.00  0.00     0.082 H 
ATOM     32  H   LIG d   1       4.469  -4.898 -10.187  0.00  0.00     0.082 H 
BRANCH  30  33
ATOM     33  C   LIG d   1       3.488  -4.547  -8.301  0.00  0.00     0.030 C 
ATOM     34  H   LIG d   1       4.152  -3.693  -8.166  0.00  0.00     0.038 H 
ATOM     35  H   LIG d   1       2.482  -4.281  -7.975  0.00  0.00     0.038 H 
BRANCH  33  36
ATOM     36  C   LIG d   1       3.990  -5.708  -7.481  0.00  0.00     0.046 A 
ATOM     37  N   LIG d   1       3.953  -6.926  -7.985  0.00  0.00    -0.260 NA
ATOM     38  C   LIG d   1       4.382  -7.972  -7.305  0.00  0.00     0.028 A 
ATOM     39  C   LIG d   1       4.888  -7.824  -6.027  0.00  0.00    -0.044 A 
ATOM     40  H   LIG d   1       4.336  -8.954  -7.751  0.00  0.00     0.083 H 
ATOM     41  C   LIG d   1       4.943  -6.558  -5.464  0.00  0.00    -0.059 A 
ATOM     42  H   LIG d   1       5.238  -8.684  -5.475  0.00  0.00     0.063 H 
ATOM     43  C   LIG d   1       4.489  -5.483  -6.212  0.00  0.00    -0.040 A 
ATOM     44  H   LIG d   1       5.334  -6.412  -4.468  0.00  0.00     0.062 H 
ATOM     45  H   LIG d   1       4.522  -4.482  -5.806  0.00  0.00     0.064 H 
ENDBRANCH  33  36
ENDBRANCH  30  33
ENDBRANCH  24  30
ENDBRANCH  21  24
ENDBRANCH   1  21
BRANCH   9  46
ATOM     46  C   LIG d   1       2.494   0.072  -7.606  0.00  0.00     0.055 C 
ATOM     47  H   LIG d   1       1.941   0.996  -7.432  0.00  0.00     0.052 H 
ATOM     48  H   LIG d   1       1.828  -0.675  -8.035  0.00  0.00     0.052 H 
BRANCH  46  49
ATOM     49  N   LIG d   1       3.031  -0.422  -6.336  0.00  0.00    -0.306 N 
ATOM     50  C   LIG d   1       2.967   0.348  -5.232  0.00  0.00     0.244 C 
ATOM     51  O   LIG d   1       2.466   1.454  -5.291  0.00  0.00    -0.270 OA
ATOM     52  H   LIG d   1       3.432  -1.304  -6.289  0.00  0.00     0.149 HD
BRANCH  50  53
ATOM     53  C   LIG d   1       3.509  -0.151  -3.950  0.00  0.00     0.037 A 
ATOM     54  C   LIG d   1       3.511  -1.520  -3.677  0.00  0.00    -0.050 A 
ATOM     55  C   LIG d   1       4.019  -1.979  -2.478  0.00  0.00    -0.061 A 
ATOM     56  H   LIG d   1       3.116  -2.218  -4.400  0.00  0.00     0.062 H 
ATOM     57  C   LIG d   1       4.525  -1.087  -1.550  0.00  0.00    -0.062 A 
ATOM     58  H   LIG d   1       4.022  -3.039  -2.266  0.00  0.00     0.062 H 
ATOM     59  C   LIG d   1       4.526   0.270  -1.816  0.00  0.00    -0.061 A 
ATOM     60  H   LIG d   1       4.921  -1.452  -0.613  0.00  0.00     0.062 H 
ATOM     61  C   LIG d   1       4.027   0.743  -3.011  0.00  0.00    -0.050 A 
ATOM     62  H   LIG d   1       4.922   0.961  -1.086  0.00  0.00     0.062 H 
ATOM     63  H   LIG d   1       4.031   1.803  -3.220  0.00  0.00     0.062 H 
ENDBRANCH  50  53
ENDBRANCH  46  49
ENDBRANCH   9  46
TORSDOF 9
ENDMDL
MODEL 5
REMARK VINA RESULT:      -5.9      3.144      6.422
REMARK  9 active torsions:
REMARK  status: ('A' for Active; 'I' for Inactive)
REMARK    1  A    between atoms: C_1  and  N_60 
REMARK    2  A    between atoms: C_2  and  C_3 
REMARK    3  A    between atoms: C_2  and  N_60 
REMARK    4  A    between atoms: C_3  and  C_4 
REMARK    5  A    between atoms: C_10  and  C_11 
REMARK    6  A    between atoms: C_10  and  N_60 
REMARK    7  A    between atoms: C_19  and  C_21 
REMARK    8  A    between atoms: C_21  and  N_22 
REMARK       I    between atoms: N_22  and  C_23 
REMARK    9  A    between atoms: C_23  and  C_25 
ROOT
ATOM      1  C   LIG d   1       9.756   0.480  -4.539  0.00  0.00     0.042 C 
ATOM      2  H   LIG d   1      10.315  -0.051  -3.768  0.00  0.00     0.041 H 
ATOM      3  C   LIG d   1      10.721   0.993  -5.612  0.00  0.00    -0.024 C 
ATOM      4  C   LIG d   1      11.026   3.079  -4.418  0.00  0.00    -0.031 C 
ATOM      5  C   LIG d   1      10.070   2.624  -3.311  0.00  0.00    -0.009 C 
ATOM      6  C   LIG d   1       9.027   1.676  -3.914  0.00  0.00    -0.019 C 
ATOM      7  H   LIG d   1       8.328   1.334  -3.151  0.00  0.00     0.031 H 
ATOM      8  C   LIG d   1       8.273   2.422  -5.023  0.00  0.00    -0.005 C 
ATOM      9  C   LIG d   1       9.279   2.881  -6.083  0.00  0.00    -0.005 C 
ATOM     10  H   LIG d   1       9.249   3.968  -6.165  0.00  0.00     0.087 H 
ATOM     11  H   LIG d   1      11.739   0.705  -5.351  0.00  0.00     0.082 H 
ATOM     12  H   LIG d   1      10.455   0.561  -6.576  0.00  0.00     0.082 H 
ATOM     13  H   LIG d   1      12.042   2.777  -4.167  0.00  0.00     0.081 H 
ATOM     14  H   LIG d   1      10.981   4.164  -4.514  0.00  0.00     0.081 H 
ATOM     15  H   LIG d   1       9.570   3.493  -2.881  0.00  0.00     0.032 H 
ATOM     16  H   LIG d   1      10.631   2.104  -2.534  0.00  0.00     0.032 H 
ATOM     17  H   LIG d   1       7.766   3.289  -4.601  0.00  0.00     0.032 H 
ATOM     18  H   LIG d   1       7.541   1.755  -5.480  0.00  0.00     0.032 H 
ATOM     19  N   LIG d   1      10.648   2.467  -5.709  0.00  0.00     0.239 N 
ATOM     20  H   LIG d   1      11.302   2.785  -6.433  0.00  0.00     0.204 HD
ENDROOT
BRANCH   1  21
ATOM     21  C   LIG d   1       8.736  -0.466  -5.176  0.00  0.00    -0.024 C 
ATOM     22  H   LIG d   1       9.104  -0.797  -6.147  0.00  0.00     0.082 H 
ATOM     23  H   LIG d   1       7.788   0.055  -5.304  0.00  0.00     0.082 H 
BRANCH  21  24
ATOM     24  N   LIG d   1       8.566  -1.642  -4.296  0.00  0.00     0.234 N 
ATOM     25  H   LIG d   1       9.170  -1.533  -3.473  0.00  0.00     0.203 HD
BRANCH  24  26
ATOM     26  C   LIG d   1       8.954  -2.872  -5.018  0.00  0.00    -0.043 C 
ATOM     27  H   LIG d   1       8.073  -3.292  -5.504  0.00  0.00     0.078 H 
ATOM     28  H   LIG d   1       9.698  -2.617  -5.774  0.00  0.00     0.078 H 
ATOM     29  H   LIG d   1       9.373  -3.604  -4.329  0.00  0.00     0.078 H 
ENDBRANCH  24  26
BRANCH  24  30
ATOM     30  C   LIG d   1       7.160  -1.740  -3.850  0.00  0.00    -0.027 C 
ATOM     31  H   LIG d   1       6.835  -2.778  -3.919  0.00  0.00     0.082 H 
ATOM     32  H   LIG d   1       7.061  -1.395  -2.820  0.00  0.00     0.082 H 
BRANCH  30  33
ATOM     33  C   LIG d   1       6.292  -0.872  -4.764  0.00  0.00     0.030 C 
ATOM     34  H   LIG d   1       6.925  -0.170  -5.306  0.00  0.00     0.038 H 
ATOM     35  H   LIG d   1       5.763  -1.509  -5.475  0.00  0.00     0.038 H 
BRANCH  33  36
ATOM     36  C   LIG d   1       5.292  -0.110  -3.933  0.00  0.00     0.046 A 
ATOM     37  N   LIG d   1       4.130   0.226  -4.458  0.00  0.00    -0.260 NA
ATOM     38  C   LIG d   1       3.224   0.893  -3.768  0.00  0.00     0.028 A 
ATOM     39  C   LIG d   1       3.467   1.267  -2.460  0.00  0.00    -0.044 A 
ATOM     40  H   LIG d   1       2.284   1.150  -4.232  0.00  0.00     0.083 H 
ATOM     41  C   LIG d   1       4.678   0.930  -1.874  0.00  0.00    -0.059 A 
ATOM     42  H   LIG d   1       2.722   1.813  -1.900  0.00  0.00     0.063 H 
ATOM     43  C   LIG d   1       5.602   0.225  -2.628  0.00  0.00    -0.040 A 
ATOM     44  H   LIG d   1       4.895   1.210  -0.854  0.00  0.00     0.062 H 
ATOM     45  H   LIG d   1       6.554  -0.058  -2.202  0.00  0.00     0.064 H 
ENDBRANCH  33  36
ENDBRANCH  30  33
ENDBRANCH  24  30
ENDBRANCH  21  24
ENDBRANCH   1  21
BRANCH   9  46
ATOM     46  C   LIG d   1       8.920   2.257  -7.432  0.00  0.00     0.055 C 
ATOM     47  H   LIG d   1       9.169   2.954  -8.233  0.00  0.00     0.052 H 
ATOM     48  H   LIG d   1       9.482   1.333  -7.567  0.00  0.00     0.052 H 
BRANCH  46  49
ATOM     49  N   LIG d   1       7.485   1.964  -7.468  0.00  0.00    -0.306 N 
ATOM     50  C   LIG d   1       6.853   1.833  -8.652  0.00  0.00     0.244 C 
ATOM     51  O   LIG d   1       7.475   1.960  -9.690  0.00  0.00    -0.270 OA
ATOM     52  H   LIG d   1       6.989   1.864  -6.641  0.00  0.00     0.149 HD
BRANCH  50  53
ATOM     53  C   LIG d   1       5.406   1.538  -8.689  0.00  0.00     0.037 A 
ATOM     54  C   LIG d   1       4.913   0.373  -8.099  0.00  0.00    -0.050 A 
ATOM     55  C   LIG d   1       3.560   0.104  -8.136  0.00  0.00    -0.061 A 
ATOM     56  H   LIG d   1       5.589  -0.317  -7.616  0.00  0.00     0.062 H 
ATOM     57  C   LIG d   1       2.693   0.985  -8.755  0.00  0.00    -0.062 A 
ATOM     58  H   LIG d   1       3.178  -0.798  -7.680  0.00  0.00     0.062 H 
ATOM     59  C   LIG d   1       3.175   2.142  -9.341  0.00  0.00    -0.061 A 
ATOM     60  H   LIG d   1       1.634   0.770  -8.782  0.00  0.00     0.062 H 
ATOM     61  C   LIG d   1       4.524   2.427  -9.307  0.00  0.00    -0.050 A 
ATOM     62  H   LIG d   1       2.492   2.827  -9.823  0.00  0.00     0.062 H 
ATOM     63  H   LIG d   1       4.899   3.332  -9.761  0.00  0.00     0.062 H 
ENDBRANCH  50  53
ENDBRANCH  46  49
ENDBRANCH   9  46
TORSDOF 9
ENDMDL
MODEL 6
REMARK VINA RESULT:      -5.9      3.254      6.328
REMARK  9 active torsions:
REMARK  status: ('A' for Active; 'I' for Inactive)
REMARK    1  A    between atoms: C_1  and  N_60 
REMARK    2  A    between atoms: C_2  and  C_3 
REMARK    3  A    between atoms: C_2  and  N_60 
REMARK    4  A    between atoms: C_3  and  C_4 
REMARK    5  A    between atoms: C_10  and  C_11 
REMARK    6  A    between atoms: C_10  and  N_60 
REMARK    7  A    between atoms: C_19  and  C_21 
REMARK    8  A    between atoms: C_21  and  N_22 
REMARK       I    between atoms: N_22  and  C_23 
REMARK    9  A    between atoms: C_23  and  C_25 
ROOT
ATOM      1  C   LIG d   1       4.575  -2.547  -4.462  0.00  0.00     0.042 C 
ATOM      2  H   LIG d   1       3.950  -3.418  -4.267  0.00  0.00     0.041 H 
ATOM      3  C   LIG d   1       5.683  -2.464  -3.408  0.00  0.00    -0.024 C 
ATOM      4  C   LIG d   1       4.283  -1.116  -1.961  0.00  0.00    -0.031 C 
ATOM      5  C   LIG d   1       3.135  -1.162  -2.974  0.00  0.00    -0.009 C 
ATOM      6  C   LIG d   1       3.723  -1.274  -4.386  0.00  0.00    -0.019 C 
ATOM      7  H   LIG d   1       2.930  -1.308  -5.133  0.00  0.00     0.031 H 
ATOM      8  C   LIG d   1       4.631  -0.062  -4.635  0.00  0.00    -0.005 C 
ATOM      9  C   LIG d   1       5.738  -0.048  -3.577  0.00  0.00    -0.005 C 
ATOM     10  H   LIG d   1       5.679   0.877  -3.002  0.00  0.00     0.087 H 
ATOM     11  H   LIG d   1       5.586  -3.297  -2.712  0.00  0.00     0.082 H 
ATOM     12  H   LIG d   1       6.656  -2.511  -3.898  0.00  0.00     0.082 H 
ATOM     13  H   LIG d   1       4.196  -1.958  -1.275  0.00  0.00     0.081 H 
ATOM     14  H   LIG d   1       4.237  -0.182  -1.401  0.00  0.00     0.081 H 
ATOM     15  H   LIG d   1       2.543  -0.250  -2.896  0.00  0.00     0.032 H 
ATOM     16  H   LIG d   1       2.503  -2.026  -2.772  0.00  0.00     0.032 H 
ATOM     17  H   LIG d   1       4.045   0.854  -4.564  0.00  0.00     0.032 H 
ATOM     18  H   LIG d   1       5.076  -0.137  -5.627  0.00  0.00     0.032 H 
ATOM     19  N   LIG d   1       5.586  -1.195  -2.656  0.00  0.00     0.239 N 
ATOM     20  H   LIG d   1       6.338  -1.163  -1.957  0.00  0.00     0.204 HD
ENDROOT
BRANCH   1  21
ATOM     21  C   LIG d   1       5.198  -2.664  -5.854  0.00  0.00    -0.024 C 
ATOM     22  H   LIG d   1       5.894  -3.503  -5.871  0.00  0.00     0.082 H 
ATOM     23  H   LIG d   1       5.731  -1.744  -6.092  0.00  0.00     0.082 H 
BRANCH  21  24
ATOM     24  N   LIG d   1       4.121  -2.908  -6.837  0.00  0.00     0.234 N 
ATOM     25  H   LIG d   1       3.230  -2.588  -6.441  0.00  0.00     0.203 HD
BRANCH  24  26
ATOM     26  C   LIG d   1       4.025  -4.354  -7.131  0.00  0.00    -0.043 C 
ATOM     27  H   LIG d   1       3.581  -4.862  -6.275  0.00  0.00     0.078 H 
ATOM     28  H   LIG d   1       3.389  -4.494  -8.006  0.00  0.00     0.078 H 
ATOM     29  H   LIG d   1       5.012  -4.770  -7.330  0.00  0.00     0.078 H 
ENDBRANCH  24  26
BRANCH  24  30
ATOM     30  C   LIG d   1       4.393  -2.156  -8.080  0.00  0.00    -0.027 C 
ATOM     31  H   LIG d   1       5.060  -1.325  -7.856  0.00  0.00     0.082 H 
ATOM     32  H   LIG d   1       4.856  -2.804  -8.825  0.00  0.00     0.082 H 
BRANCH  30  33
ATOM     33  C   LIG d   1       3.070  -1.615  -8.628  0.00  0.00     0.030 C 
ATOM     34  H   LIG d   1       2.773  -2.196  -9.500  0.00  0.00     0.038 H 
ATOM     35  H   LIG d   1       2.300  -1.692  -7.860  0.00  0.00     0.038 H 
BRANCH  33  36
ATOM     36  C   LIG d   1       3.243  -0.170  -9.022  0.00  0.00     0.046 A 
ATOM     37  N   LIG d   1       3.759   0.127 -10.199  0.00  0.00    -0.260 NA
ATOM     38  C   LIG d   1       3.929   1.376 -10.586  0.00  0.00     0.028 A 
ATOM     39  C   LIG d   1       3.570   2.426  -9.762  0.00  0.00    -0.044 A 
ATOM     40  H   LIG d   1       4.354   1.580 -11.557  0.00  0.00     0.083 H 
ATOM     41  C   LIG d   1       3.024   2.152  -8.517  0.00  0.00    -0.059 A 
ATOM     42  H   LIG d   1       3.712   3.447 -10.085  0.00  0.00     0.063 H 
ATOM     43  C   LIG d   1       2.855   0.828  -8.148  0.00  0.00    -0.040 A 
ATOM     44  H   LIG d   1       2.734   2.953  -7.853  0.00  0.00     0.062 H 
ATOM     45  H   LIG d   1       2.428   0.578  -7.187  0.00  0.00     0.064 H 
ENDBRANCH  33  36
ENDBRANCH  30  33
ENDBRANCH  24  30
ENDBRANCH  21  24
ENDBRANCH   1  21
BRANCH   9  46
ATOM     46  C   LIG d   1       7.102  -0.137  -4.263  0.00  0.00     0.055 C 
ATOM     47  H   LIG d   1       7.559  -1.101  -4.038  0.00  0.00     0.052 H 
ATOM     48  H   LIG d   1       6.974  -0.039  -5.340  0.00  0.00     0.052 H 
BRANCH  46  49
ATOM     49  N   LIG d   1       7.966   0.939  -3.773  0.00  0.00    -0.306 N 
ATOM     50  C   LIG d   1       8.291   1.965  -4.585  0.00  0.00     0.244 C 
ATOM     51  O   LIG d   1       7.868   1.995  -5.725  0.00  0.00    -0.270 OA
ATOM     52  H   LIG d   1       8.304   0.915  -2.864  0.00  0.00     0.149 HD
BRANCH  50  53
ATOM     53  C   LIG d   1       9.163   3.052  -4.091  0.00  0.00     0.037 A 
ATOM     54  C   LIG d   1      10.002   2.833  -2.998  0.00  0.00    -0.050 A 
ATOM     55  C   LIG d   1      10.814   3.852  -2.542  0.00  0.00    -0.061 A 
ATOM     56  H   LIG d   1      10.016   1.870  -2.509  0.00  0.00     0.062 H 
ATOM     57  C   LIG d   1      10.798   5.086  -3.165  0.00  0.00    -0.062 A 
ATOM     58  H   LIG d   1      11.465   3.684  -1.696  0.00  0.00     0.062 H 
ATOM     59  C   LIG d   1       9.968   5.308  -4.250  0.00  0.00    -0.061 A 
ATOM     60  H   LIG d   1      11.435   5.880  -2.804  0.00  0.00     0.062 H 
ATOM     61  C   LIG d   1       9.155   4.298  -4.720  0.00  0.00    -0.050 A 
ATOM     62  H   LIG d   1       9.960   6.275  -4.732  0.00  0.00     0.062 H 
ATOM     63  H   LIG d   1       8.511   4.471  -5.569  0.00  0.00     0.062 H 
ENDBRANCH  50  53
ENDBRANCH  46  49
ENDBRANCH   9  46
TORSDOF 9
ENDMDL
MODEL 7
REMARK VINA RESULT:      -5.8      1.946      4.683
REMARK  9 active torsions:
REMARK  status: ('A' for Active; 'I' for Inactive)
REMARK    1  A    between atoms: C_1  and  N_60 
REMARK    2  A    between atoms: C_2  and  C_3 
REMARK    3  A    between atoms: C_2  and  N_60 
REMARK    4  A    between atoms: C_3  and  C_4 
REMARK    5  A    between atoms: C_10  and  C_11 
REMARK    6  A    between atoms: C_10  and  N_60 
REMARK    7  A    between atoms: C_19  and  C_21 
REMARK    8  A    between atoms: C_21  and  N_22 
REMARK       I    between atoms: N_22  and  C_23 
REMARK    9  A    between atoms: C_23  and  C_25 
ROOT
ATOM      1  C   LIG d   1       6.357  -2.933  -8.810  0.00  0.00     0.042 C 
ATOM      2  H   LIG d   1       7.053  -2.821  -9.642  0.00  0.00     0.041 H 
ATOM      3  C   LIG d   1       6.309  -4.401  -8.375  0.00  0.00    -0.024 C 
ATOM      4  C   LIG d   1       4.503  -4.858  -9.925  0.00  0.00    -0.031 C 
ATOM      5  C   LIG d   1       4.502  -3.403 -10.403  0.00  0.00    -0.009 C 
ATOM      6  C   LIG d   1       4.953  -2.500  -9.249  0.00  0.00    -0.019 C 
ATOM      7  H   LIG d   1       4.962  -1.454  -9.557  0.00  0.00     0.031 H 
ATOM      8  C   LIG d   1       3.990  -2.694  -8.070  0.00  0.00    -0.005 C 
ATOM      9  C   LIG d   1       4.008  -4.169  -7.656  0.00  0.00    -0.005 C 
ATOM     10  H   LIG d   1       3.006  -4.587  -7.759  0.00  0.00     0.087 H 
ATOM     11  H   LIG d   1       6.982  -4.987  -9.001  0.00  0.00     0.082 H 
ATOM     12  H   LIG d   1       6.617  -4.482  -7.333  0.00  0.00     0.082 H 
ATOM     13  H   LIG d   1       5.189  -5.441 -10.538  0.00  0.00     0.081 H 
ATOM     14  H   LIG d   1       3.498  -5.269 -10.008  0.00  0.00     0.081 H 
ATOM     15  H   LIG d   1       3.495  -3.122 -10.714  0.00  0.00     0.032 H 
ATOM     16  H   LIG d   1       5.187  -3.292 -11.243  0.00  0.00     0.032 H 
ATOM     17  H   LIG d   1       2.982  -2.412  -8.371  0.00  0.00     0.032 H 
ATOM     18  H   LIG d   1       4.311  -2.076  -7.232  0.00  0.00     0.032 H 
ATOM     19  N   LIG d   1       4.937  -4.935  -8.513  0.00  0.00     0.239 N 
ATOM     20  H   LIG d   1       4.931  -5.918  -8.217  0.00  0.00     0.204 HD
ENDROOT
BRANCH   1  21
ATOM     21  C   LIG d   1       6.818  -2.065  -7.637  0.00  0.00    -0.024 C 
ATOM     22  H   LIG d   1       7.509  -2.633  -7.014  0.00  0.00     0.082 H 
ATOM     23  H   LIG d   1       5.953  -1.768  -7.044  0.00  0.00     0.082 H 
BRANCH  21  24
ATOM     24  N   LIG d   1       7.514  -0.875  -8.172  0.00  0.00     0.234 N 
ATOM     25  H   LIG d   1       7.255  -0.752  -9.157  0.00  0.00     0.203 HD
BRANCH  24  26
ATOM     26  C   LIG d   1       8.977  -1.062  -8.078  0.00  0.00    -0.043 C 
ATOM     27  H   LIG d   1       9.379  -1.226  -9.078  0.00  0.00     0.078 H 
ATOM     28  H   LIG d   1       9.421  -0.162  -7.651  0.00  0.00     0.078 H 
ATOM     29  H   LIG d   1       9.213  -1.918  -7.446  0.00  0.00     0.078 H 
ENDBRANCH  24  26
BRANCH  24  30
ATOM     30  C   LIG d   1       7.109   0.328  -7.415  0.00  0.00    -0.027 C 
ATOM     31  H   LIG d   1       6.277   0.073  -6.758  0.00  0.00     0.082 H 
ATOM     32  H   LIG d   1       7.941   0.704  -6.820  0.00  0.00     0.082 H 
BRANCH  30  33
ATOM     33  C   LIG d   1       6.663   1.406  -8.406  0.00  0.00     0.030 C 
ATOM     34  H   LIG d   1       6.754   2.387  -7.940  0.00  0.00     0.038 H 
ATOM     35  H   LIG d   1       7.293   1.366  -9.295  0.00  0.00     0.038 H 
BRANCH  33  36
ATOM     36  C   LIG d   1       5.227   1.167  -8.796  0.00  0.00     0.046 A 
ATOM     37  N   LIG d   1       4.305   1.065  -7.859  0.00  0.00    -0.260 NA
ATOM     38  C   LIG d   1       3.037   0.856  -8.153  0.00  0.00     0.028 A 
ATOM     39  C   LIG d   1       2.627   0.734  -9.468  0.00  0.00    -0.044 A 
ATOM     40  H   LIG d   1       2.310   0.778  -7.358  0.00  0.00     0.083 H 
ATOM     41  C   LIG d   1       3.569   0.837 -10.481  0.00  0.00    -0.059 A 
ATOM     42  H   LIG d   1       1.587   0.563  -9.703  0.00  0.00     0.063 H 
ATOM     43  C   LIG d   1       4.891   1.062 -10.133  0.00  0.00    -0.040 A 
ATOM     44  H   LIG d   1       3.278   0.745 -11.517  0.00  0.00     0.062 H 
ATOM     45  H   LIG d   1       5.650   1.152 -10.897  0.00  0.00     0.064 H 
ENDBRANCH  33  36
ENDBRANCH  30  33
ENDBRANCH  24  30
ENDBRANCH  21  24
ENDBRANCH   1  21
BRANCH   9  46
ATOM     46  C   LIG d   1       4.462  -4.285  -6.200  0.00  0.00     0.055 C 
ATOM     47  H   LIG d   1       4.014  -5.171  -5.750  0.00  0.00     0.052 H 
ATOM     48  H   LIG d   1       5.548  -4.369  -6.164  0.00  0.00     0.052 H 
BRANCH  46  49
ATOM     49  N   LIG d   1       4.040  -3.093  -5.461  0.00  0.00    -0.306 N 
ATOM     50  C   LIG d   1       4.840  -2.571  -4.510  0.00  0.00     0.244 C 
ATOM     51  O   LIG d   1       5.912  -3.090  -4.266  0.00  0.00    -0.270 OA
ATOM     52  H   LIG d   1       3.185  -2.679  -5.655  0.00  0.00     0.149 HD
BRANCH  50  53
ATOM     53  C   LIG d   1       4.414  -1.369  -3.764  0.00  0.00     0.037 A 
ATOM     54  C   LIG d   1       3.629  -0.398  -4.389  0.00  0.00    -0.050 A 
ATOM     55  C   LIG d   1       3.235   0.722  -3.686  0.00  0.00    -0.061 A 
ATOM     56  H   LIG d   1       3.333  -0.523  -5.420  0.00  0.00     0.062 H 
ATOM     57  C   LIG d   1       3.614   0.884  -2.366  0.00  0.00    -0.062 A 
ATOM     58  H   LIG d   1       2.627   1.474  -4.169  0.00  0.00     0.062 H 
ATOM     59  C   LIG d   1       4.391  -0.075  -1.741  0.00  0.00    -0.061 A 
ATOM     60  H   LIG d   1       3.302   1.763  -1.820  0.00  0.00     0.062 H 
ATOM     61  C   LIG d   1       4.788  -1.202  -2.429  0.00  0.00    -0.050 A 
ATOM     62  H   LIG d   1       4.684   0.058  -0.709  0.00  0.00     0.062 H 
ATOM     63  H   LIG d   1       5.392  -1.952  -1.939  0.00  0.00     0.062 H 
ENDBRANCH  50  53
ENDBRANCH  46  49
ENDBRANCH   9  46
TORSDOF 9
ENDMDL
MODEL 8
REMARK VINA RESULT:      -5.7      2.961      5.278
REMARK  9 active torsions:
REMARK  status: ('A' for Active; 'I' for Inactive)
REMARK    1  A    between atoms: C_1  and  N_60 
REMARK    2  A    between atoms: C_2  and  C_3 
REMARK    3  A    between atoms: C_2  and  N_60 
REMARK    4  A    between atoms: C_3  and  C_4 
REMARK    5  A    between atoms: C_10  and  C_11 
REMARK    6  A    between atoms: C_10  and  N_60 
REMARK    7  A    between atoms: C_19  and  C_21 
REMARK    8  A    between atoms: C_21  and  N_22 
REMARK       I    between atoms: N_22  and  C_23 
REMARK    9  A    between atoms: C_23  and  C_25 
ROOT
ATOM      1  C   LIG d   1       3.340  -1.655 -10.551  0.00  0.00     0.042 C 
ATOM      2  H   LIG d   1       3.380  -1.982 -11.590  0.00  0.00     0.041 H 
ATOM      3  C   LIG d   1       2.398  -0.454 -10.427  0.00  0.00    -0.024 C 
ATOM      4  C   LIG d   1       4.223   1.089 -10.826  0.00  0.00    -0.031 C 
ATOM      5  C   LIG d   1       5.216  -0.069 -10.962  0.00  0.00    -0.009 C 
ATOM      6  C   LIG d   1       4.740  -1.236 -10.088  0.00  0.00    -0.019 C 
ATOM      7  H   LIG d   1       5.428  -2.078 -10.161  0.00  0.00     0.031 H 
ATOM      8  C   LIG d   1       4.650  -0.753  -8.634  0.00  0.00    -0.005 C 
ATOM      9  C   LIG d   1       3.672   0.423  -8.563  0.00  0.00    -0.005 C 
ATOM     10  H   LIG d   1       4.191   1.306  -8.188  0.00  0.00     0.087 H 
ATOM     11  H   LIG d   1       1.989  -0.210 -11.408  0.00  0.00     0.082 H 
ATOM     12  H   LIG d   1       1.584  -0.698  -9.745  0.00  0.00     0.082 H 
ATOM     13  H   LIG d   1       3.801   1.323 -11.803  0.00  0.00     0.081 H 
ATOM     14  H   LIG d   1       4.737   1.965 -10.431  0.00  0.00     0.081 H 
ATOM     15  H   LIG d   1       6.203   0.257 -10.631  0.00  0.00     0.032 H 
ATOM     16  H   LIG d   1       5.266  -0.388 -12.002  0.00  0.00     0.032 H 
ATOM     17  H   LIG d   1       5.634  -0.431  -8.295  0.00  0.00     0.032 H 
ATOM     18  H   LIG d   1       4.291  -1.565  -8.002  0.00  0.00     0.032 H 
ATOM     19  N   LIG d   1       3.126   0.722  -9.905  0.00  0.00     0.239 N 
ATOM     20  H   LIG d   1       2.475   1.512  -9.831  0.00  0.00     0.204 HD
ENDROOT
BRANCH   1  21
ATOM     21  C   LIG d   1       2.830  -2.799  -9.673  0.00  0.00    -0.024 C 
ATOM     22  H   LIG d   1       1.779  -2.635  -9.436  0.00  0.00     0.082 H 
ATOM     23  H   LIG d   1       3.410  -2.836  -8.751  0.00  0.00     0.082 H 
BRANCH  21  24
ATOM     24  N   LIG d   1       2.966  -4.068 -10.421  0.00  0.00     0.234 N 
ATOM     25  H   LIG d   1       3.936  -4.396 -10.347  0.00  0.00     0.203 HD
BRANCH  24  26
ATOM     26  C   LIG d   1       2.639  -3.850 -11.846  0.00  0.00    -0.043 C 
ATOM     27  H   LIG d   1       1.983  -4.651 -12.187  0.00  0.00     0.078 H 
ATOM     28  H   LIG d   1       2.125  -2.893 -11.947  0.00  0.00     0.078 H 
ATOM     29  H   LIG d   1       3.546  -3.840 -12.449  0.00  0.00     0.078 H 
ENDBRANCH  24  26
BRANCH  24  30
ATOM     30  C   LIG d   1       2.067  -5.090  -9.847  0.00  0.00    -0.027 C 
ATOM     31  H   LIG d   1       2.664  -5.921  -9.473  0.00  0.00     0.082 H 
ATOM     32  H   LIG d   1       1.480  -4.669  -9.030  0.00  0.00     0.082 H 
BRANCH  30  33
ATOM     33  C   LIG d   1       1.126  -5.592 -10.945  0.00  0.00     0.030 C 
ATOM     34  H   LIG d   1       1.075  -4.854 -11.745  0.00  0.00     0.038 H 
ATOM     35  H   LIG d   1       1.503  -6.535 -11.343  0.00  0.00     0.038 H 
BRANCH  33  36
ATOM     36  C   LIG d   1      -0.250  -5.805 -10.369  0.00  0.00     0.046 A 
ATOM     37  N   LIG d   1      -0.482  -6.856  -9.605  0.00  0.00    -0.260 NA
ATOM     38  C   LIG d   1      -1.670  -7.082  -9.079  0.00  0.00     0.028 A 
ATOM     39  C   LIG d   1      -2.723  -6.219  -9.314  0.00  0.00    -0.044 A 
ATOM     40  H   LIG d   1      -1.821  -7.953  -8.459  0.00  0.00     0.083 H 
ATOM     41  C   LIG d   1      -2.517  -5.103 -10.112  0.00  0.00    -0.059 A 
ATOM     42  H   LIG d   1      -3.694  -6.410  -8.881  0.00  0.00     0.063 H 
ATOM     43  C   LIG d   1      -1.254  -4.895 -10.642  0.00  0.00    -0.040 A 
ATOM     44  H   LIG d   1      -3.322  -4.412 -10.313  0.00  0.00     0.062 H 
ATOM     45  H   LIG d   1      -1.057  -4.034 -11.264  0.00  0.00     0.064 H 
ENDBRANCH  33  36
ENDBRANCH  30  33
ENDBRANCH  24  30
ENDBRANCH  21  24
ENDBRANCH   1  21
BRANCH   9  46
ATOM     46  C   LIG d   1       2.518   0.071  -7.623  0.00  0.00     0.055 C 
ATOM     47  H   LIG d   1       1.913   0.960  -7.442  0.00  0.00     0.052 H 
ATOM     48  H   LIG d   1       1.900  -0.701  -8.079  0.00  0.00     0.052 H 
BRANCH  46  49
ATOM     49  N   LIG d   1       3.056  -0.420  -6.353  0.00  0.00    -0.306 N 
ATOM     50  C   LIG d   1       2.975   0.345  -5.245  0.00  0.00     0.244 C 
ATOM     51  O   LIG d   1       2.456   1.443  -5.302  0.00  0.00    -0.270 OA
ATOM     52  H   LIG d   1       3.470  -1.296  -6.307  0.00  0.00     0.149 HD
BRANCH  50  53
ATOM     53  C   LIG d   1       3.518  -0.151  -3.963  0.00  0.00     0.037 A 
ATOM     54  C   LIG d   1       3.971   0.751  -2.999  0.00  0.00    -0.050 A 
ATOM     55  C   LIG d   1       4.477   0.281  -1.804  0.00  0.00    -0.061 A 
ATOM     56  H   LIG d   1       3.927   1.813  -3.188  0.00  0.00     0.062 H 
ATOM     57  C   LIG d   1       4.535  -1.079  -1.560  0.00  0.00    -0.062 A 
ATOM     58  H   LIG d   1       4.827   0.978  -1.056  0.00  0.00     0.062 H 
ATOM     59  C   LIG d   1       4.087  -1.978  -2.512  0.00  0.00    -0.061 A 
ATOM     60  H   LIG d   1       4.932  -1.442  -0.623  0.00  0.00     0.062 H 
ATOM     61  C   LIG d   1       3.574  -1.522  -3.708  0.00  0.00    -0.050 A 
ATOM     62  H   LIG d   1       4.135  -3.039  -2.315  0.00  0.00     0.062 H 
ATOM     63  H   LIG d   1       3.221  -2.225  -4.449  0.00  0.00     0.062 H 
ENDBRANCH  50  53
ENDBRANCH  46  49
ENDBRANCH   9  46
TORSDOF 9
ENDMDL
MODEL 9
REMARK VINA RESULT:      -5.7      6.906      9.550
REMARK  9 active torsions:
REMARK  status: ('A' for Active; 'I' for Inactive)
REMARK    1  A    between atoms: C_1  and  N_60 
REMARK    2  A    between atoms: C_2  and  C_3 
REMARK    3  A    between atoms: C_2  and  N_60 
REMARK    4  A    between atoms: C_3  and  C_4 
REMARK    5  A    between atoms: C_10  and  C_11 
REMARK    6  A    between atoms: C_10  and  N_60 
REMARK    7  A    between atoms: C_19  and  C_21 
REMARK    8  A    between atoms: C_21  and  N_22 
REMARK       I    between atoms: N_22  and  C_23 
REMARK    9  A    between atoms: C_23  and  C_25 
ROOT
ATOM      1  C   LIG d   1      11.276   4.780  -4.080  0.00  0.00     0.042 C 
ATOM      2  H   LIG d   1      11.978   5.612  -4.136  0.00  0.00     0.041 H 
ATOM      3  C   LIG d   1      11.836   3.583  -4.853  0.00  0.00    -0.024 C 
ATOM      4  C   LIG d   1      10.764   4.330  -6.894  0.00  0.00    -0.031 C 
ATOM      5  C   LIG d   1      10.175   5.549  -6.177  0.00  0.00    -0.009 C 
ATOM      6  C   LIG d   1       9.938   5.193  -4.705  0.00  0.00    -0.019 C 
ATOM      7  H   LIG d   1       9.517   6.041  -4.165  0.00  0.00     0.031 H 
ATOM      8  C   LIG d   1       8.979   3.996  -4.639  0.00  0.00    -0.005 C 
ATOM      9  C   LIG d   1       9.603   2.820  -5.397  0.00  0.00    -0.005 C 
ATOM     10  H   LIG d   1       8.946   2.529  -6.218  0.00  0.00     0.087 H 
ATOM     11  H   LIG d   1      12.806   3.846  -5.276  0.00  0.00     0.082 H 
ATOM     12  H   LIG d   1      11.951   2.736  -4.178  0.00  0.00     0.082 H 
ATOM     13  H   LIG d   1      11.741   4.586  -7.303  0.00  0.00     0.081 H 
ATOM     14  H   LIG d   1      10.099   4.025  -7.701  0.00  0.00     0.081 H 
ATOM     15  H   LIG d   1       9.229   5.824  -6.644  0.00  0.00     0.032 H 
ATOM     16  H   LIG d   1      10.871   6.385  -6.244  0.00  0.00     0.032 H 
ATOM     17  H   LIG d   1       8.028   4.265  -5.099  0.00  0.00     0.032 H 
ATOM     18  H   LIG d   1       8.817   3.715  -3.599  0.00  0.00     0.032 H 
ATOM     19  N   LIG d   1      10.920   3.203  -5.949  0.00  0.00     0.239 N 
ATOM     20  H   LIG d   1      11.316   2.400  -6.451  0.00  0.00     0.204 HD
ENDROOT
BRANCH   1  21
ATOM     21  C   LIG d   1      11.060   4.390  -2.616  0.00  0.00    -0.024 C 
ATOM     22  H   LIG d   1      11.539   3.431  -2.421  0.00  0.00     0.082 H 
ATOM     23  H   LIG d   1       9.991   4.311  -2.416  0.00  0.00     0.082 H 
BRANCH  21  24
ATOM     24  N   LIG d   1      11.674   5.423  -1.754  0.00  0.00     0.234 N 
ATOM     25  H   LIG d   1      11.381   6.350  -2.084  0.00  0.00     0.203 HD
BRANCH  24  26
ATOM     26  C   LIG d   1      13.147   5.330  -1.827  0.00  0.00    -0.043 C 
ATOM     27  H   LIG d   1      13.569   5.616  -0.864  0.00  0.00     0.078 H 
ATOM     28  H   LIG d   1      13.424   4.299  -2.052  0.00  0.00     0.078 H 
ATOM     29  H   LIG d   1      13.534   5.988  -2.604  0.00  0.00     0.078 H 
ENDBRANCH  24  26
BRANCH  24  30
ATOM     30  C   LIG d   1      11.224   5.246  -0.357  0.00  0.00    -0.027 C 
ATOM     31  H   LIG d   1      10.143   5.111  -0.344  0.00  0.00     0.082 H 
ATOM     32  H   LIG d   1      11.705   4.376   0.092  0.00  0.00     0.082 H 
BRANCH  30  33
ATOM     33  C   LIG d   1      11.590   6.500   0.441  0.00  0.00     0.030 C 
ATOM     34  H   LIG d   1      11.473   6.299   1.506  0.00  0.00     0.038 H 
ATOM     35  H   LIG d   1      12.626   6.772   0.235  0.00  0.00     0.038 H 
BRANCH  33  36
ATOM     36  C   LIG d   1      10.683   7.634   0.039  0.00  0.00     0.046 A 
ATOM     37  N   LIG d   1       9.582   7.377  -0.641  0.00  0.00    -0.260 NA
ATOM     38  C   LIG d   1       8.758   8.338  -1.013  0.00  0.00     0.028 A 
ATOM     39  C   LIG d   1       9.024   9.657  -0.702  0.00  0.00    -0.044 A 
ATOM     40  H   LIG d   1       7.866   8.089  -1.569  0.00  0.00     0.083 H 
ATOM     41  C   LIG d   1      10.172   9.965   0.013  0.00  0.00    -0.059 A 
ATOM     42  H   LIG d   1       8.345  10.440  -1.010  0.00  0.00     0.063 H 
ATOM     43  C   LIG d   1      11.010   8.929   0.392  0.00  0.00    -0.040 A 
ATOM     44  H   LIG d   1      10.406  10.988   0.270  0.00  0.00     0.062 H 
ATOM     45  H   LIG d   1      11.911   9.132   0.954  0.00  0.00     0.064 H 
ENDBRANCH  33  36
ENDBRANCH  30  33
ENDBRANCH  24  30
ENDBRANCH  21  24
ENDBRANCH   1  21
BRANCH   9  46
ATOM     46  C   LIG d   1       9.786   1.638  -4.445  0.00  0.00     0.055 C 
ATOM     47  H   LIG d   1      10.052   0.749  -5.016  0.00  0.00     0.052 H 
ATOM     48  H   LIG d   1      10.579   1.864  -3.733  0.00  0.00     0.052 H 
BRANCH  46  49
ATOM     49  N   LIG d   1       8.535   1.397  -3.721  0.00  0.00    -0.306 N 
ATOM     50  C   LIG d   1       7.752   0.352  -4.057  0.00  0.00     0.244 C 
ATOM     51  O   LIG d   1       8.085  -0.389  -4.962  0.00  0.00    -0.270 OA
ATOM     52  H   LIG d   1       8.270   1.988  -2.999  0.00  0.00     0.149 HD
BRANCH  50  53
ATOM     53  C   LIG d   1       6.491   0.108  -3.327  0.00  0.00     0.037 A 
ATOM     54  C   LIG d   1       5.767   1.180  -2.803  0.00  0.00    -0.050 A 
ATOM     55  C   LIG d   1       4.589   0.946  -2.123  0.00  0.00    -0.061 A 
ATOM     56  H   LIG d   1       6.127   2.191  -2.929  0.00  0.00     0.062 H 
ATOM     57  C   LIG d   1       4.126  -0.347  -1.960  0.00  0.00    -0.062 A 
ATOM     58  H   LIG d   1       4.027   1.775  -1.717  0.00  0.00     0.062 H 
ATOM     59  C   LIG d   1       4.839  -1.414  -2.478  0.00  0.00    -0.061 A 
ATOM     60  H   LIG d   1       3.203  -0.525  -1.426  0.00  0.00     0.062 H 
ATOM     61  C   LIG d   1       6.014  -1.194  -3.164  0.00  0.00    -0.050 A 
ATOM     62  H   LIG d   1       4.472  -2.421  -2.347  0.00  0.00     0.062 H 
ATOM     63  H   LIG d   1       6.569  -2.027  -3.571  0.00  0.00     0.062 H 
ENDBRANCH  50  53
ENDBRANCH  46  49
ENDBRANCH   9  46
TORSDOF 9
ENDMDL
MODEL 10
REMARK VINA RESULT:      -5.6      1.846      6.236
REMARK  9 active torsions:
REMARK  status: ('A' for Active; 'I' for Inactive)
REMARK    1  A    between atoms: C_1  and  N_60 
REMARK    2  A    between atoms: C_2  and  C_3 
REMARK    3  A    between atoms: C_2  and  N_60 
REMARK    4  A    between atoms: C_3  and  C_4 
REMARK    5  A    between atoms: C_10  and  C_11 
REMARK    6  A    between atoms: C_10  and  N_60 
REMARK    7  A    between atoms: C_19  and  C_21 
REMARK    8  A    between atoms: C_21  and  N_22 
REMARK       I    between atoms: N_22  and  C_23 
REMARK    9  A    between atoms: C_23  and  C_25 
ROOT
ATOM      1  C   LIG d   1       5.842  -0.577  -4.027  0.00  0.00     0.042 C 
ATOM      2  H   LIG d   1       6.842  -0.702  -3.610  0.00  0.00     0.041 H 
ATOM      3  C   LIG d   1       5.287   0.793  -3.626  0.00  0.00    -0.024 C 
ATOM      4  C   LIG d   1       4.314  -0.131  -1.608  0.00  0.00    -0.031 C 
ATOM      5  C   LIG d   1       4.843  -1.527  -1.952  0.00  0.00    -0.009 C 
ATOM      6  C   LIG d   1       4.915  -1.668  -3.477  0.00  0.00    -0.019 C 
ATOM      7  H   LIG d   1       5.288  -2.653  -3.757  0.00  0.00     0.031 H 
ATOM      8  C   LIG d   1       3.510  -1.452  -4.056  0.00  0.00    -0.005 C 
ATOM      9  C   LIG d   1       3.019  -0.058  -3.654  0.00  0.00    -0.005 C 
ATOM     10  H   LIG d   1       2.105  -0.150  -3.066  0.00  0.00     0.087 H 
ATOM     11  H   LIG d   1       6.024   1.319  -3.019  0.00  0.00     0.082 H 
ATOM     12  H   LIG d   1       5.071   1.374  -4.522  0.00  0.00     0.082 H 
ATOM     13  H   LIG d   1       5.056   0.403  -1.016  0.00  0.00     0.081 H 
ATOM     14  H   LIG d   1       3.389  -0.222  -1.038  0.00  0.00     0.081 H 
ATOM     15  H   LIG d   1       4.169  -2.282  -1.546  0.00  0.00     0.032 H 
ATOM     16  H   LIG d   1       5.837  -1.657  -1.526  0.00  0.00     0.032 H 
ATOM     17  H   LIG d   1       2.832  -2.206  -3.659  0.00  0.00     0.032 H 
ATOM     18  H   LIG d   1       3.547  -1.526  -5.142  0.00  0.00     0.032 H 
ATOM     19  N   LIG d   1       4.043   0.636  -2.843  0.00  0.00     0.239 N 
ATOM     20  H   LIG d   1       3.691   1.566  -2.587  0.00  0.00     0.204 HD
ENDROOT
BRANCH   1  21
ATOM     21  C   LIG d   1       5.906  -0.678  -5.552  0.00  0.00    -0.024 C 
ATOM     22  H   LIG d   1       5.860   0.321  -5.985  0.00  0.00     0.082 H 
ATOM     23  H   LIG d   1       5.065  -1.270  -5.912  0.00  0.00     0.082 H 
BRANCH  21  24
ATOM     24  N   LIG d   1       7.186  -1.314  -5.932  0.00  0.00     0.234 N 
ATOM     25  H   LIG d   1       7.200  -2.276  -5.574  0.00  0.00     0.203 HD
BRANCH  24  26
ATOM     26  C   LIG d   1       8.315  -0.564  -5.342  0.00  0.00    -0.043 C 
ATOM     27  H   LIG d   1       8.171  -0.495  -4.264  0.00  0.00     0.078 H 
ATOM     28  H   LIG d   1       9.242  -1.101  -5.550  0.00  0.00     0.078 H 
ATOM     29  H   LIG d   1       8.373   0.437  -5.766  0.00  0.00     0.078 H 
ENDBRANCH  24  26
BRANCH  24  30
ATOM     30  C   LIG d   1       7.316  -1.347  -7.404  0.00  0.00    -0.027 C 
ATOM     31  H   LIG d   1       8.365  -1.476  -7.667  0.00  0.00     0.082 H 
ATOM     32  H   LIG d   1       6.732  -2.168  -7.821  0.00  0.00     0.082 H 
BRANCH  30  33
ATOM     33  C   LIG d   1       6.808  -0.020  -7.973  0.00  0.00     0.030 C 
ATOM     34  H   LIG d   1       6.038   0.386  -7.317  0.00  0.00     0.038 H 
ATOM     35  H   LIG d   1       7.635   0.686  -8.043  0.00  0.00     0.038 H 
BRANCH  33  36
ATOM     36  C   LIG d   1       6.228  -0.251  -9.345  0.00  0.00     0.046 A 
ATOM     37  N   LIG d   1       6.486  -1.378  -9.980  0.00  0.00    -0.260 NA
ATOM     38  C   LIG d   1       6.000  -1.624 -11.181  0.00  0.00     0.028 A 
ATOM     39  C   LIG d   1       5.198  -0.698 -11.822  0.00  0.00    -0.044 A 
ATOM     40  H   LIG d   1       6.233  -2.558 -11.670  0.00  0.00     0.083 H 
ATOM     41  C   LIG d   1       4.905   0.498 -11.185  0.00  0.00    -0.059 A 
ATOM     42  H   LIG d   1       4.803  -0.905 -12.806  0.00  0.00     0.063 H 
ATOM     43  C   LIG d   1       5.428   0.718  -9.921  0.00  0.00    -0.040 A 
ATOM     44  H   LIG d   1       4.281   1.240 -11.662  0.00  0.00     0.062 H 
ATOM     45  H   LIG d   1       5.216   1.637  -9.393  0.00  0.00     0.064 H 
ENDBRANCH  33  36
ENDBRANCH  30  33
ENDBRANCH  24  30
ENDBRANCH  21  24
ENDBRANCH   1  21
BRANCH   9  46
ATOM     46  C   LIG d   1       2.737   0.766  -4.911  0.00  0.00     0.055 C 
ATOM     47  H   LIG d   1       1.850   1.379  -4.752  0.00  0.00     0.052 H 
ATOM     48  H   LIG d   1       3.590   1.410  -5.123  0.00  0.00     0.052 H 
BRANCH  46  49
ATOM     49  N   LIG d   1       2.512  -0.134  -6.044  0.00  0.00    -0.306 N 
ATOM     50  C   LIG d   1       2.764   0.286  -7.300  0.00  0.00     0.244 C 
ATOM     51  O   LIG d   1       3.177   1.413  -7.492  0.00  0.00    -0.270 OA
ATOM     52  H   LIG d   1       2.182  -1.033  -5.892  0.00  0.00     0.149 HD
BRANCH  50  53
ATOM     53  C   LIG d   1       2.536  -0.622  -8.443  0.00  0.00     0.037 A 
ATOM     54  C   LIG d   1       3.149  -1.876  -8.474  0.00  0.00    -0.050 A 
ATOM     55  C   LIG d   1       2.932  -2.720  -9.545  0.00  0.00    -0.061 A 
ATOM     56  H   LIG d   1       3.793  -2.185  -7.664  0.00  0.00     0.062 H 
ATOM     57  C   LIG d   1       2.109  -2.326 -10.584  0.00  0.00    -0.062 A 
ATOM     58  H   LIG d   1       3.406  -3.691  -9.570  0.00  0.00     0.062 H 
ATOM     59  C   LIG d   1       1.499  -1.085 -10.559  0.00  0.00    -0.061 A 
ATOM     60  H   LIG d   1       1.943  -2.990 -11.420  0.00  0.00     0.062 H 
ATOM     61  C   LIG d   1       1.702  -0.234  -9.493  0.00  0.00    -0.050 A 
ATOM     62  H   LIG d   1       0.857  -0.784 -11.374  0.00  0.00     0.062 H 
ATOM     63  H   LIG d   1       1.222   0.733  -9.473  0.00  0.00     0.062 H 
ENDBRANCH  50  53
ENDBRANCH  46  49
ENDBRANCH   9  46
TORSDOF 9
ENDMDL
