MODEL 1
REMARK VINA RESULT:      -8.2      0.000      0.000
REMARK  5 active torsions:
REMARK  status: ('A' for Active; 'I' for Inactive)
REMARK    1  A    between atoms: C_4  and  C_7 
REMARK    2  A    between atoms: C_7  and  C_8 
REMARK       I    between atoms: C_8  and  N_10 
REMARK    3  A    between atoms: N_10  and  C_11 
REMARK    4  A    between atoms: C_26  and  C_27 
REMARK    5  A    between atoms: C_26  and  N_64 
ROOT
ATOM      1  C   LIG d   1       3.681  -0.709  -7.178  0.00  0.00     0.099 C 
ATOM      2  C   LIG d   1       4.339  -1.906  -7.117  0.00  0.00    -0.034 C 
ATOM      3  C   LIG d   1       4.668  -2.436  -5.864  0.00  0.00    -0.040 C 
ATOM      4  C   LIG d   1       4.321  -1.779  -4.726  0.00  0.00     0.030 C 
ATOM      5  N   LIG d   1       3.587  -0.642  -4.780  0.00  0.00    -0.310 N 
ATOM      6  C   LIG d   1       3.337  -0.056  -5.978  0.00  0.00     0.273 C 
ATOM      7  O   LIG d   1       2.806   1.042  -6.016  0.00  0.00    -0.266 OA
ATOM      8  C   LIG d   1       2.990  -0.021  -3.596  0.00  0.00     0.034 C 
ATOM      9  C   LIG d   1       3.690  -0.438  -2.313  0.00  0.00     0.018 C 
ATOM     10  H   LIG d   1       3.064  -0.149  -1.469  0.00  0.00     0.037 H 
ATOM     11  C   LIG d   1       3.856  -1.960  -2.295  0.00  0.00    -0.031 C 
ATOM     12  C   LIG d   1       4.833  -2.335  -3.415  0.00  0.00     0.040 C 
ATOM     13  H   LIG d   1       4.946  -3.417  -3.478  0.00  0.00     0.042 H 
ATOM     14  C   LIG d   1       6.181  -1.656  -3.120  0.00  0.00    -0.024 C 
ATOM     15  C   LIG d   1       5.038   0.252  -2.157  0.00  0.00    -0.027 C 
ATOM     16  H   LIG d   1       4.602  -2.435  -8.022  0.00  0.00     0.064 H 
ATOM     17  H   LIG d   1       5.201  -3.372  -5.801  0.00  0.00     0.064 H 
ATOM     18  H   LIG d   1       3.052   1.063  -3.697  0.00  0.00     0.050 H 
ATOM     19  H   LIG d   1       1.941  -0.310  -3.536  0.00  0.00     0.050 H 
ATOM     20  H   LIG d   1       4.259  -2.276  -1.333  0.00  0.00     0.028 H 
ATOM     21  H   LIG d   1       2.893  -2.439  -2.468  0.00  0.00     0.028 H 
ATOM     22  H   LIG d   1       6.523  -1.937  -2.123  0.00  0.00     0.082 H 
ATOM     23  H   LIG d   1       6.918  -1.962  -3.862  0.00  0.00     0.082 H 
ATOM     24  H   LIG d   1       4.900   1.329  -2.247  0.00  0.00     0.082 H 
ATOM     25  H   LIG d   1       5.445   0.024  -1.173  0.00  0.00     0.082 H 
ATOM     26  N   LIG d   1       5.972  -0.193  -3.212  0.00  0.00     0.236 N 
ATOM     27  H   LIG d   1       5.568   0.028  -4.130  0.00  0.00     0.203 HD
ENDROOT
BRANCH  26  28
ATOM     28  C   LIG d   1       7.262   0.511  -3.072  0.00  0.00    -0.029 C 
ATOM     29  H   LIG d   1       7.255   1.081  -2.142  0.00  0.00     0.082 H 
ATOM     30  H   LIG d   1       8.065  -0.225  -3.041  0.00  0.00     0.082 H 
BRANCH  28  31
ATOM     31  C   LIG d   1       7.486   1.461  -4.251  0.00  0.00    -0.001 C 
ATOM     32  C   LIG d   1       8.648   2.404  -3.932  0.00  0.00    -0.045 C 
ATOM     33  C   LIG d   1       8.872   3.353  -5.111  0.00  0.00    -0.053 C 
ATOM     34  H   LIG d   1       8.412   2.982  -3.040  0.00  0.00     0.027 H 
ATOM     35  H   LIG d   1       9.552   1.820  -3.759  0.00  0.00     0.027 H 
ATOM     36  C   LIG d   1       9.205   2.540  -6.364  0.00  0.00    -0.053 C 
ATOM     37  H   LIG d   1       7.968   3.936  -5.284  0.00  0.00     0.026 H 
ATOM     38  H   LIG d   1       9.700   4.025  -4.884  0.00  0.00     0.026 H 
ATOM     39  C   LIG d   1       8.043   1.597  -6.683  0.00  0.00    -0.053 C 
ATOM     40  H   LIG d   1       9.365   3.216  -7.204  0.00  0.00     0.026 H 
ATOM     41  H   LIG d   1      10.109   1.957  -6.190  0.00  0.00     0.026 H 
ATOM     42  C   LIG d   1       7.819   0.648  -5.505  0.00  0.00    -0.045 C 
ATOM     43  H   LIG d   1       7.139   2.181  -6.856  0.00  0.00     0.026 H 
ATOM     44  H   LIG d   1       8.279   1.018  -7.576  0.00  0.00     0.026 H 
ATOM     45  H   LIG d   1       8.722   0.064  -5.330  0.00  0.00     0.027 H 
ATOM     46  H   LIG d   1       6.991  -0.024  -5.731  0.00  0.00     0.027 H 
ATOM     47  H   LIG d   1       6.582   2.044  -4.425  0.00  0.00     0.035 H 
ENDBRANCH  28  31
ENDBRANCH  26  28
BRANCH   1  48
ATOM     48  N   LIG d   1       3.358  -0.136  -8.415  0.00  0.00    -0.281 N 
ATOM     49  C   LIG d   1       4.286   0.565  -9.096  0.00  0.00     0.222 C 
ATOM     50  O   LIG d   1       5.419   0.648  -8.668  0.00  0.00    -0.275 OA
ATOM     51  H   LIG d   1       2.468  -0.247  -8.784  0.00  0.00     0.155 HD
BRANCH  49  52
ATOM     52  C   LIG d   1       3.918   1.245 -10.389  0.00  0.00     0.049 C 
ATOM     53  H   LIG d   1       3.073   1.912 -10.221  0.00  0.00     0.041 H 
ATOM     54  H   LIG d   1       4.769   1.822 -10.751  0.00  0.00     0.041 H 
BRANCH  52  55
ATOM     55  C   LIG d   1       3.542   0.206 -11.414  0.00  0.00    -0.039 A 
ATOM     56  C   LIG d   1       4.406  -0.085 -12.452  0.00  0.00    -0.058 A 
ATOM     57  C   LIG d   1       4.062  -1.038 -13.393  0.00  0.00    -0.061 A 
ATOM     58  H   LIG d   1       5.351   0.432 -12.530  0.00  0.00     0.062 H 
ATOM     59  C   LIG d   1       2.852  -1.701 -13.294  0.00  0.00    -0.062 A 
ATOM     60  H   LIG d   1       4.737  -1.266 -14.204  0.00  0.00     0.062 H 
ATOM     61  C   LIG d   1       1.989  -1.410 -12.254  0.00  0.00    -0.061 A 
ATOM     62  H   LIG d   1       2.582  -2.444 -14.028  0.00  0.00     0.062 H 
ATOM     63  C   LIG d   1       2.335  -0.460 -11.312  0.00  0.00    -0.058 A 
ATOM     64  H   LIG d   1       1.043  -1.927 -12.177  0.00  0.00     0.062 H 
ATOM     65  H   LIG d   1       1.661  -0.236 -10.497  0.00  0.00     0.062 H 
ENDBRANCH  52  55
ENDBRANCH  49  52
ENDBRANCH   1  48
TORSDOF 5
ENDMDL
MODEL 2
REMARK VINA RESULT:      -8.2      2.538      7.654
REMARK  5 active torsions:
REMARK  status: ('A' for Active; 'I' for Inactive)
REMARK    1  A    between atoms: C_4  and  C_7 
REMARK    2  A    between atoms: C_7  and  C_8 
REMARK       I    between atoms: C_8  and  N_10 
REMARK    3  A    between atoms: N_10  and  C_11 
REMARK    4  A    between atoms: C_26  and  C_27 
REMARK    5  A    between atoms: C_26  and  N_64 
ROOT
ATOM      1  C   LIG d   1       4.688  -2.765  -7.017  0.00  0.00     0.099 C 
ATOM      2  C   LIG d   1       4.095  -3.785  -7.710  0.00  0.00    -0.034 C 
ATOM      3  C   LIG d   1       4.532  -4.064  -9.010  0.00  0.00    -0.040 C 
ATOM      4  C   LIG d   1       5.541  -3.345  -9.566  0.00  0.00     0.030 C 
ATOM      5  N   LIG d   1       6.194  -2.399  -8.851  0.00  0.00    -0.310 N 
ATOM      6  C   LIG d   1       5.732  -2.041  -7.626  0.00  0.00     0.273 C 
ATOM      7  O   LIG d   1       6.228  -1.089  -7.046  0.00  0.00    -0.266 OA
ATOM      8  C   LIG d   1       7.428  -1.759  -9.311  0.00  0.00     0.034 C 
ATOM      9  C   LIG d   1       7.595  -1.851 -10.819  0.00  0.00     0.018 C 
ATOM     10  H   LIG d   1       8.622  -1.585 -11.069  0.00  0.00     0.037 H 
ATOM     11  C   LIG d   1       7.342  -3.291 -11.273  0.00  0.00    -0.031 C 
ATOM     12  C   LIG d   1       5.863  -3.606 -11.022  0.00  0.00     0.040 C 
ATOM     13  H   LIG d   1       5.643  -4.641 -11.282  0.00  0.00     0.042 H 
ATOM     14  C   LIG d   1       5.019  -2.634 -11.863  0.00  0.00    -0.024 C 
ATOM     15  C   LIG d   1       6.669  -0.887 -11.547  0.00  0.00    -0.027 C 
ATOM     16  H   LIG d   1       3.302  -4.365  -7.260  0.00  0.00     0.064 H 
ATOM     17  H   LIG d   1       4.063  -4.856  -9.574  0.00  0.00     0.064 H 
ATOM     18  H   LIG d   1       7.411  -0.709  -9.019  0.00  0.00     0.050 H 
ATOM     19  H   LIG d   1       8.278  -2.245  -8.832  0.00  0.00     0.050 H 
ATOM     20  H   LIG d   1       7.565  -3.387 -12.336  0.00  0.00     0.028 H 
ATOM     21  H   LIG d   1       7.969  -3.974 -10.701  0.00  0.00     0.028 H 
ATOM     22  H   LIG d   1       5.314  -2.704 -12.911  0.00  0.00     0.082 H 
ATOM     23  H   LIG d   1       3.963  -2.880 -11.761  0.00  0.00     0.082 H 
ATOM     24  H   LIG d   1       6.817   0.118 -11.153  0.00  0.00     0.082 H 
ATOM     25  H   LIG d   1       6.909  -0.894 -12.610  0.00  0.00     0.082 H 
ATOM     26  N   LIG d   1       5.257  -1.270 -11.340  0.00  0.00     0.236 N 
ATOM     27  H   LIG d   1       5.053  -1.260 -10.333  0.00  0.00     0.203 HD
ENDROOT
BRANCH  26  28
ATOM     28  C   LIG d   1       4.368  -0.306 -12.019  0.00  0.00    -0.029 C 
ATOM     29  H   LIG d   1       4.979   0.431 -12.541  0.00  0.00     0.082 H 
ATOM     30  H   LIG d   1       3.751  -0.842 -12.740  0.00  0.00     0.082 H 
BRANCH  28  31
ATOM     31  C   LIG d   1       3.468   0.403 -11.005  0.00  0.00    -0.001 C 
ATOM     32  C   LIG d   1       3.108  -0.566  -9.877  0.00  0.00    -0.045 C 
ATOM     33  C   LIG d   1       2.209   0.144  -8.863  0.00  0.00    -0.053 C 
ATOM     34  H   LIG d   1       2.582  -1.425 -10.291  0.00  0.00     0.027 H 
ATOM     35  H   LIG d   1       4.020  -0.902  -9.382  0.00  0.00     0.027 H 
ATOM     36  C   LIG d   1       2.949   1.350  -8.282  0.00  0.00    -0.053 C 
ATOM     37  H   LIG d   1       1.298   0.480  -9.358  0.00  0.00     0.026 H 
ATOM     38  H   LIG d   1       1.952  -0.547  -8.060  0.00  0.00     0.026 H 
ATOM     39  C   LIG d   1       3.309   2.319  -9.409  0.00  0.00    -0.053 C 
ATOM     40  H   LIG d   1       2.308   1.855  -7.559  0.00  0.00     0.026 H 
ATOM     41  H   LIG d   1       3.860   1.013  -7.787  0.00  0.00     0.026 H 
ATOM     42  C   LIG d   1       4.209   1.610 -10.423  0.00  0.00    -0.045 C 
ATOM     43  H   LIG d   1       2.398   2.655  -9.904  0.00  0.00     0.026 H 
ATOM     44  H   LIG d   1       3.836   3.179  -8.995  0.00  0.00     0.026 H 
ATOM     45  H   LIG d   1       5.120   1.274  -9.929  0.00  0.00     0.027 H 
ATOM     46  H   LIG d   1       4.465   2.300 -11.227  0.00  0.00     0.027 H 
ATOM     47  H   LIG d   1       2.558   0.740 -11.500  0.00  0.00     0.035 H 
ENDBRANCH  28  31
ENDBRANCH  26  28
BRANCH   1  48
ATOM     48  N   LIG d   1       4.260  -2.440  -5.723  0.00  0.00    -0.281 N 
ATOM     49  C   LIG d   1       4.804  -3.060  -4.657  0.00  0.00     0.222 C 
ATOM     50  O   LIG d   1       5.708  -3.854  -4.813  0.00  0.00    -0.275 OA
ATOM     51  H   LIG d   1       3.575  -1.766  -5.594  0.00  0.00     0.155 HD
BRANCH  49  52
ATOM     52  C   LIG d   1       4.290  -2.767  -3.271  0.00  0.00     0.049 C 
ATOM     53  H   LIG d   1       3.240  -3.050  -3.206  0.00  0.00     0.041 H 
ATOM     54  H   LIG d   1       4.866  -3.337  -2.542  0.00  0.00     0.041 H 
BRANCH  52  55
ATOM     55  C   LIG d   1       4.433  -1.295  -2.984  0.00  0.00    -0.039 A 
ATOM     56  C   LIG d   1       3.321  -0.543  -2.659  0.00  0.00    -0.058 A 
ATOM     57  C   LIG d   1       3.452   0.808  -2.394  0.00  0.00    -0.061 A 
ATOM     58  H   LIG d   1       2.348  -1.009  -2.612  0.00  0.00     0.062 H 
ATOM     59  C   LIG d   1       4.697   1.407  -2.455  0.00  0.00    -0.062 A 
ATOM     60  H   LIG d   1       2.582   1.397  -2.141  0.00  0.00     0.062 H 
ATOM     61  C   LIG d   1       5.810   0.654  -2.779  0.00  0.00    -0.061 A 
ATOM     62  H   LIG d   1       4.800   2.461  -2.250  0.00  0.00     0.062 H 
ATOM     63  C   LIG d   1       5.679  -0.698  -3.039  0.00  0.00    -0.058 A 
ATOM     64  H   LIG d   1       6.783   1.120  -2.826  0.00  0.00     0.062 H 
ATOM     65  H   LIG d   1       6.550  -1.287  -3.288  0.00  0.00     0.062 H 
ENDBRANCH  52  55
ENDBRANCH  49  52
ENDBRANCH   1  48
TORSDOF 5
ENDMDL
MODEL 3
REMARK VINA RESULT:      -7.9      2.259      7.692
REMARK  5 active torsions:
REMARK  status: ('A' for Active; 'I' for Inactive)
REMARK    1  A    between atoms: C_4  and  C_7 
REMARK    2  A    between atoms: C_7  and  C_8 
REMARK       I    between atoms: C_8  and  N_10 
REMARK    3  A    between atoms: N_10  and  C_11 
REMARK    4  A    between atoms: C_26  and  C_27 
REMARK    5  A    between atoms: C_26  and  N_64 
ROOT
ATOM      1  C   LIG d   1       5.440   0.173  -7.905  0.00  0.00     0.099 C 
ATOM      2  C   LIG d   1       6.208   0.022  -9.026  0.00  0.00    -0.034 C 
ATOM      3  C   LIG d   1       5.600  -0.408 -10.212  0.00  0.00    -0.040 C 
ATOM      4  C   LIG d   1       4.264  -0.652 -10.251  0.00  0.00     0.030 C 
ATOM      5  N   LIG d   1       3.485  -0.412  -9.170  0.00  0.00    -0.310 N 
ATOM      6  C   LIG d   1       4.058  -0.088  -7.984  0.00  0.00     0.273 C 
ATOM      7  O   LIG d   1       3.370  -0.018  -6.977  0.00  0.00    -0.266 OA
ATOM      8  C   LIG d   1       2.022  -0.432  -9.220  0.00  0.00     0.034 C 
ATOM      9  C   LIG d   1       1.499  -1.241 -10.396  0.00  0.00     0.018 C 
ATOM     10  H   LIG d   1       0.439  -1.021 -10.522  0.00  0.00     0.037 H 
ATOM     11  C   LIG d   1       2.236  -0.823 -11.671  0.00  0.00    -0.031 C 
ATOM     12  C   LIG d   1       3.701  -1.249 -11.522  0.00  0.00     0.040 C 
ATOM     13  H   LIG d   1       4.283  -0.927 -12.386  0.00  0.00     0.042 H 
ATOM     14  C   LIG d   1       3.740  -2.778 -11.371  0.00  0.00    -0.024 C 
ATOM     15  C   LIG d   1       1.643  -2.738 -10.158  0.00  0.00    -0.027 C 
ATOM     16  H   LIG d   1       7.268   0.230  -8.997  0.00  0.00     0.064 H 
ATOM     17  H   LIG d   1       6.197  -0.546 -11.100  0.00  0.00     0.064 H 
ATOM     18  H   LIG d   1       1.643  -0.867  -8.295  0.00  0.00     0.050 H 
ATOM     19  H   LIG d   1       1.656   0.590  -9.306  0.00  0.00     0.050 H 
ATOM     20  H   LIG d   1       1.793  -1.320 -12.533  0.00  0.00     0.028 H 
ATOM     21  H   LIG d   1       2.176   0.258 -11.795  0.00  0.00     0.028 H 
ATOM     22  H   LIG d   1       3.229  -3.244 -12.214  0.00  0.00     0.082 H 
ATOM     23  H   LIG d   1       4.775  -3.119 -11.335  0.00  0.00     0.082 H 
ATOM     24  H   LIG d   1       1.173  -2.996  -9.209  0.00  0.00     0.082 H 
ATOM     25  H   LIG d   1       1.144  -3.278 -10.963  0.00  0.00     0.082 H 
ATOM     26  N   LIG d   1       3.069  -3.117 -10.095  0.00  0.00     0.236 N 
ATOM     27  H   LIG d   1       3.520  -2.595  -9.334  0.00  0.00     0.203 HD
ENDROOT
BRANCH  26  28
ATOM     28  C   LIG d   1       3.195  -4.564  -9.826  0.00  0.00    -0.029 C 
ATOM     29  H   LIG d   1       2.273  -5.061 -10.129  0.00  0.00     0.082 H 
ATOM     30  H   LIG d   1       4.028  -4.959 -10.407  0.00  0.00     0.082 H 
BRANCH  28  31
ATOM     31  C   LIG d   1       3.445  -4.814  -8.338  0.00  0.00    -0.001 C 
ATOM     32  C   LIG d   1       4.210  -6.127  -8.163  0.00  0.00    -0.045 C 
ATOM     33  C   LIG d   1       4.461  -6.377  -6.675  0.00  0.00    -0.053 C 
ATOM     34  H   LIG d   1       3.624  -6.947  -8.575  0.00  0.00     0.027 H 
ATOM     35  H   LIG d   1       5.165  -6.064  -8.686  0.00  0.00     0.027 H 
ATOM     36  C   LIG d   1       5.285  -5.225  -6.096  0.00  0.00    -0.053 C 
ATOM     37  H   LIG d   1       3.506  -6.440  -6.152  0.00  0.00     0.026 H 
ATOM     38  H   LIG d   1       5.006  -7.313  -6.550  0.00  0.00     0.026 H 
ATOM     39  C   LIG d   1       4.520  -3.912  -6.270  0.00  0.00    -0.053 C 
ATOM     40  H   LIG d   1       5.464  -5.404  -5.035  0.00  0.00     0.026 H 
ATOM     41  H   LIG d   1       6.239  -5.163  -6.619  0.00  0.00     0.026 H 
ATOM     42  C   LIG d   1       4.270  -3.662  -7.759  0.00  0.00    -0.045 C 
ATOM     43  H   LIG d   1       3.566  -3.976  -5.747  0.00  0.00     0.026 H 
ATOM     44  H   LIG d   1       5.107  -3.091  -5.858  0.00  0.00     0.026 H 
ATOM     45  H   LIG d   1       5.223  -3.599  -8.282  0.00  0.00     0.027 H 
ATOM     46  H   LIG d   1       3.725  -2.727  -7.884  0.00  0.00     0.027 H 
ATOM     47  H   LIG d   1       2.491  -4.877  -7.815  0.00  0.00     0.035 H 
ENDBRANCH  28  31
ENDBRANCH  26  28
BRANCH   1  48
ATOM     48  N   LIG d   1       6.019   0.577  -6.694  0.00  0.00    -0.281 N 
ATOM     49  C   LIG d   1       6.737  -0.299  -5.965  0.00  0.00     0.222 C 
ATOM     50  O   LIG d   1       6.935  -1.420  -6.387  0.00  0.00    -0.275 OA
ATOM     51  H   LIG d   1       5.906   1.488  -6.383  0.00  0.00     0.155 HD
BRANCH  49  52
ATOM     52  C   LIG d   1       7.295   0.112  -4.628  0.00  0.00     0.049 C 
ATOM     53  H   LIG d   1       8.151  -0.517  -4.382  0.00  0.00     0.041 H 
ATOM     54  H   LIG d   1       7.610   1.154  -4.670  0.00  0.00     0.041 H 
BRANCH  52  55
ATOM     55  C   LIG d   1       6.233  -0.049  -3.570  0.00  0.00    -0.039 A 
ATOM     56  C   LIG d   1       5.717   1.063  -2.934  0.00  0.00    -0.058 A 
ATOM     57  C   LIG d   1       4.743   0.916  -1.964  0.00  0.00    -0.061 A 
ATOM     58  H   LIG d   1       6.075   2.049  -3.193  0.00  0.00     0.062 H 
ATOM     59  C   LIG d   1       4.284  -0.345  -1.631  0.00  0.00    -0.062 A 
ATOM     60  H   LIG d   1       4.340   1.785  -1.465  0.00  0.00     0.062 H 
ATOM     61  C   LIG d   1       4.799  -1.458  -2.269  0.00  0.00    -0.061 A 
ATOM     62  H   LIG d   1       3.524  -0.461  -0.873  0.00  0.00     0.062 H 
ATOM     63  C   LIG d   1       5.770  -1.310  -3.241  0.00  0.00    -0.058 A 
ATOM     64  H   LIG d   1       4.442  -2.444  -2.009  0.00  0.00     0.062 H 
ATOM     65  H   LIG d   1       6.170  -2.180  -3.743  0.00  0.00     0.062 H 
ENDBRANCH  52  55
ENDBRANCH  49  52
ENDBRANCH   1  48
TORSDOF 5
ENDMDL
MODEL 4
REMARK VINA RESULT:      -7.8      2.910      9.138
REMARK  5 active torsions:
REMARK  status: ('A' for Active; 'I' for Inactive)
REMARK    1  A    between atoms: C_4  and  C_7 
REMARK    2  A    between atoms: C_7  and  C_8 
REMARK       I    between atoms: C_8  and  N_10 
REMARK    3  A    between atoms: N_10  and  C_11 
REMARK    4  A    between atoms: C_26  and  C_27 
REMARK    5  A    between atoms: C_26  and  N_64 
ROOT
ATOM      1  C   LIG d   1       3.183  -0.953  -8.316  0.00  0.00     0.099 C 
ATOM      2  C   LIG d   1       3.877  -2.128  -8.229  0.00  0.00    -0.034 C 
ATOM      3  C   LIG d   1       4.548  -2.603  -9.362  0.00  0.00    -0.040 C 
ATOM      4  C   LIG d   1       4.523  -1.898 -10.523  0.00  0.00     0.030 C 
ATOM      5  N   LIG d   1       3.917  -0.689 -10.586  0.00  0.00    -0.310 N 
ATOM      6  C   LIG d   1       3.180  -0.248  -9.536  0.00  0.00     0.273 C 
ATOM      7  O   LIG d   1       2.514   0.769  -9.647  0.00  0.00    -0.266 OA
ATOM      8  C   LIG d   1       4.055   0.215 -11.730  0.00  0.00     0.034 C 
ATOM      9  C   LIG d   1       4.466  -0.519 -12.996  0.00  0.00     0.018 C 
ATOM     10  H   LIG d   1       4.786   0.217 -13.733  0.00  0.00     0.037 H 
ATOM     11  C   LIG d   1       5.648  -1.443 -12.688  0.00  0.00    -0.031 C 
ATOM     12  C   LIG d   1       5.147  -2.540 -11.743  0.00  0.00     0.040 C 
ATOM     13  H   LIG d   1       5.967  -3.198 -11.452  0.00  0.00     0.042 H 
ATOM     14  C   LIG d   1       4.042  -3.326 -12.468  0.00  0.00    -0.024 C 
ATOM     15  C   LIG d   1       3.308  -1.308 -13.591  0.00  0.00    -0.027 C 
ATOM     16  H   LIG d   1       3.908  -2.680  -7.301  0.00  0.00     0.064 H 
ATOM     17  H   LIG d   1       5.087  -3.536  -9.313  0.00  0.00     0.064 H 
ATOM     18  H   LIG d   1       3.100   0.713 -11.904  0.00  0.00     0.050 H 
ATOM     19  H   LIG d   1       4.808   0.967 -11.498  0.00  0.00     0.050 H 
ATOM     20  H   LIG d   1       6.017  -1.890 -13.611  0.00  0.00     0.028 H 
ATOM     21  H   LIG d   1       6.445  -0.876 -12.208  0.00  0.00     0.028 H 
ATOM     22  H   LIG d   1       4.421  -3.701 -13.419  0.00  0.00     0.082 H 
ATOM     23  H   LIG d   1       3.714  -4.160 -11.847  0.00  0.00     0.082 H 
ATOM     24  H   LIG d   1       2.457  -0.642 -13.731  0.00  0.00     0.082 H 
ATOM     25  H   LIG d   1       3.610  -1.712 -14.557  0.00  0.00     0.082 H 
ATOM     26  N   LIG d   1       2.906  -2.401 -12.683  0.00  0.00     0.236 N 
ATOM     27  H   LIG d   1       2.629  -1.999 -11.779  0.00  0.00     0.203 HD
ENDROOT
BRANCH  26  28
ATOM     28  C   LIG d   1       1.758  -3.134 -13.253  0.00  0.00    -0.029 C 
ATOM     29  H   LIG d   1       0.924  -2.442 -13.379  0.00  0.00     0.082 H 
ATOM     30  H   LIG d   1       2.044  -3.538 -14.224  0.00  0.00     0.082 H 
BRANCH  28  31
ATOM     31  C   LIG d   1       1.337  -4.278 -12.329  0.00  0.00    -0.001 C 
ATOM     32  C   LIG d   1       0.108  -3.855 -11.522  0.00  0.00    -0.045 C 
ATOM     33  C   LIG d   1      -0.313  -5.000 -10.598  0.00  0.00    -0.053 C 
ATOM     34  H   LIG d   1       0.350  -2.977 -10.925  0.00  0.00     0.027 H 
ATOM     35  H   LIG d   1      -0.710  -3.618 -12.202  0.00  0.00     0.027 H 
ATOM     36  C   LIG d   1      -0.654  -6.233 -11.436  0.00  0.00    -0.053 C 
ATOM     37  H   LIG d   1       0.505  -5.237  -9.917  0.00  0.00     0.026 H 
ATOM     38  H   LIG d   1      -1.189  -4.698 -10.022  0.00  0.00     0.026 H 
ATOM     39  C   LIG d   1       0.574  -6.656 -12.244  0.00  0.00    -0.053 C 
ATOM     40  H   LIG d   1      -0.954  -7.048 -10.778  0.00  0.00     0.026 H 
ATOM     41  H   LIG d   1      -1.472  -5.995 -12.116  0.00  0.00     0.026 H 
ATOM     42  C   LIG d   1       0.996  -5.512 -13.168  0.00  0.00    -0.045 C 
ATOM     43  H   LIG d   1       1.392  -6.893 -11.563  0.00  0.00     0.026 H 
ATOM     44  H   LIG d   1       0.333  -7.535 -12.841  0.00  0.00     0.026 H 
ATOM     45  H   LIG d   1       0.179  -5.274 -13.848  0.00  0.00     0.027 H 
ATOM     46  H   LIG d   1       1.871  -5.813 -13.743  0.00  0.00     0.027 H 
ATOM     47  H   LIG d   1       2.155  -4.516 -11.649  0.00  0.00     0.035 H 
ENDBRANCH  28  31
ENDBRANCH  26  28
BRANCH   1  48
ATOM     48  N   LIG d   1       2.479  -0.459  -7.209  0.00  0.00    -0.281 N 
ATOM     49  C   LIG d   1       3.135   0.193  -6.229  0.00  0.00     0.222 C 
ATOM     50  O   LIG d   1       4.324   0.408  -6.334  0.00  0.00    -0.275 OA
ATOM     51  H   LIG d   1       1.519  -0.583  -7.151  0.00  0.00     0.155 HD
BRANCH  49  52
ATOM     52  C   LIG d   1       2.391   0.657  -5.004  0.00  0.00     0.049 C 
ATOM     53  H   LIG d   1       2.315   1.744  -5.014  0.00  0.00     0.041 H 
ATOM     54  H   LIG d   1       1.391   0.223  -5.000  0.00  0.00     0.041 H 
BRANCH  52  55
ATOM     55  C   LIG d   1       3.134   0.217  -3.769  0.00  0.00    -0.039 A 
ATOM     56  C   LIG d   1       3.749   1.154  -2.961  0.00  0.00    -0.058 A 
ATOM     57  C   LIG d   1       4.431   0.751  -1.828  0.00  0.00    -0.061 A 
ATOM     58  H   LIG d   1       3.699   2.203  -3.215  0.00  0.00     0.062 H 
ATOM     59  C   LIG d   1       4.497  -0.592  -1.503  0.00  0.00    -0.062 A 
ATOM     60  H   LIG d   1       4.913   1.483  -1.197  0.00  0.00     0.062 H 
ATOM     61  C   LIG d   1       3.880  -1.529  -2.310  0.00  0.00    -0.061 A 
ATOM     62  H   LIG d   1       5.030  -0.908  -0.618  0.00  0.00     0.062 H 
ATOM     63  C   LIG d   1       3.195  -1.125  -3.440  0.00  0.00    -0.058 A 
ATOM     64  H   LIG d   1       3.932  -2.578  -2.056  0.00  0.00     0.062 H 
ATOM     65  H   LIG d   1       2.710  -1.858  -4.069  0.00  0.00     0.062 H 
ENDBRANCH  52  55
ENDBRANCH  49  52
ENDBRANCH   1  48
TORSDOF 5
ENDMDL
MODEL 5
REMARK VINA RESULT:      -7.8      3.787      6.203
REMARK  5 active torsions:
REMARK  status: ('A' for Active; 'I' for Inactive)
REMARK    1  A    between atoms: C_4  and  C_7 
REMARK    2  A    between atoms: C_7  and  C_8 
REMARK       I    between atoms: C_8  and  N_10 
REMARK    3  A    between atoms: N_10  and  C_11 
REMARK    4  A    between atoms: C_26  and  C_27 
REMARK    5  A    between atoms: C_26  and  N_64 
ROOT
ATOM      1  C   LIG d   1       1.672  -2.807  -9.976  0.00  0.00     0.099 C 
ATOM      2  C   LIG d   1       1.116  -1.625 -10.382  0.00  0.00    -0.034 C 
ATOM      3  C   LIG d   1       1.774  -0.428 -10.080  0.00  0.00    -0.040 C 
ATOM      4  C   LIG d   1       2.956  -0.442  -9.409  0.00  0.00     0.030 C 
ATOM      5  N   LIG d   1       3.556  -1.613  -9.089  0.00  0.00    -0.310 N 
ATOM      6  C   LIG d   1       2.898  -2.783  -9.283  0.00  0.00     0.273 C 
ATOM      7  O   LIG d   1       3.375  -3.824  -8.859  0.00  0.00    -0.266 OA
ATOM      8  C   LIG d   1       4.926  -1.695  -8.579  0.00  0.00     0.034 C 
ATOM      9  C   LIG d   1       5.388  -0.385  -7.960  0.00  0.00     0.018 C 
ATOM     10  H   LIG d   1       6.468  -0.429  -7.826  0.00  0.00     0.037 H 
ATOM     11  C   LIG d   1       5.063   0.771  -8.910  0.00  0.00    -0.031 C 
ATOM     12  C   LIG d   1       3.537   0.891  -8.992  0.00  0.00     0.040 C 
ATOM     13  H   LIG d   1       3.252   1.671  -9.699  0.00  0.00     0.042 H 
ATOM     14  C   LIG d   1       3.007   1.206  -7.583  0.00  0.00    -0.024 C 
ATOM     15  C   LIG d   1       4.754  -0.154  -6.595  0.00  0.00    -0.027 C 
ATOM     16  H   LIG d   1       0.183  -1.616 -10.928  0.00  0.00     0.064 H 
ATOM     17  H   LIG d   1       1.340   0.513 -10.381  0.00  0.00     0.064 H 
ATOM     18  H   LIG d   1       4.976  -2.480  -7.824  0.00  0.00     0.050 H 
ATOM     19  H   LIG d   1       5.594  -1.951  -9.401  0.00  0.00     0.050 H 
ATOM     20  H   LIG d   1       5.487   1.697  -8.522  0.00  0.00     0.028 H 
ATOM     21  H   LIG d   1       5.471   0.562  -9.898  0.00  0.00     0.028 H 
ATOM     22  H   LIG d   1       3.501   2.097  -7.195  0.00  0.00     0.082 H 
ATOM     23  H   LIG d   1       1.931   1.368  -7.621  0.00  0.00     0.082 H 
ATOM     24  H   LIG d   1       4.938  -1.023  -5.963  0.00  0.00     0.082 H 
ATOM     25  H   LIG d   1       5.205   0.725  -6.136  0.00  0.00     0.082 H 
ATOM     26  N   LIG d   1       3.294   0.032  -6.727  0.00  0.00     0.236 N 
ATOM     27  H   LIG d   1       2.890  -0.806  -7.165  0.00  0.00     0.203 HD
ENDROOT
BRANCH  26  28
ATOM     28  C   LIG d   1       2.687   0.217  -5.394  0.00  0.00    -0.029 C 
ATOM     29  H   LIG d   1       2.286   1.229  -5.326  0.00  0.00     0.082 H 
ATOM     30  H   LIG d   1       1.878  -0.503  -5.272  0.00  0.00     0.082 H 
BRANCH  28  31
ATOM     31  C   LIG d   1       3.729   0.006  -4.294  0.00  0.00    -0.001 C 
ATOM     32  C   LIG d   1       3.667   1.169  -3.303  0.00  0.00    -0.045 C 
ATOM     33  C   LIG d   1       4.709   0.956  -2.202  0.00  0.00    -0.053 C 
ATOM     34  H   LIG d   1       3.874   2.102  -3.824  0.00  0.00     0.027 H 
ATOM     35  H   LIG d   1       2.673   1.213  -2.857  0.00  0.00     0.027 H 
ATOM     36  C   LIG d   1       4.417  -0.354  -1.469  0.00  0.00    -0.053 C 
ATOM     37  H   LIG d   1       5.703   0.912  -2.647  0.00  0.00     0.026 H 
ATOM     38  H   LIG d   1       4.665   1.786  -1.496  0.00  0.00     0.026 H 
ATOM     39  C   LIG d   1       4.479  -1.518  -2.461  0.00  0.00    -0.053 C 
ATOM     40  H   LIG d   1       5.159  -0.505  -0.685  0.00  0.00     0.026 H 
ATOM     41  H   LIG d   1       3.423  -0.309  -1.024  0.00  0.00     0.026 H 
ATOM     42  C   LIG d   1       3.437  -1.306  -3.561  0.00  0.00    -0.045 C 
ATOM     43  H   LIG d   1       5.473  -1.562  -2.906  0.00  0.00     0.026 H 
ATOM     44  H   LIG d   1       4.272  -2.452  -1.939  0.00  0.00     0.026 H 
ATOM     45  H   LIG d   1       2.443  -1.261  -3.117  0.00  0.00     0.027 H 
ATOM     46  H   LIG d   1       3.482  -2.134  -4.268  0.00  0.00     0.027 H 
ATOM     47  H   LIG d   1       4.723  -0.040  -4.739  0.00  0.00     0.035 H 
ENDBRANCH  28  31
ENDBRANCH  26  28
BRANCH   1  48
ATOM     48  N   LIG d   1       1.028  -4.024 -10.239  0.00  0.00    -0.281 N 
ATOM     49  C   LIG d   1       0.958  -4.491 -11.501  0.00  0.00     0.222 C 
ATOM     50  O   LIG d   1       1.507  -3.890 -12.401  0.00  0.00    -0.275 OA
ATOM     51  H   LIG d   1       0.636  -4.532  -9.512  0.00  0.00     0.155 HD
BRANCH  49  52
ATOM     52  C   LIG d   1       0.201  -5.759 -11.795  0.00  0.00     0.049 C 
ATOM     53  H   LIG d   1      -0.123  -5.757 -12.836  0.00  0.00     0.041 H 
ATOM     54  H   LIG d   1       0.848  -6.618 -11.617  0.00  0.00     0.041 H 
BRANCH  52  55
ATOM     55  C   LIG d   1      -1.005  -5.844 -10.894  0.00  0.00    -0.039 A 
ATOM     56  C   LIG d   1      -1.073  -6.822  -9.921  0.00  0.00    -0.058 A 
ATOM     57  C   LIG d   1      -2.179  -6.901  -9.094  0.00  0.00    -0.061 A 
ATOM     58  H   LIG d   1      -0.264  -7.529  -9.806  0.00  0.00     0.062 H 
ATOM     59  C   LIG d   1      -3.216  -5.998  -9.242  0.00  0.00    -0.062 A 
ATOM     60  H   LIG d   1      -2.234  -7.666  -8.335  0.00  0.00     0.062 H 
ATOM     61  C   LIG d   1      -3.147  -5.018 -10.214  0.00  0.00    -0.061 A 
ATOM     62  H   LIG d   1      -4.080  -6.058  -8.597  0.00  0.00     0.062 H 
ATOM     63  C   LIG d   1      -2.039  -4.938 -11.037  0.00  0.00    -0.058 A 
ATOM     64  H   LIG d   1      -3.957  -4.313 -10.329  0.00  0.00     0.062 H 
ATOM     65  H   LIG d   1      -1.983  -4.169 -11.795  0.00  0.00     0.062 H 
ENDBRANCH  52  55
ENDBRANCH  49  52
ENDBRANCH   1  48
TORSDOF 5
ENDMDL
MODEL 6
REMARK VINA RESULT:      -7.7      2.777      7.910
REMARK  5 active torsions:
REMARK  status: ('A' for Active; 'I' for Inactive)
REMARK    1  A    between atoms: C_4  and  C_7 
REMARK    2  A    between atoms: C_7  and  C_8 
REMARK       I    between atoms: C_8  and  N_10 
REMARK    3  A    between atoms: N_10  and  C_11 
REMARK    4  A    between atoms: C_26  and  C_27 
REMARK    5  A    between atoms: C_26  and  N_64 
ROOT
ATOM      1  C   LIG d   1       3.298   0.583  -8.513  0.00  0.00     0.099 C 
ATOM      2  C   LIG d   1       4.541   1.108  -8.738  0.00  0.00    -0.034 C 
ATOM      3  C   LIG d   1       5.199   0.804  -9.935  0.00  0.00    -0.040 C 
ATOM      4  C   LIG d   1       4.602   0.015 -10.867  0.00  0.00     0.030 C 
ATOM      5  N   LIG d   1       3.335  -0.428 -10.690  0.00  0.00    -0.310 N 
ATOM      6  C   LIG d   1       2.711  -0.230  -9.502  0.00  0.00     0.273 C 
ATOM      7  O   LIG d   1       1.630  -0.757  -9.290  0.00  0.00    -0.266 OA
ATOM      8  C   LIG d   1       2.562  -1.080 -11.749  0.00  0.00     0.034 C 
ATOM      9  C   LIG d   1       3.452  -1.672 -12.829  0.00  0.00     0.018 C 
ATOM     10  H   LIG d   1       2.832  -1.918 -13.691  0.00  0.00     0.037 H 
ATOM     11  C   LIG d   1       4.491  -0.633 -13.260  0.00  0.00    -0.031 C 
ATOM     12  C   LIG d   1       5.426  -0.388 -12.071  0.00  0.00     0.040 C 
ATOM     13  H   LIG d   1       6.156   0.386 -12.311  0.00  0.00     0.042 H 
ATOM     14  C   LIG d   1       6.123  -1.716 -11.730  0.00  0.00    -0.024 C 
ATOM     15  C   LIG d   1       4.134  -2.949 -12.359  0.00  0.00    -0.027 C 
ATOM     16  H   LIG d   1       5.009   1.747  -8.002  0.00  0.00     0.064 H 
ATOM     17  H   LIG d   1       6.186   1.198 -10.119  0.00  0.00     0.064 H 
ATOM     18  H   LIG d   1       1.962  -1.877 -11.308  0.00  0.00     0.050 H 
ATOM     19  H   LIG d   1       1.896  -0.346 -12.204  0.00  0.00     0.050 H 
ATOM     20  H   LIG d   1       5.062  -1.011 -14.108  0.00  0.00     0.028 H 
ATOM     21  H   LIG d   1       3.992   0.296 -13.536  0.00  0.00     0.028 H 
ATOM     22  H   LIG d   1       6.627  -2.103 -12.616  0.00  0.00     0.082 H 
ATOM     23  H   LIG d   1       6.848  -1.558 -10.933  0.00  0.00     0.082 H 
ATOM     24  H   LIG d   1       3.378  -3.643 -11.990  0.00  0.00     0.082 H 
ATOM     25  H   LIG d   1       4.658  -3.405 -13.199  0.00  0.00     0.082 H 
ATOM     26  N   LIG d   1       5.080  -2.658 -11.263  0.00  0.00     0.236 N 
ATOM     27  H   LIG d   1       4.567  -2.227 -10.485  0.00  0.00     0.203 HD
ENDROOT
BRANCH  26  28
ATOM     28  C   LIG d   1       5.706  -3.909 -10.791  0.00  0.00    -0.029 C 
ATOM     29  H   LIG d   1       5.246  -4.752 -11.309  0.00  0.00     0.082 H 
ATOM     30  H   LIG d   1       6.771  -3.880 -11.020  0.00  0.00     0.082 H 
BRANCH  28  31
ATOM     31  C   LIG d   1       5.512  -4.071  -9.282  0.00  0.00    -0.001 C 
ATOM     32  C   LIG d   1       4.260  -3.310  -8.844  0.00  0.00    -0.045 C 
ATOM     33  C   LIG d   1       4.066  -3.472  -7.335  0.00  0.00    -0.053 C 
ATOM     34  H   LIG d   1       4.375  -2.253  -9.083  0.00  0.00     0.027 H 
ATOM     35  H   LIG d   1       3.391  -3.709  -9.366  0.00  0.00     0.027 H 
ATOM     36  C   LIG d   1       3.904  -4.956  -6.998  0.00  0.00    -0.053 C 
ATOM     37  H   LIG d   1       4.936  -3.073  -6.812  0.00  0.00     0.026 H 
ATOM     38  H   LIG d   1       3.174  -2.929  -7.023  0.00  0.00     0.026 H 
ATOM     39  C   LIG d   1       5.156  -5.718  -7.436  0.00  0.00    -0.053 C 
ATOM     40  H   LIG d   1       3.766  -5.072  -5.923  0.00  0.00     0.026 H 
ATOM     41  H   LIG d   1       3.035  -5.354  -7.521  0.00  0.00     0.026 H 
ATOM     42  C   LIG d   1       5.350  -5.556  -8.945  0.00  0.00    -0.045 C 
ATOM     43  H   LIG d   1       6.026  -5.318  -6.914  0.00  0.00     0.026 H 
ATOM     44  H   LIG d   1       5.042  -6.775  -7.197  0.00  0.00     0.026 H 
ATOM     45  H   LIG d   1       4.482  -5.954  -9.468  0.00  0.00     0.027 H 
ATOM     46  H   LIG d   1       6.242  -6.098  -9.258  0.00  0.00     0.027 H 
ATOM     47  H   LIG d   1       6.382  -3.673  -8.759  0.00  0.00     0.035 H 
ENDBRANCH  28  31
ENDBRANCH  26  28
BRANCH   1  48
ATOM     48  N   LIG d   1       2.621   0.845  -7.314  0.00  0.00    -0.281 N 
ATOM     49  C   LIG d   1       3.018   0.251  -6.172  0.00  0.00     0.222 C 
ATOM     50  O   LIG d   1       4.000  -0.462  -6.168  0.00  0.00    -0.275 OA
ATOM     51  H   LIG d   1       1.869   1.457  -7.306  0.00  0.00     0.155 HD
BRANCH  49  52
ATOM     52  C   LIG d   1       2.244   0.472  -4.899  0.00  0.00     0.049 C 
ATOM     53  H   LIG d   1       2.027   1.534  -4.785  0.00  0.00     0.041 H 
ATOM     54  H   LIG d   1       1.308  -0.086  -4.941  0.00  0.00     0.041 H 
BRANCH  52  55
ATOM     55  C   LIG d   1       3.060  -0.004  -3.725  0.00  0.00    -0.039 A 
ATOM     56  C   LIG d   1       3.164  -1.355  -3.457  0.00  0.00    -0.058 A 
ATOM     57  C   LIG d   1       3.913  -1.792  -2.380  0.00  0.00    -0.061 A 
ATOM     58  H   LIG d   1       2.658  -2.072  -4.088  0.00  0.00     0.062 H 
ATOM     59  C   LIG d   1       4.560  -0.875  -1.572  0.00  0.00    -0.062 A 
ATOM     60  H   LIG d   1       3.993  -2.848  -2.170  0.00  0.00     0.062 H 
ATOM     61  C   LIG d   1       4.458   0.476  -1.841  0.00  0.00    -0.061 A 
ATOM     62  H   LIG d   1       5.144  -1.216  -0.730  0.00  0.00     0.062 H 
ATOM     63  C   LIG d   1       3.712   0.912  -2.920  0.00  0.00    -0.058 A 
ATOM     64  H   LIG d   1       4.962   1.193  -1.209  0.00  0.00     0.062 H 
ATOM     65  H   LIG d   1       3.635   1.969  -3.132  0.00  0.00     0.062 H 
ENDBRANCH  52  55
ENDBRANCH  49  52
ENDBRANCH   1  48
TORSDOF 5
ENDMDL
MODEL 7
REMARK VINA RESULT:      -7.6      2.624      7.833
REMARK  5 active torsions:
REMARK  status: ('A' for Active; 'I' for Inactive)
REMARK    1  A    between atoms: C_4  and  C_7 
REMARK    2  A    between atoms: C_7  and  C_8 
REMARK       I    between atoms: C_8  and  N_10 
REMARK    3  A    between atoms: N_10  and  C_11 
REMARK    4  A    between atoms: C_26  and  C_27 
REMARK    5  A    between atoms: C_26  and  N_64 
ROOT
ATOM      1  C   LIG d   1       5.455  -3.836  -7.278  0.00  0.00     0.099 C 
ATOM      2  C   LIG d   1       4.174  -4.315  -7.249  0.00  0.00    -0.034 C 
ATOM      3  C   LIG d   1       3.522  -4.580  -8.459  0.00  0.00    -0.040 C 
ATOM      4  C   LIG d   1       4.159  -4.381  -9.642  0.00  0.00     0.030 C 
ATOM      5  N   LIG d   1       5.457  -3.997  -9.673  0.00  0.00    -0.310 N 
ATOM      6  C   LIG d   1       6.084  -3.641  -8.524  0.00  0.00     0.273 C 
ATOM      7  O   LIG d   1       7.203  -3.155  -8.568  0.00  0.00    -0.266 OA
ATOM      8  C   LIG d   1       6.259  -3.990 -10.899  0.00  0.00     0.034 C 
ATOM      9  C   LIG d   1       5.397  -3.930 -12.149  0.00  0.00     0.018 C 
ATOM     10  H   LIG d   1       6.020  -4.172 -13.010  0.00  0.00     0.037 H 
ATOM     11  C   LIG d   1       4.280  -4.973 -12.050  0.00  0.00    -0.031 C 
ATOM     12  C   LIG d   1       3.348  -4.550 -10.909  0.00  0.00     0.040 C 
ATOM     13  H   LIG d   1       2.562  -5.290 -10.762  0.00  0.00     0.042 H 
ATOM     14  C   LIG d   1       2.753  -3.177 -11.263  0.00  0.00    -0.024 C 
ATOM     15  C   LIG d   1       4.815  -2.540 -12.365  0.00  0.00    -0.027 C 
ATOM     16  H   LIG d   1       3.674  -4.487  -6.307  0.00  0.00     0.064 H 
ATOM     17  H   LIG d   1       2.507  -4.944  -8.452  0.00  0.00     0.064 H 
ATOM     18  H   LIG d   1       6.921  -3.124 -10.883  0.00  0.00     0.050 H 
ATOM     19  H   LIG d   1       6.863  -4.896 -10.931  0.00  0.00     0.050 H 
ATOM     20  H   LIG d   1       3.725  -5.010 -12.986  0.00  0.00     0.028 H 
ATOM     21  H   LIG d   1       4.708  -5.952 -11.834  0.00  0.00     0.028 H 
ATOM     22  H   LIG d   1       2.265  -3.229 -12.237  0.00  0.00     0.082 H 
ATOM     23  H   LIG d   1       2.030  -2.881 -10.504  0.00  0.00     0.082 H 
ATOM     24  H   LIG d   1       5.624  -1.809 -12.359  0.00  0.00     0.082 H 
ATOM     25  H   LIG d   1       4.313  -2.509 -13.332  0.00  0.00     0.082 H 
ATOM     26  N   LIG d   1       3.867  -2.202 -11.285  0.00  0.00     0.236 N 
ATOM     27  H   LIG d   1       4.360  -2.240 -10.384  0.00  0.00     0.203 HD
ENDROOT
BRANCH  26  28
ATOM     28  C   LIG d   1       3.340  -0.837 -11.486  0.00  0.00    -0.029 C 
ATOM     29  H   LIG d   1       3.811  -0.402 -12.368  0.00  0.00     0.082 H 
ATOM     30  H   LIG d   1       2.262  -0.894 -11.640  0.00  0.00     0.082 H 
BRANCH  28  31
ATOM     31  C   LIG d   1       3.635   0.039 -10.266  0.00  0.00    -0.001 C 
ATOM     32  C   LIG d   1       3.771   1.497 -10.707  0.00  0.00    -0.045 C 
ATOM     33  C   LIG d   1       4.066   2.372  -9.487  0.00  0.00    -0.053 C 
ATOM     34  H   LIG d   1       4.587   1.586 -11.423  0.00  0.00     0.027 H 
ATOM     35  H   LIG d   1       2.842   1.824 -11.172  0.00  0.00     0.027 H 
ATOM     36  C   LIG d   1       2.919   2.249  -8.481  0.00  0.00    -0.053 C 
ATOM     37  H   LIG d   1       4.996   2.045  -9.021  0.00  0.00     0.026 H 
ATOM     38  H   LIG d   1       4.163   3.412  -9.801  0.00  0.00     0.026 H 
ATOM     39  C   LIG d   1       2.783   0.790  -8.041  0.00  0.00    -0.053 C 
ATOM     40  H   LIG d   1       3.129   2.873  -7.612  0.00  0.00     0.026 H 
ATOM     41  H   LIG d   1       1.990   2.576  -8.948  0.00  0.00     0.026 H 
ATOM     42  C   LIG d   1       2.487  -0.085  -9.260  0.00  0.00    -0.045 C 
ATOM     43  H   LIG d   1       3.712   0.463  -7.575  0.00  0.00     0.026 H 
ATOM     44  H   LIG d   1       1.966   0.701  -7.324  0.00  0.00     0.026 H 
ATOM     45  H   LIG d   1       1.559   0.241  -9.727  0.00  0.00     0.027 H 
ATOM     46  H   LIG d   1       2.390  -1.124  -8.947  0.00  0.00     0.027 H 
ATOM     47  H   LIG d   1       4.564  -0.289  -9.800  0.00  0.00     0.035 H 
ENDBRANCH  28  31
ENDBRANCH  26  28
BRANCH   1  48
ATOM     48  N   LIG d   1       6.130  -3.535  -6.087  0.00  0.00    -0.281 N 
ATOM     49  C   LIG d   1       6.033  -2.303  -5.550  0.00  0.00     0.222 C 
ATOM     50  O   LIG d   1       5.312  -1.473  -6.062  0.00  0.00    -0.275 OA
ATOM     51  H   LIG d   1       6.663  -4.215  -5.648  0.00  0.00     0.155 HD
BRANCH  49  52
ATOM     52  C   LIG d   1       6.819  -1.957  -4.312  0.00  0.00     0.049 C 
ATOM     53  H   LIG d   1       7.071  -2.871  -3.774  0.00  0.00     0.041 H 
ATOM     54  H   LIG d   1       7.735  -1.440  -4.596  0.00  0.00     0.041 H 
BRANCH  52  55
ATOM     55  C   LIG d   1       5.991  -1.063  -3.425  0.00  0.00    -0.039 A 
ATOM     56  C   LIG d   1       6.227   0.298  -3.403  0.00  0.00    -0.058 A 
ATOM     57  C   LIG d   1       5.468   1.119  -2.589  0.00  0.00    -0.061 A 
ATOM     58  H   LIG d   1       7.005   0.722  -4.020  0.00  0.00     0.062 H 
ATOM     59  C   LIG d   1       4.472   0.576  -1.798  0.00  0.00    -0.062 A 
ATOM     60  H   LIG d   1       5.652   2.182  -2.570  0.00  0.00     0.062 H 
ATOM     61  C   LIG d   1       4.235  -0.785  -1.821  0.00  0.00    -0.061 A 
ATOM     62  H   LIG d   1       3.879   1.216  -1.161  0.00  0.00     0.062 H 
ATOM     63  C   LIG d   1       4.991  -1.605  -2.638  0.00  0.00    -0.058 A 
ATOM     64  H   LIG d   1       3.457  -1.210  -1.204  0.00  0.00     0.062 H 
ATOM     65  H   LIG d   1       4.804  -2.668  -2.660  0.00  0.00     0.062 H 
ENDBRANCH  52  55
ENDBRANCH  49  52
ENDBRANCH   1  48
TORSDOF 5
ENDMDL
MODEL 8
REMARK VINA RESULT:      -7.6      5.437      9.412
REMARK  5 active torsions:
REMARK  status: ('A' for Active; 'I' for Inactive)
REMARK    1  A    between atoms: C_4  and  C_7 
REMARK    2  A    between atoms: C_7  and  C_8 
REMARK       I    between atoms: C_8  and  N_10 
REMARK    3  A    between atoms: N_10  and  C_11 
REMARK    4  A    between atoms: C_26  and  C_27 
REMARK    5  A    between atoms: C_26  and  N_64 
ROOT
ATOM      1  C   LIG d   1       5.133  -4.750  -5.365  0.00  0.00     0.099 C 
ATOM      2  C   LIG d   1       6.501  -4.771  -5.376  0.00  0.00    -0.034 C 
ATOM      3  C   LIG d   1       7.161  -5.303  -6.489  0.00  0.00    -0.040 C 
ATOM      4  C   LIG d   1       6.454  -5.775  -7.549  0.00  0.00     0.030 C 
ATOM      5  N   LIG d   1       5.104  -5.670  -7.582  0.00  0.00    -0.310 N 
ATOM      6  C   LIG d   1       4.433  -5.248  -6.481  0.00  0.00     0.273 C 
ATOM      7  O   LIG d   1       3.213  -5.295  -6.460  0.00  0.00    -0.266 OA
ATOM      8  C   LIG d   1       4.311  -5.944  -8.782  0.00  0.00     0.034 C 
ATOM      9  C   LIG d   1       5.050  -6.835  -9.767  0.00  0.00     0.018 C 
ATOM     10  H   LIG d   1       4.526  -6.802 -10.722  0.00  0.00     0.037 H 
ATOM     11  C   LIG d   1       6.470  -6.300  -9.974  0.00  0.00    -0.031 C 
ATOM     12  C   LIG d   1       7.226  -6.465  -8.652  0.00  0.00     0.040 C 
ATOM     13  H   LIG d   1       8.231  -6.050  -8.732  0.00  0.00     0.042 H 
ATOM     14  C   LIG d   1       7.275  -7.964  -8.314  0.00  0.00    -0.024 C 
ATOM     15  C   LIG d   1       5.084  -8.283  -9.299  0.00  0.00    -0.027 C 
ATOM     16  H   LIG d   1       7.062  -4.382  -4.538  0.00  0.00     0.064 H 
ATOM     17  H   LIG d   1       8.240  -5.339  -6.505  0.00  0.00     0.064 H 
ATOM     18  H   LIG d   1       3.383  -6.434  -8.488  0.00  0.00     0.050 H 
ATOM     19  H   LIG d   1       4.073  -5.000  -9.271  0.00  0.00     0.050 H 
ATOM     20  H   LIG d   1       6.968  -6.869 -10.759  0.00  0.00     0.028 H 
ATOM     21  H   LIG d   1       6.431  -5.247 -10.250  0.00  0.00     0.028 H 
ATOM     22  H   LIG d   1       7.715  -8.514  -9.146  0.00  0.00     0.082 H 
ATOM     23  H   LIG d   1       7.870  -8.120  -7.414  0.00  0.00     0.082 H 
ATOM     24  H   LIG d   1       4.068  -8.616  -9.090  0.00  0.00     0.082 H 
ATOM     25  H   LIG d   1       5.508  -8.904 -10.088  0.00  0.00     0.082 H 
ATOM     26  N   LIG d   1       5.885  -8.409  -8.065  0.00  0.00     0.236 N 
ATOM     27  H   LIG d   1       5.471  -7.815  -7.336  0.00  0.00     0.203 HD
ENDROOT
BRANCH  26  28
ATOM     28  C   LIG d   1       5.879  -9.811  -7.600  0.00  0.00    -0.029 C 
ATOM     29  H   LIG d   1       5.643 -10.462  -8.444  0.00  0.00     0.082 H 
ATOM     30  H   LIG d   1       6.868 -10.060  -7.215  0.00  0.00     0.082 H 
BRANCH  28  31
ATOM     31  C   LIG d   1       4.837 -10.008  -6.497  0.00  0.00    -0.001 C 
ATOM     32  C   LIG d   1       4.599 -11.504  -6.282  0.00  0.00    -0.045 C 
ATOM     33  C   LIG d   1       3.558 -11.700  -5.178  0.00  0.00    -0.053 C 
ATOM     34  H   LIG d   1       4.237 -11.951  -7.206  0.00  0.00     0.027 H 
ATOM     35  H   LIG d   1       5.534 -11.981  -5.988  0.00  0.00     0.027 H 
ATOM     36  C   LIG d   1       4.067 -11.072  -3.879  0.00  0.00    -0.053 C 
ATOM     37  H   LIG d   1       2.623 -11.222  -5.472  0.00  0.00     0.026 H 
ATOM     38  H   LIG d   1       3.388 -12.766  -5.025  0.00  0.00     0.026 H 
ATOM     39  C   LIG d   1       4.304  -9.577  -4.095  0.00  0.00    -0.053 C 
ATOM     40  H   LIG d   1       3.324 -11.213  -3.093  0.00  0.00     0.026 H 
ATOM     41  H   LIG d   1       5.001 -11.551  -3.586  0.00  0.00     0.026 H 
ATOM     42  C   LIG d   1       5.346  -9.380  -5.198  0.00  0.00    -0.045 C 
ATOM     43  H   LIG d   1       3.370  -9.099  -4.389  0.00  0.00     0.026 H 
ATOM     44  H   LIG d   1       4.667  -9.129  -3.169  0.00  0.00     0.026 H 
ATOM     45  H   LIG d   1       6.281  -9.857  -4.905  0.00  0.00     0.027 H 
ATOM     46  H   LIG d   1       5.516  -8.314  -5.352  0.00  0.00     0.027 H 
ATOM     47  H   LIG d   1       3.903  -9.530  -6.791  0.00  0.00     0.035 H 
ENDBRANCH  28  31
ENDBRANCH  26  28
BRANCH   1  48
ATOM     48  N   LIG d   1       4.438  -4.248  -4.256  0.00  0.00    -0.281 N 
ATOM     49  C   LIG d   1       4.626  -2.973  -3.863  0.00  0.00     0.222 C 
ATOM     50  O   LIG d   1       5.350  -2.241  -4.506  0.00  0.00    -0.275 OA
ATOM     51  H   LIG d   1       3.818  -4.817  -3.775  0.00  0.00     0.155 HD
BRANCH  49  52
ATOM     52  C   LIG d   1       3.938  -2.456  -2.627  0.00  0.00     0.049 C 
ATOM     53  H   LIG d   1       2.938  -2.886  -2.561  0.00  0.00     0.041 H 
ATOM     54  H   LIG d   1       4.513  -2.738  -1.746  0.00  0.00     0.041 H 
BRANCH  52  55
ATOM     55  C   LIG d   1       3.835  -0.954  -2.700  0.00  0.00    -0.039 A 
ATOM     56  C   LIG d   1       3.073  -0.361  -3.689  0.00  0.00    -0.058 A 
ATOM     57  C   LIG d   1       2.979   1.017  -3.757  0.00  0.00    -0.061 A 
ATOM     58  H   LIG d   1       2.553  -0.973  -4.411  0.00  0.00     0.062 H 
ATOM     59  C   LIG d   1       3.646   1.801  -2.834  0.00  0.00    -0.062 A 
ATOM     60  H   LIG d   1       2.385   1.481  -4.530  0.00  0.00     0.062 H 
ATOM     61  C   LIG d   1       4.406   1.208  -1.843  0.00  0.00    -0.061 A 
ATOM     62  H   LIG d   1       3.573   2.877  -2.886  0.00  0.00     0.062 H 
ATOM     63  C   LIG d   1       4.497  -0.170  -1.774  0.00  0.00    -0.058 A 
ATOM     64  H   LIG d   1       4.927   1.820  -1.122  0.00  0.00     0.062 H 
ATOM     65  H   LIG d   1       5.088  -0.634  -0.998  0.00  0.00     0.062 H 
ENDBRANCH  52  55
ENDBRANCH  49  52
ENDBRANCH   1  48
TORSDOF 5
ENDMDL
MODEL 9
REMARK VINA RESULT:      -7.5      2.667      8.006
REMARK  5 active torsions:
REMARK  status: ('A' for Active; 'I' for Inactive)
REMARK    1  A    between atoms: C_4  and  C_7 
REMARK    2  A    between atoms: C_7  and  C_8 
REMARK       I    between atoms: C_8  and  N_10 
REMARK    3  A    between atoms: N_10  and  C_11 
REMARK    4  A    between atoms: C_26  and  C_27 
REMARK    5  A    between atoms: C_26  and  N_64 
ROOT
ATOM      1  C   LIG d   1       3.879  -0.869  -7.823  0.00  0.00     0.099 C 
ATOM      2  C   LIG d   1       5.244  -0.810  -7.768  0.00  0.00    -0.034 C 
ATOM      3  C   LIG d   1       5.974  -0.892  -8.960  0.00  0.00    -0.040 C 
ATOM      4  C   LIG d   1       5.334  -1.009 -10.152  0.00  0.00     0.030 C 
ATOM      5  N   LIG d   1       3.983  -0.972 -10.219  0.00  0.00    -0.310 N 
ATOM      6  C   LIG d   1       3.250  -0.990  -9.078  0.00  0.00     0.273 C 
ATOM      7  O   LIG d   1       2.036  -1.107  -9.138  0.00  0.00    -0.266 OA
ATOM      8  C   LIG d   1       3.248  -0.860 -11.481  0.00  0.00     0.034 C 
ATOM      9  C   LIG d   1       4.076  -1.318 -12.670  0.00  0.00     0.018 C 
ATOM     10  H   LIG d   1       3.581  -0.988 -13.583  0.00  0.00     0.037 H 
ATOM     11  C   LIG d   1       5.462  -0.669 -12.608  0.00  0.00    -0.031 C 
ATOM     12  C   LIG d   1       6.186  -1.236 -11.382  0.00  0.00     0.040 C 
ATOM     13  H   LIG d   1       7.163  -0.766 -11.263  0.00  0.00     0.042 H 
ATOM     14  C   LIG d   1       6.327  -2.756 -11.572  0.00  0.00    -0.024 C 
ATOM     15  C   LIG d   1       4.195  -2.835 -12.722  0.00  0.00    -0.027 C 
ATOM     16  H   LIG d   1       5.752  -0.703  -6.820  0.00  0.00     0.064 H 
ATOM     17  H   LIG d   1       7.052  -0.863  -8.930  0.00  0.00     0.064 H 
ATOM     18  H   LIG d   1       2.347  -1.471 -11.420  0.00  0.00     0.050 H 
ATOM     19  H   LIG d   1       2.960   0.180 -11.632  0.00  0.00     0.050 H 
ATOM     20  H   LIG d   1       6.022  -0.907 -13.511  0.00  0.00     0.028 H 
ATOM     21  H   LIG d   1       5.359   0.411 -12.510  0.00  0.00     0.028 H 
ATOM     22  H   LIG d   1       6.830  -2.962 -12.518  0.00  0.00     0.082 H 
ATOM     23  H   LIG d   1       6.903  -3.179 -10.749  0.00  0.00     0.082 H 
ATOM     24  H   LIG d   1       3.198  -3.273 -12.692  0.00  0.00     0.082 H 
ATOM     25  H   LIG d   1       4.685  -3.124 -13.652  0.00  0.00     0.082 H 
ATOM     26  N   LIG d   1       4.964  -3.333 -11.563  0.00  0.00     0.236 N 
ATOM     27  H   LIG d   1       4.487  -3.048 -10.699  0.00  0.00     0.203 HD
ENDROOT
BRANCH  26  28
ATOM     28  C   LIG d   1       5.040  -4.808 -11.605  0.00  0.00    -0.029 C 
ATOM     29  H   LIG d   1       4.284  -5.181 -12.297  0.00  0.00     0.082 H 
ATOM     30  H   LIG d   1       6.029  -5.101 -11.956  0.00  0.00     0.082 H 
BRANCH  28  31
ATOM     31  C   LIG d   1       4.795  -5.398 -10.215  0.00  0.00    -0.001 C 
ATOM     32  C   LIG d   1       6.135  -5.608  -9.507  0.00  0.00    -0.045 C 
ATOM     33  C   LIG d   1       5.889  -6.198  -8.117  0.00  0.00    -0.053 C 
ATOM     34  H   LIG d   1       6.750  -6.293 -10.089  0.00  0.00     0.027 H 
ATOM     35  H   LIG d   1       6.648  -4.651  -9.410  0.00  0.00     0.027 H 
ATOM     36  C   LIG d   1       5.026  -5.236  -7.299  0.00  0.00    -0.053 C 
ATOM     37  H   LIG d   1       5.376  -7.155  -8.214  0.00  0.00     0.026 H 
ATOM     38  H   LIG d   1       6.844  -6.348  -7.613  0.00  0.00     0.026 H 
ATOM     39  C   LIG d   1       3.686  -5.026  -8.007  0.00  0.00    -0.053 C 
ATOM     40  H   LIG d   1       4.851  -5.657  -6.309  0.00  0.00     0.026 H 
ATOM     41  H   LIG d   1       5.539  -4.280  -7.203  0.00  0.00     0.026 H 
ATOM     42  C   LIG d   1       3.931  -4.435  -9.397  0.00  0.00    -0.045 C 
ATOM     43  H   LIG d   1       3.173  -5.983  -8.105  0.00  0.00     0.026 H 
ATOM     44  H   LIG d   1       3.070  -4.341  -7.425  0.00  0.00     0.026 H 
ATOM     45  H   LIG d   1       4.444  -3.479  -9.301  0.00  0.00     0.027 H 
ATOM     46  H   LIG d   1       2.977  -4.286  -9.902  0.00  0.00     0.027 H 
ATOM     47  H   LIG d   1       4.281  -6.355 -10.312  0.00  0.00     0.035 H 
ENDBRANCH  28  31
ENDBRANCH  26  28
BRANCH   1  48
ATOM     48  N   LIG d   1       3.116  -0.816  -6.648  0.00  0.00    -0.281 N 
ATOM     49  C   LIG d   1       2.735   0.375  -6.146  0.00  0.00     0.222 C 
ATOM     50  O   LIG d   1       2.997   1.398  -6.743  0.00  0.00    -0.275 OA
ATOM     51  H   LIG d   1       2.860  -1.636  -6.199  0.00  0.00     0.155 HD
BRANCH  49  52
ATOM     52  C   LIG d   1       1.981   0.437  -4.843  0.00  0.00     0.049 C 
ATOM     53  H   LIG d   1       1.556   1.432  -4.715  0.00  0.00     0.041 H 
ATOM     54  H   LIG d   1       1.180  -0.302  -4.851  0.00  0.00     0.041 H 
BRANCH  52  55
ATOM     55  C   LIG d   1       2.923   0.143  -3.704  0.00  0.00    -0.039 A 
ATOM     56  C   LIG d   1       3.598   1.176  -3.081  0.00  0.00    -0.058 A 
ATOM     57  C   LIG d   1       4.462   0.908  -2.036  0.00  0.00    -0.061 A 
ATOM     58  H   LIG d   1       3.452   2.194  -3.412  0.00  0.00     0.062 H 
ATOM     59  C   LIG d   1       4.651  -0.396  -1.613  0.00  0.00    -0.062 A 
ATOM     60  H   LIG d   1       4.991   1.714  -1.550  0.00  0.00     0.062 H 
ATOM     61  C   LIG d   1       3.975  -1.428  -2.234  0.00  0.00    -0.061 A 
ATOM     62  H   LIG d   1       5.326  -0.606  -0.798  0.00  0.00     0.062 H 
ATOM     63  C   LIG d   1       3.107  -1.159  -3.277  0.00  0.00    -0.058 A 
ATOM     64  H   LIG d   1       4.121  -2.446  -1.905  0.00  0.00     0.062 H 
ATOM     65  H   LIG d   1       2.576  -1.966  -3.760  0.00  0.00     0.062 H 
ENDBRANCH  52  55
ENDBRANCH  49  52
ENDBRANCH   1  48
TORSDOF 5
ENDMDL
MODEL 10
REMARK VINA RESULT:      -7.5      2.660      7.068
REMARK  5 active torsions:
REMARK  status: ('A' for Active; 'I' for Inactive)
REMARK    1  A    between atoms: C_4  and  C_7 
REMARK    2  A    between atoms: C_7  and  C_8 
REMARK       I    between atoms: C_8  and  N_10 
REMARK    3  A    between atoms: N_10  and  C_11 
REMARK    4  A    between atoms: C_26  and  C_27 
REMARK    5  A    between atoms: C_26  and  N_64 
ROOT
ATOM      1  C   LIG d   1       3.241  -0.465  -8.507  0.00  0.00     0.099 C 
ATOM      2  C   LIG d   1       3.542   0.608  -9.300  0.00  0.00    -0.034 C 
ATOM      3  C   LIG d   1       4.349   0.412 -10.427  0.00  0.00    -0.040 C 
ATOM      4  C   LIG d   1       4.808  -0.828 -10.738  0.00  0.00     0.030 C 
ATOM      5  N   LIG d   1       4.434  -1.907 -10.010  0.00  0.00    -0.310 N 
ATOM      6  C   LIG d   1       3.735  -1.736  -8.860  0.00  0.00     0.273 C 
ATOM      7  O   LIG d   1       3.527  -2.691  -8.129  0.00  0.00    -0.266 OA
ATOM      8  C   LIG d   1       4.704  -3.284 -10.427  0.00  0.00     0.034 C 
ATOM      9  C   LIG d   1       5.856  -3.370 -11.415  0.00  0.00     0.018 C 
ATOM     10  H   LIG d   1       5.849  -4.362 -11.867  0.00  0.00     0.037 H 
ATOM     11  C   LIG d   1       5.658  -2.331 -12.521  0.00  0.00    -0.031 C 
ATOM     12  C   LIG d   1       5.788  -0.942 -11.885  0.00  0.00     0.040 C 
ATOM     13  H   LIG d   1       5.604  -0.163 -12.624  0.00  0.00     0.042 H 
ATOM     14  C   LIG d   1       7.204  -0.819 -11.297  0.00  0.00    -0.024 C 
ATOM     15  C   LIG d   1       7.201  -3.175 -10.729  0.00  0.00    -0.027 C 
ATOM     16  H   LIG d   1       3.164   1.592  -9.060  0.00  0.00     0.064 H 
ATOM     17  H   LIG d   1       4.607   1.252 -11.054  0.00  0.00     0.064 H 
ATOM     18  H   LIG d   1       4.948  -3.879  -9.546  0.00  0.00     0.050 H 
ATOM     19  H   LIG d   1       3.809  -3.695 -10.893  0.00  0.00     0.050 H 
ATOM     20  H   LIG d   1       6.420  -2.459 -13.289  0.00  0.00     0.028 H 
ATOM     21  H   LIG d   1       4.667  -2.444 -12.961  0.00  0.00     0.028 H 
ATOM     22  H   LIG d   1       7.943  -1.021 -12.073  0.00  0.00     0.082 H 
ATOM     23  H   LIG d   1       7.352   0.185 -10.899  0.00  0.00     0.082 H 
ATOM     24  H   LIG d   1       7.285  -3.878  -9.900  0.00  0.00     0.082 H 
ATOM     25  H   LIG d   1       7.999  -3.369 -11.445  0.00  0.00     0.082 H 
ATOM     26  N   LIG d   1       7.315  -1.802 -10.195  0.00  0.00     0.236 N 
ATOM     27  H   LIG d   1       6.553  -1.640  -9.526  0.00  0.00     0.203 HD
ENDROOT
BRANCH  26  28
ATOM     28  C   LIG d   1       8.608  -1.638  -9.500  0.00  0.00    -0.029 C 
ATOM     29  H   LIG d   1       9.299  -2.403  -9.854  0.00  0.00     0.082 H 
ATOM     30  H   LIG d   1       9.010  -0.651  -9.730  0.00  0.00     0.082 H 
BRANCH  28  31
ATOM     31  C   LIG d   1       8.426  -1.775  -7.987  0.00  0.00    -0.001 C 
ATOM     32  C   LIG d   1       7.018  -1.319  -7.600  0.00  0.00    -0.045 C 
ATOM     33  C   LIG d   1       6.836  -1.457  -6.087  0.00  0.00    -0.053 C 
ATOM     34  H   LIG d   1       6.880  -0.278  -7.889  0.00  0.00     0.027 H 
ATOM     35  H   LIG d   1       6.282  -1.939  -8.112  0.00  0.00     0.027 H 
ATOM     36  C   LIG d   1       7.028  -2.919  -5.681  0.00  0.00    -0.053 C 
ATOM     37  H   LIG d   1       7.572  -0.837  -5.575  0.00  0.00     0.026 H 
ATOM     38  H   LIG d   1       5.833  -1.131  -5.811  0.00  0.00     0.026 H 
ATOM     39  C   LIG d   1       8.436  -3.375  -6.068  0.00  0.00    -0.053 C 
ATOM     40  H   LIG d   1       6.898  -3.017  -4.603  0.00  0.00     0.026 H 
ATOM     41  H   LIG d   1       6.292  -3.538  -6.193  0.00  0.00     0.026 H 
ATOM     42  C   LIG d   1       8.618  -3.238  -7.581  0.00  0.00    -0.045 C 
ATOM     43  H   LIG d   1       9.172  -2.755  -5.556  0.00  0.00     0.026 H 
ATOM     44  H   LIG d   1       8.574  -4.417  -5.779  0.00  0.00     0.026 H 
ATOM     45  H   LIG d   1       7.883  -3.857  -8.093  0.00  0.00     0.027 H 
ATOM     46  H   LIG d   1       9.621  -3.562  -7.857  0.00  0.00     0.027 H 
ATOM     47  H   LIG d   1       9.162  -1.156  -7.475  0.00  0.00     0.035 H 
ENDBRANCH  28  31
ENDBRANCH  26  28
BRANCH   1  48
ATOM     48  N   LIG d   1       2.457  -0.301  -7.356  0.00  0.00    -0.281 N 
ATOM     49  C   LIG d   1       3.022   0.135  -6.213  0.00  0.00     0.222 C 
ATOM     50  O   LIG d   1       4.195   0.445  -6.195  0.00  0.00    -0.275 OA
ATOM     51  H   LIG d   1       1.509  -0.498  -7.384  0.00  0.00     0.155 HD
BRANCH  49  52
ATOM     52  C   LIG d   1       2.197   0.237  -4.957  0.00  0.00     0.049 C 
ATOM     53  H   LIG d   1       1.854   1.263  -4.830  0.00  0.00     0.041 H 
ATOM     54  H   LIG d   1       1.336  -0.427  -5.032  0.00  0.00     0.041 H 
BRANCH  52  55
ATOM     55  C   LIG d   1       3.037  -0.163  -3.771  0.00  0.00    -0.039 A 
ATOM     56  C   LIG d   1       3.295  -1.498  -3.524  0.00  0.00    -0.058 A 
ATOM     57  C   LIG d   1       4.065  -1.865  -2.436  0.00  0.00    -0.061 A 
ATOM     58  H   LIG d   1       2.893  -2.256  -4.181  0.00  0.00     0.062 H 
ATOM     59  C   LIG d   1       4.578  -0.894  -1.595  0.00  0.00    -0.062 A 
ATOM     60  H   LIG d   1       4.266  -2.908  -2.243  0.00  0.00     0.062 H 
ATOM     61  C   LIG d   1       4.321   0.441  -1.842  0.00  0.00    -0.061 A 
ATOM     62  H   LIG d   1       5.179  -1.180  -0.745  0.00  0.00     0.062 H 
ATOM     63  C   LIG d   1       3.555   0.807  -2.932  0.00  0.00    -0.058 A 
ATOM     64  H   LIG d   1       4.722   1.199  -1.185  0.00  0.00     0.062 H 
ATOM     65  H   LIG d   1       3.357   1.851  -3.128  0.00  0.00     0.062 H 
ENDBRANCH  52  55
ENDBRANCH  49  52
ENDBRANCH   1  48
TORSDOF 5
ENDMDL
