MODEL 1
REMARK VINA RESULT:      -6.3      0.000      0.000
REMARK  12 active torsions:
REMARK  status: ('A' for Active; 'I' for Inactive)
REMARK    1  A    between atoms: C_1  and  C_2 
REMARK    2  A    between atoms: C_2  and  C_33 
REMARK    3  A    between atoms: C_3  and  C_6 
REMARK    4  A    between atoms: C_6  and  C_7 
REMARK    5  A    between atoms: C_9  and  C_14 
REMARK    6  A    between atoms: C_12  and  O_13 
REMARK    7  A    between atoms: C_14  and  C_15 
REMARK    8  A    between atoms: C_15  and  C_29 
REMARK    9  A    between atoms: C_16  and  C_22 
REMARK   10  A    between atoms: C_25  and  O_28 
REMARK   11  A    between atoms: C_29  and  O_31 
REMARK   12  A    between atoms: O_31  and  C_32 
ROOT
ATOM      1  C   LIG d   1       4.619  -3.325  -3.874  0.00  0.00     0.028 C 
ATOM      2  H   LIG d   1       5.392  -3.690  -3.197  0.00  0.00     0.036 H 
ATOM      3  H   LIG d   1       3.682  -3.841  -3.670  0.00  0.00     0.036 H 
ENDROOT
BRANCH   1   4
ATOM      4  C   LIG d   1       4.433  -1.844  -3.671  0.00  0.00    -0.042 A 
ATOM      5  C   LIG d   1       5.534  -1.010  -3.613  0.00  0.00    -0.052 A 
ATOM      6  C   LIG d   1       5.366   0.348  -3.429  0.00  0.00    -0.003 A 
ATOM      7  H   LIG d   1       6.528  -1.422  -3.713  0.00  0.00     0.062 H 
ATOM      8  C   LIG d   1       4.090   0.875  -3.296  0.00  0.00     0.120 A 
ATOM      9  C   LIG d   1       2.985   0.039  -3.360  0.00  0.00    -0.020 A 
ATOM     10  C   LIG d   1       3.159  -1.319  -3.545  0.00  0.00    -0.055 A 
ATOM     11  H   LIG d   1       1.990   0.447  -3.262  0.00  0.00     0.065 H 
ATOM     12  H   LIG d   1       2.300  -1.972  -3.592  0.00  0.00     0.062 H 
BRANCH   6  13
ATOM     13  C   LIG d   1       6.568   1.255  -3.366  0.00  0.00     0.005 C 
ATOM     14  H   LIG d   1       7.070   1.127  -2.408  0.00  0.00     0.034 H 
ATOM     15  H   LIG d   1       6.247   2.292  -3.472  0.00  0.00     0.034 H 
BRANCH  13  16
ATOM     16  C   LIG d   1       7.533   0.902  -4.501  0.00  0.00     0.092 A 
ATOM     17  C   LIG d   1       8.854   1.669  -4.576  0.00  0.00     0.091 A 
ATOM     18  O   LIG d   1       7.784   1.896  -5.496  0.00  0.00    -0.365 OA
ATOM     19  H   LIG d   1       7.532  -0.141  -4.814  0.00  0.00     0.063 H 
BRANCH  17  20
ATOM     20  C   LIG d   1       9.121   2.737  -3.513  0.00  0.00    -0.034 C 
ATOM     21  H   LIG d   1       9.679   2.296  -2.687  0.00  0.00     0.026 H 
ATOM     22  H   LIG d   1       9.701   3.549  -3.952  0.00  0.00     0.026 H 
ATOM     23  H   LIG d   1       8.172   3.126  -3.144  0.00  0.00     0.026 H 
ENDBRANCH  17  20
BRANCH  17  24
ATOM     24  C   LIG d   1      10.086   0.919  -5.087  0.00  0.00    -0.034 C 
ATOM     25  H   LIG d   1      10.755   0.708  -4.252  0.00  0.00     0.026 H 
ATOM     26  H   LIG d   1       9.776  -0.017  -5.550  0.00  0.00     0.026 H 
ATOM     27  H   LIG d   1      10.606   1.533  -5.822  0.00  0.00     0.026 H 
ENDBRANCH  17  24
ENDBRANCH  13  16
ENDBRANCH   6  13
BRANCH   8  28
ATOM     28  O   LIG d   1       3.922   2.211  -3.109  0.00  0.00    -0.506 OA
ATOM     29  H   LIG d   1       3.134   2.441  -2.595  0.00  0.00     0.292 HD
ENDBRANCH   8  28
ENDBRANCH   1   4
BRANCH   1  30
ATOM     30  C   LIG d   1       5.044  -3.591  -5.321  0.00  0.00     0.238 A 
ATOM     31  O   LIG d   1       4.410  -2.657  -6.198  0.00  0.00    -0.439 OA
ATOM     32  C   LIG d   1       5.365  -1.944  -6.824  0.00  0.00     0.326 A 
ATOM     33  C   LIG d   1       6.688  -2.385  -6.380  0.00  0.00    -0.013 A 
ATOM     34  O   LIG d   1       5.159  -1.065  -7.639  0.00  0.00    -0.246 OA
ATOM     35  C   LIG d   1       6.532  -3.377  -5.471  0.00  0.00     0.013 A 
ATOM     36  O   LIG d   1       7.876  -1.880  -6.807  0.00  0.00    -0.869 OA
BRANCH  35  37
ATOM     37  C   LIG d   1       7.601  -4.104  -4.771  0.00  0.00    -0.018 A 
ATOM     38  C   LIG d   1       8.312  -3.483  -3.739  0.00  0.00    -0.051 A 
ATOM     39  C   LIG d   1       9.308  -4.171  -3.081  0.00  0.00    -0.020 A 
ATOM     40  H   LIG d   1       8.076  -2.468  -3.454  0.00  0.00     0.062 H 
ATOM     41  C   LIG d   1       9.616  -5.474  -3.451  0.00  0.00     0.117 A 
ATOM     42  H   LIG d   1       9.854  -3.694  -2.280  0.00  0.00     0.065 H 
ATOM     43  C   LIG d   1       8.917  -6.094  -4.480  0.00  0.00    -0.020 A 
ATOM     44  C   LIG d   1       7.915  -5.417  -5.139  0.00  0.00    -0.051 A 
ATOM     45  H   LIG d   1       9.160  -7.106  -4.763  0.00  0.00     0.065 H 
ATOM     46  H   LIG d   1       7.372  -5.899  -5.939  0.00  0.00     0.062 H 
BRANCH  41  47
ATOM     47  O   LIG d   1      10.603  -6.146  -2.804  0.00  0.00    -0.507 OA
ATOM     48  H   LIG d   1      11.189  -6.645  -3.389  0.00  0.00     0.292 HD
ENDBRANCH  41  47
ENDBRANCH  35  37
BRANCH  30  49
ATOM     49  C   LIG d   1       4.680  -5.000  -5.714  0.00  0.00     0.356 C 
ATOM     50  O   LIG d   1       4.074  -5.706  -4.943  0.00  0.00    -0.246 OA
BRANCH  49  51
ATOM     51  O   LIG d   1       5.031  -5.471  -6.921  0.00  0.00    -0.465 OA
BRANCH  51  52
ATOM     52  C   LIG d   1       3.977  -5.707  -7.857  0.00  0.00     0.082 C 
ATOM     53  H   LIG d   1       4.052  -6.726  -8.239  0.00  0.00     0.066 H 
ATOM     54  H   LIG d   1       3.015  -5.575  -7.361  0.00  0.00     0.066 H 
ATOM     55  H   LIG d   1       4.060  -5.002  -8.684  0.00  0.00     0.066 H 
ENDBRANCH  51  52
ENDBRANCH  49  51
ENDBRANCH  30  49
ENDBRANCH   1  30
TORSDOF 12
ENDMDL
MODEL 2
REMARK VINA RESULT:      -6.1      2.029      3.426
REMARK  12 active torsions:
REMARK  status: ('A' for Active; 'I' for Inactive)
REMARK    1  A    between atoms: C_1  and  C_2 
REMARK    2  A    between atoms: C_2  and  C_33 
REMARK    3  A    between atoms: C_3  and  C_6 
REMARK    4  A    between atoms: C_6  and  C_7 
REMARK    5  A    between atoms: C_9  and  C_14 
REMARK    6  A    between atoms: C_12  and  O_13 
REMARK    7  A    between atoms: C_14  and  C_15 
REMARK    8  A    between atoms: C_15  and  C_29 
REMARK    9  A    between atoms: C_16  and  C_22 
REMARK   10  A    between atoms: C_25  and  O_28 
REMARK   11  A    between atoms: C_29  and  O_31 
REMARK   12  A    between atoms: O_31  and  C_32 
ROOT
ATOM      1  C   LIG d   1       6.047  -2.574  -3.587  0.00  0.00     0.028 C 
ATOM      2  H   LIG d   1       6.706  -2.599  -2.719  0.00  0.00     0.036 H 
ATOM      3  H   LIG d   1       5.350  -3.409  -3.539  0.00  0.00     0.036 H 
ENDROOT
BRANCH   1   4
ATOM      4  C   LIG d   1       5.280  -1.277  -3.599  0.00  0.00    -0.042 A 
ATOM      5  C   LIG d   1       4.364  -1.026  -4.604  0.00  0.00    -0.052 A 
ATOM      6  C   LIG d   1       3.658   0.161  -4.616  0.00  0.00    -0.003 A 
ATOM      7  H   LIG d   1       4.200  -1.759  -5.380  0.00  0.00     0.062 H 
ATOM      8  C   LIG d   1       3.872   1.104  -3.622  0.00  0.00     0.120 A 
ATOM      9  C   LIG d   1       4.787   0.848  -2.611  0.00  0.00    -0.020 A 
ATOM     10  C   LIG d   1       5.490  -0.341  -2.603  0.00  0.00    -0.055 A 
ATOM     11  H   LIG d   1       4.952   1.578  -1.833  0.00  0.00     0.065 H 
ATOM     12  H   LIG d   1       6.206  -0.540  -1.818  0.00  0.00     0.062 H 
BRANCH   6  13
ATOM     13  C   LIG d   1       2.660   0.433  -5.712  0.00  0.00     0.005 C 
ATOM     14  H   LIG d   1       2.559   1.509  -5.853  0.00  0.00     0.034 H 
ATOM     15  H   LIG d   1       1.693   0.012  -5.436  0.00  0.00     0.034 H 
BRANCH  13  16
ATOM     16  C   LIG d   1       3.144  -0.210  -7.014  0.00  0.00     0.092 A 
ATOM     17  C   LIG d   1       3.194   0.667  -8.266  0.00  0.00     0.091 A 
ATOM     18  O   LIG d   1       2.204  -0.346  -8.081  0.00  0.00    -0.365 OA
ATOM     19  H   LIG d   1       3.904  -0.983  -6.904  0.00  0.00     0.063 H 
BRANCH  17  20
ATOM     20  C   LIG d   1       2.755   2.127  -8.132  0.00  0.00    -0.034 C 
ATOM     21  H   LIG d   1       3.474   2.770  -8.641  0.00  0.00     0.026 H 
ATOM     22  H   LIG d   1       1.771   2.253  -8.583  0.00  0.00     0.026 H 
ATOM     23  H   LIG d   1       2.710   2.397  -7.077  0.00  0.00     0.026 H 
ENDBRANCH  17  20
BRANCH  17  24
ATOM     24  C   LIG d   1       4.307   0.399  -9.281  0.00  0.00    -0.034 C 
ATOM     25  H   LIG d   1       5.051   1.195  -9.224  0.00  0.00     0.026 H 
ATOM     26  H   LIG d   1       4.779  -0.557  -9.059  0.00  0.00     0.026 H 
ATOM     27  H   LIG d   1       3.884   0.370 -10.285  0.00  0.00     0.026 H 
ENDBRANCH  17  24
ENDBRANCH  13  16
ENDBRANCH   6  13
BRANCH   8  28
ATOM     28  O   LIG d   1       3.183   2.275  -3.634  0.00  0.00    -0.506 OA
ATOM     29  H   LIG d   1       2.225   2.170  -3.546  0.00  0.00     0.292 HD
ENDBRANCH   8  28
ENDBRANCH   1   4
BRANCH   1  30
ATOM     30  C   LIG d   1       6.884  -2.681  -4.864  0.00  0.00     0.238 A 
ATOM     31  O   LIG d   1       6.920  -1.419  -5.536  0.00  0.00    -0.439 OA
ATOM     32  C   LIG d   1       8.201  -1.011  -5.608  0.00  0.00     0.326 A 
ATOM     33  C   LIG d   1       9.076  -2.001  -4.979  0.00  0.00    -0.013 A 
ATOM     34  O   LIG d   1       8.576   0.026  -6.121  0.00  0.00    -0.246 OA
ATOM     35  C   LIG d   1       8.315  -3.022  -4.518  0.00  0.00     0.013 A 
ATOM     36  O   LIG d   1      10.429  -1.910  -4.873  0.00  0.00    -0.869 OA
BRANCH  35  37
ATOM     37  C   LIG d   1       8.788  -4.226  -3.820  0.00  0.00    -0.018 A 
ATOM     38  C   LIG d   1       9.301  -4.128  -2.522  0.00  0.00    -0.051 A 
ATOM     39  C   LIG d   1       9.738  -5.261  -1.870  0.00  0.00    -0.020 A 
ATOM     40  H   LIG d   1       9.350  -3.168  -2.031  0.00  0.00     0.062 H 
ATOM     41  C   LIG d   1       9.681  -6.496  -2.504  0.00  0.00     0.117 A 
ATOM     42  H   LIG d   1      10.129  -5.187  -0.866  0.00  0.00     0.065 H 
ATOM     43  C   LIG d   1       9.178  -6.598  -3.795  0.00  0.00    -0.020 A 
ATOM     44  C   LIG d   1       8.733  -5.472  -4.454  0.00  0.00    -0.051 A 
ATOM     45  H   LIG d   1       9.136  -7.559  -4.283  0.00  0.00     0.065 H 
ATOM     46  H   LIG d   1       8.342  -5.553  -5.458  0.00  0.00     0.062 H 
BRANCH  41  47
ATOM     47  O   LIG d   1      10.118  -7.608  -1.859  0.00  0.00    -0.507 OA
ATOM     48  H   LIG d   1      10.886  -7.457  -1.290  0.00  0.00     0.292 HD
ENDBRANCH  41  47
ENDBRANCH  35  37
BRANCH  30  49
ATOM     49  C   LIG d   1       6.306  -3.735  -5.773  0.00  0.00     0.356 C 
ATOM     50  O   LIG d   1       6.734  -3.868  -6.895  0.00  0.00    -0.246 OA
BRANCH  49  51
ATOM     51  O   LIG d   1       5.312  -4.526  -5.336  0.00  0.00    -0.465 OA
BRANCH  51  52
ATOM     52  C   LIG d   1       4.251  -4.801  -6.253  0.00  0.00     0.082 C 
ATOM     53  H   LIG d   1       3.460  -5.349  -5.739  0.00  0.00     0.066 H 
ATOM     54  H   LIG d   1       3.851  -3.862  -6.637  0.00  0.00     0.066 H 
ATOM     55  H   LIG d   1       4.631  -5.401  -7.079  0.00  0.00     0.066 H 
ENDBRANCH  51  52
ENDBRANCH  49  51
ENDBRANCH  30  49
ENDBRANCH   1  30
TORSDOF 12
ENDMDL
MODEL 3
REMARK VINA RESULT:      -6.1      3.910      6.837
REMARK  12 active torsions:
REMARK  status: ('A' for Active; 'I' for Inactive)
REMARK    1  A    between atoms: C_1  and  C_2 
REMARK    2  A    between atoms: C_2  and  C_33 
REMARK    3  A    between atoms: C_3  and  C_6 
REMARK    4  A    between atoms: C_6  and  C_7 
REMARK    5  A    between atoms: C_9  and  C_14 
REMARK    6  A    between atoms: C_12  and  O_13 
REMARK    7  A    between atoms: C_14  and  C_15 
REMARK    8  A    between atoms: C_15  and  C_29 
REMARK    9  A    between atoms: C_16  and  C_22 
REMARK   10  A    between atoms: C_25  and  O_28 
REMARK   11  A    between atoms: C_29  and  O_31 
REMARK   12  A    between atoms: O_31  and  C_32 
ROOT
ATOM      1  C   LIG d   1       5.575  -1.663  -8.717  0.00  0.00     0.028 C 
ATOM      2  H   LIG d   1       6.222  -1.292  -9.512  0.00  0.00     0.036 H 
ATOM      3  H   LIG d   1       5.553  -2.752  -8.745  0.00  0.00     0.036 H 
ENDROOT
BRANCH   1   4
ATOM      4  C   LIG d   1       6.103  -1.204  -7.383  0.00  0.00    -0.042 A 
ATOM      5  C   LIG d   1       5.731  -1.868  -6.228  0.00  0.00    -0.052 A 
ATOM      6  C   LIG d   1       6.216  -1.450  -5.004  0.00  0.00    -0.003 A 
ATOM      7  H   LIG d   1       5.063  -2.714  -6.283  0.00  0.00     0.062 H 
ATOM      8  C   LIG d   1       7.070  -0.360  -4.932  0.00  0.00     0.120 A 
ATOM      9  C   LIG d   1       7.446   0.302  -6.093  0.00  0.00    -0.020 A 
ATOM     10  C   LIG d   1       6.960  -0.120  -7.315  0.00  0.00    -0.055 A 
ATOM     11  H   LIG d   1       8.115   1.148  -6.041  0.00  0.00     0.065 H 
ATOM     12  H   LIG d   1       7.249   0.396  -8.218  0.00  0.00     0.062 H 
BRANCH   6  13
ATOM     13  C   LIG d   1       5.810  -2.174  -3.746  0.00  0.00     0.005 C 
ATOM     14  H   LIG d   1       6.217  -1.654  -2.879  0.00  0.00     0.034 H 
ATOM     15  H   LIG d   1       6.198  -3.193  -3.772  0.00  0.00     0.034 H 
BRANCH  13  16
ATOM     16  C   LIG d   1       4.283  -2.213  -3.649  0.00  0.00     0.092 A 
ATOM     17  C   LIG d   1       3.605  -1.228  -2.695  0.00  0.00     0.091 A 
ATOM     18  O   LIG d   1       3.703  -2.625  -2.410  0.00  0.00    -0.365 OA
ATOM     19  H   LIG d   1       3.758  -2.474  -4.567  0.00  0.00     0.063 H 
BRANCH  17  20
ATOM     20  C   LIG d   1       4.499  -0.273  -1.901  0.00  0.00    -0.034 C 
ATOM     21  H   LIG d   1       3.880   0.360  -1.266  0.00  0.00     0.026 H 
ATOM     22  H   LIG d   1       5.186  -0.849  -1.282  0.00  0.00     0.026 H 
ATOM     23  H   LIG d   1       5.067   0.350  -2.592  0.00  0.00     0.026 H 
ENDBRANCH  17  20
BRANCH  17  24
ATOM     24  C   LIG d   1       2.234  -0.676  -3.094  0.00  0.00    -0.034 C 
ATOM     25  H   LIG d   1       1.708  -1.415  -3.699  0.00  0.00     0.026 H 
ATOM     26  H   LIG d   1       1.654  -0.461  -2.196  0.00  0.00     0.026 H 
ATOM     27  H   LIG d   1       2.364   0.239  -3.670  0.00  0.00     0.026 H 
ENDBRANCH  17  24
ENDBRANCH  13  16
ENDBRANCH   6  13
BRANCH   8  28
ATOM     28  O   LIG d   1       7.543   0.057  -3.728  0.00  0.00    -0.506 OA
ATOM     29  H   LIG d   1       8.334   0.611  -3.786  0.00  0.00     0.292 HD
ENDBRANCH   8  28
ENDBRANCH   1   4
BRANCH   1  30
ATOM     30  C   LIG d   1       4.159  -1.120  -8.919  0.00  0.00     0.238 A 
ATOM     31  O   LIG d   1       3.767  -0.336  -7.788  0.00  0.00    -0.439 OA
ATOM     32  C   LIG d   1       3.517   0.919  -8.206  0.00  0.00     0.326 A 
ATOM     33  C   LIG d   1       3.735   1.017  -9.649  0.00  0.00    -0.013 A 
ATOM     34  O   LIG d   1       3.162   1.835  -7.489  0.00  0.00    -0.246 OA
ATOM     35  C   LIG d   1       4.124  -0.195 -10.112  0.00  0.00     0.013 A 
ATOM     36  O   LIG d   1       3.575   2.140 -10.401  0.00  0.00    -0.869 OA
BRANCH  35  37
ATOM     37  C   LIG d   1       4.447  -0.542 -11.504  0.00  0.00    -0.018 A 
ATOM     38  C   LIG d   1       5.782  -0.646 -11.909  0.00  0.00    -0.051 A 
ATOM     39  C   LIG d   1       6.079  -0.977 -13.213  0.00  0.00    -0.020 A 
ATOM     40  H   LIG d   1       6.578  -0.471 -11.201  0.00  0.00     0.062 H 
ATOM     41  C   LIG d   1       5.056  -1.196 -14.128  0.00  0.00     0.117 A 
ATOM     42  H   LIG d   1       7.110  -1.063 -13.526  0.00  0.00     0.065 H 
ATOM     43  C   LIG d   1       3.728  -1.088 -13.732  0.00  0.00    -0.020 A 
ATOM     44  C   LIG d   1       3.421  -0.763 -12.429  0.00  0.00    -0.051 A 
ATOM     45  H   LIG d   1       2.937  -1.259 -14.446  0.00  0.00     0.065 H 
ATOM     46  H   LIG d   1       2.388  -0.680 -12.122  0.00  0.00     0.062 H 
BRANCH  41  47
ATOM     47  O   LIG d   1       5.355  -1.517 -15.412  0.00  0.00    -0.507 OA
ATOM     48  H   LIG d   1       4.867  -2.281 -15.751  0.00  0.00     0.292 HD
ENDBRANCH  41  47
ENDBRANCH  35  37
BRANCH  30  49
ATOM     49  C   LIG d   1       3.192  -2.259  -9.117  0.00  0.00     0.356 C 
ATOM     50  O   LIG d   1       3.551  -3.397  -8.925  0.00  0.00    -0.246 OA
BRANCH  49  51
ATOM     51  O   LIG d   1       1.932  -2.010  -9.509  0.00  0.00    -0.465 OA
BRANCH  51  52
ATOM     52  C   LIG d   1       1.311  -2.981 -10.353  0.00  0.00     0.082 C 
ATOM     53  H   LIG d   1       1.267  -2.601 -11.374  0.00  0.00     0.066 H 
ATOM     54  H   LIG d   1       1.892  -3.904 -10.334  0.00  0.00     0.066 H 
ATOM     55  H   LIG d   1       0.301  -3.180  -9.996  0.00  0.00     0.066 H 
ENDBRANCH  51  52
ENDBRANCH  49  51
ENDBRANCH  30  49
ENDBRANCH   1  30
TORSDOF 12
ENDMDL
MODEL 4
REMARK VINA RESULT:      -6.0      3.057      6.061
REMARK  12 active torsions:
REMARK  status: ('A' for Active; 'I' for Inactive)
REMARK    1  A    between atoms: C_1  and  C_2 
REMARK    2  A    between atoms: C_2  and  C_33 
REMARK    3  A    between atoms: C_3  and  C_6 
REMARK    4  A    between atoms: C_6  and  C_7 
REMARK    5  A    between atoms: C_9  and  C_14 
REMARK    6  A    between atoms: C_12  and  O_13 
REMARK    7  A    between atoms: C_14  and  C_15 
REMARK    8  A    between atoms: C_15  and  C_29 
REMARK    9  A    between atoms: C_16  and  C_22 
REMARK   10  A    between atoms: C_25  and  O_28 
REMARK   11  A    between atoms: C_29  and  O_31 
REMARK   12  A    between atoms: O_31  and  C_32 
ROOT
ATOM      1  C   LIG d   1       6.344  -1.047  -7.012  0.00  0.00     0.028 C 
ATOM      2  H   LIG d   1       6.007  -2.069  -7.185  0.00  0.00     0.036 H 
ATOM      3  H   LIG d   1       7.410  -0.974  -7.227  0.00  0.00     0.036 H 
ENDROOT
BRANCH   1   4
ATOM      4  C   LIG d   1       5.584  -0.108  -7.911  0.00  0.00    -0.042 A 
ATOM      5  C   LIG d   1       4.323  -0.452  -8.361  0.00  0.00    -0.052 A 
ATOM      6  C   LIG d   1       3.622   0.409  -9.183  0.00  0.00    -0.003 A 
ATOM      7  H   LIG d   1       3.884  -1.394  -8.068  0.00  0.00     0.062 H 
ATOM      8  C   LIG d   1       4.188   1.617  -9.563  0.00  0.00     0.120 A 
ATOM      9  C   LIG d   1       5.452   1.963  -9.107  0.00  0.00    -0.020 A 
ATOM     10  C   LIG d   1       6.148   1.100  -8.284  0.00  0.00    -0.055 A 
ATOM     11  H   LIG d   1       5.893   2.905  -9.397  0.00  0.00     0.065 H 
ATOM     12  H   LIG d   1       7.133   1.366  -7.930  0.00  0.00     0.062 H 
BRANCH   6  13
ATOM     13  C   LIG d   1       2.248   0.033  -9.673  0.00  0.00     0.005 C 
ATOM     14  H   LIG d   1       2.091   0.444 -10.669  0.00  0.00     0.034 H 
ATOM     15  H   LIG d   1       1.497   0.436  -8.992  0.00  0.00     0.034 H 
BRANCH  13  16
ATOM     16  C   LIG d   1       2.124  -1.492  -9.723  0.00  0.00     0.092 A 
ATOM     17  C   LIG d   1       2.245  -2.172 -11.088  0.00  0.00     0.091 A 
ATOM     18  O   LIG d   1       0.997  -2.048 -10.403  0.00  0.00    -0.365 OA
ATOM     19  H   LIG d   1       2.507  -2.026  -8.854  0.00  0.00     0.063 H 
BRANCH  17  20
ATOM     20  C   LIG d   1       2.479  -1.281 -12.310  0.00  0.00    -0.034 C 
ATOM     21  H   LIG d   1       1.845  -1.617 -13.131  0.00  0.00     0.026 H 
ATOM     22  H   LIG d   1       2.233  -0.249 -12.060  0.00  0.00     0.026 H 
ATOM     23  H   LIG d   1       3.525  -1.344 -12.610  0.00  0.00     0.026 H 
ENDBRANCH  17  20
BRANCH  17  24
ATOM     24  C   LIG d   1       2.894  -3.556 -11.142  0.00  0.00    -0.034 C 
ATOM     25  H   LIG d   1       3.366  -3.698 -12.115  0.00  0.00     0.026 H 
ATOM     26  H   LIG d   1       3.647  -3.634 -10.358  0.00  0.00     0.026 H 
ATOM     27  H   LIG d   1       2.133  -4.321 -10.992  0.00  0.00     0.026 H 
ENDBRANCH  17  24
ENDBRANCH  13  16
ENDBRANCH   6  13
BRANCH   8  28
ATOM     28  O   LIG d   1       3.504   2.463 -10.378  0.00  0.00    -0.506 OA
ATOM     29  H   LIG d   1       3.548   3.391 -10.108  0.00  0.00     0.292 HD
ENDBRANCH   8  28
ENDBRANCH   1   4
BRANCH   1  30
ATOM     30  C   LIG d   1       6.092  -0.670  -5.550  0.00  0.00     0.238 A 
ATOM     31  O   LIG d   1       4.862   0.051  -5.435  0.00  0.00    -0.439 OA
ATOM     32  C   LIG d   1       4.035  -0.644  -4.631  0.00  0.00     0.326 A 
ATOM     33  C   LIG d   1       4.695  -1.869  -4.176  0.00  0.00    -0.013 A 
ATOM     34  O   LIG d   1       2.908  -0.304  -4.327  0.00  0.00    -0.246 OA
ATOM     35  C   LIG d   1       5.937  -1.917  -4.713  0.00  0.00     0.013 A 
ATOM     36  O   LIG d   1       4.149  -2.804  -3.353  0.00  0.00    -0.869 OA
BRANCH  35  37
ATOM     37  C   LIG d   1       6.939  -2.975  -4.516  0.00  0.00    -0.018 A 
ATOM     38  C   LIG d   1       6.881  -4.146  -5.280  0.00  0.00    -0.051 A 
ATOM     39  C   LIG d   1       7.826  -5.132  -5.096  0.00  0.00    -0.020 A 
ATOM     40  H   LIG d   1       6.100  -4.275  -6.015  0.00  0.00     0.062 H 
ATOM     41  C   LIG d   1       8.827  -4.970  -4.147  0.00  0.00     0.117 A 
ATOM     42  H   LIG d   1       7.785  -6.035  -5.689  0.00  0.00     0.065 H 
ATOM     43  C   LIG d   1       8.886  -3.812  -3.382  0.00  0.00    -0.020 A 
ATOM     44  C   LIG d   1       7.949  -2.817  -3.561  0.00  0.00    -0.051 A 
ATOM     45  H   LIG d   1       9.665  -3.691  -2.645  0.00  0.00     0.065 H 
ATOM     46  H   LIG d   1       7.996  -1.917  -2.966  0.00  0.00     0.062 H 
BRANCH  41  47
ATOM     47  O   LIG d   1       9.752  -5.947  -3.966  0.00  0.00    -0.507 OA
ATOM     48  H   LIG d   1       9.388  -6.843  -3.987  0.00  0.00     0.292 HD
ENDBRANCH  41  47
ENDBRANCH  35  37
BRANCH  30  49
ATOM     49  C   LIG d   1       7.233   0.166  -5.029  0.00  0.00     0.356 C 
ATOM     50  O   LIG d   1       8.351  -0.004  -5.454  0.00  0.00    -0.246 OA
BRANCH  49  51
ATOM     51  O   LIG d   1       7.006   1.101  -4.092  0.00  0.00    -0.465 OA
BRANCH  51  52
ATOM     52  C   LIG d   1       8.043   2.059  -3.866  0.00  0.00     0.082 C 
ATOM     53  H   LIG d   1       7.621   2.945  -3.391  0.00  0.00     0.066 H 
ATOM     54  H   LIG d   1       8.802   1.625  -3.215  0.00  0.00     0.066 H 
ATOM     55  H   LIG d   1       8.494   2.336  -4.818  0.00  0.00     0.066 H 
ENDBRANCH  51  52
ENDBRANCH  49  51
ENDBRANCH  30  49
ENDBRANCH   1  30
TORSDOF 12
ENDMDL
MODEL 5
REMARK VINA RESULT:      -6.0      3.508      6.966
REMARK  12 active torsions:
REMARK  status: ('A' for Active; 'I' for Inactive)
REMARK    1  A    between atoms: C_1  and  C_2 
REMARK    2  A    between atoms: C_2  and  C_33 
REMARK    3  A    between atoms: C_3  and  C_6 
REMARK    4  A    between atoms: C_6  and  C_7 
REMARK    5  A    between atoms: C_9  and  C_14 
REMARK    6  A    between atoms: C_12  and  O_13 
REMARK    7  A    between atoms: C_14  and  C_15 
REMARK    8  A    between atoms: C_15  and  C_29 
REMARK    9  A    between atoms: C_16  and  C_22 
REMARK   10  A    between atoms: C_25  and  O_28 
REMARK   11  A    between atoms: C_29  and  O_31 
REMARK   12  A    between atoms: O_31  and  C_32 
ROOT
ATOM      1  C   LIG d   1       4.871  -2.152  -7.899  0.00  0.00     0.028 C 
ATOM      2  H   LIG d   1       5.052  -2.931  -8.639  0.00  0.00     0.036 H 
ATOM      3  H   LIG d   1       3.913  -2.329  -7.411  0.00  0.00     0.036 H 
ENDROOT
BRANCH   1   4
ATOM      4  C   LIG d   1       5.971  -2.169  -6.869  0.00  0.00    -0.042 A 
ATOM      5  C   LIG d   1       5.698  -1.813  -5.561  0.00  0.00    -0.052 A 
ATOM      6  C   LIG d   1       6.705  -1.831  -4.616  0.00  0.00    -0.003 A 
ATOM      7  H   LIG d   1       4.697  -1.523  -5.279  0.00  0.00     0.062 H 
ATOM      8  C   LIG d   1       7.991  -2.199  -4.980  0.00  0.00     0.120 A 
ATOM      9  C   LIG d   1       8.261  -2.561  -6.292  0.00  0.00    -0.020 A 
ATOM     10  C   LIG d   1       7.252  -2.543  -7.234  0.00  0.00    -0.055 A 
ATOM     11  H   LIG d   1       9.261  -2.854  -6.577  0.00  0.00     0.065 H 
ATOM     12  H   LIG d   1       7.462  -2.821  -8.256  0.00  0.00     0.062 H 
BRANCH   6  13
ATOM     13  C   LIG d   1       6.406  -1.443  -3.190  0.00  0.00     0.005 C 
ATOM     14  H   LIG d   1       6.647  -0.391  -3.042  0.00  0.00     0.034 H 
ATOM     15  H   LIG d   1       7.007  -2.052  -2.514  0.00  0.00     0.034 H 
BRANCH  13  16
ATOM     16  C   LIG d   1       4.921  -1.674  -2.899  0.00  0.00     0.092 A 
ATOM     17  C   LIG d   1       4.103  -0.488  -2.386  0.00  0.00     0.091 A 
ATOM     18  O   LIG d   1       4.484  -1.576  -1.542  0.00  0.00    -0.365 OA
ATOM     19  H   LIG d   1       4.420  -2.396  -3.543  0.00  0.00     0.063 H 
BRANCH  17  20
ATOM     20  C   LIG d   1       4.825   0.848  -2.197  0.00  0.00    -0.034 C 
ATOM     21  H   LIG d   1       4.584   1.512  -3.028  0.00  0.00     0.026 H 
ATOM     22  H   LIG d   1       4.504   1.306  -1.261  0.00  0.00     0.026 H 
ATOM     23  H   LIG d   1       5.901   0.678  -2.169  0.00  0.00     0.026 H 
ENDBRANCH  17  20
BRANCH  17  24
ATOM     24  C   LIG d   1       2.636  -0.395  -2.811  0.00  0.00    -0.034 C 
ATOM     25  H   LIG d   1       2.310   0.645  -2.766  0.00  0.00     0.026 H 
ATOM     26  H   LIG d   1       2.529  -0.766  -3.830  0.00  0.00     0.026 H 
ATOM     27  H   LIG d   1       2.024  -0.997  -2.140  0.00  0.00     0.026 H 
ENDBRANCH  17  24
ENDBRANCH  13  16
ENDBRANCH   6  13
BRANCH   8  28
ATOM     28  O   LIG d   1       8.984  -2.211  -4.052  0.00  0.00    -0.506 OA
ATOM     29  H   LIG d   1       9.101  -3.064  -3.611  0.00  0.00     0.292 HD
ENDBRANCH   8  28
ENDBRANCH   1   4
BRANCH   1  30
ATOM     30  C   LIG d   1       4.845  -0.788  -8.593  0.00  0.00     0.238 A 
ATOM     31  O   LIG d   1       6.150  -0.204  -8.578  0.00  0.00    -0.439 OA
ATOM     32  C   LIG d   1       6.550  -0.022  -9.851  0.00  0.00     0.326 A 
ATOM     33  C   LIG d   1       5.509  -0.484 -10.771  0.00  0.00    -0.013 A 
ATOM     34  O   LIG d   1       7.616   0.456 -10.187  0.00  0.00    -0.246 OA
ATOM     35  C   LIG d   1       4.466  -0.953 -10.046  0.00  0.00     0.013 A 
ATOM     36  O   LIG d   1       5.580  -0.449 -12.129  0.00  0.00    -0.869 OA
BRANCH  35  37
ATOM     37  C   LIG d   1       3.211  -1.512 -10.570  0.00  0.00    -0.018 A 
ATOM     38  C   LIG d   1       3.006  -2.896 -10.570  0.00  0.00    -0.051 A 
ATOM     39  C   LIG d   1       1.826  -3.414 -11.056  0.00  0.00    -0.020 A 
ATOM     40  H   LIG d   1       3.768  -3.556 -10.184  0.00  0.00     0.062 H 
ATOM     41  C   LIG d   1       0.846  -2.566 -11.559  0.00  0.00     0.117 A 
ATOM     42  H   LIG d   1       1.663  -4.482 -11.052  0.00  0.00     0.065 H 
ATOM     43  C   LIG d   1       1.048  -1.191 -11.567  0.00  0.00    -0.020 A 
ATOM     44  C   LIG d   1       2.222  -0.662 -11.077  0.00  0.00    -0.051 A 
ATOM     45  H   LIG d   1       0.284  -0.536 -11.958  0.00  0.00     0.065 H 
ATOM     46  H   LIG d   1       2.378   0.406 -11.084  0.00  0.00     0.062 H 
BRANCH  41  47
ATOM     47  O   LIG d   1      -0.313  -3.082 -12.042  0.00  0.00    -0.507 OA
ATOM     48  H   LIG d   1      -0.309  -3.231 -12.998  0.00  0.00     0.292 HD
ENDBRANCH  41  47
ENDBRANCH  35  37
BRANCH  30  49
ATOM     49  C   LIG d   1       3.863   0.124  -7.902  0.00  0.00     0.356 C 
ATOM     50  O   LIG d   1       2.933  -0.343  -7.288  0.00  0.00    -0.246 OA
BRANCH  49  51
ATOM     51  O   LIG d   1       4.022   1.456  -7.970  0.00  0.00    -0.465 OA
BRANCH  51  52
ATOM     52  C   LIG d   1       3.046   2.189  -8.714  0.00  0.00     0.082 C 
ATOM     53  H   LIG d   1       2.447   1.497  -9.307  0.00  0.00     0.066 H 
ATOM     54  H   LIG d   1       2.398   2.732  -8.026  0.00  0.00     0.066 H 
ATOM     55  H   LIG d   1       3.549   2.894  -9.375  0.00  0.00     0.066 H 
ENDBRANCH  51  52
ENDBRANCH  49  51
ENDBRANCH  30  49
ENDBRANCH   1  30
TORSDOF 12
ENDMDL
MODEL 6
REMARK VINA RESULT:      -6.0      2.832      6.302
REMARK  12 active torsions:
REMARK  status: ('A' for Active; 'I' for Inactive)
REMARK    1  A    between atoms: C_1  and  C_2 
REMARK    2  A    between atoms: C_2  and  C_33 
REMARK    3  A    between atoms: C_3  and  C_6 
REMARK    4  A    between atoms: C_6  and  C_7 
REMARK    5  A    between atoms: C_9  and  C_14 
REMARK    6  A    between atoms: C_12  and  O_13 
REMARK    7  A    between atoms: C_14  and  C_15 
REMARK    8  A    between atoms: C_15  and  C_29 
REMARK    9  A    between atoms: C_16  and  C_22 
REMARK   10  A    between atoms: C_25  and  O_28 
REMARK   11  A    between atoms: C_29  and  O_31 
REMARK   12  A    between atoms: O_31  and  C_32 
ROOT
ATOM      1  C   LIG d   1       6.836  -2.936  -7.960  0.00  0.00     0.028 C 
ATOM      2  H   LIG d   1       6.120  -2.121  -8.067  0.00  0.00     0.036 H 
ATOM      3  H   LIG d   1       7.666  -2.784  -8.649  0.00  0.00     0.036 H 
ENDROOT
BRANCH   1   4
ATOM      4  C   LIG d   1       7.355  -2.967  -6.546  0.00  0.00    -0.042 A 
ATOM      5  C   LIG d   1       6.573  -2.485  -5.513  0.00  0.00    -0.052 A 
ATOM      6  C   LIG d   1       7.045  -2.515  -4.215  0.00  0.00    -0.003 A 
ATOM      7  H   LIG d   1       5.591  -2.086  -5.720  0.00  0.00     0.062 H 
ATOM      8  C   LIG d   1       8.308  -3.023  -3.950  0.00  0.00     0.120 A 
ATOM      9  C   LIG d   1       9.090  -3.511  -4.987  0.00  0.00    -0.020 A 
ATOM     10  C   LIG d   1       8.612  -3.481  -6.283  0.00  0.00    -0.055 A 
ATOM     11  H   LIG d   1      10.071  -3.912  -4.783  0.00  0.00     0.065 H 
ATOM     12  H   LIG d   1       9.221  -3.857  -7.092  0.00  0.00     0.062 H 
BRANCH   6  13
ATOM     13  C   LIG d   1       6.192  -1.989  -3.090  0.00  0.00     0.005 C 
ATOM     14  H   LIG d   1       6.468  -0.957  -2.876  0.00  0.00     0.034 H 
ATOM     15  H   LIG d   1       6.348  -2.598  -2.200  0.00  0.00     0.034 H 
BRANCH  13  16
ATOM     16  C   LIG d   1       4.718  -2.050  -3.497  0.00  0.00     0.092 A 
ATOM     17  C   LIG d   1       3.749  -1.085  -2.811  0.00  0.00     0.091 A 
ATOM     18  O   LIG d   1       3.772  -2.484  -2.517  0.00  0.00    -0.365 OA
ATOM     19  H   LIG d   1       4.525  -2.309  -4.537  0.00  0.00     0.063 H 
BRANCH  17  20
ATOM     20  C   LIG d   1       4.319  -0.126  -1.764  0.00  0.00    -0.034 C 
ATOM     21  H   LIG d   1       5.391  -0.009  -1.925  0.00  0.00     0.026 H 
ATOM     22  H   LIG d   1       3.829   0.843  -1.854  0.00  0.00     0.026 H 
ATOM     23  H   LIG d   1       4.144  -0.531  -0.767  0.00  0.00     0.026 H 
ENDBRANCH  17  20
BRANCH  17  24
ATOM     24  C   LIG d   1       2.574  -0.549  -3.632  0.00  0.00    -0.034 C 
ATOM     25  H   LIG d   1       2.818  -0.603  -4.693  0.00  0.00     0.026 H 
ATOM     26  H   LIG d   1       1.687  -1.150  -3.431  0.00  0.00     0.026 H 
ATOM     27  H   LIG d   1       2.380   0.487  -3.356  0.00  0.00     0.026 H 
ENDBRANCH  17  24
ENDBRANCH  13  16
ENDBRANCH   6  13
BRANCH   8  28
ATOM     28  O   LIG d   1       8.778  -3.047  -2.675  0.00  0.00    -0.506 OA
ATOM     29  H   LIG d   1       9.712  -3.291  -2.604  0.00  0.00     0.292 HD
ENDBRANCH   8  28
ENDBRANCH   1   4
BRANCH   1  30
ATOM     30  C   LIG d   1       6.146  -4.264  -8.279  0.00  0.00     0.238 A 
ATOM     31  O   LIG d   1       6.678  -5.305  -7.455  0.00  0.00    -0.439 OA
ATOM     32  C   LIG d   1       5.679  -5.809  -6.706  0.00  0.00     0.326 A 
ATOM     33  C   LIG d   1       4.428  -5.113  -7.010  0.00  0.00    -0.013 A 
ATOM     34  O   LIG d   1       5.799  -6.710  -5.899  0.00  0.00    -0.246 OA
ATOM     35  C   LIG d   1       4.673  -4.173  -7.954  0.00  0.00     0.013 A 
ATOM     36  O   LIG d   1       3.221  -5.367  -6.437  0.00  0.00    -0.869 OA
BRANCH  35  37
ATOM     37  C   LIG d   1       3.696  -3.248  -8.547  0.00  0.00    -0.018 A 
ATOM     38  C   LIG d   1       2.823  -3.696  -9.545  0.00  0.00    -0.051 A 
ATOM     39  C   LIG d   1       1.905  -2.826 -10.092  0.00  0.00    -0.020 A 
ATOM     40  H   LIG d   1       2.864  -4.721  -9.880  0.00  0.00     0.062 H 
ATOM     41  C   LIG d   1       1.855  -1.505  -9.666  0.00  0.00     0.117 A 
ATOM     42  H   LIG d   1       1.226  -3.172 -10.859  0.00  0.00     0.065 H 
ATOM     43  C   LIG d   1       2.724  -1.054  -8.680  0.00  0.00    -0.020 A 
ATOM     44  C   LIG d   1       3.641  -1.917  -8.121  0.00  0.00    -0.051 A 
ATOM     45  H   LIG d   1       2.681  -0.027  -8.352  0.00  0.00     0.065 H 
ATOM     46  H   LIG d   1       4.317  -1.565  -7.355  0.00  0.00     0.062 H 
BRANCH  41  47
ATOM     47  O   LIG d   1       0.952  -0.651 -10.214  0.00  0.00    -0.507 OA
ATOM     48  H   LIG d   1       0.220  -0.421  -9.625  0.00  0.00     0.292 HD
ENDBRANCH  41  47
ENDBRANCH  35  37
BRANCH  30  49
ATOM     49  C   LIG d   1       6.335  -4.608  -9.734  0.00  0.00     0.356 C 
ATOM     50  O   LIG d   1       6.543  -3.732 -10.540  0.00  0.00    -0.246 OA
BRANCH  49  51
ATOM     51  O   LIG d   1       6.273  -5.888 -10.135  0.00  0.00    -0.465 OA
BRANCH  51  52
ATOM     52  C   LIG d   1       5.185  -6.248 -10.988  0.00  0.00     0.082 C 
ATOM     53  H   LIG d   1       5.385  -7.219 -11.443  0.00  0.00     0.066 H 
ATOM     54  H   LIG d   1       4.267  -6.305 -10.402  0.00  0.00     0.066 H 
ATOM     55  H   LIG d   1       5.071  -5.497 -11.769  0.00  0.00     0.066 H 
ENDBRANCH  51  52
ENDBRANCH  49  51
ENDBRANCH  30  49
ENDBRANCH   1  30
TORSDOF 12
ENDMDL
MODEL 7
REMARK VINA RESULT:      -5.9      2.217      7.650
REMARK  12 active torsions:
REMARK  status: ('A' for Active; 'I' for Inactive)
REMARK    1  A    between atoms: C_1  and  C_2 
REMARK    2  A    between atoms: C_2  and  C_33 
REMARK    3  A    between atoms: C_3  and  C_6 
REMARK    4  A    between atoms: C_6  and  C_7 
REMARK    5  A    between atoms: C_9  and  C_14 
REMARK    6  A    between atoms: C_12  and  O_13 
REMARK    7  A    between atoms: C_14  and  C_15 
REMARK    8  A    between atoms: C_15  and  C_29 
REMARK    9  A    between atoms: C_16  and  C_22 
REMARK   10  A    between atoms: C_25  and  O_28 
REMARK   11  A    between atoms: C_29  and  O_31 
REMARK   12  A    between atoms: O_31  and  C_32 
ROOT
ATOM      1  C   LIG d   1       8.286  -2.856  -3.264  0.00  0.00     0.028 C 
ATOM      2  H   LIG d   1       7.578  -3.118  -2.477  0.00  0.00     0.036 H 
ATOM      3  H   LIG d   1       8.660  -1.847  -3.096  0.00  0.00     0.036 H 
ENDROOT
BRANCH   1   4
ATOM      4  C   LIG d   1       9.436  -3.829  -3.251  0.00  0.00    -0.042 A 
ATOM      5  C   LIG d   1       9.336  -5.007  -2.534  0.00  0.00    -0.052 A 
ATOM      6  C   LIG d   1      10.388  -5.901  -2.521  0.00  0.00    -0.003 A 
ATOM      7  H   LIG d   1       8.433  -5.228  -1.983  0.00  0.00     0.062 H 
ATOM      8  C   LIG d   1      11.549  -5.614  -3.223  0.00  0.00     0.120 A 
ATOM      9  C   LIG d   1      11.646  -4.434  -3.947  0.00  0.00    -0.020 A 
ATOM     10  C   LIG d   1      10.591  -3.543  -3.957  0.00  0.00    -0.055 A 
ATOM     11  H   LIG d   1      12.547  -4.210  -4.499  0.00  0.00     0.065 H 
ATOM     12  H   LIG d   1      10.666  -2.623  -4.517  0.00  0.00     0.062 H 
BRANCH   6  13
ATOM     13  C   LIG d   1      10.277  -7.185  -1.739  0.00  0.00     0.005 C 
ATOM     14  H   LIG d   1      10.142  -6.956  -0.683  0.00  0.00     0.034 H 
ATOM     15  H   LIG d   1      11.188  -7.770  -1.871  0.00  0.00     0.034 H 
BRANCH  13  16
ATOM     16  C   LIG d   1       9.077  -7.988  -2.246  0.00  0.00     0.092 A 
ATOM     17  C   LIG d   1       8.801  -9.344  -1.593  0.00  0.00     0.091 A 
ATOM     18  O   LIG d   1       9.336  -9.226  -2.913  0.00  0.00    -0.365 OA
ATOM     19  H   LIG d   1       8.222  -7.401  -2.580  0.00  0.00     0.063 H 
BRANCH  17  20
ATOM     20  C   LIG d   1       9.743  -9.805  -0.479  0.00  0.00    -0.034 C 
ATOM     21  H   LIG d   1      10.776  -9.629  -0.782  0.00  0.00     0.026 H 
ATOM     22  H   LIG d   1       9.531  -9.245   0.432  0.00  0.00     0.026 H 
ATOM     23  H   LIG d   1       9.595 -10.869  -0.296  0.00  0.00     0.026 H 
ENDBRANCH  17  20
BRANCH  17  24
ATOM     24  C   LIG d   1       7.342  -9.785  -1.453  0.00  0.00    -0.034 C 
ATOM     25  H   LIG d   1       7.087 -10.459  -2.271  0.00  0.00     0.026 H 
ATOM     26  H   LIG d   1       7.208 -10.299  -0.502  0.00  0.00     0.026 H 
ATOM     27  H   LIG d   1       6.693  -8.910  -1.488  0.00  0.00     0.026 H 
ENDBRANCH  17  24
ENDBRANCH  13  16
ENDBRANCH   6  13
BRANCH   8  28
ATOM     28  O   LIG d   1      12.589  -6.489  -3.208  0.00  0.00    -0.506 OA
ATOM     29  H   LIG d   1      13.065  -6.521  -2.366  0.00  0.00     0.292 HD
ENDBRANCH   8  28
ENDBRANCH   1   4
BRANCH   1  30
ATOM     30  C   LIG d   1       7.582  -2.919  -4.622  0.00  0.00     0.238 A 
ATOM     31  O   LIG d   1       7.856  -4.169  -5.260  0.00  0.00    -0.439 OA
ATOM     32  C   LIG d   1       6.689  -4.815  -5.451  0.00  0.00     0.326 A 
ATOM     33  C   LIG d   1       5.582  -4.005  -4.941  0.00  0.00    -0.013 A 
ATOM     34  O   LIG d   1       6.574  -5.907  -5.972  0.00  0.00    -0.246 OA
ATOM     35  C   LIG d   1       6.085  -2.855  -4.433  0.00  0.00     0.013 A 
ATOM     36  O   LIG d   1       4.268  -4.352  -4.971  0.00  0.00    -0.869 OA
BRANCH  35  37
ATOM     37  C   LIG d   1       5.321  -1.758  -3.819  0.00  0.00    -0.018 A 
ATOM     38  C   LIG d   1       5.129  -1.727  -2.433  0.00  0.00    -0.051 A 
ATOM     39  C   LIG d   1       4.419  -0.694  -1.862  0.00  0.00    -0.020 A 
ATOM     40  H   LIG d   1       5.541  -2.509  -1.812  0.00  0.00     0.062 H 
ATOM     41  C   LIG d   1       3.883   0.309  -2.661  0.00  0.00     0.117 A 
ATOM     42  H   LIG d   1       4.274  -0.667  -0.792  0.00  0.00     0.065 H 
ATOM     43  C   LIG d   1       4.067   0.280  -4.038  0.00  0.00    -0.020 A 
ATOM     44  C   LIG d   1       4.781  -0.745  -4.618  0.00  0.00    -0.051 A 
ATOM     45  H   LIG d   1       3.649   1.062  -4.654  0.00  0.00     0.065 H 
ATOM     46  H   LIG d   1       4.923  -0.767  -5.689  0.00  0.00     0.062 H 
BRANCH  41  47
ATOM     47  O   LIG d   1       3.179   1.322  -2.094  0.00  0.00    -0.507 OA
ATOM     48  H   LIG d   1       3.221   1.337  -1.127  0.00  0.00     0.292 HD
ENDBRANCH  41  47
ENDBRANCH  35  37
BRANCH  30  49
ATOM     49  C   LIG d   1       8.043  -1.781  -5.495  0.00  0.00     0.356 C 
ATOM     50  O   LIG d   1       7.773  -1.773  -6.673  0.00  0.00    -0.246 OA
BRANCH  49  51
ATOM     51  O   LIG d   1       8.756  -0.774  -4.964  0.00  0.00    -0.465 OA
BRANCH  51  52
ATOM     52  C   LIG d   1       8.173   0.530  -5.011  0.00  0.00     0.082 C 
ATOM     53  H   LIG d   1       7.110   0.461  -4.776  0.00  0.00     0.066 H 
ATOM     54  H   LIG d   1       8.665   1.174  -4.281  0.00  0.00     0.066 H 
ATOM     55  H   LIG d   1       8.299   0.948  -6.009  0.00  0.00     0.066 H 
ENDBRANCH  51  52
ENDBRANCH  49  51
ENDBRANCH  30  49
ENDBRANCH   1  30
TORSDOF 12
ENDMDL
MODEL 8
REMARK VINA RESULT:      -5.9      6.238     11.969
REMARK  12 active torsions:
REMARK  status: ('A' for Active; 'I' for Inactive)
REMARK    1  A    between atoms: C_1  and  C_2 
REMARK    2  A    between atoms: C_2  and  C_33 
REMARK    3  A    between atoms: C_3  and  C_6 
REMARK    4  A    between atoms: C_6  and  C_7 
REMARK    5  A    between atoms: C_9  and  C_14 
REMARK    6  A    between atoms: C_12  and  O_13 
REMARK    7  A    between atoms: C_14  and  C_15 
REMARK    8  A    between atoms: C_15  and  C_29 
REMARK    9  A    between atoms: C_16  and  C_22 
REMARK   10  A    between atoms: C_25  and  O_28 
REMARK   11  A    between atoms: C_29  and  O_31 
REMARK   12  A    between atoms: O_31  and  C_32 
ROOT
ATOM      1  C   LIG d   1       9.920   6.616  -1.854  0.00  0.00     0.028 C 
ATOM      2  H   LIG d   1       9.507   7.603  -2.061  0.00  0.00     0.036 H 
ATOM      3  H   LIG d   1       9.383   6.165  -1.020  0.00  0.00     0.036 H 
ENDROOT
BRANCH   1   4
ATOM      4  C   LIG d   1       9.779   5.745  -3.074  0.00  0.00    -0.042 A 
ATOM      5  C   LIG d   1       9.732   4.370  -2.939  0.00  0.00    -0.052 A 
ATOM      6  C   LIG d   1       9.601   3.569  -4.057  0.00  0.00    -0.003 A 
ATOM      7  H   LIG d   1       9.797   3.921  -1.959  0.00  0.00     0.062 H 
ATOM      8  C   LIG d   1       9.523   4.145  -5.316  0.00  0.00     0.120 A 
ATOM      9  C   LIG d   1       9.564   5.525  -5.449  0.00  0.00    -0.020 A 
ATOM     10  C   LIG d   1       9.695   6.322  -4.329  0.00  0.00    -0.055 A 
ATOM     11  H   LIG d   1       9.499   5.977  -6.428  0.00  0.00     0.065 H 
ATOM     12  H   LIG d   1       9.731   7.396  -4.432  0.00  0.00     0.062 H 
BRANCH   6  13
ATOM     13  C   LIG d   1       9.549   2.070  -3.908  0.00  0.00     0.005 C 
ATOM     14  H   LIG d   1      10.130   1.771  -3.036  0.00  0.00     0.034 H 
ATOM     15  H   LIG d   1       9.967   1.602  -4.800  0.00  0.00     0.034 H 
BRANCH  13  16
ATOM     16  C   LIG d   1       8.096   1.625  -3.732  0.00  0.00     0.092 A 
ATOM     17  C   LIG d   1       7.676   0.295  -4.362  0.00  0.00     0.091 A 
ATOM     18  O   LIG d   1       7.272   1.557  -4.898  0.00  0.00    -0.365 OA
ATOM     19  H   LIG d   1       7.624   1.913  -2.793  0.00  0.00     0.063 H 
BRANCH  17  20
ATOM     20  C   LIG d   1       8.738  -0.498  -5.127  0.00  0.00    -0.034 C 
ATOM     21  H   LIG d   1       8.924  -0.020  -6.089  0.00  0.00     0.026 H 
ATOM     22  H   LIG d   1       9.661  -0.522  -4.548  0.00  0.00     0.026 H 
ATOM     23  H   LIG d   1       8.383  -1.515  -5.290  0.00  0.00     0.026 H 
ENDBRANCH  17  20
BRANCH  17  24
ATOM     24  C   LIG d   1       6.622  -0.540  -3.633  0.00  0.00    -0.034 C 
ATOM     25  H   LIG d   1       6.237   0.024  -2.782  0.00  0.00     0.026 H 
ATOM     26  H   LIG d   1       5.804  -0.770  -4.316  0.00  0.00     0.026 H 
ATOM     27  H   LIG d   1       7.072  -1.467  -3.280  0.00  0.00     0.026 H 
ENDBRANCH  17  24
ENDBRANCH  13  16
ENDBRANCH   6  13
BRANCH   8  28
ATOM     28  O   LIG d   1       9.399   3.358  -6.418  0.00  0.00    -0.506 OA
ATOM     29  H   LIG d   1       9.465   3.840  -7.255  0.00  0.00     0.292 HD
ENDBRANCH   8  28
ENDBRANCH   1   4
BRANCH   1  30
ATOM     30  C   LIG d   1      11.402   6.751  -1.493  0.00  0.00     0.238 A 
ATOM     31  O   LIG d   1      12.200   5.988  -2.401  0.00  0.00    -0.439 OA
ATOM     32  C   LIG d   1      13.036   6.827  -3.042  0.00  0.00     0.326 A 
ATOM     33  C   LIG d   1      12.822   8.197  -2.575  0.00  0.00    -0.013 A 
ATOM     34  O   LIG d   1      13.850   6.495  -3.882  0.00  0.00    -0.246 OA
ATOM     35  C   LIG d   1      11.842   8.189  -1.641  0.00  0.00     0.013 A 
ATOM     36  O   LIG d   1      13.494   9.297  -3.010  0.00  0.00    -0.869 OA
BRANCH  35  37
ATOM     37  C   LIG d   1      11.312   9.351  -0.912  0.00  0.00    -0.018 A 
ATOM     38  C   LIG d   1      10.400  10.212  -1.534  0.00  0.00    -0.051 A 
ATOM     39  C   LIG d   1       9.902  11.296  -0.845  0.00  0.00    -0.020 A 
ATOM     40  H   LIG d   1      10.084  10.025  -2.549  0.00  0.00     0.062 H 
ATOM     41  C   LIG d   1      10.312  11.542   0.460  0.00  0.00     0.117 A 
ATOM     42  H   LIG d   1       9.194  11.959  -1.321  0.00  0.00     0.065 H 
ATOM     43  C   LIG d   1      11.221  10.693   1.080  0.00  0.00    -0.020 A 
ATOM     44  C   LIG d   1      11.721   9.603   0.401  0.00  0.00    -0.051 A 
ATOM     45  H   LIG d   1      11.537  10.888   2.093  0.00  0.00     0.065 H 
ATOM     46  H   LIG d   1      12.428   8.944   0.884  0.00  0.00     0.062 H 
BRANCH  41  47
ATOM     47  O   LIG d   1       9.822  12.614   1.133  0.00  0.00    -0.507 OA
ATOM     48  H   LIG d   1       9.340  12.387   1.940  0.00  0.00     0.292 HD
ENDBRANCH  41  47
ENDBRANCH  35  37
BRANCH  30  49
ATOM     49  C   LIG d   1      11.633   6.281  -0.080  0.00  0.00     0.356 C 
ATOM     50  O   LIG d   1      12.759   6.170   0.344  0.00  0.00    -0.246 OA
BRANCH  49  51
ATOM     51  O   LIG d   1      10.587   5.986   0.709  0.00  0.00    -0.465 OA
BRANCH  51  52
ATOM     52  C   LIG d   1      10.874   5.639   2.065  0.00  0.00     0.082 C 
ATOM     53  H   LIG d   1      11.648   4.871   2.088  0.00  0.00     0.066 H 
ATOM     54  H   LIG d   1      11.224   6.522   2.600  0.00  0.00     0.066 H 
ATOM     55  H   LIG d   1       9.971   5.259   2.542  0.00  0.00     0.066 H 
ENDBRANCH  51  52
ENDBRANCH  49  51
ENDBRANCH  30  49
ENDBRANCH   1  30
TORSDOF 12
ENDMDL
MODEL 9
REMARK VINA RESULT:      -5.8      8.874     12.533
REMARK  12 active torsions:
REMARK  status: ('A' for Active; 'I' for Inactive)
REMARK    1  A    between atoms: C_1  and  C_2 
REMARK    2  A    between atoms: C_2  and  C_33 
REMARK    3  A    between atoms: C_3  and  C_6 
REMARK    4  A    between atoms: C_6  and  C_7 
REMARK    5  A    between atoms: C_9  and  C_14 
REMARK    6  A    between atoms: C_12  and  O_13 
REMARK    7  A    between atoms: C_14  and  C_15 
REMARK    8  A    between atoms: C_15  and  C_29 
REMARK    9  A    between atoms: C_16  and  C_22 
REMARK   10  A    between atoms: C_25  and  O_28 
REMARK   11  A    between atoms: C_29  and  O_31 
REMARK   12  A    between atoms: O_31  and  C_32 
ROOT
ATOM      1  C   LIG d   1      10.002   6.316  -1.939  0.00  0.00     0.028 C 
ATOM      2  H   LIG d   1       9.442   7.193  -1.614  0.00  0.00     0.036 H 
ATOM      3  H   LIG d   1       9.591   5.425  -1.467  0.00  0.00     0.036 H 
ENDROOT
BRANCH   1   4
ATOM      4  C   LIG d   1       9.903   6.184  -3.437  0.00  0.00    -0.042 A 
ATOM      5  C   LIG d   1       9.661   7.301  -4.215  0.00  0.00    -0.052 A 
ATOM      6  C   LIG d   1       9.571   7.182  -5.588  0.00  0.00    -0.003 A 
ATOM      7  H   LIG d   1       9.542   8.268  -3.748  0.00  0.00     0.062 H 
ATOM      8  C   LIG d   1       9.718   5.940  -6.186  0.00  0.00     0.120 A 
ATOM      9  C   LIG d   1       9.967   4.820  -5.405  0.00  0.00    -0.020 A 
ATOM     10  C   LIG d   1      10.056   4.944  -4.032  0.00  0.00    -0.055 A 
ATOM     11  H   LIG d   1      10.087   3.852  -5.868  0.00  0.00     0.065 H 
ATOM     12  H   LIG d   1      10.246   4.073  -3.422  0.00  0.00     0.062 H 
BRANCH   6  13
ATOM     13  C   LIG d   1       9.307   8.401  -6.434  0.00  0.00     0.005 C 
ATOM     14  H   LIG d   1       8.472   8.961  -6.015  0.00  0.00     0.034 H 
ATOM     15  H   LIG d   1       9.063   8.091  -7.450  0.00  0.00     0.034 H 
BRANCH  13  16
ATOM     16  C   LIG d   1      10.556   9.286  -6.457  0.00  0.00     0.092 A 
ATOM     17  C   LIG d   1      10.503  10.612  -5.696  0.00  0.00     0.091 A 
ATOM     18  O   LIG d   1      10.468  10.546  -7.124  0.00  0.00    -0.365 OA
ATOM     19  H   LIG d   1      11.508   8.758  -6.493  0.00  0.00     0.063 H 
BRANCH  17  20
ATOM     20  C   LIG d   1       9.206  10.964  -4.966  0.00  0.00    -0.034 C 
ATOM     21  H   LIG d   1       9.240  12.006  -4.647  0.00  0.00     0.026 H 
ATOM     22  H   LIG d   1       8.359  10.817  -5.637  0.00  0.00     0.026 H 
ATOM     23  H   LIG d   1       9.094  10.320  -4.093  0.00  0.00     0.026 H 
ENDBRANCH  17  20
BRANCH  17  24
ATOM     24  C   LIG d   1      11.792  11.109  -5.038  0.00  0.00    -0.034 C 
ATOM     25  H   LIG d   1      12.624  10.992  -5.733  0.00  0.00     0.026 H 
ATOM     26  H   LIG d   1      11.683  12.160  -4.774  0.00  0.00     0.026 H 
ATOM     27  H   LIG d   1      11.987  10.527  -4.137  0.00  0.00     0.026 H 
ENDBRANCH  17  24
ENDBRANCH  13  16
ENDBRANCH   6  13
BRANCH   8  28
ATOM     28  O   LIG d   1       9.624   5.819  -7.537  0.00  0.00    -0.506 OA
ATOM     29  H   LIG d   1       8.716   5.770  -7.866  0.00  0.00     0.292 HD
ENDBRANCH   8  28
ENDBRANCH   1   4
BRANCH   1  30
ATOM     30  C   LIG d   1      11.471   6.474  -1.539  0.00  0.00     0.238 A 
ATOM     31  O   LIG d   1      12.306   5.727  -2.427  0.00  0.00    -0.439 OA
ATOM     32  C   LIG d   1      13.145   6.581  -3.043  0.00  0.00     0.326 A 
ATOM     33  C   LIG d   1      12.896   7.946  -2.579  0.00  0.00    -0.013 A 
ATOM     34  O   LIG d   1      13.986   6.264  -3.862  0.00  0.00    -0.246 OA
ATOM     35  C   LIG d   1      11.892   7.919  -1.671  0.00  0.00     0.013 A 
ATOM     36  O   LIG d   1      13.563   9.057  -2.992  0.00  0.00    -0.869 OA
BRANCH  35  37
ATOM     37  C   LIG d   1      11.324   9.070  -0.954  0.00  0.00    -0.018 A 
ATOM     38  C   LIG d   1      11.711   9.336   0.364  0.00  0.00    -0.051 A 
ATOM     39  C   LIG d   1      11.181  10.420   1.029  0.00  0.00    -0.020 A 
ATOM     40  H   LIG d   1      12.429   8.697   0.857  0.00  0.00     0.062 H 
ATOM     41  C   LIG d   1      10.253  11.240   0.398  0.00  0.00     0.117 A 
ATOM     42  H   LIG d   1      11.484  10.630   2.045  0.00  0.00     0.065 H 
ATOM     43  C   LIG d   1       9.861  10.976  -0.908  0.00  0.00    -0.020 A 
ATOM     44  C   LIG d   1      10.390   9.899  -1.584  0.00  0.00    -0.051 A 
ATOM     45  H   LIG d   1       9.140  11.616  -1.394  0.00  0.00     0.065 H 
ATOM     46  H   LIG d   1      10.084   9.695  -2.600  0.00  0.00     0.062 H 
BRANCH  41  47
ATOM     47  O   LIG d   1       9.730  12.303   1.061  0.00  0.00    -0.507 OA
ATOM     48  H   LIG d   1       9.399  12.092   1.945  0.00  0.00     0.292 HD
ENDBRANCH  41  47
ENDBRANCH  35  37
BRANCH  30  49
ATOM     49  C   LIG d   1      11.672   6.003  -0.121  0.00  0.00     0.356 C 
ATOM     50  O   LIG d   1      12.786   5.782   0.291  0.00  0.00    -0.246 OA
BRANCH  49  51
ATOM     51  O   LIG d   1      10.612   5.829   0.685  0.00  0.00    -0.465 OA
BRANCH  51  52
ATOM     52  C   LIG d   1      10.873   5.706   2.084  0.00  0.00     0.082 C 
ATOM     53  H   LIG d   1       9.938   5.520   2.613  0.00  0.00     0.066 H 
ATOM     54  H   LIG d   1      11.558   4.874   2.253  0.00  0.00     0.066 H 
ATOM     55  H   LIG d   1      11.323   6.627   2.452  0.00  0.00     0.066 H 
ENDBRANCH  51  52
ENDBRANCH  49  51
ENDBRANCH  30  49
ENDBRANCH   1  30
TORSDOF 12
ENDMDL
