MODEL 1
REMARK VINA RESULT:      -6.9      0.000      0.000
REMARK  7 active torsions:
REMARK  status: ('A' for Active; 'I' for Inactive)
REMARK    1  A    between atoms: C_1  and  C_2 
REMARK    2  A    between atoms: C_2  and  C_3 
REMARK    3  A    between atoms: C_3  and  S_4 
REMARK    4  A    between atoms: S_4  and  N_7 
REMARK    5  A    between atoms: N_7  and  C_8 
REMARK    6  A    between atoms: N_22  and  S_24 
REMARK    7  A    between atoms: S_24  and  C_27 
ROOT
ATOM      1  C   LIG d   1       3.591  -0.511  -6.149  0.00  0.00     0.068 A 
ATOM      2  C   LIG d   1       2.678   0.515  -5.864  0.00  0.00    -0.033 A 
ATOM      3  C   LIG d   1       2.587   0.980  -4.585  0.00  0.00     0.005 A 
ATOM      4  C   LIG d   1       3.383   0.399  -3.589  0.00  0.00     0.252 A 
ATOM      5  O   LIG d   1       3.346   0.845  -2.452  0.00  0.00    -0.268 OA
ATOM      6  N   LIG d   1       4.193  -0.650  -3.869  0.00  0.00    -0.310 N 
ATOM      7  C   LIG d   1       4.343  -1.057  -5.174  0.00  0.00     0.049 A 
ATOM      8  C   LIG d   1       5.354  -2.115  -5.548  0.00  0.00     0.016 C 
ATOM      9  H   LIG d   1       4.989  -2.702  -6.391  0.00  0.00     0.038 H 
ATOM     10  C   LIG d   1       5.638  -3.029  -4.353  0.00  0.00    -0.038 C 
ATOM     11  C   LIG d   1       6.031  -2.156  -3.161  0.00  0.00    -0.008 C 
ATOM     12  H   LIG d   1       6.274  -2.814  -2.327  0.00  0.00     0.033 H 
ATOM     13  C   LIG d   1       4.851  -1.302  -2.737  0.00  0.00     0.030 C 
ATOM     14  C   LIG d   1       7.262  -1.318  -3.476  0.00  0.00     0.025 C 
ATOM     15  N   LIG d   1       7.079  -0.604  -4.762  0.00  0.00    -0.176 N 
ATOM     16  C   LIG d   1       6.661  -1.398  -5.928  0.00  0.00     0.029 C 
ATOM     17  H   LIG d   1       2.058   0.932  -6.645  0.00  0.00     0.064 H 
ATOM     18  H   LIG d   1       1.909   1.786  -4.343  0.00  0.00     0.067 H 
ATOM     19  H   LIG d   1       4.744  -3.603  -4.109  0.00  0.00     0.028 H 
ATOM     20  H   LIG d   1       6.455  -3.708  -4.597  0.00  0.00     0.028 H 
ATOM     21  H   LIG d   1       4.126  -1.933  -2.222  0.00  0.00     0.050 H 
ATOM     22  H   LIG d   1       5.201  -0.536  -2.045  0.00  0.00     0.050 H 
ATOM     23  H   LIG d   1       7.413  -0.586  -2.682  0.00  0.00     0.045 H 
ATOM     24  H   LIG d   1       8.134  -1.969  -3.537  0.00  0.00     0.045 H 
ATOM     25  H   LIG d   1       7.429  -2.131  -6.172  0.00  0.00     0.045 H 
ATOM     26  H   LIG d   1       6.489  -0.741  -6.781  0.00  0.00     0.045 H 
ENDROOT
BRANCH   1  27
ATOM     27  N   LIG d   1       3.727  -0.978  -7.465  0.00  0.00    -0.219 N 
ATOM     28  H   LIG d   1       3.540  -1.907  -7.671  0.00  0.00     0.173 HD
BRANCH  27  29
ATOM     29  S   LIG d   1       4.205   0.058  -8.665  0.00  0.00     0.043 S 
ATOM     30  O   LIG d   1       4.750   1.177  -7.981  0.00  0.00    -0.155 OA
ATOM     31  O   LIG d   1       5.016  -0.732  -9.523  0.00  0.00    -0.155 OA
BRANCH  29  32
ATOM     32  C   LIG d   1       2.672   0.529  -9.513  0.00  0.00     0.085 C 
ATOM     33  H   LIG d   1       2.209   1.364  -8.989  0.00  0.00     0.052 H 
ATOM     34  H   LIG d   1       2.899   0.823 -10.537  0.00  0.00     0.052 H 
BRANCH  32  35
ATOM     35  C   LIG d   1       1.710  -0.661  -9.526  0.00  0.00    -0.035 C 
ATOM     36  H   LIG d   1       2.171  -1.507  -9.015  0.00  0.00     0.028 H 
ATOM     37  H   LIG d   1       0.787  -0.388  -9.015  0.00  0.00     0.028 H 
BRANCH  35  38
ATOM     38  C   LIG d   1       1.398  -1.048 -10.972  0.00  0.00    -0.064 C 
ATOM     39  H   LIG d   1       2.310  -1.385 -11.464  0.00  0.00     0.023 H 
ATOM     40  H   LIG d   1       0.662  -1.853 -10.982  0.00  0.00     0.023 H 
ATOM     41  H   LIG d   1       0.998  -0.184 -11.501  0.00  0.00     0.023 H 
ENDBRANCH  35  38
ENDBRANCH  32  35
ENDBRANCH  29  32
ENDBRANCH  27  29
ENDBRANCH   1  27
BRANCH  15  42
ATOM     42  S   LIG d   1       7.357   1.023  -4.900  0.00  0.00     0.061 S 
ATOM     43  O   LIG d   1       7.233   1.340  -6.280  0.00  0.00    -0.153 OA
ATOM     44  O   LIG d   1       6.571   1.655  -3.900  0.00  0.00    -0.153 OA
BRANCH  42  45
ATOM     45  C   LIG d   1       9.042   1.302  -4.468  0.00  0.00     0.105 A 
ATOM     46  C   LIG d   1       9.364   2.275  -3.539  0.00  0.00    -0.035 A 
ATOM     47  C   LIG d   1      10.686   2.495  -3.199  0.00  0.00    -0.060 A 
ATOM     48  H   LIG d   1       8.584   2.862  -3.079  0.00  0.00     0.064 H 
ATOM     49  C   LIG d   1      11.685   1.742  -3.787  0.00  0.00    -0.062 A 
ATOM     50  H   LIG d   1      10.937   3.254  -2.474  0.00  0.00     0.062 H 
ATOM     51  C   LIG d   1      11.363   0.770  -4.716  0.00  0.00    -0.060 A 
ATOM     52  H   LIG d   1      12.718   1.915  -3.522  0.00  0.00     0.062 H 
ATOM     53  C   LIG d   1      10.041   0.546  -5.052  0.00  0.00    -0.035 A 
ATOM     54  H   LIG d   1      12.143   0.183  -5.175  0.00  0.00     0.062 H 
ATOM     55  H   LIG d   1       9.788  -0.216  -5.773  0.00  0.00     0.064 H 
ENDBRANCH  42  45
ENDBRANCH  15  42
TORSDOF 7
ENDMDL
MODEL 2
REMARK VINA RESULT:      -6.6      2.782      4.140
REMARK  7 active torsions:
REMARK  status: ('A' for Active; 'I' for Inactive)
REMARK    1  A    between atoms: C_1  and  C_2 
REMARK    2  A    between atoms: C_2  and  C_3 
REMARK    3  A    between atoms: C_3  and  S_4 
REMARK    4  A    between atoms: S_4  and  N_7 
REMARK    5  A    between atoms: N_7  and  C_8 
REMARK    6  A    between atoms: N_22  and  S_24 
REMARK    7  A    between atoms: S_24  and  C_27 
ROOT
ATOM      1  C   LIG d   1       4.739  -2.804  -6.426  0.00  0.00     0.068 A 
ATOM      2  C   LIG d   1       4.198  -2.347  -7.638  0.00  0.00    -0.033 A 
ATOM      3  C   LIG d   1       3.660  -1.095  -7.689  0.00  0.00     0.005 A 
ATOM      4  C   LIG d   1       3.632  -0.315  -6.525  0.00  0.00     0.252 A 
ATOM      5  O   LIG d   1       3.199   0.826  -6.575  0.00  0.00    -0.268 OA
ATOM      6  N   LIG d   1       4.079  -0.810  -5.345  0.00  0.00    -0.310 N 
ATOM      7  C   LIG d   1       4.697  -2.038  -5.320  0.00  0.00     0.049 A 
ATOM      8  C   LIG d   1       5.349  -2.554  -4.059  0.00  0.00     0.016 C 
ATOM      9  H   LIG d   1       5.268  -3.640  -4.011  0.00  0.00     0.038 H 
ATOM     10  C   LIG d   1       4.701  -1.922  -2.824  0.00  0.00    -0.038 C 
ATOM     11  C   LIG d   1       4.732  -0.403  -2.989  0.00  0.00    -0.008 C 
ATOM     12  H   LIG d   1       4.308   0.042  -2.088  0.00  0.00     0.033 H 
ATOM     13  C   LIG d   1       3.851   0.008  -4.154  0.00  0.00     0.030 C 
ATOM     14  C   LIG d   1       6.158   0.105  -3.141  0.00  0.00     0.025 C 
ATOM     15  N   LIG d   1       6.867  -0.668  -4.188  0.00  0.00    -0.176 N 
ATOM     16  C   LIG d   1       6.830  -2.136  -4.094  0.00  0.00     0.029 C 
ATOM     17  H   LIG d   1       4.210  -2.976  -8.517  0.00  0.00     0.064 H 
ATOM     18  H   LIG d   1       3.258  -0.709  -8.615  0.00  0.00     0.067 H 
ATOM     19  H   LIG d   1       3.669  -2.262  -2.737  0.00  0.00     0.028 H 
ATOM     20  H   LIG d   1       5.258  -2.207  -1.931  0.00  0.00     0.028 H 
ATOM     21  H   LIG d   1       2.806  -0.086  -3.857  0.00  0.00     0.050 H 
ATOM     22  H   LIG d   1       4.053   1.050  -4.399  0.00  0.00     0.050 H 
ATOM     23  H   LIG d   1       6.138   1.157  -3.429  0.00  0.00     0.045 H 
ATOM     24  H   LIG d   1       6.681   0.001  -2.190  0.00  0.00     0.045 H 
ATOM     25  H   LIG d   1       7.329  -2.461  -3.182  0.00  0.00     0.045 H 
ATOM     26  H   LIG d   1       7.319  -2.576  -4.964  0.00  0.00     0.045 H 
ENDROOT
BRANCH   1  27
ATOM     27  N   LIG d   1       5.331  -4.074  -6.362  0.00  0.00    -0.219 N 
ATOM     28  H   LIG d   1       6.297  -4.159  -6.372  0.00  0.00     0.173 HD
BRANCH  27  29
ATOM     29  S   LIG d   1       4.381  -5.427  -6.269  0.00  0.00     0.043 S 
ATOM     30  O   LIG d   1       3.982  -5.496  -4.907  0.00  0.00    -0.155 OA
ATOM     31  O   LIG d   1       3.416  -5.264  -7.299  0.00  0.00    -0.155 OA
BRANCH  29  32
ATOM     32  C   LIG d   1       5.493  -6.805  -6.666  0.00  0.00     0.085 C 
ATOM     33  H   LIG d   1       4.982  -7.505  -7.327  0.00  0.00     0.052 H 
ATOM     34  H   LIG d   1       6.384  -6.421  -7.162  0.00  0.00     0.052 H 
BRANCH  32  35
ATOM     35  C   LIG d   1       5.896  -7.522  -5.376  0.00  0.00    -0.035 C 
ATOM     36  H   LIG d   1       6.956  -7.770  -5.414  0.00  0.00     0.028 H 
ATOM     37  H   LIG d   1       5.705  -6.870  -4.524  0.00  0.00     0.028 H 
BRANCH  35  38
ATOM     38  C   LIG d   1       5.076  -8.806  -5.230  0.00  0.00    -0.064 C 
ATOM     39  H   LIG d   1       5.190  -9.197  -4.219  0.00  0.00     0.023 H 
ATOM     40  H   LIG d   1       4.025  -8.589  -5.419  0.00  0.00     0.023 H 
ATOM     41  H   LIG d   1       5.429  -9.546  -5.948  0.00  0.00     0.023 H 
ENDBRANCH  35  38
ENDBRANCH  32  35
ENDBRANCH  29  32
ENDBRANCH  27  29
ENDBRANCH   1  27
BRANCH  15  42
ATOM     42  S   LIG d   1       7.695   0.081  -5.412  0.00  0.00     0.061 S 
ATOM     43  O   LIG d   1       8.212  -0.949  -6.243  0.00  0.00    -0.153 OA
ATOM     44  O   LIG d   1       6.846   1.107  -5.908  0.00  0.00    -0.153 OA
BRANCH  42  45
ATOM     45  C   LIG d   1       9.083   0.886  -4.684  0.00  0.00     0.105 A 
ATOM     46  C   LIG d   1      10.364   0.455  -4.977  0.00  0.00    -0.035 A 
ATOM     47  C   LIG d   1      11.453   1.086  -4.406  0.00  0.00    -0.060 A 
ATOM     48  H   LIG d   1      10.513  -0.375  -5.652  0.00  0.00     0.064 H 
ATOM     49  C   LIG d   1      11.262   2.149  -3.543  0.00  0.00    -0.062 A 
ATOM     50  H   LIG d   1      12.453   0.749  -4.636  0.00  0.00     0.062 H 
ATOM     51  C   LIG d   1       9.982   2.580  -3.250  0.00  0.00    -0.060 A 
ATOM     52  H   LIG d   1      12.114   2.642  -3.097  0.00  0.00     0.062 H 
ATOM     53  C   LIG d   1       8.893   1.953  -3.825  0.00  0.00    -0.035 A 
ATOM     54  H   LIG d   1       9.833   3.410  -2.576  0.00  0.00     0.062 H 
ATOM     55  H   LIG d   1       7.893   2.292  -3.600  0.00  0.00     0.064 H 
ENDBRANCH  42  45
ENDBRANCH  15  42
TORSDOF 7
ENDMDL
MODEL 3
REMARK VINA RESULT:      -6.6      1.134      1.555
REMARK  7 active torsions:
REMARK  status: ('A' for Active; 'I' for Inactive)
REMARK    1  A    between atoms: C_1  and  C_2 
REMARK    2  A    between atoms: C_2  and  C_3 
REMARK    3  A    between atoms: C_3  and  S_4 
REMARK    4  A    between atoms: S_4  and  N_7 
REMARK    5  A    between atoms: N_7  and  C_8 
REMARK    6  A    between atoms: N_22  and  S_24 
REMARK    7  A    between atoms: S_24  and  C_27 
ROOT
ATOM      1  C   LIG d   1       4.232  -0.591  -7.137  0.00  0.00     0.068 A 
ATOM      2  C   LIG d   1       3.156   0.282  -6.919  0.00  0.00    -0.033 A 
ATOM      3  C   LIG d   1       2.735   0.501  -5.640  0.00  0.00     0.005 A 
ATOM      4  C   LIG d   1       3.365  -0.175  -4.588  0.00  0.00     0.252 A 
ATOM      5  O   LIG d   1       3.029   0.054  -3.436  0.00  0.00    -0.268 OA
ATOM      6  N   LIG d   1       4.344  -1.081  -4.830  0.00  0.00    -0.310 N 
ATOM      7  C   LIG d   1       4.820  -1.233  -6.110  0.00  0.00     0.049 A 
ATOM      8  C   LIG d   1       6.014  -2.112  -6.397  0.00  0.00     0.016 C 
ATOM      9  H   LIG d   1       5.917  -2.569  -7.382  0.00  0.00     0.038 H 
ATOM     10  C   LIG d   1       6.150  -3.196  -5.324  0.00  0.00    -0.038 C 
ATOM     11  C   LIG d   1       6.164  -2.519  -3.954  0.00  0.00    -0.008 C 
ATOM     12  H   LIG d   1       6.304  -3.291  -3.198  0.00  0.00     0.033 H 
ATOM     13  C   LIG d   1       4.821  -1.863  -3.689  0.00  0.00     0.030 C 
ATOM     14  C   LIG d   1       7.316  -1.532  -3.841  0.00  0.00     0.025 C 
ATOM     15  N   LIG d   1       7.324  -0.619  -5.008  0.00  0.00    -0.176 N 
ATOM     16  C   LIG d   1       7.270  -1.225  -6.348  0.00  0.00     0.029 C 
ATOM     17  H   LIG d   1       2.670   0.775  -7.748  0.00  0.00     0.064 H 
ATOM     18  H   LIG d   1       1.924   1.187  -5.441  0.00  0.00     0.067 H 
ATOM     19  H   LIG d   1       5.305  -3.882  -5.387  0.00  0.00     0.028 H 
ATOM     20  H   LIG d   1       7.080  -3.745  -5.473  0.00  0.00     0.028 H 
ATOM     21  H   LIG d   1       4.089  -2.638  -3.462  0.00  0.00     0.050 H 
ATOM     22  H   LIG d   1       4.914  -1.205  -2.826  0.00  0.00     0.050 H 
ATOM     23  H   LIG d   1       7.199  -0.943  -2.930  0.00  0.00     0.045 H 
ATOM     24  H   LIG d   1       8.257  -2.081  -3.797  0.00  0.00     0.045 H 
ATOM     25  H   LIG d   1       8.160  -1.831  -6.516  0.00  0.00     0.045 H 
ATOM     26  H   LIG d   1       7.203  -0.444  -7.105  0.00  0.00     0.045 H 
ENDROOT
BRANCH   1  27
ATOM     27  N   LIG d   1       4.705  -0.801  -8.441  0.00  0.00    -0.219 N 
ATOM     28  H   LIG d   1       5.612  -0.548  -8.674  0.00  0.00     0.173 HD
BRANCH  27  29
ATOM     29  S   LIG d   1       3.715  -1.480  -9.582  0.00  0.00     0.043 S 
ATOM     30  O   LIG d   1       4.600  -2.081 -10.517  0.00  0.00    -0.155 OA
ATOM     31  O   LIG d   1       2.798  -2.271  -8.841  0.00  0.00    -0.155 OA
BRANCH  29  32
ATOM     32  C   LIG d   1       2.856  -0.078 -10.348  0.00  0.00     0.085 C 
ATOM     33  H   LIG d   1       2.304  -0.423 -11.222  0.00  0.00     0.052 H 
ATOM     34  H   LIG d   1       2.162   0.359  -9.629  0.00  0.00     0.052 H 
BRANCH  32  35
ATOM     35  C   LIG d   1       3.879   0.976 -10.775  0.00  0.00    -0.035 C 
ATOM     36  H   LIG d   1       4.884   0.617 -10.555  0.00  0.00     0.028 H 
ATOM     37  H   LIG d   1       3.785   1.161 -11.845  0.00  0.00     0.028 H 
BRANCH  35  38
ATOM     38  C   LIG d   1       3.623   2.275 -10.008  0.00  0.00    -0.064 C 
ATOM     39  H   LIG d   1       2.579   2.313  -9.696  0.00  0.00     0.023 H 
ATOM     40  H   LIG d   1       4.266   2.310  -9.129  0.00  0.00     0.023 H 
ATOM     41  H   LIG d   1       3.841   3.126 -10.652  0.00  0.00     0.023 H 
ENDBRANCH  35  38
ENDBRANCH  32  35
ENDBRANCH  29  32
ENDBRANCH  27  29
ENDBRANCH   1  27
BRANCH  15  42
ATOM     42  S   LIG d   1       7.416   1.025  -4.825  0.00  0.00     0.061 S 
ATOM     43  O   LIG d   1       7.222   1.588  -6.115  0.00  0.00    -0.153 OA
ATOM     44  O   LIG d   1       6.591   1.357  -3.717  0.00  0.00    -0.153 OA
BRANCH  42  45
ATOM     45  C   LIG d   1       9.070   1.406  -4.352  0.00  0.00     0.105 A 
ATOM     46  C   LIG d   1       9.309   2.373  -3.393  0.00  0.00    -0.035 A 
ATOM     47  C   LIG d   1      10.606   2.672  -3.022  0.00  0.00    -0.060 A 
ATOM     48  H   LIG d   1       8.482   2.894  -2.935  0.00  0.00     0.064 H 
ATOM     49  C   LIG d   1      11.665   2.003  -3.609  0.00  0.00    -0.062 A 
ATOM     50  H   LIG d   1      10.793   3.426  -2.273  0.00  0.00     0.062 H 
ATOM     51  C   LIG d   1      11.426   1.037  -4.568  0.00  0.00    -0.060 A 
ATOM     52  H   LIG d   1      12.679   2.238  -3.319  0.00  0.00     0.062 H 
ATOM     53  C   LIG d   1      10.128   0.734  -4.936  0.00  0.00    -0.035 A 
ATOM     54  H   LIG d   1      12.252   0.515  -5.026  0.00  0.00     0.062 H 
ATOM     55  H   LIG d   1       9.941  -0.024  -5.680  0.00  0.00     0.064 H 
ENDBRANCH  42  45
ENDBRANCH  15  42
TORSDOF 7
ENDMDL
MODEL 4
REMARK VINA RESULT:      -6.5      3.021      4.228
REMARK  7 active torsions:
REMARK  status: ('A' for Active; 'I' for Inactive)
REMARK    1  A    between atoms: C_1  and  C_2 
REMARK    2  A    between atoms: C_2  and  C_3 
REMARK    3  A    between atoms: C_3  and  S_4 
REMARK    4  A    between atoms: S_4  and  N_7 
REMARK    5  A    between atoms: N_7  and  C_8 
REMARK    6  A    between atoms: N_22  and  S_24 
REMARK    7  A    between atoms: S_24  and  C_27 
ROOT
ATOM      1  C   LIG d   1       4.816  -2.876  -6.098  0.00  0.00     0.068 A 
ATOM      2  C   LIG d   1       4.473  -2.456  -7.392  0.00  0.00    -0.033 A 
ATOM      3  C   LIG d   1       3.889  -1.234  -7.554  0.00  0.00     0.005 A 
ATOM      4  C   LIG d   1       3.619  -0.450  -6.425  0.00  0.00     0.252 A 
ATOM      5  O   LIG d   1       3.145   0.667  -6.566  0.00  0.00    -0.268 OA
ATOM      6  N   LIG d   1       3.878  -0.913  -5.178  0.00  0.00    -0.310 N 
ATOM      7  C   LIG d   1       4.543  -2.107  -5.027  0.00  0.00     0.049 A 
ATOM      8  C   LIG d   1       4.991  -2.580  -3.665  0.00  0.00     0.016 C 
ATOM      9  H   LIG d   1       4.957  -3.669  -3.615  0.00  0.00     0.038 H 
ATOM     10  C   LIG d   1       4.107  -1.976  -2.570  0.00  0.00    -0.038 C 
ATOM     11  C   LIG d   1       4.089  -0.458  -2.750  0.00  0.00    -0.008 C 
ATOM     12  H   LIG d   1       3.493  -0.030  -1.944  0.00  0.00     0.033 H 
ATOM     13  C   LIG d   1       3.405  -0.102  -4.057  0.00  0.00     0.030 C 
ATOM     14  C   LIG d   1       5.492   0.123  -2.660  0.00  0.00     0.025 C 
ATOM     15  N   LIG d   1       6.410  -0.618  -3.557  0.00  0.00    -0.176 N 
ATOM     16  C   LIG d   1       6.432  -2.085  -3.448  0.00  0.00     0.029 C 
ATOM     17  H   LIG d   1       4.669  -3.088  -8.246  0.00  0.00     0.064 H 
ATOM     18  H   LIG d   1       3.636  -0.875  -8.542  0.00  0.00     0.067 H 
ATOM     19  H   LIG d   1       3.094  -2.368  -2.659  0.00  0.00     0.028 H 
ATOM     20  H   LIG d   1       4.513  -2.225  -1.590  0.00  0.00     0.028 H 
ATOM     21  H   LIG d   1       2.330  -0.248  -3.944  0.00  0.00     0.050 H 
ATOM     22  H   LIG d   1       3.593   0.949  -4.279  0.00  0.00     0.050 H 
ATOM     23  H   LIG d   1       5.469   1.171  -2.963  0.00  0.00     0.045 H 
ATOM     24  H   LIG d   1       5.846   0.052  -1.632  0.00  0.00     0.045 H 
ATOM     25  H   LIG d   1       6.781  -2.379  -2.458  0.00  0.00     0.045 H 
ATOM     26  H   LIG d   1       7.087  -2.504  -4.213  0.00  0.00     0.045 H 
ENDROOT
BRANCH   1  27
ATOM     27  N   LIG d   1       5.452  -4.113  -5.912  0.00  0.00    -0.219 N 
ATOM     28  H   LIG d   1       6.367  -4.144  -5.594  0.00  0.00     0.173 HD
BRANCH  27  29
ATOM     29  S   LIG d   1       4.638  -5.519  -6.236  0.00  0.00     0.043 S 
ATOM     30  O   LIG d   1       5.237  -6.487  -5.386  0.00  0.00    -0.155 OA
ATOM     31  O   LIG d   1       3.265  -5.183  -6.098  0.00  0.00    -0.155 OA
BRANCH  29  32
ATOM     32  C   LIG d   1       5.020  -5.889  -7.971  0.00  0.00     0.085 C 
ATOM     33  H   LIG d   1       4.884  -6.954  -8.154  0.00  0.00     0.052 H 
ATOM     34  H   LIG d   1       4.353  -5.320  -8.619  0.00  0.00     0.052 H 
BRANCH  32  35
ATOM     35  C   LIG d   1       6.471  -5.502  -8.268  0.00  0.00    -0.035 C 
ATOM     36  H   LIG d   1       6.850  -4.870  -7.465  0.00  0.00     0.028 H 
ATOM     37  H   LIG d   1       7.079  -6.402  -8.339  0.00  0.00     0.028 H 
BRANCH  35  38
ATOM     38  C   LIG d   1       6.533  -4.737  -9.591  0.00  0.00    -0.064 C 
ATOM     39  H   LIG d   1       7.480  -4.202  -9.658  0.00  0.00     0.023 H 
ATOM     40  H   LIG d   1       6.455  -5.440 -10.421  0.00  0.00     0.023 H 
ATOM     41  H   LIG d   1       5.709  -4.025  -9.639  0.00  0.00     0.023 H 
ENDBRANCH  35  38
ENDBRANCH  32  35
ENDBRANCH  29  32
ENDBRANCH  27  29
ENDBRANCH   1  27
BRANCH  15  42
ATOM     42  S   LIG d   1       7.401   0.166  -4.628  0.00  0.00     0.061 S 
ATOM     43  O   LIG d   1       6.552   0.863  -5.530  0.00  0.00    -0.153 OA
ATOM     44  O   LIG d   1       8.395   0.824  -3.855  0.00  0.00    -0.153 OA
BRANCH  42  45
ATOM     45  C   LIG d   1       8.233  -1.069  -5.569  0.00  0.00     0.105 A 
ATOM     46  C   LIG d   1       9.285  -1.771  -5.011  0.00  0.00    -0.035 A 
ATOM     47  C   LIG d   1       9.938  -2.740  -5.749  0.00  0.00    -0.060 A 
ATOM     48  H   LIG d   1       9.597  -1.562  -3.998  0.00  0.00     0.064 H 
ATOM     49  C   LIG d   1       9.538  -3.008  -7.045  0.00  0.00    -0.062 A 
ATOM     50  H   LIG d   1      10.760  -3.288  -5.313  0.00  0.00     0.062 H 
ATOM     51  C   LIG d   1       8.486  -2.307  -7.603  0.00  0.00    -0.060 A 
ATOM     52  H   LIG d   1      10.050  -3.766  -7.621  0.00  0.00     0.062 H 
ATOM     53  C   LIG d   1       7.830  -1.341  -6.864  0.00  0.00    -0.035 A 
ATOM     54  H   LIG d   1       8.175  -2.516  -8.615  0.00  0.00     0.062 H 
ATOM     55  H   LIG d   1       7.005  -0.797  -7.297  0.00  0.00     0.064 H 
ENDBRANCH  42  45
ENDBRANCH  15  42
TORSDOF 7
ENDMDL
MODEL 5
REMARK VINA RESULT:      -6.5      3.738      8.169
REMARK  7 active torsions:
REMARK  status: ('A' for Active; 'I' for Inactive)
REMARK    1  A    between atoms: C_1  and  C_2 
REMARK    2  A    between atoms: C_2  and  C_3 
REMARK    3  A    between atoms: C_3  and  S_4 
REMARK    4  A    between atoms: S_4  and  N_7 
REMARK    5  A    between atoms: N_7  and  C_8 
REMARK    6  A    between atoms: N_22  and  S_24 
REMARK    7  A    between atoms: S_24  and  C_27 
ROOT
ATOM      1  C   LIG d   1       3.356   0.038  -7.413  0.00  0.00     0.068 A 
ATOM      2  C   LIG d   1       2.798   1.263  -7.806  0.00  0.00    -0.033 A 
ATOM      3  C   LIG d   1       3.136   1.782  -9.022  0.00  0.00     0.005 A 
ATOM      4  C   LIG d   1       4.054   1.094  -9.826  0.00  0.00     0.252 A 
ATOM      5  O   LIG d   1       4.322   1.525 -10.938  0.00  0.00    -0.268 OA
ATOM      6  N   LIG d   1       4.648  -0.043  -9.389  0.00  0.00    -0.310 N 
ATOM      7  C   LIG d   1       4.239  -0.603  -8.202  0.00  0.00     0.049 A 
ATOM      8  C   LIG d   1       4.760  -1.949  -7.758  0.00  0.00     0.016 C 
ATOM      9  H   LIG d   1       4.827  -1.986  -6.670  0.00  0.00     0.038 H 
ATOM     10  C   LIG d   1       6.133  -2.223  -8.379  0.00  0.00    -0.038 C 
ATOM     11  C   LIG d   1       6.020  -2.045  -9.893  0.00  0.00    -0.008 C 
ATOM     12  H   LIG d   1       6.989  -2.282 -10.333  0.00  0.00     0.033 H 
ATOM     13  C   LIG d   1       5.718  -0.594 -10.220  0.00  0.00     0.030 C 
ATOM     14  C   LIG d   1       4.987  -2.993 -10.482  0.00  0.00     0.025 C 
ATOM     15  N   LIG d   1       3.715  -2.896  -9.729  0.00  0.00    -0.176 N 
ATOM     16  C   LIG d   1       3.779  -3.021  -8.265  0.00  0.00     0.029 C 
ATOM     17  H   LIG d   1       2.110   1.787  -7.159  0.00  0.00     0.064 H 
ATOM     18  H   LIG d   1       2.703   2.712  -9.360  0.00  0.00     0.067 H 
ATOM     19  H   LIG d   1       6.863  -1.520  -7.979  0.00  0.00     0.028 H 
ATOM     20  H   LIG d   1       6.442  -3.244  -8.150  0.00  0.00     0.028 H 
ATOM     21  H   LIG d   1       6.622  -0.003 -10.070  0.00  0.00     0.050 H 
ATOM     22  H   LIG d   1       5.423  -0.523 -11.267  0.00  0.00     0.050 H 
ATOM     23  H   LIG d   1       4.804  -2.725 -11.524  0.00  0.00     0.045 H 
ATOM     24  H   LIG d   1       5.366  -4.014 -10.434  0.00  0.00     0.045 H 
ATOM     25  H   LIG d   1       4.140  -4.013  -7.992  0.00  0.00     0.045 H 
ATOM     26  H   LIG d   1       2.791  -2.852  -7.834  0.00  0.00     0.045 H 
ENDROOT
BRANCH   1  27
ATOM     27  N   LIG d   1       2.992  -0.531  -6.184  0.00  0.00    -0.219 N 
ATOM     28  H   LIG d   1       2.395  -1.295  -6.162  0.00  0.00     0.173 HD
BRANCH  27  29
ATOM     29  S   LIG d   1       3.583   0.100  -4.772  0.00  0.00     0.043 S 
ATOM     30  O   LIG d   1       4.988   0.173  -4.968  0.00  0.00    -0.155 OA
ATOM     31  O   LIG d   1       2.820   1.279  -4.554  0.00  0.00    -0.155 OA
BRANCH  29  32
ATOM     32  C   LIG d   1       3.192  -1.140  -3.507  0.00  0.00     0.085 C 
ATOM     33  H   LIG d   1       2.279  -0.852  -2.986  0.00  0.00     0.052 H 
ATOM     34  H   LIG d   1       3.048  -2.110  -3.982  0.00  0.00     0.052 H 
BRANCH  32  35
ATOM     35  C   LIG d   1       4.345  -1.228  -2.505  0.00  0.00    -0.035 C 
ATOM     36  H   LIG d   1       4.174  -2.063  -1.827  0.00  0.00     0.028 H 
ATOM     37  H   LIG d   1       5.281  -1.381  -3.042  0.00  0.00     0.028 H 
BRANCH  35  38
ATOM     38  C   LIG d   1       4.423   0.073  -1.704  0.00  0.00    -0.064 C 
ATOM     39  H   LIG d   1       5.440   0.213  -1.336  0.00  0.00     0.023 H 
ATOM     40  H   LIG d   1       4.150   0.911  -2.345  0.00  0.00     0.023 H 
ATOM     41  H   LIG d   1       3.736   0.022  -0.860  0.00  0.00     0.023 H 
ENDBRANCH  35  38
ENDBRANCH  32  35
ENDBRANCH  29  32
ENDBRANCH  27  29
ENDBRANCH   1  27
BRANCH  15  42
ATOM     42  S   LIG d   1       2.263  -2.681 -10.498  0.00  0.00     0.061 S 
ATOM     43  O   LIG d   1       1.507  -1.785  -9.694  0.00  0.00    -0.153 OA
ATOM     44  O   LIG d   1       2.562  -2.413 -11.861  0.00  0.00    -0.153 OA
BRANCH  42  45
ATOM     45  C   LIG d   1       1.420  -4.227 -10.461  0.00  0.00     0.105 A 
ATOM     46  C   LIG d   1       0.041  -4.264 -10.560  0.00  0.00    -0.035 A 
ATOM     47  C   LIG d   1      -0.621  -5.477 -10.532  0.00  0.00    -0.060 A 
ATOM     48  H   LIG d   1      -0.518  -3.346 -10.660  0.00  0.00     0.064 H 
ATOM     49  C   LIG d   1       0.096  -6.653 -10.405  0.00  0.00    -0.062 A 
ATOM     50  H   LIG d   1      -1.697  -5.506 -10.610  0.00  0.00     0.062 H 
ATOM     51  C   LIG d   1       1.474  -6.615 -10.306  0.00  0.00    -0.060 A 
ATOM     52  H   LIG d   1      -0.423  -7.601 -10.382  0.00  0.00     0.062 H 
ATOM     53  C   LIG d   1       2.136  -5.403 -10.339  0.00  0.00    -0.035 A 
ATOM     54  H   LIG d   1       2.033  -7.533 -10.206  0.00  0.00     0.062 H 
ATOM     55  H   LIG d   1       3.213  -5.374 -10.267  0.00  0.00     0.064 H 
ENDBRANCH  42  45
ENDBRANCH  15  42
TORSDOF 7
ENDMDL
MODEL 6
REMARK VINA RESULT:      -6.4      2.431      5.329
REMARK  7 active torsions:
REMARK  status: ('A' for Active; 'I' for Inactive)
REMARK    1  A    between atoms: C_1  and  C_2 
REMARK    2  A    between atoms: C_2  and  C_3 
REMARK    3  A    between atoms: C_3  and  S_4 
REMARK    4  A    between atoms: S_4  and  N_7 
REMARK    5  A    between atoms: N_7  and  C_8 
REMARK    6  A    between atoms: N_22  and  S_24 
REMARK    7  A    between atoms: S_24  and  C_27 
ROOT
ATOM      1  C   LIG d   1       4.313  -0.899  -5.840  0.00  0.00     0.068 A 
ATOM      2  C   LIG d   1       4.774  -2.068  -5.217  0.00  0.00    -0.033 A 
ATOM      3  C   LIG d   1       4.806  -3.228  -5.935  0.00  0.00     0.005 A 
ATOM      4  C   LIG d   1       4.348  -3.225  -7.259  0.00  0.00     0.252 A 
ATOM      5  O   LIG d   1       4.422  -4.247  -7.925  0.00  0.00    -0.268 OA
ATOM      6  N   LIG d   1       3.825  -2.103  -7.812  0.00  0.00    -0.310 N 
ATOM      7  C   LIG d   1       3.874  -0.921  -7.113  0.00  0.00     0.049 A 
ATOM      8  C   LIG d   1       3.449   0.379  -7.753  0.00  0.00     0.016 C 
ATOM      9  H   LIG d   1       3.012   1.041  -7.005  0.00  0.00     0.038 H 
ATOM     10  C   LIG d   1       2.442   0.118  -8.877  0.00  0.00    -0.038 C 
ATOM     11  C   LIG d   1       3.049  -0.904  -9.838  0.00  0.00    -0.008 C 
ATOM     12  H   LIG d   1       2.346  -1.054 -10.658  0.00  0.00     0.033 H 
ATOM     13  C   LIG d   1       3.214  -2.238  -9.134  0.00  0.00     0.030 C 
ATOM     14  C   LIG d   1       4.358  -0.398 -10.424  0.00  0.00     0.025 C 
ATOM     15  N   LIG d   1       5.254   0.074  -9.342  0.00  0.00    -0.176 N 
ATOM     16  C   LIG d   1       4.701   1.029  -8.368  0.00  0.00     0.029 C 
ATOM     17  H   LIG d   1       5.100  -2.052  -4.187  0.00  0.00     0.064 H 
ATOM     18  H   LIG d   1       5.178  -4.138  -5.487  0.00  0.00     0.067 H 
ATOM     19  H   LIG d   1       1.517  -0.276  -8.457  0.00  0.00     0.028 H 
ATOM     20  H   LIG d   1       2.237   1.047  -9.409  0.00  0.00     0.028 H 
ATOM     21  H   LIG d   1       2.235  -2.704  -9.025  0.00  0.00     0.050 H 
ATOM     22  H   LIG d   1       3.843  -2.885  -9.747  0.00  0.00     0.050 H 
ATOM     23  H   LIG d   1       4.850  -1.209 -10.963  0.00  0.00     0.045 H 
ATOM     24  H   LIG d   1       4.152   0.420 -11.114  0.00  0.00     0.045 H 
ATOM     25  H   LIG d   1       4.429   1.956  -8.872  0.00  0.00     0.045 H 
ATOM     26  H   LIG d   1       5.436   1.230  -7.588  0.00  0.00     0.045 H 
ENDROOT
BRANCH   1  27
ATOM     27  N   LIG d   1       4.308   0.312  -5.131  0.00  0.00    -0.219 N 
ATOM     28  H   LIG d   1       5.080   0.898  -5.168  0.00  0.00     0.173 HD
BRANCH  27  29
ATOM     29  S   LIG d   1       2.983   0.741  -4.234  0.00  0.00     0.043 S 
ATOM     30  O   LIG d   1       2.496   1.924  -4.851  0.00  0.00    -0.155 OA
ATOM     31  O   LIG d   1       2.184  -0.432  -4.185  0.00  0.00    -0.155 OA
BRANCH  29  32
ATOM     32  C   LIG d   1       3.640   1.120  -2.586  0.00  0.00     0.085 C 
ATOM     33  H   LIG d   1       3.895   2.178  -2.531  0.00  0.00     0.052 H 
ATOM     34  H   LIG d   1       2.887   0.888  -1.833  0.00  0.00     0.052 H 
BRANCH  32  35
ATOM     35  C   LIG d   1       4.893   0.280  -2.331  0.00  0.00    -0.035 C 
ATOM     36  H   LIG d   1       5.407   0.097  -3.274  0.00  0.00     0.028 H 
ATOM     37  H   LIG d   1       5.557   0.815  -1.653  0.00  0.00     0.028 H 
BRANCH  35  38
ATOM     38  C   LIG d   1       4.490  -1.056  -1.702  0.00  0.00    -0.064 C 
ATOM     39  H   LIG d   1       4.690  -1.864  -2.405  0.00  0.00     0.023 H 
ATOM     40  H   LIG d   1       5.068  -1.217  -0.791  0.00  0.00     0.023 H 
ATOM     41  H   LIG d   1       3.428  -1.038  -1.461  0.00  0.00     0.023 H 
ENDBRANCH  35  38
ENDBRANCH  32  35
ENDBRANCH  29  32
ENDBRANCH  27  29
ENDBRANCH   1  27
BRANCH  15  42
ATOM     42  S   LIG d   1       6.830  -0.426  -9.237  0.00  0.00     0.061 S 
ATOM     43  O   LIG d   1       6.801  -1.843  -9.148  0.00  0.00    -0.153 OA
ATOM     44  O   LIG d   1       7.542   0.260 -10.258  0.00  0.00    -0.153 OA
BRANCH  42  45
ATOM     45  C   LIG d   1       7.462   0.164  -7.701  0.00  0.00     0.105 A 
ATOM     46  C   LIG d   1       7.783   1.501  -7.554  0.00  0.00    -0.035 A 
ATOM     47  C   LIG d   1       8.280   1.963  -6.350  0.00  0.00    -0.060 A 
ATOM     48  H   LIG d   1       7.647   2.183  -8.380  0.00  0.00     0.064 H 
ATOM     49  C   LIG d   1       8.453   1.090  -5.293  0.00  0.00    -0.062 A 
ATOM     50  H   LIG d   1       8.530   3.007  -6.235  0.00  0.00     0.062 H 
ATOM     51  C   LIG d   1       8.132  -0.247  -5.440  0.00  0.00    -0.060 A 
ATOM     52  H   LIG d   1       8.842   1.452  -4.352  0.00  0.00     0.062 H 
ATOM     53  C   LIG d   1       7.631  -0.709  -6.642  0.00  0.00    -0.035 A 
ATOM     54  H   LIG d   1       8.268  -0.929  -4.614  0.00  0.00     0.062 H 
ATOM     55  H   LIG d   1       7.375  -1.751  -6.756  0.00  0.00     0.064 H 
ENDBRANCH  42  45
ENDBRANCH  15  42
TORSDOF 7
ENDMDL
MODEL 7
REMARK VINA RESULT:      -6.4      3.237      5.581
REMARK  7 active torsions:
REMARK  status: ('A' for Active; 'I' for Inactive)
REMARK    1  A    between atoms: C_1  and  C_2 
REMARK    2  A    between atoms: C_2  and  C_3 
REMARK    3  A    between atoms: C_3  and  S_4 
REMARK    4  A    between atoms: S_4  and  N_7 
REMARK    5  A    between atoms: N_7  and  C_8 
REMARK    6  A    between atoms: N_22  and  S_24 
REMARK    7  A    between atoms: S_24  and  C_27 
ROOT
ATOM      1  C   LIG d   1       5.735  -1.457 -10.259  0.00  0.00     0.068 A 
ATOM      2  C   LIG d   1       6.959  -0.864 -10.603  0.00  0.00    -0.033 A 
ATOM      3  C   LIG d   1       7.177   0.440 -10.265  0.00  0.00     0.005 A 
ATOM      4  C   LIG d   1       6.164   1.156  -9.615  0.00  0.00     0.252 A 
ATOM      5  O   LIG d   1       6.371   2.308  -9.262  0.00  0.00    -0.268 OA
ATOM      6  N   LIG d   1       4.958   0.589  -9.371  0.00  0.00    -0.310 N 
ATOM      7  C   LIG d   1       4.774  -0.747  -9.637  0.00  0.00     0.049 A 
ATOM      8  C   LIG d   1       3.502  -1.453  -9.234  0.00  0.00     0.016 C 
ATOM      9  H   LIG d   1       3.264  -2.238  -9.952  0.00  0.00     0.038 H 
ATOM     10  C   LIG d   1       2.343  -0.456  -9.143  0.00  0.00    -0.038 C 
ATOM     11  C   LIG d   1       2.764   0.688  -8.220  0.00  0.00    -0.008 C 
ATOM     12  H   LIG d   1       1.921   1.372  -8.125  0.00  0.00     0.033 H 
ATOM     13  C   LIG d   1       3.907   1.463  -8.849  0.00  0.00     0.030 C 
ATOM     14  C   LIG d   1       3.115   0.174  -6.832  0.00  0.00     0.025 C 
ATOM     15  N   LIG d   1       4.070  -0.955  -6.931  0.00  0.00    -0.176 N 
ATOM     16  C   LIG d   1       3.726  -2.061  -7.839  0.00  0.00     0.029 C 
ATOM     17  H   LIG d   1       7.717  -1.429 -11.125  0.00  0.00     0.064 H 
ATOM     18  H   LIG d   1       8.120   0.915 -10.497  0.00  0.00     0.067 H 
ATOM     19  H   LIG d   1       2.117  -0.064 -10.134  0.00  0.00     0.028 H 
ATOM     20  H   LIG d   1       1.462  -0.952  -8.734  0.00  0.00     0.028 H 
ATOM     21  H   LIG d   1       3.515   2.071  -9.665  0.00  0.00     0.050 H 
ATOM     22  H   LIG d   1       4.340   2.124  -8.098  0.00  0.00     0.050 H 
ATOM     23  H   LIG d   1       3.574   0.978  -6.254  0.00  0.00     0.045 H 
ATOM     24  H   LIG d   1       2.205  -0.157  -6.330  0.00  0.00     0.045 H 
ATOM     25  H   LIG d   1       2.815  -2.551  -7.496  0.00  0.00     0.045 H 
ATOM     26  H   LIG d   1       4.545  -2.779  -7.874  0.00  0.00     0.045 H 
ENDROOT
BRANCH   1  27
ATOM     27  N   LIG d   1       5.505  -2.807 -10.563  0.00  0.00    -0.219 N 
ATOM     28  H   LIG d   1       5.506  -3.470  -9.855  0.00  0.00     0.173 HD
BRANCH  27  29
ATOM     29  S   LIG d   1       5.231  -3.267 -12.130  0.00  0.00     0.043 S 
ATOM     30  O   LIG d   1       6.524  -3.498 -12.671  0.00  0.00    -0.155 OA
ATOM     31  O   LIG d   1       4.285  -4.322 -12.038  0.00  0.00    -0.155 OA
BRANCH  29  32
ATOM     32  C   LIG d   1       4.475  -1.816 -12.916  0.00  0.00     0.085 C 
ATOM     33  H   LIG d   1       4.325  -1.036 -12.171  0.00  0.00     0.052 H 
ATOM     34  H   LIG d   1       5.133  -1.446 -13.703  0.00  0.00     0.052 H 
BRANCH  32  35
ATOM     35  C   LIG d   1       3.126  -2.210 -13.521  0.00  0.00    -0.035 C 
ATOM     36  H   LIG d   1       3.046  -1.800 -14.528  0.00  0.00     0.028 H 
ATOM     37  H   LIG d   1       3.051  -3.296 -13.564  0.00  0.00     0.028 H 
BRANCH  35  38
ATOM     38  C   LIG d   1       1.997  -1.653 -12.653  0.00  0.00    -0.064 C 
ATOM     39  H   LIG d   1       1.065  -2.162 -12.898  0.00  0.00     0.023 H 
ATOM     40  H   LIG d   1       2.234  -1.817 -11.601  0.00  0.00     0.023 H 
ATOM     41  H   LIG d   1       1.888  -0.585 -12.839  0.00  0.00     0.023 H 
ENDBRANCH  35  38
ENDBRANCH  32  35
ENDBRANCH  29  32
ENDBRANCH  27  29
ENDBRANCH   1  27
BRANCH  15  42
ATOM     42  S   LIG d   1       5.465  -0.995  -6.038  0.00  0.00     0.061 S 
ATOM     43  O   LIG d   1       6.074  -2.252  -6.293  0.00  0.00    -0.153 OA
ATOM     44  O   LIG d   1       6.133   0.237  -6.275  0.00  0.00    -0.153 OA
BRANCH  42  45
ATOM     45  C   LIG d   1       4.997  -0.995  -4.340  0.00  0.00     0.105 A 
ATOM     46  C   LIG d   1       4.386  -2.108  -3.792  0.00  0.00    -0.035 A 
ATOM     47  C   LIG d   1       4.019  -2.109  -2.460  0.00  0.00    -0.060 A 
ATOM     48  H   LIG d   1       4.196  -2.976  -4.405  0.00  0.00     0.064 H 
ATOM     49  C   LIG d   1       4.264  -0.997  -1.675  0.00  0.00    -0.062 A 
ATOM     50  H   LIG d   1       3.542  -2.978  -2.032  0.00  0.00     0.062 H 
ATOM     51  C   LIG d   1       4.874   0.115  -2.222  0.00  0.00    -0.060 A 
ATOM     52  H   LIG d   1       3.976  -0.999  -0.633  0.00  0.00     0.062 H 
ATOM     53  C   LIG d   1       5.246   0.114  -3.553  0.00  0.00    -0.035 A 
ATOM     54  H   LIG d   1       5.064   0.983  -1.609  0.00  0.00     0.062 H 
ATOM     55  H   LIG d   1       5.728   0.981  -3.980  0.00  0.00     0.064 H 
ENDBRANCH  42  45
ENDBRANCH  15  42
TORSDOF 7
ENDMDL
MODEL 8
REMARK VINA RESULT:      -6.3      3.318      5.217
REMARK  7 active torsions:
REMARK  status: ('A' for Active; 'I' for Inactive)
REMARK    1  A    between atoms: C_1  and  C_2 
REMARK    2  A    between atoms: C_2  and  C_3 
REMARK    3  A    between atoms: C_3  and  S_4 
REMARK    4  A    between atoms: S_4  and  N_7 
REMARK    5  A    between atoms: N_7  and  C_8 
REMARK    6  A    between atoms: N_22  and  S_24 
REMARK    7  A    between atoms: S_24  and  C_27 
ROOT
ATOM      1  C   LIG d   1       3.759  -3.546  -8.410  0.00  0.00     0.068 A 
ATOM      2  C   LIG d   1       3.419  -4.895  -8.223  0.00  0.00    -0.033 A 
ATOM      3  C   LIG d   1       4.396  -5.776  -7.864  0.00  0.00     0.005 A 
ATOM      4  C   LIG d   1       5.713  -5.319  -7.726  0.00  0.00     0.252 A 
ATOM      5  O   LIG d   1       6.584  -6.091  -7.355  0.00  0.00    -0.268 OA
ATOM      6  N   LIG d   1       6.033  -4.030  -7.998  0.00  0.00    -0.310 N 
ATOM      7  C   LIG d   1       5.032  -3.130  -8.275  0.00  0.00     0.049 A 
ATOM      8  C   LIG d   1       5.330  -1.657  -8.427  0.00  0.00     0.016 C 
ATOM      9  H   LIG d   1       4.651  -1.209  -9.152  0.00  0.00     0.038 H 
ATOM     10  C   LIG d   1       6.782  -1.448  -8.864  0.00  0.00    -0.038 C 
ATOM     11  C   LIG d   1       7.692  -2.191  -7.886  0.00  0.00    -0.008 C 
ATOM     12  H   LIG d   1       8.725  -2.003  -8.178  0.00  0.00     0.033 H 
ATOM     13  C   LIG d   1       7.455  -3.686  -7.996  0.00  0.00     0.030 C 
ATOM     14  C   LIG d   1       7.502  -1.683  -6.465  0.00  0.00     0.025 C 
ATOM     15  N   LIG d   1       6.062  -1.667  -6.116  0.00  0.00    -0.176 N 
ATOM     16  C   LIG d   1       5.142  -0.999  -7.049  0.00  0.00     0.029 C 
ATOM     17  H   LIG d   1       2.400  -5.229  -8.357  0.00  0.00     0.064 H 
ATOM     18  H   LIG d   1       4.158  -6.816  -7.690  0.00  0.00     0.067 H 
ATOM     19  H   LIG d   1       6.923  -1.843  -9.870  0.00  0.00     0.028 H 
ATOM     20  H   LIG d   1       7.020  -0.383  -8.852  0.00  0.00     0.028 H 
ATOM     21  H   LIG d   1       7.907  -4.047  -8.920  0.00  0.00     0.050 H 
ATOM     22  H   LIG d   1       7.936  -4.182  -7.154  0.00  0.00     0.050 H 
ATOM     23  H   LIG d   1       8.028  -2.342  -5.772  0.00  0.00     0.045 H 
ATOM     24  H   LIG d   1       7.911  -0.676  -6.385  0.00  0.00     0.045 H 
ATOM     25  H   LIG d   1       5.382   0.063  -7.109  0.00  0.00     0.045 H 
ATOM     26  H   LIG d   1       4.113  -1.129  -6.713  0.00  0.00     0.045 H 
ENDROOT
BRANCH   1  27
ATOM     27  N   LIG d   1       2.762  -2.616  -8.741  0.00  0.00    -0.219 N 
ATOM     28  H   LIG d   1       2.438  -1.994  -8.072  0.00  0.00     0.173 HD
BRANCH  27  29
ATOM     29  S   LIG d   1       2.140  -2.581 -10.275  0.00  0.00     0.043 S 
ATOM     30  O   LIG d   1       3.259  -2.792 -11.125  0.00  0.00    -0.155 OA
ATOM     31  O   LIG d   1       1.064  -3.508 -10.252  0.00  0.00    -0.155 OA
BRANCH  29  32
ATOM     32  C   LIG d   1       1.506  -0.893 -10.483  0.00  0.00     0.085 C 
ATOM     33  H   LIG d   1       1.691  -0.559 -11.503  0.00  0.00     0.052 H 
ATOM     34  H   LIG d   1       0.434  -0.881 -10.285  0.00  0.00     0.052 H 
BRANCH  32  35
ATOM     35  C   LIG d   1       2.217   0.042  -9.502  0.00  0.00    -0.035 C 
ATOM     36  H   LIG d   1       1.500   0.755  -9.096  0.00  0.00     0.028 H 
ATOM     37  H   LIG d   1       2.648  -0.543  -8.690  0.00  0.00     0.028 H 
BRANCH  35  38
ATOM     38  C   LIG d   1       3.329   0.796 -10.234  0.00  0.00    -0.064 C 
ATOM     39  H   LIG d   1       4.270   0.259 -10.116  0.00  0.00     0.023 H 
ATOM     40  H   LIG d   1       3.082   0.869 -11.293  0.00  0.00     0.023 H 
ATOM     41  H   LIG d   1       3.426   1.797  -9.814  0.00  0.00     0.023 H 
ENDBRANCH  35  38
ENDBRANCH  32  35
ENDBRANCH  29  32
ENDBRANCH  27  29
ENDBRANCH   1  27
BRANCH  15  42
ATOM     42  S   LIG d   1       5.498  -2.352  -4.716  0.00  0.00     0.061 S 
ATOM     43  O   LIG d   1       4.374  -3.142  -5.075  0.00  0.00    -0.153 OA
ATOM     44  O   LIG d   1       6.628  -2.894  -4.047  0.00  0.00    -0.153 OA
BRANCH  42  45
ATOM     45  C   LIG d   1       4.894  -1.044  -3.703  0.00  0.00     0.105 A 
ATOM     46  C   LIG d   1       3.556  -1.000  -3.356  0.00  0.00    -0.035 A 
ATOM     47  C   LIG d   1       3.081   0.026  -2.561  0.00  0.00    -0.060 A 
ATOM     48  H   LIG d   1       2.882  -1.768  -3.707  0.00  0.00     0.064 H 
ATOM     49  C   LIG d   1       3.944   1.008  -2.112  0.00  0.00    -0.062 A 
ATOM     50  H   LIG d   1       2.036   0.059  -2.291  0.00  0.00     0.062 H 
ATOM     51  C   LIG d   1       5.281   0.965  -2.459  0.00  0.00    -0.060 A 
ATOM     52  H   LIG d   1       3.572   1.811  -1.492  0.00  0.00     0.062 H 
ATOM     53  C   LIG d   1       5.757  -0.064  -3.250  0.00  0.00    -0.035 A 
ATOM     54  H   LIG d   1       5.955   1.733  -2.109  0.00  0.00     0.062 H 
ATOM     55  H   LIG d   1       6.803  -0.101  -3.516  0.00  0.00     0.064 H 
ENDBRANCH  42  45
ENDBRANCH  15  42
TORSDOF 7
ENDMDL
MODEL 9
REMARK VINA RESULT:      -6.0      2.476      3.129
REMARK  7 active torsions:
REMARK  status: ('A' for Active; 'I' for Inactive)
REMARK    1  A    between atoms: C_1  and  C_2 
REMARK    2  A    between atoms: C_2  and  C_3 
REMARK    3  A    between atoms: C_3  and  S_4 
REMARK    4  A    between atoms: S_4  and  N_7 
REMARK    5  A    between atoms: N_7  and  C_8 
REMARK    6  A    between atoms: N_22  and  S_24 
REMARK    7  A    between atoms: S_24  and  C_27 
ROOT
ATOM      1  C   LIG d   1       4.388  -0.582  -5.727  0.00  0.00     0.068 A 
ATOM      2  C   LIG d   1       3.826  -0.093  -4.538  0.00  0.00    -0.033 A 
ATOM      3  C   LIG d   1       3.657  -0.948  -3.489  0.00  0.00     0.005 A 
ATOM      4  C   LIG d   1       4.018  -2.293  -3.639  0.00  0.00     0.252 A 
ATOM      5  O   LIG d   1       3.918  -3.053  -2.687  0.00  0.00    -0.268 OA
ATOM      6  N   LIG d   1       4.477  -2.763  -4.824  0.00  0.00    -0.310 N 
ATOM      7  C   LIG d   1       4.724  -1.880  -5.849  0.00  0.00     0.049 A 
ATOM      8  C   LIG d   1       5.383  -2.338  -7.128  0.00  0.00     0.016 C 
ATOM      9  H   LIG d   1       5.010  -1.759  -7.972  0.00  0.00     0.038 H 
ATOM     10  C   LIG d   1       5.125  -3.830  -7.358  0.00  0.00    -0.038 C 
ATOM     11  C   LIG d   1       5.554  -4.592  -6.104  0.00  0.00    -0.008 C 
ATOM     12  H   LIG d   1       5.408  -5.656  -6.290  0.00  0.00     0.033 H 
ATOM     13  C   LIG d   1       4.662  -4.209  -4.938  0.00  0.00     0.030 C 
ATOM     14  C   LIG d   1       7.027  -4.364  -5.799  0.00  0.00     0.025 C 
ATOM     15  N   LIG d   1       7.331  -2.913  -5.803  0.00  0.00    -0.176 N 
ATOM     16  C   LIG d   1       6.900  -2.130  -6.972  0.00  0.00     0.029 C 
ATOM     17  H   LIG d   1       3.533   0.944  -4.454  0.00  0.00     0.064 H 
ATOM     18  H   LIG d   1       3.248  -0.592  -2.554  0.00  0.00     0.067 H 
ATOM     19  H   LIG d   1       4.064  -3.994  -7.543  0.00  0.00     0.028 H 
ATOM     20  H   LIG d   1       5.705  -4.175  -8.215  0.00  0.00     0.028 H 
ATOM     21  H   LIG d   1       3.688  -4.681  -5.069  0.00  0.00     0.050 H 
ATOM     22  H   LIG d   1       5.109  -4.580  -4.016  0.00  0.00     0.050 H 
ATOM     23  H   LIG d   1       7.259  -4.772  -4.815  0.00  0.00     0.045 H 
ATOM     24  H   LIG d   1       7.633  -4.868  -6.551  0.00  0.00     0.045 H 
ATOM     25  H   LIG d   1       7.417  -2.482  -7.865  0.00  0.00     0.045 H 
ATOM     26  H   LIG d   1       7.115  -1.073  -6.811  0.00  0.00     0.045 H 
ENDROOT
BRANCH   1  27
ATOM     27  N   LIG d   1       4.606   0.289  -6.805  0.00  0.00    -0.219 N 
ATOM     28  H   LIG d   1       5.495   0.639  -6.973  0.00  0.00     0.173 HD
BRANCH  27  29
ATOM     29  S   LIG d   1       3.346   0.719  -7.790  0.00  0.00     0.043 S 
ATOM     30  O   LIG d   1       2.572  -0.466  -7.925  0.00  0.00    -0.155 OA
ATOM     31  O   LIG d   1       2.793   1.880  -7.186  0.00  0.00    -0.155 OA
BRANCH  29  32
ATOM     32  C   LIG d   1       4.118   1.146  -9.375  0.00  0.00     0.085 C 
ATOM     33  H   LIG d   1       4.156   0.261 -10.010  0.00  0.00     0.052 H 
ATOM     34  H   LIG d   1       3.531   1.921  -9.867  0.00  0.00     0.052 H 
BRANCH  32  35
ATOM     35  C   LIG d   1       5.538   1.659  -9.129  0.00  0.00    -0.035 C 
ATOM     36  H   LIG d   1       5.664   2.627  -9.613  0.00  0.00     0.028 H 
ATOM     37  H   LIG d   1       5.704   1.765  -8.057  0.00  0.00     0.028 H 
BRANCH  35  38
ATOM     38  C   LIG d   1       6.546   0.664  -9.707  0.00  0.00    -0.064 C 
ATOM     39  H   LIG d   1       7.300   1.202 -10.280  0.00  0.00     0.023 H 
ATOM     40  H   LIG d   1       7.027   0.121  -8.893  0.00  0.00     0.023 H 
ATOM     41  H   LIG d   1       6.029  -0.041 -10.357  0.00  0.00     0.023 H 
ENDBRANCH  35  38
ENDBRANCH  32  35
ENDBRANCH  29  32
ENDBRANCH  27  29
ENDBRANCH   1  27
BRANCH  15  42
ATOM     42  S   LIG d   1       8.148  -2.192  -4.556  0.00  0.00     0.061 S 
ATOM     43  O   LIG d   1       7.321  -2.310  -3.407  0.00  0.00    -0.153 OA
ATOM     44  O   LIG d   1       9.475  -2.697  -4.594  0.00  0.00    -0.153 OA
BRANCH  42  45
ATOM     45  C   LIG d   1       8.254  -0.473  -4.927  0.00  0.00     0.105 A 
ATOM     46  C   LIG d   1       7.539   0.442  -4.175  0.00  0.00    -0.035 A 
ATOM     47  C   LIG d   1       7.622   1.790  -4.466  0.00  0.00    -0.060 A 
ATOM     48  H   LIG d   1       6.917   0.102  -3.360  0.00  0.00     0.064 H 
ATOM     49  C   LIG d   1       8.419   2.225  -5.508  0.00  0.00    -0.062 A 
ATOM     50  H   LIG d   1       7.065   2.504  -3.878  0.00  0.00     0.062 H 
ATOM     51  C   LIG d   1       9.133   1.311  -6.261  0.00  0.00    -0.060 A 
ATOM     52  H   LIG d   1       8.483   3.279  -5.736  0.00  0.00     0.062 H 
ATOM     53  C   LIG d   1       9.055  -0.038  -5.967  0.00  0.00    -0.035 A 
ATOM     54  H   LIG d   1       9.755   1.650  -7.075  0.00  0.00     0.062 H 
ATOM     55  H   LIG d   1       9.615  -0.751  -6.550  0.00  0.00     0.064 H 
ENDBRANCH  42  45
ENDBRANCH  15  42
TORSDOF 7
ENDMDL
MODEL 10
REMARK VINA RESULT:      -5.9      2.089      3.880
REMARK  7 active torsions:
REMARK  status: ('A' for Active; 'I' for Inactive)
REMARK    1  A    between atoms: C_1  and  C_2 
REMARK    2  A    between atoms: C_2  and  C_3 
REMARK    3  A    between atoms: C_3  and  S_4 
REMARK    4  A    between atoms: S_4  and  N_7 
REMARK    5  A    between atoms: N_7  and  C_8 
REMARK    6  A    between atoms: N_22  and  S_24 
REMARK    7  A    between atoms: S_24  and  C_27 
ROOT
ATOM      1  C   LIG d   1       4.793  -2.289  -6.185  0.00  0.00     0.068 A 
ATOM      2  C   LIG d   1       4.216  -1.814  -7.373  0.00  0.00    -0.033 A 
ATOM      3  C   LIG d   1       3.526  -0.638  -7.345  0.00  0.00     0.005 A 
ATOM      4  C   LIG d   1       3.384   0.043  -6.130  0.00  0.00     0.252 A 
ATOM      5  O   LIG d   1       2.812   1.123  -6.106  0.00  0.00    -0.268 OA
ATOM      6  N   LIG d   1       3.874  -0.479  -4.978  0.00  0.00    -0.310 N 
ATOM      7  C   LIG d   1       4.640  -1.619  -5.027  0.00  0.00     0.049 A 
ATOM      8  C   LIG d   1       5.335  -2.143  -3.793  0.00  0.00     0.016 C 
ATOM      9  H   LIG d   1       5.389  -3.231  -3.826  0.00  0.00     0.038 H 
ATOM     10  C   LIG d   1       4.595  -1.690  -2.531  0.00  0.00    -0.038 C 
ATOM     11  C   LIG d   1       4.437  -0.171  -2.584  0.00  0.00    -0.008 C 
ATOM     12  H   LIG d   1       3.949   0.150  -1.664  0.00  0.00     0.033 H 
ATOM     13  C   LIG d   1       3.528   0.213  -3.737  0.00  0.00     0.030 C 
ATOM     14  C   LIG d   1       5.790   0.520  -2.667  0.00  0.00     0.025 C 
ATOM     15  N   LIG d   1       6.605  -0.078  -3.750  0.00  0.00    -0.176 N 
ATOM     16  C   LIG d   1       6.751  -1.543  -3.764  0.00  0.00     0.029 C 
ATOM     17  H   LIG d   1       4.319  -2.368  -8.295  0.00  0.00     0.064 H 
ATOM     18  H   LIG d   1       3.092  -0.237  -8.250  0.00  0.00     0.067 H 
ATOM     19  H   LIG d   1       3.613  -2.161  -2.492  0.00  0.00     0.028 H 
ATOM     20  H   LIG d   1       5.171  -1.969  -1.648  0.00  0.00     0.028 H 
ATOM     21  H   LIG d   1       2.499  -0.032  -3.471  0.00  0.00     0.050 H 
ATOM     22  H   LIG d   1       3.601   1.288  -3.901  0.00  0.00     0.050 H 
ATOM     23  H   LIG d   1       5.643   1.580  -2.878  0.00  0.00     0.045 H 
ATOM     24  H   LIG d   1       6.309   0.411  -1.714  0.00  0.00     0.045 H 
ATOM     25  H   LIG d   1       7.275  -1.871  -2.866  0.00  0.00     0.045 H 
ATOM     26  H   LIG d   1       7.304  -1.852  -4.651  0.00  0.00     0.045 H 
ENDROOT
BRANCH   1  27
ATOM     27  N   LIG d   1       5.539  -3.477  -6.200  0.00  0.00    -0.219 N 
ATOM     28  H   LIG d   1       5.355  -4.172  -5.549  0.00  0.00     0.173 HD
BRANCH  27  29
ATOM     29  S   LIG d   1       6.732  -3.692  -7.328  0.00  0.00     0.043 S 
ATOM     30  O   LIG d   1       6.082  -4.314  -8.428  0.00  0.00    -0.155 OA
ATOM     31  O   LIG d   1       7.331  -2.412  -7.470  0.00  0.00    -0.155 OA
BRANCH  29  32
ATOM     32  C   LIG d   1       7.900  -4.847  -6.557  0.00  0.00     0.085 C 
ATOM     33  H   LIG d   1       7.732  -5.849  -6.951  0.00  0.00     0.052 H 
ATOM     34  H   LIG d   1       8.920  -4.534  -6.781  0.00  0.00     0.052 H 
BRANCH  32  35
ATOM     35  C   LIG d   1       7.687  -4.851  -5.042  0.00  0.00    -0.035 C 
ATOM     36  H   LIG d   1       6.919  -4.124  -4.781  0.00  0.00     0.028 H 
ATOM     37  H   LIG d   1       7.371  -5.844  -4.723  0.00  0.00     0.028 H 
BRANCH  35  38
ATOM     38  C   LIG d   1       8.998  -4.484  -4.344  0.00  0.00    -0.064 C 
ATOM     39  H   LIG d   1       8.791  -4.187  -3.316  0.00  0.00     0.023 H 
ATOM     40  H   LIG d   1       9.664  -5.346  -4.345  0.00  0.00     0.023 H 
ATOM     41  H   LIG d   1       9.472  -3.657  -4.872  0.00  0.00     0.023 H 
ENDBRANCH  35  38
ENDBRANCH  32  35
ENDBRANCH  29  32
ENDBRANCH  27  29
ENDBRANCH   1  27
BRANCH  15  42
ATOM     42  S   LIG d   1       7.350   0.857  -4.897  0.00  0.00     0.061 S 
ATOM     43  O   LIG d   1       6.824   0.455  -6.154  0.00  0.00    -0.153 OA
ATOM     44  O   LIG d   1       7.277   2.199  -4.435  0.00  0.00    -0.153 OA
BRANCH  42  45
ATOM     45  C   LIG d   1       9.056   0.418  -4.899  0.00  0.00     0.105 A 
ATOM     46  C   LIG d   1       9.446  -0.835  -5.336  0.00  0.00    -0.035 A 
ATOM     47  C   LIG d   1      10.785  -1.179  -5.338  0.00  0.00    -0.060 A 
ATOM     48  H   LIG d   1       8.706  -1.543  -5.676  0.00  0.00     0.064 H 
ATOM     49  C   LIG d   1      11.733  -0.271  -4.904  0.00  0.00    -0.062 A 
ATOM     50  H   LIG d   1      11.089  -2.157  -5.680  0.00  0.00     0.062 H 
ATOM     51  C   LIG d   1      11.343   0.980  -4.467  0.00  0.00    -0.060 A 
ATOM     52  H   LIG d   1      12.779  -0.542  -4.905  0.00  0.00     0.062 H 
ATOM     53  C   LIG d   1      10.005   1.327  -4.470  0.00  0.00    -0.035 A 
ATOM     54  H   LIG d   1      12.083   1.689  -4.127  0.00  0.00     0.062 H 
ATOM     55  H   LIG d   1       9.700   2.307  -4.133  0.00  0.00     0.064 H 
ENDBRANCH  42  45
ENDBRANCH  15  42
TORSDOF 7
ENDMDL
