MODEL 1
REMARK VINA RESULT:      -9.9      0.000      0.000
REMARK  3 active torsions:
REMARK  status: ('A' for Active; 'I' for Inactive)
REMARK    1  A    between atoms: C_1  and  C_2 
REMARK    2  A    between atoms: C_18  and  O_23 
REMARK    3  A    between atoms: C_24  and  C_30 
ROOT
ATOM      1  C   LIG d   1       9.907  -8.443  -3.050  0.00  0.00     0.101 C 
ATOM      2  H   LIG d   1      10.912  -8.803  -3.263  0.00  0.00     0.073 H 
ATOM      3  C   LIG d   1       8.958  -9.628  -2.843  0.00  0.00    -0.015 C 
ATOM      4  C   LIG d   1       9.275 -10.353  -1.537  0.00  0.00    -0.043 C 
ATOM      5  C   LIG d   1       8.489 -11.668  -1.509  0.00  0.00     0.006 C 
ATOM      6  C   LIG d   1       7.010 -11.377  -1.499  0.00  0.00     0.133 C 
ATOM      7  O   LIG d   1       6.498 -10.937  -0.497  0.00  0.00    -0.297 OA
ATOM      8  C   LIG d   1       6.159 -11.628  -2.717  0.00  0.00     0.006 C 
ATOM      9  C   LIG d   1       4.779 -10.994  -2.523  0.00  0.00    -0.043 C 
ATOM     10  C   LIG d   1       4.057 -10.888  -3.870  0.00  0.00    -0.034 C 
ATOM     11  C   LIG d   1       4.313  -9.527  -4.472  0.00  0.00    -0.083 C 
ATOM     12  C   LIG d   1       5.549  -9.073  -4.598  0.00  0.00    -0.058 C 
ATOM     13  C   LIG d   1       5.836  -7.739  -5.169  0.00  0.00    -0.004 A 
ATOM     14  C   LIG d   1       4.835  -6.956  -5.714  0.00  0.00    -0.011 A 
ATOM     15  C   LIG d   1       5.126  -5.693  -6.225  0.00  0.00     0.140 A 
ATOM     16  C   LIG d   1       6.432  -5.217  -6.192  0.00  0.00     0.045 A 
ATOM     17  C   LIG d   1       7.456  -5.998  -5.671  0.00  0.00     0.139 A 
ATOM     18  C   LIG d   1       7.172  -7.271  -5.161  0.00  0.00     0.108 A 
ATOM     19  C   LIG d   1       8.214  -8.151  -4.631  0.00  0.00     0.344 C 
ATOM     20  O   LIG d   1       8.001  -9.347  -4.599  0.00  0.00    -0.245 OA
ATOM     21  O   LIG d   1       9.398  -7.699  -4.180  0.00  0.00    -0.458 OA
ATOM     22  C   LIG d   1       6.729  -3.846  -6.729  0.00  0.00     0.031 C 
ATOM     23  H   LIG d   1       7.787  -3.772  -6.983  0.00  0.00     0.041 H 
ATOM     24  C   LIG d   1       5.883  -3.628  -7.985  0.00  0.00     0.057 C 
ATOM     25  C   LIG d   1       4.466  -4.076  -7.755  0.00  0.00     0.313 C 
ATOM     26  O   LIG d   1       3.591  -3.655  -8.474  0.00  0.00    -0.250 OA
ATOM     27  O   LIG d   1       4.148  -4.931  -6.773  0.00  0.00    -0.425 OA
ATOM     28  H   LIG d   1       7.931  -9.263  -2.810  0.00  0.00     0.030 H 
ATOM     29  H   LIG d   1       9.065 -10.324  -3.675  0.00  0.00     0.030 H 
ATOM     30  H   LIG d   1      10.342 -10.564  -1.485  0.00  0.00     0.027 H 
ATOM     31  H   LIG d   1       8.980  -9.732  -0.692  0.00  0.00     0.027 H 
ATOM     32  H   LIG d   1       8.736 -12.257  -2.392  0.00  0.00     0.034 H 
ATOM     33  H   LIG d   1       8.754 -12.229  -0.613  0.00  0.00     0.034 H 
ATOM     34  H   LIG d   1       6.640 -11.189  -3.591  0.00  0.00     0.034 H 
ATOM     35  H   LIG d   1       6.048 -12.702  -2.866  0.00  0.00     0.034 H 
ATOM     36  H   LIG d   1       4.190 -11.612  -1.845  0.00  0.00     0.027 H 
ATOM     37  H   LIG d   1       4.894  -9.999  -2.095  0.00  0.00     0.027 H 
ATOM     38  H   LIG d   1       4.431 -11.658  -4.544  0.00  0.00     0.031 H 
ATOM     39  H   LIG d   1       2.986 -11.024  -3.720  0.00  0.00     0.031 H 
ATOM     40  H   LIG d   1       3.467  -8.939  -4.810  0.00  0.00     0.057 H 
ATOM     41  H   LIG d   1       6.389  -9.700  -4.305  0.00  0.00     0.062 H 
ATOM     42  H   LIG d   1       3.820  -7.326  -5.743  0.00  0.00     0.066 H 
ATOM     43  H   LIG d   1       5.886  -2.569  -8.241  0.00  0.00     0.039 H 
ATOM     44  H   LIG d   1       6.310  -4.199  -8.810  0.00  0.00     0.039 H 
ENDROOT
BRANCH  22  45
ATOM     45  C   LIG d   1       6.382  -2.808  -5.694  0.00  0.00     0.026 A 
ATOM     46  C   LIG d   1       7.060  -1.568  -5.704  0.00  0.00     0.256 A 
ATOM     47  N   LIG d   1       6.779  -0.607  -4.800  0.00  0.00    -0.307 N 
ATOM     48  O   LIG d   1       7.915  -1.362  -6.549  0.00  0.00    -0.267 OA
ATOM     49  C   LIG d   1       5.825  -0.849  -3.854  0.00  0.00     0.055 A 
ATOM     50  C   LIG d   1       7.313   0.746  -4.583  0.00  0.00     0.031 A 
ATOM     51  C   LIG d   1       5.117  -2.053  -3.780  0.00  0.00    -0.001 A 
ATOM     52  C   LIG d   1       5.607   0.184  -2.970  0.00  0.00    -0.021 A 
ATOM     53  C   LIG d   1       5.426  -3.086  -4.769  0.00  0.00    -0.044 A 
ATOM     54  C   LIG d   1       4.160  -2.206  -2.772  0.00  0.00    -0.053 A 
ATOM     55  H   LIG d   1       4.913  -4.036  -4.764  0.00  0.00     0.063 H 
ATOM     56  C   LIG d   1       3.948  -1.175  -1.896  0.00  0.00    -0.061 A 
ATOM     57  H   LIG d   1       3.596  -3.123  -2.687  0.00  0.00     0.062 H 
ATOM     58  C   LIG d   1       4.661   0.018  -1.984  0.00  0.00    -0.057 A 
ATOM     59  H   LIG d   1       3.209  -1.290  -1.117  0.00  0.00     0.062 H 
ATOM     60  H   LIG d   1       4.471   0.813  -1.279  0.00  0.00     0.062 H 
ATOM     61  C   LIG d   1       6.544   1.301  -3.364  0.00  0.00    -0.008 A 
ATOM     62  H   LIG d   1       5.980   2.191  -3.642  0.00  0.00     0.033 H 
ATOM     63  H   LIG d   1       7.234   1.524  -2.551  0.00  0.00     0.033 H 
ATOM     64  H   LIG d   1       8.380   0.701  -4.369  0.00  0.00     0.050 H 
ATOM     65  H   LIG d   1       7.128   1.369  -5.459  0.00  0.00     0.050 H 
ENDBRANCH  22  45
BRANCH  17  66
ATOM     66  O   LIG d   1       8.729  -5.530  -5.658  0.00  0.00    -0.505 OA
ATOM     67  H   LIG d   1       8.806  -4.595  -5.897  0.00  0.00     0.292 HD
ENDBRANCH  17  66
BRANCH   1  68
ATOM     68  C   LIG d   1       9.920  -7.557  -1.803  0.00  0.00    -0.028 C 
ATOM     69  H   LIG d   1       9.032  -7.758  -1.205  0.00  0.00     0.026 H 
ATOM     70  H   LIG d   1      10.812  -7.773  -1.214  0.00  0.00     0.026 H 
ATOM     71  H   LIG d   1       9.928  -6.509  -2.101  0.00  0.00     0.026 H 
ENDBRANCH   1  68
TORSDOF 3
ENDMDL
MODEL 2
REMARK VINA RESULT:      -8.6      2.022      2.890
REMARK  3 active torsions:
REMARK  status: ('A' for Active; 'I' for Inactive)
REMARK    1  A    between atoms: C_1  and  C_2 
REMARK    2  A    between atoms: C_18  and  O_23 
REMARK    3  A    between atoms: C_24  and  C_30 
ROOT
ATOM      1  C   LIG d   1      11.447  -5.306  -4.202  0.00  0.00     0.101 C 
ATOM      2  H   LIG d   1      12.442  -5.176  -4.627  0.00  0.00     0.073 H 
ATOM      3  C   LIG d   1      11.308  -6.713  -3.611  0.00  0.00    -0.015 C 
ATOM      4  C   LIG d   1      12.167  -6.859  -2.357  0.00  0.00    -0.043 C 
ATOM      5  C   LIG d   1      12.203  -8.340  -1.964  0.00  0.00     0.006 C 
ATOM      6  C   LIG d   1      10.817  -8.804  -1.600  0.00  0.00     0.133 C 
ATOM      7  O   LIG d   1      10.322  -8.440  -0.560  0.00  0.00    -0.297 OA
ATOM      8  C   LIG d   1      10.037  -9.716  -2.511  0.00  0.00     0.006 C 
ATOM      9  C   LIG d   1       8.583  -9.800  -2.039  0.00  0.00    -0.043 C 
ATOM     10  C   LIG d   1       7.704 -10.380  -3.151  0.00  0.00    -0.034 C 
ATOM     11  C   LIG d   1       7.105  -9.253  -3.958  0.00  0.00    -0.083 C 
ATOM     12  C   LIG d   1       7.881  -8.305  -4.460  0.00  0.00    -0.058 C 
ATOM     13  C   LIG d   1       7.328  -7.179  -5.243  0.00  0.00    -0.004 A 
ATOM     14  C   LIG d   1       5.992  -7.131  -5.596  0.00  0.00    -0.011 A 
ATOM     15  C   LIG d   1       5.491  -6.048  -6.314  0.00  0.00     0.140 A 
ATOM     16  C   LIG d   1       6.338  -5.010  -6.683  0.00  0.00     0.045 A 
ATOM     17  C   LIG d   1       7.689  -5.051  -6.361  0.00  0.00     0.139 A 
ATOM     18  C   LIG d   1       8.202  -6.139  -5.644  0.00  0.00     0.108 A 
ATOM     19  C   LIG d   1       9.621  -6.252  -5.304  0.00  0.00     0.344 C 
ATOM     20  O   LIG d   1      10.074  -7.356  -5.073  0.00  0.00    -0.245 OA
ATOM     21  O   LIG d   1      10.448  -5.193  -5.239  0.00  0.00    -0.458 OA
ATOM     22  C   LIG d   1       5.780  -3.838  -7.442  0.00  0.00     0.031 C 
ATOM     23  H   LIG d   1       6.584  -3.328  -7.972  0.00  0.00     0.041 H 
ATOM     24  C   LIG d   1       4.753  -4.363  -8.448  0.00  0.00     0.057 C 
ATOM     25  C   LIG d   1       3.841  -5.368  -7.800  0.00  0.00     0.313 C 
ATOM     26  O   LIG d   1       2.771  -5.605  -8.309  0.00  0.00    -0.250 OA
ATOM     27  O   LIG d   1       4.184  -6.007  -6.673  0.00  0.00    -0.425 OA
ATOM     28  H   LIG d   1      10.264  -6.892  -3.353  0.00  0.00     0.030 H 
ATOM     29  H   LIG d   1      11.626  -7.446  -4.351  0.00  0.00     0.030 H 
ATOM     30  H   LIG d   1      13.179  -6.511  -2.563  0.00  0.00     0.027 H 
ATOM     31  H   LIG d   1      11.734  -6.275  -1.545  0.00  0.00     0.027 H 
ATOM     32  H   LIG d   1      12.574  -8.928  -2.803  0.00  0.00     0.034 H 
ATOM     33  H   LIG d   1      12.866  -8.471  -1.109  0.00  0.00     0.034 H 
ATOM     34  H   LIG d   1      10.066  -9.324  -3.527  0.00  0.00     0.034 H 
ATOM     35  H   LIG d   1      10.482 -10.711  -2.495  0.00  0.00     0.034 H 
ATOM     36  H   LIG d   1       8.525 -10.443  -1.160  0.00  0.00     0.027 H 
ATOM     37  H   LIG d   1       8.229  -8.803  -1.780  0.00  0.00     0.027 H 
ATOM     38  H   LIG d   1       8.309 -11.011  -3.801  0.00  0.00     0.031 H 
ATOM     39  H   LIG d   1       6.904 -10.974  -2.709  0.00  0.00     0.031 H 
ATOM     40  H   LIG d   1       6.035  -9.245  -4.130  0.00  0.00     0.057 H 
ATOM     41  H   LIG d   1       8.959  -8.359  -4.325  0.00  0.00     0.062 H 
ATOM     42  H   LIG d   1       5.333  -7.938  -5.312  0.00  0.00     0.066 H 
ATOM     43  H   LIG d   1       4.159  -3.529  -8.822  0.00  0.00     0.039 H 
ATOM     44  H   LIG d   1       5.273  -4.835  -9.280  0.00  0.00     0.039 H 
ENDROOT
BRANCH  22  45
ATOM     45  C   LIG d   1       5.115  -2.883  -6.485  0.00  0.00     0.026 A 
ATOM     46  C   LIG d   1       4.399  -1.778  -6.999  0.00  0.00     0.256 A 
ATOM     47  N   LIG d   1       3.784  -0.900  -6.180  0.00  0.00    -0.307 N 
ATOM     48  O   LIG d   1       4.333  -1.618  -8.206  0.00  0.00    -0.267 OA
ATOM     49  C   LIG d   1       3.869  -1.084  -4.831  0.00  0.00     0.055 A 
ATOM     50  C   LIG d   1       2.985   0.309  -6.433  0.00  0.00     0.031 A 
ATOM     51  C   LIG d   1       4.564  -2.150  -4.251  0.00  0.00    -0.001 A 
ATOM     52  C   LIG d   1       3.216  -0.138  -4.072  0.00  0.00    -0.021 A 
ATOM     53  C   LIG d   1       5.223  -3.100  -5.148  0.00  0.00    -0.044 A 
ATOM     54  C   LIG d   1       4.594  -2.251  -2.857  0.00  0.00    -0.053 A 
ATOM     55  H   LIG d   1       5.774  -3.944  -4.762  0.00  0.00     0.063 H 
ATOM     56  C   LIG d   1       3.943  -1.307  -2.108  0.00  0.00    -0.061 A 
ATOM     57  H   LIG d   1       5.122  -3.062  -2.378  0.00  0.00     0.062 H 
ATOM     58  C   LIG d   1       3.255  -0.252  -2.701  0.00  0.00    -0.057 A 
ATOM     59  H   LIG d   1       3.965  -1.382  -1.031  0.00  0.00     0.062 H 
ATOM     60  H   LIG d   1       2.751   0.477  -2.084  0.00  0.00     0.062 H 
ATOM     61  C   LIG d   1       2.588   0.839  -5.038  0.00  0.00    -0.008 A 
ATOM     62  H   LIG d   1       1.505   0.844  -4.925  0.00  0.00     0.033 H 
ATOM     63  H   LIG d   1       2.993   1.840  -4.885  0.00  0.00     0.033 H 
ATOM     64  H   LIG d   1       3.580   1.050  -6.965  0.00  0.00     0.050 H 
ATOM     65  H   LIG d   1       2.092   0.057  -7.007  0.00  0.00     0.050 H 
ENDBRANCH  22  45
BRANCH  17  66
ATOM     66  O   LIG d   1       8.510  -4.039  -6.740  0.00  0.00    -0.505 OA
ATOM     67  H   LIG d   1       8.345  -3.205  -6.278  0.00  0.00     0.292 HD
ENDBRANCH  17  66
BRANCH   1  68
ATOM     68  C   LIG d   1      11.199  -4.254  -3.119  0.00  0.00    -0.028 C 
ATOM     69  H   LIG d   1      10.971  -3.297  -3.587  0.00  0.00     0.026 H 
ATOM     70  H   LIG d   1      10.360  -4.564  -2.497  0.00  0.00     0.026 H 
ATOM     71  H   LIG d   1      12.091  -4.153  -2.501  0.00  0.00     0.026 H 
ENDBRANCH   1  68
TORSDOF 3
ENDMDL
MODEL 3
REMARK VINA RESULT:      -8.1      7.227     10.725
REMARK  3 active torsions:
REMARK  status: ('A' for Active; 'I' for Inactive)
REMARK    1  A    between atoms: C_1  and  C_2 
REMARK    2  A    between atoms: C_18  and  O_23 
REMARK    3  A    between atoms: C_24  and  C_30 
ROOT
ATOM      1  C   LIG d   1       6.008   0.166  -3.280  0.00  0.00     0.101 C 
ATOM      2  H   LIG d   1       5.967  -0.732  -2.665  0.00  0.00     0.073 H 
ATOM      3  C   LIG d   1       5.308  -0.085  -4.620  0.00  0.00    -0.015 C 
ATOM      4  C   LIG d   1       3.800  -0.221  -4.426  0.00  0.00    -0.043 C 
ATOM      5  C   LIG d   1       3.185  -0.731  -5.734  0.00  0.00     0.006 C 
ATOM      6  C   LIG d   1       3.395   0.287  -6.826  0.00  0.00     0.133 C 
ATOM      7  O   LIG d   1       2.757   1.312  -6.812  0.00  0.00    -0.297 OA
ATOM      8  C   LIG d   1       4.387   0.046  -7.934  0.00  0.00     0.006 C 
ATOM      9  C   LIG d   1       4.595   1.336  -8.732  0.00  0.00    -0.043 C 
ATOM     10  C   LIG d   1       5.864   1.227  -9.582  0.00  0.00    -0.034 C 
ATOM     11  C   LIG d   1       7.031   1.813  -8.823  0.00  0.00    -0.083 C 
ATOM     12  C   LIG d   1       7.293   1.415  -7.589  0.00  0.00    -0.058 C 
ATOM     13  C   LIG d   1       8.418   1.977  -6.811  0.00  0.00    -0.004 A 
ATOM     14  C   LIG d   1       9.325   2.852  -7.380  0.00  0.00    -0.011 A 
ATOM     15  C   LIG d   1      10.363   3.386  -6.620  0.00  0.00     0.140 A 
ATOM     16  C   LIG d   1      10.492   3.034  -5.282  0.00  0.00     0.045 A 
ATOM     17  C   LIG d   1       9.607   2.137  -4.697  0.00  0.00     0.139 A 
ATOM     18  C   LIG d   1       8.565   1.592  -5.456  0.00  0.00     0.108 A 
ATOM     19  C   LIG d   1       7.622   0.618  -4.904  0.00  0.00     0.344 C 
ATOM     20  O   LIG d   1       7.031  -0.116  -5.673  0.00  0.00    -0.245 OA
ATOM     21  O   LIG d   1       7.381   0.494  -3.586  0.00  0.00    -0.458 OA
ATOM     22  C   LIG d   1      11.606   3.632  -4.468  0.00  0.00     0.031 C 
ATOM     23  H   LIG d   1      11.807   3.002  -3.602  0.00  0.00     0.041 H 
ATOM     24  C   LIG d   1      12.855   3.710  -5.348  0.00  0.00     0.057 C 
ATOM     25  C   LIG d   1      12.514   4.256  -6.708  0.00  0.00     0.313 C 
ATOM     26  O   LIG d   1      13.392   4.727  -7.390  0.00  0.00    -0.250 OA
ATOM     27  O   LIG d   1      11.261   4.233  -7.181  0.00  0.00    -0.425 OA
ATOM     28  H   LIG d   1       5.509   0.750  -5.291  0.00  0.00     0.030 H 
ATOM     29  H   LIG d   1       5.696  -1.002  -5.062  0.00  0.00     0.030 H 
ATOM     30  H   LIG d   1       3.596  -0.931  -3.625  0.00  0.00     0.027 H 
ATOM     31  H   LIG d   1       3.373   0.750  -4.175  0.00  0.00     0.027 H 
ATOM     32  H   LIG d   1       3.663  -1.669  -6.016  0.00  0.00     0.034 H 
ATOM     33  H   LIG d   1       2.118  -0.896  -5.592  0.00  0.00     0.034 H 
ATOM     34  H   LIG d   1       5.337  -0.274  -7.507  0.00  0.00     0.034 H 
ATOM     35  H   LIG d   1       4.008  -0.733  -8.596  0.00  0.00     0.034 H 
ATOM     36  H   LIG d   1       3.737   1.501  -9.382  0.00  0.00     0.027 H 
ATOM     37  H   LIG d   1       4.692   2.175  -8.043  0.00  0.00     0.027 H 
ATOM     38  H   LIG d   1       6.064   0.179  -9.804  0.00  0.00     0.031 H 
ATOM     39  H   LIG d   1       5.725   1.775 -10.514  0.00  0.00     0.031 H 
ATOM     40  H   LIG d   1       7.654   2.552  -9.314  0.00  0.00     0.057 H 
ATOM     41  H   LIG d   1       6.691   0.631  -7.133  0.00  0.00     0.062 H 
ATOM     42  H   LIG d   1       9.227   3.124  -8.421  0.00  0.00     0.066 H 
ATOM     43  H   LIG d   1      13.588   4.363  -4.874  0.00  0.00     0.039 H 
ATOM     44  H   LIG d   1      13.280   2.713  -5.458  0.00  0.00     0.039 H 
ENDROOT
BRANCH  22  45
ATOM     45  C   LIG d   1      11.216   5.014  -4.012  0.00  0.00     0.026 A 
ATOM     46  C   LIG d   1      10.764   5.202  -2.686  0.00  0.00     0.256 A 
ATOM     47  N   LIG d   1      10.409   6.423  -2.232  0.00  0.00    -0.307 N 
ATOM     48  O   LIG d   1      10.696   4.243  -1.937  0.00  0.00    -0.267 OA
ATOM     49  C   LIG d   1      10.482   7.489  -3.080  0.00  0.00     0.055 A 
ATOM     50  C   LIG d   1       9.918   6.899  -0.931  0.00  0.00     0.031 A 
ATOM     51  C   LIG d   1      10.915   7.378  -4.405  0.00  0.00    -0.001 A 
ATOM     52  C   LIG d   1      10.097   8.693  -2.535  0.00  0.00    -0.021 A 
ATOM     53  C   LIG d   1      11.303   6.051  -4.886  0.00  0.00    -0.044 A 
ATOM     54  C   LIG d   1      10.953   8.531  -5.196  0.00  0.00    -0.053 A 
ATOM     55  H   LIG d   1      11.646   5.901  -5.898  0.00  0.00     0.063 H 
ATOM     56  C   LIG d   1      10.568   9.725  -4.648  0.00  0.00    -0.061 A 
ATOM     57  H   LIG d   1      11.282   8.479  -6.223  0.00  0.00     0.062 H 
ATOM     58  C   LIG d   1      10.140   9.818  -3.326  0.00  0.00    -0.057 A 
ATOM     59  H   LIG d   1      10.597  10.617  -5.256  0.00  0.00     0.062 H 
ATOM     60  H   LIG d   1       9.843  10.775  -2.923  0.00  0.00     0.062 H 
ATOM     61  C   LIG d   1       9.702   8.418  -1.103  0.00  0.00    -0.008 A 
ATOM     62  H   LIG d   1      10.341   8.975  -0.418  0.00  0.00     0.033 H 
ATOM     63  H   LIG d   1       8.655   8.672  -0.941  0.00  0.00     0.033 H 
ATOM     64  H   LIG d   1       8.978   6.409  -0.680  0.00  0.00     0.050 H 
ATOM     65  H   LIG d   1      10.662   6.710  -0.155  0.00  0.00     0.050 H 
ENDBRANCH  22  45
BRANCH  17  66
ATOM     66  O   LIG d   1       9.753   1.790  -3.394  0.00  0.00    -0.505 OA
ATOM     67  H   LIG d   1       9.996   0.863  -3.259  0.00  0.00     0.292 HD
ENDBRANCH  17  66
BRANCH   1  68
ATOM     68  C   LIG d   1       5.340   1.333  -2.550  0.00  0.00    -0.028 C 
ATOM     69  H   LIG d   1       5.474   2.247  -3.127  0.00  0.00     0.026 H 
ATOM     70  H   LIG d   1       4.275   1.128  -2.435  0.00  0.00     0.026 H 
ATOM     71  H   LIG d   1       5.794   1.453  -1.567  0.00  0.00     0.026 H 
ENDBRANCH   1  68
TORSDOF 3
ENDMDL
MODEL 4
REMARK VINA RESULT:      -8.0      5.461      9.475
REMARK  3 active torsions:
REMARK  status: ('A' for Active; 'I' for Inactive)
REMARK    1  A    between atoms: C_1  and  C_2 
REMARK    2  A    between atoms: C_18  and  O_23 
REMARK    3  A    between atoms: C_24  and  C_30 
ROOT
ATOM      1  C   LIG d   1      11.693  -0.537  -7.103  0.00  0.00     0.101 C 
ATOM      2  H   LIG d   1      12.542  -1.219  -7.125  0.00  0.00     0.073 H 
ATOM      3  C   LIG d   1      12.078   0.758  -6.379  0.00  0.00    -0.015 C 
ATOM      4  C   LIG d   1      13.065   1.570  -7.214  0.00  0.00    -0.043 C 
ATOM      5  C   LIG d   1      13.618   2.705  -6.344  0.00  0.00     0.006 C 
ATOM      6  C   LIG d   1      12.501   3.639  -5.955  0.00  0.00     0.133 C 
ATOM      7  O   LIG d   1      12.027   4.376  -6.786  0.00  0.00    -0.297 OA
ATOM      8  C   LIG d   1      11.966   3.669  -4.547  0.00  0.00     0.006 C 
ATOM      9  C   LIG d   1      10.675   4.491  -4.501  0.00  0.00    -0.043 C 
ATOM     10  C   LIG d   1       9.918   4.205  -3.201  0.00  0.00    -0.034 C 
ATOM     11  C   LIG d   1       8.907   3.108  -3.437  0.00  0.00    -0.083 C 
ATOM     12  C   LIG d   1       9.278   1.965  -3.990  0.00  0.00    -0.058 C 
ATOM     13  C   LIG d   1       8.313   0.875  -4.250  0.00  0.00    -0.004 A 
ATOM     14  C   LIG d   1       7.003   0.950  -3.812  0.00  0.00    -0.011 A 
ATOM     15  C   LIG d   1       6.107  -0.080  -4.089  0.00  0.00     0.140 A 
ATOM     16  C   LIG d   1       6.531  -1.192  -4.807  0.00  0.00     0.045 A 
ATOM     17  C   LIG d   1       7.849  -1.298  -5.234  0.00  0.00     0.139 A 
ATOM     18  C   LIG d   1       8.757  -0.270  -4.954  0.00  0.00     0.108 A 
ATOM     19  C   LIG d   1      10.164  -0.341  -5.350  0.00  0.00     0.344 C 
ATOM     20  O   LIG d   1      10.971   0.337  -4.744  0.00  0.00    -0.245 OA
ATOM     21  O   LIG d   1      10.607  -1.124  -6.351  0.00  0.00    -0.458 OA
ATOM     22  C   LIG d   1       5.549  -2.287  -5.115  0.00  0.00     0.031 C 
ATOM     23  H   LIG d   1       6.085  -3.213  -5.324  0.00  0.00     0.041 H 
ATOM     24  C   LIG d   1       4.646  -2.480  -3.894  0.00  0.00     0.057 C 
ATOM     25  C   LIG d   1       4.180  -1.153  -3.363  0.00  0.00     0.313 C 
ATOM     26  O   LIG d   1       3.197  -1.112  -2.662  0.00  0.00    -0.250 OA
ATOM     27  O   LIG d   1       4.827  -0.014  -3.647  0.00  0.00    -0.425 OA
ATOM     28  H   LIG d   1      11.181   1.352  -6.206  0.00  0.00     0.030 H 
ATOM     29  H   LIG d   1      12.536   0.511  -5.422  0.00  0.00     0.030 H 
ATOM     30  H   LIG d   1      13.883   0.930  -7.542  0.00  0.00     0.027 H 
ATOM     31  H   LIG d   1      12.554   1.990  -8.081  0.00  0.00     0.027 H 
ATOM     32  H   LIG d   1      14.068   2.284  -5.445  0.00  0.00     0.034 H 
ATOM     33  H   LIG d   1      14.373   3.255  -6.904  0.00  0.00     0.034 H 
ATOM     34  H   LIG d   1      11.761   2.651  -4.216  0.00  0.00     0.034 H 
ATOM     35  H   LIG d   1      12.708   4.121  -3.888  0.00  0.00     0.034 H 
ATOM     36  H   LIG d   1      10.920   5.552  -4.551  0.00  0.00     0.027 H 
ATOM     37  H   LIG d   1      10.047   4.225  -5.351  0.00  0.00     0.027 H 
ATOM     38  H   LIG d   1      10.623   3.889  -2.432  0.00  0.00     0.031 H 
ATOM     39  H   LIG d   1       9.404   5.109  -2.873  0.00  0.00     0.031 H 
ATOM     40  H   LIG d   1       7.880   3.271  -3.132  0.00  0.00     0.057 H 
ATOM     41  H   LIG d   1      10.324   1.797  -4.238  0.00  0.00     0.062 H 
ATOM     42  H   LIG d   1       6.673   1.812  -3.252  0.00  0.00     0.066 H 
ATOM     43  H   LIG d   1       3.779  -3.076  -4.180  0.00  0.00     0.039 H 
ATOM     44  H   LIG d   1       5.201  -3.003  -3.116  0.00  0.00     0.039 H 
ENDROOT
BRANCH  22  45
ATOM     45  C   LIG d   1       4.716  -1.902  -6.309  0.00  0.00     0.026 A 
ATOM     46  C   LIG d   1       4.295  -2.905  -7.211  0.00  0.00     0.256 A 
ATOM     47  N   LIG d   1       3.543  -2.607  -8.291  0.00  0.00    -0.307 N 
ATOM     48  O   LIG d   1       4.614  -4.064  -7.006  0.00  0.00    -0.267 OA
ATOM     49  C   LIG d   1       3.196  -1.306  -8.515  0.00  0.00     0.055 A 
ATOM     50  C   LIG d   1       2.974  -3.430  -9.369  0.00  0.00     0.031 A 
ATOM     51  C   LIG d   1       3.581  -0.261  -7.670  0.00  0.00    -0.001 A 
ATOM     52  C   LIG d   1       2.433  -1.094  -9.642  0.00  0.00    -0.021 A 
ATOM     53  C   LIG d   1       4.390  -0.595  -6.498  0.00  0.00    -0.044 A 
ATOM     54  C   LIG d   1       3.175   1.040  -7.987  0.00  0.00    -0.053 A 
ATOM     55  H   LIG d   1       4.718   0.167  -5.808  0.00  0.00     0.063 H 
ATOM     56  C   LIG d   1       2.418   1.245  -9.109  0.00  0.00    -0.061 A 
ATOM     57  H   LIG d   1       3.456   1.870  -7.355  0.00  0.00     0.062 H 
ATOM     58  C   LIG d   1       2.043   0.192  -9.940  0.00  0.00    -0.057 A 
ATOM     59  H   LIG d   1       2.104   2.248  -9.356  0.00  0.00     0.062 H 
ATOM     60  H   LIG d   1       1.445   0.386 -10.818  0.00  0.00     0.062 H 
ATOM     61  C   LIG d   1       2.223  -2.443 -10.288  0.00  0.00    -0.008 A 
ATOM     62  H   LIG d   1       1.161  -2.686 -10.323  0.00  0.00     0.033 H 
ATOM     63  H   LIG d   1       2.652  -2.456 -11.290  0.00  0.00     0.033 H 
ATOM     64  H   LIG d   1       3.768  -3.932  -9.920  0.00  0.00     0.050 H 
ATOM     65  H   LIG d   1       2.279  -4.163  -8.956  0.00  0.00     0.050 H 
ENDBRANCH  22  45
BRANCH  17  66
ATOM     66  O   LIG d   1       8.255  -2.396  -5.920  0.00  0.00    -0.505 OA
ATOM     67  H   LIG d   1       8.944  -2.217  -6.575  0.00  0.00     0.292 HD
ENDBRANCH  17  66
BRANCH   1  68
ATOM     68  C   LIG d   1      11.234  -0.225  -8.529  0.00  0.00    -0.028 C 
ATOM     69  H   LIG d   1      10.378   0.449  -8.496  0.00  0.00     0.026 H 
ATOM     70  H   LIG d   1      12.048   0.249  -9.077  0.00  0.00     0.026 H 
ATOM     71  H   LIG d   1      10.949  -1.150  -9.029  0.00  0.00     0.026 H 
ENDBRANCH   1  68
TORSDOF 3
ENDMDL
MODEL 5
REMARK VINA RESULT:      -8.0      2.371      8.633
REMARK  3 active torsions:
REMARK  status: ('A' for Active; 'I' for Inactive)
REMARK    1  A    between atoms: C_1  and  C_2 
REMARK    2  A    between atoms: C_18  and  O_23 
REMARK    3  A    between atoms: C_24  and  C_30 
ROOT
ATOM      1  C   LIG d   1       3.904  -1.614  -3.536  0.00  0.00     0.101 C 
ATOM      2  H   LIG d   1       2.917  -1.153  -3.537  0.00  0.00     0.073 H 
ATOM      3  C   LIG d   1       4.946  -0.623  -4.064  0.00  0.00    -0.015 C 
ATOM      4  C   LIG d   1       5.168   0.511  -3.066  0.00  0.00    -0.043 C 
ATOM      5  C   LIG d   1       6.005   1.600  -3.747  0.00  0.00     0.006 C 
ATOM      6  C   LIG d   1       7.365   1.054  -4.097  0.00  0.00     0.133 C 
ATOM      7  O   LIG d   1       8.168   0.851  -3.218  0.00  0.00    -0.297 OA
ATOM      8  C   LIG d   1       7.740   0.758  -5.526  0.00  0.00     0.006 C 
ATOM      9  C   LIG d   1       9.050  -0.034  -5.563  0.00  0.00    -0.043 C 
ATOM     10  C   LIG d   1       9.233  -0.679  -6.941  0.00  0.00    -0.034 C 
ATOM     11  C   LIG d   1       8.683  -2.085  -6.916  0.00  0.00    -0.083 C 
ATOM     12  C   LIG d   1       7.454  -2.315  -6.483  0.00  0.00    -0.058 C 
ATOM     13  C   LIG d   1       6.889  -3.680  -6.431  0.00  0.00    -0.004 A 
ATOM     14  C   LIG d   1       7.570  -4.766  -6.950  0.00  0.00    -0.011 A 
ATOM     15  C   LIG d   1       7.026  -6.045  -6.869  0.00  0.00     0.140 A 
ATOM     16  C   LIG d   1       5.789  -6.234  -6.265  0.00  0.00     0.045 A 
ATOM     17  C   LIG d   1       5.076  -5.154  -5.759  0.00  0.00     0.139 A 
ATOM     18  C   LIG d   1       5.613  -3.864  -5.843  0.00  0.00     0.108 A 
ATOM     19  C   LIG d   1       4.895  -2.685  -5.358  0.00  0.00     0.344 C 
ATOM     20  O   LIG d   1       5.190  -1.598  -5.816  0.00  0.00    -0.245 OA
ATOM     21  O   LIG d   1       3.921  -2.748  -4.432  0.00  0.00    -0.458 OA
ATOM     22  C   LIG d   1       5.222  -7.623  -6.167  0.00  0.00     0.031 C 
ATOM     23  H   LIG d   1       4.141  -7.570  -6.035  0.00  0.00     0.041 H 
ATOM     24  C   LIG d   1       5.546  -8.367  -7.464  0.00  0.00     0.057 C 
ATOM     25  C   LIG d   1       6.980  -8.145  -7.860  0.00  0.00     0.313 C 
ATOM     26  O   LIG d   1       7.508  -8.921  -8.620  0.00  0.00    -0.250 OA
ATOM     27  O   LIG d   1       7.688  -7.108  -7.390  0.00  0.00    -0.425 OA
ATOM     28  H   LIG d   1       5.888  -1.146  -4.228  0.00  0.00     0.030 H 
ATOM     29  H   LIG d   1       4.599  -0.206  -5.009  0.00  0.00     0.030 H 
ATOM     30  H   LIG d   1       4.208   0.925  -2.761  0.00  0.00     0.027 H 
ATOM     31  H   LIG d   1       5.701   0.132  -2.193  0.00  0.00     0.027 H 
ATOM     32  H   LIG d   1       5.500   1.928  -4.656  0.00  0.00     0.034 H 
ATOM     33  H   LIG d   1       6.117   2.446  -3.069  0.00  0.00     0.034 H 
ATOM     34  H   LIG d   1       6.949   0.173  -5.994  0.00  0.00     0.034 H 
ATOM     35  H   LIG d   1       7.867   1.695  -6.068  0.00  0.00     0.034 H 
ATOM     36  H   LIG d   1       9.884   0.637  -5.365  0.00  0.00     0.027 H 
ATOM     37  H   LIG d   1       9.024  -0.813  -4.800  0.00  0.00     0.027 H 
ATOM     38  H   LIG d   1       8.699  -0.094  -7.689  0.00  0.00     0.031 H 
ATOM     39  H   LIG d   1      10.294  -0.708  -7.190  0.00  0.00     0.031 H 
ATOM     40  H   LIG d   1       9.308  -2.896  -7.272  0.00  0.00     0.057 H 
ATOM     41  H   LIG d   1       6.821  -1.483  -6.182  0.00  0.00     0.062 H 
ATOM     42  H   LIG d   1       8.531  -4.620  -7.422  0.00  0.00     0.066 H 
ATOM     43  H   LIG d   1       5.376  -9.434  -7.318  0.00  0.00     0.039 H 
ATOM     44  H   LIG d   1       4.895  -8.005  -8.259  0.00  0.00     0.039 H 
ENDROOT
BRANCH  22  45
ATOM     45  C   LIG d   1       5.842  -8.343  -4.998  0.00  0.00     0.026 A 
ATOM     46  C   LIG d   1       5.108  -9.361  -4.346  0.00  0.00     0.256 A 
ATOM     47  N   LIG d   1       5.625 -10.036  -3.298  0.00  0.00    -0.307 N 
ATOM     48  O   LIG d   1       3.988  -9.636  -4.741  0.00  0.00    -0.267 OA
ATOM     49  C   LIG d   1       6.877  -9.716  -2.859  0.00  0.00     0.055 A 
ATOM     50  C   LIG d   1       5.100 -11.119  -2.453  0.00  0.00     0.031 A 
ATOM     51  C   LIG d   1       7.658  -8.718  -3.450  0.00  0.00    -0.001 A 
ATOM     52  C   LIG d   1       7.321 -10.452  -1.783  0.00  0.00    -0.021 A 
ATOM     53  C   LIG d   1       7.091  -7.996  -4.590  0.00  0.00    -0.044 A 
ATOM     54  C   LIG d   1       8.929  -8.464  -2.926  0.00  0.00    -0.053 A 
ATOM     55  H   LIG d   1       7.645  -7.216  -5.089  0.00  0.00     0.063 H 
ATOM     56  C   LIG d   1       9.365  -9.198  -1.855  0.00  0.00    -0.061 A 
ATOM     57  H   LIG d   1       9.557  -7.700  -3.359  0.00  0.00     0.062 H 
ATOM     58  C   LIG d   1       8.575 -10.189  -1.279  0.00  0.00    -0.057 A 
ATOM     59  H   LIG d   1      10.346  -9.004  -1.448  0.00  0.00     0.062 H 
ATOM     60  H   LIG d   1       8.946 -10.752  -0.435  0.00  0.00     0.062 H 
ATOM     61  C   LIG d   1       6.217 -11.420  -1.430  0.00  0.00    -0.008 A 
ATOM     62  H   LIG d   1       6.564 -12.447  -1.534  0.00  0.00     0.033 H 
ATOM     63  H   LIG d   1       5.861 -11.237  -0.416  0.00  0.00     0.033 H 
ATOM     64  H   LIG d   1       4.195 -10.794  -1.941  0.00  0.00     0.050 H 
ATOM     65  H   LIG d   1       4.896 -12.003  -3.057  0.00  0.00     0.050 H 
ENDBRANCH  22  45
BRANCH  17  66
ATOM     66  O   LIG d   1       3.862  -5.349  -5.187  0.00  0.00    -0.505 OA
ATOM     67  H   LIG d   1       3.733  -4.860  -4.361  0.00  0.00     0.292 HD
ENDBRANCH  17  66
BRANCH   1  68
ATOM     68  C   LIG d   1       4.274  -2.060  -2.120  0.00  0.00    -0.028 C 
ATOM     69  H   LIG d   1       4.974  -1.347  -1.686  0.00  0.00     0.026 H 
ATOM     70  H   LIG d   1       3.374  -2.104  -1.506  0.00  0.00     0.026 H 
ATOM     71  H   LIG d   1       4.736  -3.045  -2.159  0.00  0.00     0.026 H 
ENDBRANCH   1  68
TORSDOF 3
ENDMDL
MODEL 6
REMARK VINA RESULT:      -7.9      5.319      7.356
REMARK  3 active torsions:
REMARK  status: ('A' for Active; 'I' for Inactive)
REMARK    1  A    between atoms: C_1  and  C_2 
REMARK    2  A    between atoms: C_18  and  O_23 
REMARK    3  A    between atoms: C_24  and  C_30 
ROOT
ATOM      1  C   LIG d   1       5.146  -6.772 -10.933  0.00  0.00     0.101 C 
ATOM      2  H   LIG d   1       5.914  -7.146 -11.609  0.00  0.00     0.073 H 
ATOM      3  C   LIG d   1       3.757  -7.161 -11.452  0.00  0.00    -0.015 C 
ATOM      4  C   LIG d   1       3.533  -8.666 -11.322  0.00  0.00    -0.043 C 
ATOM      5  C   LIG d   1       2.259  -9.035 -12.090  0.00  0.00     0.006 C 
ATOM      6  C   LIG d   1       1.070  -8.360 -11.456  0.00  0.00     0.133 C 
ATOM      7  O   LIG d   1       0.660  -8.757 -10.391  0.00  0.00    -0.297 OA
ATOM      8  C   LIG d   1       0.382  -7.201 -12.129  0.00  0.00     0.006 C 
ATOM      9  C   LIG d   1      -0.598  -6.543 -11.153  0.00  0.00    -0.043 C 
ATOM     10  C   LIG d   1      -0.996  -5.156 -11.666  0.00  0.00    -0.034 C 
ATOM     11  C   LIG d   1      -0.089  -4.114 -11.055  0.00  0.00    -0.083 C 
ATOM     12  C   LIG d   1       1.225  -4.248 -11.124  0.00  0.00    -0.058 C 
ATOM     13  C   LIG d   1       2.143  -3.255 -10.524  0.00  0.00    -0.004 A 
ATOM     14  C   LIG d   1       1.673  -2.076  -9.974  0.00  0.00    -0.011 A 
ATOM     15  C   LIG d   1       2.555  -1.167  -9.395  0.00  0.00     0.140 A 
ATOM     16  C   LIG d   1       3.917  -1.443  -9.372  0.00  0.00     0.045 A 
ATOM     17  C   LIG d   1       4.412  -2.610  -9.942  0.00  0.00     0.139 A 
ATOM     18  C   LIG d   1       3.533  -3.525 -10.531  0.00  0.00     0.108 A 
ATOM     19  C   LIG d   1       3.999  -4.754 -11.175  0.00  0.00     0.344 C 
ATOM     20  O   LIG d   1       3.285  -5.278 -12.008  0.00  0.00    -0.245 OA
ATOM     21  O   LIG d   1       5.182  -5.328 -10.892  0.00  0.00    -0.458 OA
ATOM     22  C   LIG d   1       4.856  -0.462  -8.727  0.00  0.00     0.031 C 
ATOM     23  H   LIG d   1       5.865  -0.613  -9.111  0.00  0.00     0.041 H 
ATOM     24  C   LIG d   1       4.382   0.952  -9.068  0.00  0.00     0.057 C 
ATOM     25  C   LIG d   1       2.894   1.072  -8.883  0.00  0.00     0.313 C 
ATOM     26  O   LIG d   1       2.405   2.168  -8.745  0.00  0.00    -0.250 OA
ATOM     27  O   LIG d   1       2.097  -0.005  -8.868  0.00  0.00    -0.425 OA
ATOM     28  H   LIG d   1       2.998  -6.635 -10.873  0.00  0.00     0.030 H 
ATOM     29  H   LIG d   1       3.671  -6.875 -12.499  0.00  0.00     0.030 H 
ATOM     30  H   LIG d   1       4.383  -9.200 -11.746  0.00  0.00     0.027 H 
ATOM     31  H   LIG d   1       3.418  -8.931 -10.272  0.00  0.00     0.027 H 
ATOM     32  H   LIG d   1       2.352  -8.707 -13.125  0.00  0.00     0.034 H 
ATOM     33  H   LIG d   1       2.120 -10.115 -12.063  0.00  0.00     0.034 H 
ATOM     34  H   LIG d   1       1.128  -6.470 -12.442  0.00  0.00     0.034 H 
ATOM     35  H   LIG d   1      -0.162  -7.560 -13.003  0.00  0.00     0.034 H 
ATOM     36  H   LIG d   1      -1.488  -7.164 -11.062  0.00  0.00     0.027 H 
ATOM     37  H   LIG d   1      -0.125  -6.445 -10.176  0.00  0.00     0.027 H 
ATOM     38  H   LIG d   1      -0.900  -5.128 -12.751  0.00  0.00     0.031 H 
ATOM     39  H   LIG d   1      -2.029  -4.948 -11.387  0.00  0.00     0.031 H 
ATOM     40  H   LIG d   1      -0.536  -3.251 -10.574  0.00  0.00     0.057 H 
ATOM     41  H   LIG d   1       1.656  -5.091 -11.660  0.00  0.00     0.062 H 
ATOM     42  H   LIG d   1       0.615  -1.860  -9.993  0.00  0.00     0.066 H 
ATOM     43  H   LIG d   1       4.882   1.666  -8.413  0.00  0.00     0.039 H 
ATOM     44  H   LIG d   1       4.634   1.176 -10.104  0.00  0.00     0.039 H 
ENDROOT
BRANCH  22  45
ATOM     45  C   LIG d   1       4.847  -0.657  -7.233  0.00  0.00     0.026 A 
ATOM     46  C   LIG d   1       5.940  -1.305  -6.614  0.00  0.00     0.256 A 
ATOM     47  N   LIG d   1       5.977  -1.497  -5.279  0.00  0.00    -0.307 N 
ATOM     48  O   LIG d   1       6.870  -1.694  -7.300  0.00  0.00    -0.267 OA
ATOM     49  C   LIG d   1       4.929  -1.063  -4.520  0.00  0.00     0.055 A 
ATOM     50  C   LIG d   1       6.967  -2.121  -4.388  0.00  0.00     0.031 A 
ATOM     51  C   LIG d   1       3.812  -0.421  -5.063  0.00  0.00    -0.001 A 
ATOM     52  C   LIG d   1       5.049  -1.305  -3.170  0.00  0.00    -0.021 A 
ATOM     53  C   LIG d   1       3.784  -0.212  -6.511  0.00  0.00    -0.044 A 
ATOM     54  C   LIG d   1       2.788  -0.014  -4.202  0.00  0.00    -0.053 A 
ATOM     55  H   LIG d   1       2.951   0.279  -6.990  0.00  0.00     0.063 H 
ATOM     56  C   LIG d   1       2.913  -0.259  -2.860  0.00  0.00    -0.061 A 
ATOM     57  H   LIG d   1       1.912   0.484  -4.589  0.00  0.00     0.062 H 
ATOM     58  C   LIG d   1       4.033  -0.899  -2.335  0.00  0.00    -0.057 A 
ATOM     59  H   LIG d   1       2.124   0.054  -2.193  0.00  0.00     0.062 H 
ATOM     60  H   LIG d   1       4.102  -1.077  -1.273  0.00  0.00     0.062 H 
ATOM     61  C   LIG d   1       6.372  -2.005  -2.968  0.00  0.00    -0.008 A 
ATOM     62  H   LIG d   1       7.024  -1.410  -2.328  0.00  0.00     0.033 H 
ATOM     63  H   LIG d   1       6.217  -2.996  -2.540  0.00  0.00     0.033 H 
ATOM     64  H   LIG d   1       7.108  -3.168  -4.655  0.00  0.00     0.050 H 
ATOM     65  H   LIG d   1       7.915  -1.586  -4.444  0.00  0.00     0.050 H 
ENDBRANCH  22  45
BRANCH  17  66
ATOM     66  O   LIG d   1       5.746  -2.860  -9.928  0.00  0.00    -0.505 OA
ATOM     67  H   LIG d   1       6.071  -3.210  -9.086  0.00  0.00     0.292 HD
ENDBRANCH  17  66
BRANCH   1  68
ATOM     68  C   LIG d   1       5.360  -7.342  -9.530  0.00  0.00    -0.028 C 
ATOM     69  H   LIG d   1       6.384  -7.148  -9.211  0.00  0.00     0.026 H 
ATOM     70  H   LIG d   1       4.667  -6.868  -8.835  0.00  0.00     0.026 H 
ATOM     71  H   LIG d   1       5.182  -8.417  -9.543  0.00  0.00     0.026 H 
ENDBRANCH   1  68
TORSDOF 3
ENDMDL
MODEL 7
REMARK VINA RESULT:      -7.8      6.504     12.514
REMARK  3 active torsions:
REMARK  status: ('A' for Active; 'I' for Inactive)
REMARK    1  A    between atoms: C_1  and  C_2 
REMARK    2  A    between atoms: C_18  and  O_23 
REMARK    3  A    between atoms: C_24  and  C_30 
ROOT
ATOM      1  C   LIG d   1      11.280   5.156 -10.189  0.00  0.00     0.101 C 
ATOM      2  H   LIG d   1      12.218   5.066 -10.736  0.00  0.00     0.073 H 
ATOM      3  C   LIG d   1      11.327   6.379  -9.267  0.00  0.00    -0.015 C 
ATOM      4  C   LIG d   1      11.301   7.671 -10.080  0.00  0.00    -0.043 C 
ATOM      5  C   LIG d   1      11.617   8.841  -9.142  0.00  0.00     0.006 C 
ATOM      6  C   LIG d   1      10.539   8.962  -8.097  0.00  0.00     0.133 C 
ATOM      7  O   LIG d   1       9.450   9.381  -8.411  0.00  0.00    -0.297 OA
ATOM      8  C   LIG d   1      10.796   8.569  -6.665  0.00  0.00     0.006 C 
ATOM      9  C   LIG d   1       9.474   8.529  -5.894  0.00  0.00    -0.043 C 
ATOM     10  C   LIG d   1       9.656   7.760  -4.582  0.00  0.00    -0.034 C 
ATOM     11  C   LIG d   1       9.281   6.312  -4.790  0.00  0.00    -0.083 C 
ATOM     12  C   LIG d   1       9.815   5.619  -5.783  0.00  0.00    -0.058 C 
ATOM     13  C   LIG d   1       9.460   4.205  -6.025  0.00  0.00    -0.004 A 
ATOM     14  C   LIG d   1       8.651   3.502  -5.151  0.00  0.00    -0.011 A 
ATOM     15  C   LIG d   1       8.313   2.176  -5.413  0.00  0.00     0.140 A 
ATOM     16  C   LIG d   1       8.794   1.553  -6.559  0.00  0.00     0.045 A 
ATOM     17  C   LIG d   1       9.629   2.233  -7.437  0.00  0.00     0.139 A 
ATOM     18  C   LIG d   1       9.978   3.563  -7.177  0.00  0.00     0.108 A 
ATOM     19  C   LIG d   1      10.879   4.319  -8.048  0.00  0.00     0.344 C 
ATOM     20  O   LIG d   1      11.468   5.276  -7.581  0.00  0.00    -0.245 OA
ATOM     21  O   LIG d   1      11.090   4.004  -9.338  0.00  0.00    -0.458 OA
ATOM     22  C   LIG d   1       8.406   0.128  -6.839  0.00  0.00     0.031 C 
ATOM     23  H   LIG d   1       9.130  -0.322  -7.518  0.00  0.00     0.041 H 
ATOM     24  C   LIG d   1       8.398  -0.637  -5.514  0.00  0.00     0.057 C 
ATOM     25  C   LIG d   1       7.698   0.157  -4.446  0.00  0.00     0.313 C 
ATOM     26  O   LIG d   1       7.276  -0.415  -3.470  0.00  0.00    -0.250 OA
ATOM     27  O   LIG d   1       7.531   1.482  -4.550  0.00  0.00    -0.425 OA
ATOM     28  H   LIG d   1      10.466   6.358  -8.599  0.00  0.00     0.030 H 
ATOM     29  H   LIG d   1      12.241   6.347  -8.674  0.00  0.00     0.030 H 
ATOM     30  H   LIG d   1      12.050   7.623 -10.870  0.00  0.00     0.027 H 
ATOM     31  H   LIG d   1      10.312   7.809 -10.518  0.00  0.00     0.027 H 
ATOM     32  H   LIG d   1      12.576   8.666  -8.655  0.00  0.00     0.034 H 
ATOM     33  H   LIG d   1      11.667   9.764  -9.719  0.00  0.00     0.034 H 
ATOM     34  H   LIG d   1      11.262   7.584  -6.638  0.00  0.00     0.034 H 
ATOM     35  H   LIG d   1      11.463   9.298  -6.204  0.00  0.00     0.034 H 
ATOM     36  H   LIG d   1       9.152   9.546  -5.675  0.00  0.00     0.027 H 
ATOM     37  H   LIG d   1       8.716   8.033  -6.501  0.00  0.00     0.027 H 
ATOM     38  H   LIG d   1      10.696   7.824  -4.265  0.00  0.00     0.031 H 
ATOM     39  H   LIG d   1       9.015   8.194  -3.814  0.00  0.00     0.031 H 
ATOM     40  H   LIG d   1       8.580   5.851  -4.103  0.00  0.00     0.057 H 
ATOM     41  H   LIG d   1      10.559   6.082  -6.427  0.00  0.00     0.062 H 
ATOM     42  H   LIG d   1       8.279   3.984  -4.259  0.00  0.00     0.066 H 
ATOM     43  H   LIG d   1       7.881  -1.587  -5.652  0.00  0.00     0.039 H 
ATOM     44  H   LIG d   1       9.425  -0.829  -5.204  0.00  0.00     0.039 H 
ENDROOT
BRANCH  22  45
ATOM     45  C   LIG d   1       7.034   0.088  -7.459  0.00  0.00     0.026 A 
ATOM     46  C   LIG d   1       6.328  -1.136  -7.496  0.00  0.00     0.256 A 
ATOM     47  N   LIG d   1       5.094  -1.218  -8.037  0.00  0.00    -0.307 N 
ATOM     48  O   LIG d   1       6.843  -2.136  -7.027  0.00  0.00    -0.267 OA
ATOM     49  C   LIG d   1       4.529  -0.095  -8.566  0.00  0.00     0.055 A 
ATOM     50  C   LIG d   1       4.150  -2.334  -8.203  0.00  0.00     0.031 A 
ATOM     51  C   LIG d   1       5.170   1.148  -8.570  0.00  0.00    -0.001 A 
ATOM     52  C   LIG d   1       3.272  -0.272  -9.100  0.00  0.00    -0.021 A 
ATOM     53  C   LIG d   1       6.504   1.228  -7.976  0.00  0.00    -0.044 A 
ATOM     54  C   LIG d   1       4.507   2.241  -9.138  0.00  0.00    -0.053 A 
ATOM     55  H   LIG d   1       7.050   2.160  -7.948  0.00  0.00     0.063 H 
ATOM     56  C   LIG d   1       3.258   2.058  -9.668  0.00  0.00    -0.061 A 
ATOM     57  H   LIG d   1       4.974   3.215  -9.158  0.00  0.00     0.062 H 
ATOM     58  C   LIG d   1       2.634   0.814  -9.655  0.00  0.00    -0.057 A 
ATOM     59  H   LIG d   1       2.744   2.900 -10.108  0.00  0.00     0.062 H 
ATOM     60  H   LIG d   1       1.648   0.701 -10.081  0.00  0.00     0.062 H 
ATOM     61  C   LIG d   1       2.919  -1.728  -8.911  0.00  0.00    -0.008 A 
ATOM     62  H   LIG d   1       2.032  -1.826  -8.286  0.00  0.00     0.033 H 
ATOM     63  H   LIG d   1       2.762  -2.210  -9.876  0.00  0.00     0.033 H 
ATOM     64  H   LIG d   1       4.594  -3.115  -8.818  0.00  0.00     0.050 H 
ATOM     65  H   LIG d   1       3.865  -2.734  -7.230  0.00  0.00     0.050 H 
ENDBRANCH  22  45
BRANCH  17  66
ATOM     66  O   LIG d   1      10.105   1.609  -8.543  0.00  0.00    -0.505 OA
ATOM     67  H   LIG d   1       9.441   1.088  -9.017  0.00  0.00     0.292 HD
ENDBRANCH  17  66
BRANCH   1  68
ATOM     68  C   LIG d   1      10.112   5.283 -11.169  0.00  0.00    -0.028 C 
ATOM     69  H   LIG d   1      10.497   5.356 -12.186  0.00  0.00     0.026 H 
ATOM     70  H   LIG d   1       9.470   4.406 -11.085  0.00  0.00     0.026 H 
ATOM     71  H   LIG d   1       9.536   6.178 -10.934  0.00  0.00     0.026 H 
ENDBRANCH   1  68
TORSDOF 3
ENDMDL
MODEL 8
REMARK VINA RESULT:      -7.6      3.252      5.878
REMARK  3 active torsions:
REMARK  status: ('A' for Active; 'I' for Inactive)
REMARK    1  A    between atoms: C_1  and  C_2 
REMARK    2  A    between atoms: C_18  and  O_23 
REMARK    3  A    between atoms: C_24  and  C_30 
ROOT
ATOM      1  C   LIG d   1       4.627  -8.100  -7.100  0.00  0.00     0.101 C 
ATOM      2  H   LIG d   1       3.920  -8.873  -6.799  0.00  0.00     0.073 H 
ATOM      3  C   LIG d   1       6.061  -8.569  -6.832  0.00  0.00    -0.015 C 
ATOM      4  C   LIG d   1       6.451  -9.691  -7.792  0.00  0.00    -0.043 C 
ATOM      5  C   LIG d   1       7.775 -10.299  -7.315  0.00  0.00     0.006 C 
ATOM      6  C   LIG d   1       8.867  -9.263  -7.388  0.00  0.00     0.133 C 
ATOM      7  O   LIG d   1       9.296  -8.928  -8.466  0.00  0.00    -0.297 OA
ATOM      8  C   LIG d   1       9.431  -8.638  -6.138  0.00  0.00     0.006 C 
ATOM      9  C   LIG d   1      10.310  -7.441  -6.510  0.00  0.00    -0.043 C 
ATOM     10  C   LIG d   1      10.559  -6.570  -5.275  0.00  0.00    -0.034 C 
ATOM     11  C   LIG d   1       9.528  -5.468  -5.219  0.00  0.00    -0.083 C 
ATOM     12  C   LIG d   1       8.238  -5.754  -5.304  0.00  0.00    -0.058 C 
ATOM     13  C   LIG d   1       7.202  -4.700  -5.268  0.00  0.00    -0.004 A 
ATOM     14  C   LIG d   1       7.524  -3.378  -5.017  0.00  0.00    -0.011 A 
ATOM     15  C   LIG d   1       6.532  -2.400  -5.011  0.00  0.00     0.140 A 
ATOM     16  C   LIG d   1       5.210  -2.753  -5.255  0.00  0.00     0.045 A 
ATOM     17  C   LIG d   1       4.862  -4.078  -5.483  0.00  0.00     0.139 A 
ATOM     18  C   LIG d   1       5.852  -5.068  -5.485  0.00  0.00     0.108 A 
ATOM     19  C   LIG d   1       5.541  -6.484  -5.687  0.00  0.00     0.344 C 
ATOM     20  O   LIG d   1       6.328  -7.314  -5.273  0.00  0.00    -0.245 OA
ATOM     21  O   LIG d   1       4.426  -6.910  -6.306  0.00  0.00    -0.458 OA
ATOM     22  C   LIG d   1       4.153  -1.684  -5.264  0.00  0.00     0.031 C 
ATOM     23  H   LIG d   1       3.176  -2.133  -5.085  0.00  0.00     0.041 H 
ATOM     24  C   LIG d   1       4.471  -0.684  -4.150  0.00  0.00     0.057 C 
ATOM     25  C   LIG d   1       5.931  -0.325  -4.159  0.00  0.00     0.313 C 
ATOM     26  O   LIG d   1       6.290   0.694  -3.619  0.00  0.00    -0.250 OA
ATOM     27  O   LIG d   1       6.845  -1.106  -4.752  0.00  0.00    -0.425 OA
ATOM     28  H   LIG d   1       6.743  -7.729  -6.966  0.00  0.00     0.030 H 
ATOM     29  H   LIG d   1       6.135  -8.931  -5.808  0.00  0.00     0.030 H 
ATOM     30  H   LIG d   1       5.677 -10.457  -7.794  0.00  0.00     0.027 H 
ATOM     31  H   LIG d   1       6.574  -9.288  -8.797  0.00  0.00     0.027 H 
ATOM     32  H   LIG d   1       7.666 -10.639  -6.285  0.00  0.00     0.034 H 
ATOM     33  H   LIG d   1       8.035 -11.145  -7.951  0.00  0.00     0.034 H 
ATOM     34  H   LIG d   1       8.615  -8.304  -5.499  0.00  0.00     0.034 H 
ATOM     35  H   LIG d   1      10.031  -9.376  -5.604  0.00  0.00     0.034 H 
ATOM     36  H   LIG d   1      11.264  -7.798  -6.898  0.00  0.00     0.027 H 
ATOM     37  H   LIG d   1       9.809  -6.848  -7.275  0.00  0.00     0.027 H 
ATOM     38  H   LIG d   1      10.483  -7.183  -4.377  0.00  0.00     0.031 H 
ATOM     39  H   LIG d   1      11.555  -6.132  -5.333  0.00  0.00     0.031 H 
ATOM     40  H   LIG d   1       9.864  -4.445  -5.095  0.00  0.00     0.057 H 
ATOM     41  H   LIG d   1       7.917  -6.791  -5.371  0.00  0.00     0.062 H 
ATOM     42  H   LIG d   1       8.551  -3.103  -4.826  0.00  0.00     0.066 H 
ATOM     43  H   LIG d   1       3.879   0.219  -4.299  0.00  0.00     0.039 H 
ATOM     44  H   LIG d   1       4.216  -1.126  -3.187  0.00  0.00     0.039 H 
ENDROOT
BRANCH  22  45
ATOM     45  C   LIG d   1       4.153  -0.980  -6.596  0.00  0.00     0.026 A 
ATOM     46  C   LIG d   1       3.449   0.237  -6.734  0.00  0.00     0.256 A 
ATOM     47  N   LIG d   1       3.426   0.905  -7.906  0.00  0.00    -0.307 N 
ATOM     48  O   LIG d   1       2.854   0.695  -5.773  0.00  0.00    -0.267 OA
ATOM     49  C   LIG d   1       4.089   0.381  -8.977  0.00  0.00     0.055 A 
ATOM     50  C   LIG d   1       2.793   2.165  -8.324  0.00  0.00     0.031 A 
ATOM     51  C   LIG d   1       4.802  -0.821  -8.917  0.00  0.00    -0.001 A 
ATOM     52  C   LIG d   1       4.008   1.126 -10.133  0.00  0.00    -0.021 A 
ATOM     53  C   LIG d   1       4.826  -1.534  -7.639  0.00  0.00    -0.044 A 
ATOM     54  C   LIG d   1       5.448  -1.275 -10.071  0.00  0.00    -0.053 A 
ATOM     55  H   LIG d   1       5.359  -2.466  -7.529  0.00  0.00     0.063 H 
ATOM     56  C   LIG d   1       5.362  -0.530 -11.217  0.00  0.00    -0.061 A 
ATOM     57  H   LIG d   1       6.006  -2.199 -10.058  0.00  0.00     0.062 H 
ATOM     58  C   LIG d   1       4.649   0.665 -11.260  0.00  0.00    -0.057 A 
ATOM     59  H   LIG d   1       5.860  -0.879 -12.109  0.00  0.00     0.062 H 
ATOM     60  H   LIG d   1       4.601   1.230 -12.179  0.00  0.00     0.062 H 
ATOM     61  C   LIG d   1       3.168   2.340  -9.812  0.00  0.00    -0.008 A 
ATOM     62  H   LIG d   1       3.747   3.252  -9.955  0.00  0.00     0.033 H 
ATOM     63  H   LIG d   1       2.270   2.355 -10.429  0.00  0.00     0.033 H 
ATOM     64  H   LIG d   1       1.712   2.099  -8.211  0.00  0.00     0.050 H 
ATOM     65  H   LIG d   1       3.185   2.996  -7.738  0.00  0.00     0.050 H 
ENDBRANCH  22  45
BRANCH  17  66
ATOM     66  O   LIG d   1       3.566  -4.413  -5.703  0.00  0.00    -0.505 OA
ATOM     67  H   LIG d   1       3.447  -5.115  -6.359  0.00  0.00     0.292 HD
ENDBRANCH  17  66
BRANCH   1  68
ATOM     68  C   LIG d   1       4.449  -7.776  -8.585  0.00  0.00    -0.028 C 
ATOM     69  H   LIG d   1       5.100  -6.946  -8.856  0.00  0.00     0.026 H 
ATOM     70  H   LIG d   1       4.708  -8.651  -9.181  0.00  0.00     0.026 H 
ATOM     71  H   LIG d   1       3.412  -7.502  -8.775  0.00  0.00     0.026 H 
ENDBRANCH   1  68
TORSDOF 3
ENDMDL
MODEL 9
REMARK VINA RESULT:      -7.6      5.377      9.103
REMARK  3 active torsions:
REMARK  status: ('A' for Active; 'I' for Inactive)
REMARK    1  A    between atoms: C_1  and  C_2 
REMARK    2  A    between atoms: C_18  and  O_23 
REMARK    3  A    between atoms: C_24  and  C_30 
ROOT
ATOM      1  C   LIG d   1       4.026  -5.768 -12.382  0.00  0.00     0.101 C 
ATOM      2  H   LIG d   1       4.771  -6.249 -13.016  0.00  0.00     0.073 H 
ATOM      3  C   LIG d   1       2.706  -5.620 -13.145  0.00  0.00    -0.015 C 
ATOM      4  C   LIG d   1       2.050  -6.981 -13.361  0.00  0.00    -0.043 C 
ATOM      5  C   LIG d   1       0.888  -6.810 -14.346  0.00  0.00     0.006 C 
ATOM      6  C   LIG d   1      -0.161  -5.910 -13.745  0.00  0.00     0.133 C 
ATOM      7  O   LIG d   1      -0.855  -6.324 -12.848  0.00  0.00    -0.297 OA
ATOM      8  C   LIG d   1      -0.358  -4.503 -14.247  0.00  0.00     0.006 C 
ATOM      9  C   LIG d   1      -1.278  -3.738 -13.291  0.00  0.00    -0.043 C 
ATOM     10  C   LIG d   1      -1.169  -2.232 -13.552  0.00  0.00    -0.034 C 
ATOM     11  C   LIG d   1      -0.137  -1.634 -12.627  0.00  0.00    -0.083 C 
ATOM     12  C   LIG d   1       1.077  -2.156 -12.551  0.00  0.00    -0.058 C 
ATOM     13  C   LIG d   1       2.107  -1.605 -11.646  0.00  0.00    -0.004 A 
ATOM     14  C   LIG d   1       1.893  -0.442 -10.928  0.00  0.00    -0.011 A 
ATOM     15  C   LIG d   1       2.871   0.044 -10.064  0.00  0.00     0.140 A 
ATOM     16  C   LIG d   1       4.072  -0.640  -9.923  0.00  0.00     0.045 A 
ATOM     17  C   LIG d   1       4.318  -1.796 -10.653  0.00  0.00     0.139 A 
ATOM     18  C   LIG d   1       3.342  -2.288 -11.529  0.00  0.00     0.108 A 
ATOM     19  C   LIG d   1       3.557  -3.482 -12.347  0.00  0.00     0.344 C 
ATOM     20  O   LIG d   1       2.892  -3.620 -13.356  0.00  0.00    -0.245 OA
ATOM     21  O   LIG d   1       4.458  -4.432 -12.039  0.00  0.00    -0.458 OA
ATOM     22  C   LIG d   1       5.112  -0.114  -8.973  0.00  0.00     0.031 C 
ATOM     23  H   LIG d   1       6.091  -0.507  -9.246  0.00  0.00     0.041 H 
ATOM     24  C   LIG d   1       5.124   1.412  -9.072  0.00  0.00     0.057 C 
ATOM     25  C   LIG d   1       3.722   1.957  -9.060  0.00  0.00     0.313 C 
ATOM     26  O   LIG d   1       3.543   3.114  -8.762  0.00  0.00    -0.250 OA
ATOM     27  O   LIG d   1       2.667   1.192  -9.372  0.00  0.00    -0.425 OA
ATOM     28  H   LIG d   1       2.031  -4.983 -12.573  0.00  0.00     0.030 H 
ATOM     29  H   LIG d   1       2.900  -5.158 -14.113  0.00  0.00     0.030 H 
ATOM     30  H   LIG d   1       2.778  -7.678 -13.773  0.00  0.00     0.027 H 
ATOM     31  H   LIG d   1       1.672  -7.361 -12.411  0.00  0.00     0.027 H 
ATOM     32  H   LIG d   1       1.260  -6.367 -15.270  0.00  0.00     0.034 H 
ATOM     33  H   LIG d   1       0.450  -7.784 -14.562  0.00  0.00     0.034 H 
ATOM     34  H   LIG d   1       0.607  -3.999 -14.302  0.00  0.00     0.034 H 
ATOM     35  H   LIG d   1      -0.809  -4.531 -15.239  0.00  0.00     0.034 H 
ATOM     36  H   LIG d   1      -2.308  -4.058 -13.447  0.00  0.00     0.027 H 
ATOM     37  H   LIG d   1      -0.987  -3.948 -12.262  0.00  0.00     0.027 H 
ATOM     38  H   LIG d   1      -0.870  -2.064 -14.587  0.00  0.00     0.031 H 
ATOM     39  H   LIG d   1      -2.135  -1.761 -13.372  0.00  0.00     0.031 H 
ATOM     40  H   LIG d   1      -0.405  -0.763 -12.040  0.00  0.00     0.057 H 
ATOM     41  H   LIG d   1       1.346  -2.995 -13.190  0.00  0.00     0.062 H 
ATOM     42  H   LIG d   1       0.961   0.092 -11.039  0.00  0.00     0.066 H 
ATOM     43  H   LIG d   1       5.674   1.822  -8.224  0.00  0.00     0.039 H 
ATOM     44  H   LIG d   1       5.617   1.709  -9.997  0.00  0.00     0.039 H 
ENDROOT
BRANCH  22  45
ATOM     45  C   LIG d   1       4.771  -0.532  -7.566  0.00  0.00     0.026 A 
ATOM     46  C   LIG d   1       5.406  -1.665  -7.009  0.00  0.00     0.256 A 
ATOM     47  N   LIG d   1       5.136  -2.072  -5.751  0.00  0.00    -0.307 N 
ATOM     48  O   LIG d   1       6.217  -2.283  -7.677  0.00  0.00    -0.267 OA
ATOM     49  C   LIG d   1       4.223  -1.377  -5.013  0.00  0.00     0.055 A 
ATOM     50  C   LIG d   1       5.639  -3.187  -4.934  0.00  0.00     0.031 A 
ATOM     51  C   LIG d   1       3.552  -0.251  -5.500  0.00  0.00    -0.001 A 
ATOM     52  C   LIG d   1       4.006  -1.866  -3.744  0.00  0.00    -0.021 A 
ATOM     53  C   LIG d   1       3.856   0.186  -6.863  0.00  0.00    -0.044 A 
ATOM     54  C   LIG d   1       2.632   0.393  -4.667  0.00  0.00    -0.053 A 
ATOM     55  H   LIG d   1       3.372   1.049  -7.295  0.00  0.00     0.063 H 
ATOM     56  C   LIG d   1       2.420  -0.098  -3.406  0.00  0.00    -0.061 A 
ATOM     57  H   LIG d   1       2.096   1.265  -5.012  0.00  0.00     0.062 H 
ATOM     58  C   LIG d   1       3.098  -1.221  -2.936  0.00  0.00    -0.057 A 
ATOM     59  H   LIG d   1       1.710   0.397  -2.760  0.00  0.00     0.062 H 
ATOM     60  H   LIG d   1       2.909  -1.584  -1.937  0.00  0.00     0.062 H 
ATOM     61  C   LIG d   1       4.901  -3.072  -3.582  0.00  0.00    -0.008 A 
ATOM     62  H   LIG d   1       5.611  -2.913  -2.771  0.00  0.00     0.033 H 
ATOM     63  H   LIG d   1       4.305  -3.966  -3.400  0.00  0.00     0.033 H 
ATOM     64  H   LIG d   1       5.410  -4.138  -5.411  0.00  0.00     0.050 H 
ATOM     65  H   LIG d   1       6.715  -3.089  -4.784  0.00  0.00     0.050 H 
ENDBRANCH  22  45
BRANCH  17  66
ATOM     66  O   LIG d   1       5.501  -2.447 -10.519  0.00  0.00    -0.505 OA
ATOM     67  H   LIG d   1       6.024  -2.483 -11.332  0.00  0.00     0.292 HD
ENDBRANCH  17  66
BRANCH   1  68
ATOM     68  C   LIG d   1       3.808  -6.592 -11.112  0.00  0.00    -0.028 C 
ATOM     69  H   LIG d   1       3.753  -5.925 -10.251  0.00  0.00     0.026 H 
ATOM     70  H   LIG d   1       2.878  -7.153 -11.198  0.00  0.00     0.026 H 
ATOM     71  H   LIG d   1       4.640  -7.284 -10.981  0.00  0.00     0.026 H 
ENDBRANCH   1  68
TORSDOF 3
ENDMDL
MODEL 10
REMARK VINA RESULT:      -7.4      7.004     10.729
REMARK  3 active torsions:
REMARK  status: ('A' for Active; 'I' for Inactive)
REMARK    1  A    between atoms: C_1  and  C_2 
REMARK    2  A    between atoms: C_18  and  O_23 
REMARK    3  A    between atoms: C_24  and  C_30 
ROOT
ATOM      1  C   LIG d   1       7.232   0.013  -4.361  0.00  0.00     0.101 C 
ATOM      2  H   LIG d   1       7.605  -0.908  -3.914  0.00  0.00     0.073 H 
ATOM      3  C   LIG d   1       5.970  -0.277  -5.182  0.00  0.00    -0.015 C 
ATOM      4  C   LIG d   1       4.801  -0.635  -4.267  0.00  0.00    -0.043 C 
ATOM      5  C   LIG d   1       3.655  -1.169  -5.133  0.00  0.00     0.006 C 
ATOM      6  C   LIG d   1       3.168  -0.085  -6.059  0.00  0.00     0.133 C 
ATOM      7  O   LIG d   1       2.529   0.837  -5.611  0.00  0.00    -0.297 OA
ATOM      8  C   LIG d   1       3.464  -0.133  -7.536  0.00  0.00     0.006 C 
ATOM      9  C   LIG d   1       3.100   1.208  -8.180  0.00  0.00    -0.043 C 
ATOM     10  C   LIG d   1       3.752   1.320  -9.561  0.00  0.00    -0.034 C 
ATOM     11  C   LIG d   1       5.077   2.032  -9.437  0.00  0.00    -0.083 C 
ATOM     12  C   LIG d   1       5.977   1.622  -8.558  0.00  0.00    -0.058 C 
ATOM     13  C   LIG d   1       7.279   2.304  -8.399  0.00  0.00    -0.004 A 
ATOM     14  C   LIG d   1       7.669   3.324  -9.247  0.00  0.00    -0.011 A 
ATOM     15  C   LIG d   1       8.891   3.967  -9.062  0.00  0.00     0.140 A 
ATOM     16  C   LIG d   1       9.727   3.579  -8.021  0.00  0.00     0.045 A 
ATOM     17  C   LIG d   1       9.365   2.540  -7.173  0.00  0.00     0.139 A 
ATOM     18  C   LIG d   1       8.142   1.885  -7.357  0.00  0.00     0.108 A 
ATOM     19  C   LIG d   1       7.722   0.762  -6.516  0.00  0.00     0.344 C 
ATOM     20  O   LIG d   1       6.897  -0.014  -6.957  0.00  0.00    -0.245 OA
ATOM     21  O   LIG d   1       8.210   0.547  -5.281  0.00  0.00    -0.458 OA
ATOM     22  C   LIG d   1      11.034   4.294  -7.822  0.00  0.00     0.031 C 
ATOM     23  H   LIG d   1      11.715   3.661  -7.253  0.00  0.00     0.041 H 
ATOM     24  C   LIG d   1      11.636   4.589  -9.198  0.00  0.00     0.057 C 
ATOM     25  C   LIG d   1      10.589   5.139 -10.128  0.00  0.00     0.313 C 
ATOM     26  O   LIG d   1      10.937   5.761 -11.103  0.00  0.00    -0.250 OA
ATOM     27  O   LIG d   1       9.281   4.958  -9.902  0.00  0.00    -0.425 OA
ATOM     28  H   LIG d   1       5.712   0.607  -5.765  0.00  0.00     0.030 H 
ATOM     29  H   LIG d   1       6.165  -1.108  -5.858  0.00  0.00     0.030 H 
ATOM     30  H   LIG d   1       5.112  -1.402  -3.559  0.00  0.00     0.027 H 
ATOM     31  H   LIG d   1       4.471   0.253  -3.729  0.00  0.00     0.027 H 
ATOM     32  H   LIG d   1       4.009  -2.016  -5.721  0.00  0.00     0.034 H 
ATOM     33  H   LIG d   1       2.836  -1.492  -4.490  0.00  0.00     0.034 H 
ATOM     34  H   LIG d   1       4.525  -0.332  -7.687  0.00  0.00     0.034 H 
ATOM     35  H   LIG d   1       2.877  -0.927  -7.998  0.00  0.00     0.034 H 
ATOM     36  H   LIG d   1       2.018   1.277  -8.284  0.00  0.00     0.027 H 
ATOM     37  H   LIG d   1       3.454   2.022  -7.546  0.00  0.00     0.027 H 
ATOM     38  H   LIG d   1       3.913   0.322  -9.969  0.00  0.00     0.031 H 
ATOM     39  H   LIG d   1       3.098   1.883 -10.227  0.00  0.00     0.031 H 
ATOM     40  H   LIG d   1       5.281   2.874 -10.090  0.00  0.00     0.057 H 
ATOM     41  H   LIG d   1       5.779   0.741  -7.951  0.00  0.00     0.062 H 
ATOM     42  H   LIG d   1       7.022   3.625 -10.057  0.00  0.00     0.066 H 
ATOM     43  H   LIG d   1      12.438   5.318  -9.090  0.00  0.00     0.039 H 
ATOM     44  H   LIG d   1      12.040   3.669  -9.618  0.00  0.00     0.039 H 
ENDROOT
BRANCH  22  45
ATOM     45  C   LIG d   1      10.800   5.584  -7.081  0.00  0.00     0.026 A 
ATOM     46  C   LIG d   1      10.825   5.583  -5.667  0.00  0.00     0.256 A 
ATOM     47  N   LIG d   1      10.626   6.716  -4.962  0.00  0.00    -0.307 N 
ATOM     48  O   LIG d   1      11.035   4.539  -5.075  0.00  0.00    -0.267 OA
ATOM     49  C   LIG d   1      10.386   7.879  -5.634  0.00  0.00     0.055 A 
ATOM     50  C   LIG d   1      10.602   7.002  -3.519  0.00  0.00     0.031 A 
ATOM     51  C   LIG d   1      10.340   7.955  -7.030  0.00  0.00    -0.001 A 
ATOM     52  C   LIG d   1      10.189   8.983  -4.835  0.00  0.00    -0.021 A 
ATOM     53  C   LIG d   1      10.564   6.722  -7.786  0.00  0.00    -0.044 A 
ATOM     54  C   LIG d   1      10.085   9.194  -7.625  0.00  0.00    -0.053 A 
ATOM     55  H   LIG d   1      10.542   6.716  -8.865  0.00  0.00     0.063 H 
ATOM     56  C   LIG d   1       9.889  10.288  -6.825  0.00  0.00    -0.061 A 
ATOM     57  H   LIG d   1      10.043   9.286  -8.700  0.00  0.00     0.062 H 
ATOM     58  C   LIG d   1       9.939  10.195  -5.437  0.00  0.00    -0.057 A 
ATOM     59  H   LIG d   1       9.692  11.246  -7.282  0.00  0.00     0.062 H 
ATOM     60  H   LIG d   1       9.780  11.076  -4.832  0.00  0.00     0.062 H 
ATOM     61  C   LIG d   1      10.313   8.514  -3.404  0.00  0.00    -0.008 A 
ATOM     62  H   LIG d   1      11.138   9.024  -2.907  0.00  0.00     0.033 H 
ATOM     63  H   LIG d   1       9.380   8.682  -2.867  0.00  0.00     0.033 H 
ATOM     64  H   LIG d   1       9.813   6.428  -3.034  0.00  0.00     0.050 H 
ATOM     65  H   LIG d   1      11.569   6.769  -3.073  0.00  0.00     0.050 H 
ENDBRANCH  22  45
BRANCH  17  66
ATOM     66  O   LIG d   1      10.197   2.159  -6.171  0.00  0.00    -0.505 OA
ATOM     67  H   LIG d   1       9.907   2.442  -5.292  0.00  0.00     0.292 HD
ENDBRANCH  17  66
BRANCH   1  68
ATOM     68  C   LIG d   1       6.924   1.038  -3.268  0.00  0.00    -0.028 C 
ATOM     69  H   LIG d   1       7.620   1.873  -3.346  0.00  0.00     0.026 H 
ATOM     70  H   LIG d   1       5.904   1.403  -3.390  0.00  0.00     0.026 H 
ATOM     71  H   LIG d   1       7.027   0.569  -2.291  0.00  0.00     0.026 H 
ENDBRANCH   1  68
TORSDOF 3
ENDMDL
