MODEL 1
REMARK VINA RESULT:      -6.4      0.000      0.000
REMARK  4 active torsions:
REMARK  status: ('A' for Active; 'I' for Inactive)
REMARK    1  A    between atoms: CB_1  and  CA_2 
REMARK       I    between atoms: CA_2  and  C_4 
REMARK       I    between atoms: CA_2  and  N_6 
REMARK       I    between atoms: N_6  and  C_7 
REMARK    2  A    between atoms: C_7  and  C_9 
REMARK    3  A    between atoms: C_9  and  O_10 
REMARK    4  A    between atoms: O_10  and  C_11 
ROOT
ATOM      1  O   UNK d   0       4.893  -2.745  -7.691  0.00  0.00    -0.483 OA
ENDROOT
BRANCH   1   2
ATOM      2  C   UNK d   0       3.710  -3.161  -8.376  0.00  0.00     0.165 C 
ATOM      3  H   UNK d   0       2.966  -3.489  -7.651  0.00  0.00     0.080 H 
ATOM      4  H   UNK d   0       3.951  -3.984  -9.048  0.00  0.00     0.080 H 
BRANCH   2   5
ATOM      5  C   UNK d   0       3.160  -2.006  -9.173  0.00  0.00     0.251 C 
ATOM      6  N   ALA d   1       3.840  -0.844  -9.233  0.00  0.00    -0.305 N 
ATOM      7  CA  ALA d   1       3.305   0.278 -10.007  0.00  0.00     0.060 C 
ATOM      8  H   ALA d   1       4.682  -0.750  -8.760  0.00  0.00     0.149 HD
ATOM      9  HA  ALA d   1       2.217   0.284  -9.935  0.00  0.00     0.056 H 
ATOM     10  C   ALA d   1       3.851   1.572  -9.459  0.00  0.00     0.062 C 
ATOM     11  O   ALA d   1       4.610   1.557  -8.520  0.00  0.00    -0.548 OA
ATOM     12  OXT ALA d   1       3.496   2.740 -10.017  0.00  0.00    -0.548 OA
ATOM     13  O   UNK d   0       2.105  -2.123  -9.760  0.00  0.00    -0.272 OA
BRANCH   7  14
ATOM     14  CB  ALA d   1       3.718   0.131 -11.473  0.00  0.00    -0.041 C 
ATOM     15  HB1 ALA d   1       3.321  -0.805 -11.870  0.00  0.00     0.025 H 
ATOM     16  HB2 ALA d   1       3.322   0.966 -12.048  0.00  0.00     0.025 H 
ATOM     17  HB3 ALA d   1       4.806   0.122 -11.545  0.00  0.00     0.025 H 
ENDBRANCH   7  14
ENDBRANCH   2   5
ENDBRANCH   1   2
BRANCH   1  18
ATOM     18  C   UNK d   0       4.775  -2.482  -6.363  0.00  0.00     0.125 A 
ATOM     19  C   UNK d   0       4.574  -1.180  -5.936  0.00  0.00     0.023 A 
ATOM     20  C   UNK d   0       4.454  -0.911  -4.581  0.00  0.00     0.142 A 
ATOM     21  H   UNK d   0       4.510  -0.377  -6.656  0.00  0.00     0.069 H 
ATOM     22  C   UNK d   0       4.539  -1.968  -3.656  0.00  0.00     0.018 A 
ATOM     23  O   UNK d   0       4.257   0.352  -4.143  0.00  0.00    -0.422 OA
ATOM     24  C   UNK d   0       4.743  -3.278  -4.106  0.00  0.00    -0.048 A 
ATOM     25  C   UNK d   0       4.410  -1.672  -2.227  0.00  0.00    -0.044 A 
ATOM     26  C   UNK d   0       4.852  -3.526  -5.443  0.00  0.00    -0.019 A 
ATOM     27  H   UNK d   0       4.808  -4.089  -3.397  0.00  0.00     0.063 H 
ATOM     28  H   UNK d   0       5.006  -4.537  -5.790  0.00  0.00     0.065 H 
ATOM     29  C   UNK d   0       4.213  -0.381  -1.854  0.00  0.00     0.024 A 
ATOM     30  H   UNK d   0       4.470  -2.460  -1.491  0.00  0.00     0.063 H 
ATOM     31  C   UNK d   0       4.139   0.629  -2.835  0.00  0.00     0.337 A 
ATOM     32  H   UNK d   0       4.114  -0.129  -0.808  0.00  0.00     0.069 H 
ATOM     33  O   UNK d   0       3.962   1.782  -2.486  0.00  0.00    -0.245 OA
ENDBRANCH   1  18
TORSDOF 6
ENDMDL
MODEL 2
REMARK VINA RESULT:      -6.3      6.877      9.066
REMARK  4 active torsions:
REMARK  status: ('A' for Active; 'I' for Inactive)
REMARK    1  A    between atoms: CB_1  and  CA_2 
REMARK       I    between atoms: CA_2  and  C_4 
REMARK       I    between atoms: CA_2  and  N_6 
REMARK       I    between atoms: N_6  and  C_7 
REMARK    2  A    between atoms: C_7  and  C_9 
REMARK    3  A    between atoms: C_9  and  O_10 
REMARK    4  A    between atoms: O_10  and  C_11 
ROOT
ATOM      1  O   UNK d   0       9.961   3.252  -4.424  0.00  0.00    -0.483 OA
ENDROOT
BRANCH   1   2
ATOM      2  C   UNK d   0       9.683   2.016  -3.763  0.00  0.00     0.165 C 
ATOM      3  H   UNK d   0       9.850   2.132  -2.692  0.00  0.00     0.080 H 
ATOM      4  H   UNK d   0      10.341   1.240  -4.152  0.00  0.00     0.080 H 
BRANCH   2   5
ATOM      5  C   UNK d   0       8.248   1.628  -4.008  0.00  0.00     0.251 C 
ATOM      6  N   ALA d   1       7.735   0.532  -3.414  0.00  0.00    -0.305 N 
ATOM      7  CA  ALA d   1       6.341   0.155  -3.653  0.00  0.00     0.060 C 
ATOM      8  H   ALA d   1       8.292  -0.009  -2.832  0.00  0.00     0.149 HD
ATOM      9  HA  ALA d   1       6.068   0.399  -4.680  0.00  0.00     0.056 H 
ATOM     10  C   ALA d   1       6.175  -1.327  -3.427  0.00  0.00     0.062 C 
ATOM     11  O   ALA d   1       7.125  -1.997  -3.101  0.00  0.00    -0.548 OA
ATOM     12  OXT ALA d   1       4.972  -1.900  -3.588  0.00  0.00    -0.548 OA
ATOM     13  O   UNK d   0       7.554   2.302  -4.739  0.00  0.00    -0.272 OA
BRANCH   7  14
ATOM     14  CB  ALA d   1       5.432   0.921  -2.689  0.00  0.00    -0.041 C 
ATOM     15  HB1 ALA d   1       4.959   1.749  -3.217  0.00  0.00     0.025 H 
ATOM     16  HB2 ALA d   1       4.665   0.251  -2.302  0.00  0.00     0.025 H 
ATOM     17  HB3 ALA d   1       6.027   1.311  -1.862  0.00  0.00     0.025 H 
ENDBRANCH   7  14
ENDBRANCH   2   5
ENDBRANCH   1   2
BRANCH   1  18
ATOM     18  C   UNK d   0       9.964   4.374  -3.658  0.00  0.00     0.125 A 
ATOM     19  C   UNK d   0      10.489   4.329  -2.377  0.00  0.00     0.023 A 
ATOM     20  C   UNK d   0      10.492   5.473  -1.594  0.00  0.00     0.142 A 
ATOM     21  H   UNK d   0      10.895   3.406  -1.990  0.00  0.00     0.069 H 
ATOM     22  C   UNK d   0       9.959   6.667  -2.113  0.00  0.00     0.018 A 
ATOM     23  O   UNK d   0      10.999   5.451  -0.342  0.00  0.00    -0.422 OA
ATOM     24  C   UNK d   0       9.432   6.694  -3.410  0.00  0.00    -0.048 A 
ATOM     25  C   UNK d   0       9.967   7.870  -1.277  0.00  0.00    -0.044 A 
ATOM     26  C   UNK d   0       9.443   5.561  -4.169  0.00  0.00    -0.019 A 
ATOM     27  H   UNK d   0       9.024   7.610  -3.809  0.00  0.00     0.063 H 
ATOM     28  H   UNK d   0       9.041   5.583  -5.171  0.00  0.00     0.065 H 
ATOM     29  C   UNK d   0      10.493   7.780  -0.028  0.00  0.00     0.024 A 
ATOM     30  H   UNK d   0       9.567   8.803  -1.645  0.00  0.00     0.063 H 
ATOM     31  C   UNK d   0      11.009   6.550   0.429  0.00  0.00     0.337 A 
ATOM     32  H   UNK d   0      10.514   8.648   0.614  0.00  0.00     0.069 H 
ATOM     33  O   UNK d   0      11.477   6.483   1.551  0.00  0.00    -0.245 OA
ENDBRANCH   1  18
TORSDOF 6
ENDMDL
MODEL 3
REMARK VINA RESULT:      -6.3      2.270      6.806
REMARK  4 active torsions:
REMARK  status: ('A' for Active; 'I' for Inactive)
REMARK    1  A    between atoms: CB_1  and  CA_2 
REMARK       I    between atoms: CA_2  and  C_4 
REMARK       I    between atoms: CA_2  and  N_6 
REMARK       I    between atoms: N_6  and  C_7 
REMARK    2  A    between atoms: C_7  and  C_9 
REMARK    3  A    between atoms: C_9  and  O_10 
REMARK    4  A    between atoms: O_10  and  C_11 
ROOT
ATOM      1  O   UNK d   0       5.594   0.689  -7.214  0.00  0.00    -0.483 OA
ENDROOT
BRANCH   1   2
ATOM      2  C   UNK d   0       6.527  -0.325  -6.836  0.00  0.00     0.165 C 
ATOM      3  H   UNK d   0       7.515  -0.073  -7.221  0.00  0.00     0.080 H 
ATOM      4  H   UNK d   0       6.209  -1.283  -7.248  0.00  0.00     0.080 H 
BRANCH   2   5
ATOM      5  C   UNK d   0       6.583  -0.419  -5.333  0.00  0.00     0.251 C 
ATOM      6  N   ALA d   1       5.596   0.115  -4.586  0.00  0.00    -0.305 N 
ATOM      7  CA  ALA d   1       5.651   0.024  -3.126  0.00  0.00     0.060 C 
ATOM      8  H   ALA d   1       4.850   0.562  -5.017  0.00  0.00     0.149 HD
ATOM      9  HA  ALA d   1       6.687   0.098  -2.795  0.00  0.00     0.056 H 
ATOM     10  C   ALA d   1       4.849   1.149  -2.522  0.00  0.00     0.062 C 
ATOM     11  O   ALA d   1       4.290   1.943  -3.239  0.00  0.00    -0.548 OA
ATOM     12  OXT ALA d   1       4.756   1.266  -1.188  0.00  0.00    -0.548 OA
ATOM     13  O   UNK d   0       7.517  -0.974  -4.794  0.00  0.00    -0.272 OA
BRANCH   7  14
ATOM     14  CB  ALA d   1       5.067  -1.317  -2.675  0.00  0.00    -0.041 C 
ATOM     15  HB1 ALA d   1       5.253  -1.454  -1.609  0.00  0.00     0.025 H 
ATOM     16  HB2 ALA d   1       3.993  -1.327  -2.860  0.00  0.00     0.025 H 
ATOM     17  HB3 ALA d   1       5.541  -2.126  -3.233  0.00  0.00     0.025 H 
ENDBRANCH   7  14
ENDBRANCH   2   5
ENDBRANCH   1   2
BRANCH   1  18
ATOM     18  C   UNK d   0       4.544   0.304  -7.984  0.00  0.00     0.125 A 
ATOM     19  C   UNK d   0       4.337  -1.041  -8.240  0.00  0.00     0.023 A 
ATOM     20  C   UNK d   0       3.265  -1.435  -9.026  0.00  0.00     0.142 A 
ATOM     21  H   UNK d   0       5.008  -1.781  -7.828  0.00  0.00     0.069 H 
ATOM     22  C   UNK d   0       2.400  -0.459  -9.556  0.00  0.00     0.018 A 
ATOM     23  O   UNK d   0       3.045  -2.742  -9.288  0.00  0.00    -0.422 OA
ATOM     24  C   UNK d   0       2.626   0.896  -9.288  0.00  0.00    -0.048 A 
ATOM     25  C   UNK d   0       1.272  -0.887 -10.386  0.00  0.00    -0.044 A 
ATOM     26  C   UNK d   0       3.681   1.266  -8.506  0.00  0.00    -0.019 A 
ATOM     27  H   UNK d   0       1.963   1.645  -9.693  0.00  0.00     0.063 H 
ATOM     28  H   UNK d   0       3.852   2.311  -8.296  0.00  0.00     0.065 H 
ATOM     29  C   UNK d   0       1.107  -2.216 -10.609  0.00  0.00     0.024 A 
ATOM     30  H   UNK d   0       0.589  -0.164 -10.807  0.00  0.00     0.063 H 
ATOM     31  C   UNK d   0       2.012  -3.140 -10.048  0.00  0.00     0.337 A 
ATOM     32  H   UNK d   0       0.284  -2.565 -11.217  0.00  0.00     0.069 H 
ATOM     33  O   UNK d   0       1.852  -4.329 -10.257  0.00  0.00    -0.245 OA
ENDBRANCH   1  18
TORSDOF 6
ENDMDL
MODEL 4
REMARK VINA RESULT:      -6.2      2.736      4.032
REMARK  4 active torsions:
REMARK  status: ('A' for Active; 'I' for Inactive)
REMARK    1  A    between atoms: CB_1  and  CA_2 
REMARK       I    between atoms: CA_2  and  C_4 
REMARK       I    between atoms: CA_2  and  N_6 
REMARK       I    between atoms: N_6  and  C_7 
REMARK    2  A    between atoms: C_7  and  C_9 
REMARK    3  A    between atoms: C_9  and  O_10 
REMARK    4  A    between atoms: O_10  and  C_11 
ROOT
ATOM      1  O   UNK d   0       4.941  -3.311  -6.968  0.00  0.00    -0.483 OA
ENDROOT
BRANCH   1   2
ATOM      2  C   UNK d   0       4.122  -4.450  -7.240  0.00  0.00     0.165 C 
ATOM      3  H   UNK d   0       3.288  -4.475  -6.539  0.00  0.00     0.080 H 
ATOM      4  H   UNK d   0       4.714  -5.358  -7.134  0.00  0.00     0.080 H 
BRANCH   2   5
ATOM      5  C   UNK d   0       3.590  -4.359  -8.648  0.00  0.00     0.251 C 
ATOM      6  N   ALA d   1       2.438  -4.979  -8.974  0.00  0.00    -0.305 N 
ATOM      7  CA  ALA d   1       1.921  -4.891 -10.341  0.00  0.00     0.060 C 
ATOM      8  H   ALA d   1       1.954  -5.486  -8.304  0.00  0.00     0.149 HD
ATOM      9  HA  ALA d   1       2.754  -4.878 -11.045  0.00  0.00     0.056 H 
ATOM     10  C   ALA d   1       1.043  -6.083 -10.624  0.00  0.00     0.062 C 
ATOM     11  O   ALA d   1       0.868  -6.919  -9.770  0.00  0.00    -0.548 OA
ATOM     12  OXT ALA d   1       0.456  -6.215 -11.824  0.00  0.00    -0.548 OA
ATOM     13  O   UNK d   0       4.198  -3.729  -9.486  0.00  0.00    -0.272 OA
BRANCH   7  14
ATOM     14  CB  ALA d   1       1.103  -3.607 -10.497  0.00  0.00    -0.041 C 
ATOM     15  HB1 ALA d   1       1.661  -2.768 -10.079  0.00  0.00     0.025 H 
ATOM     16  HB2 ALA d   1       0.910  -3.425 -11.553  0.00  0.00     0.025 H 
ATOM     17  HB3 ALA d   1       0.156  -3.713  -9.966  0.00  0.00     0.025 H 
ENDBRANCH   7  14
ENDBRANCH   2   5
ENDBRANCH   1   2
BRANCH   1  18
ATOM     18  C   UNK d   0       4.752  -2.687  -5.776  0.00  0.00     0.125 A 
ATOM     19  C   UNK d   0       4.461  -1.333  -5.748  0.00  0.00     0.023 A 
ATOM     20  C   UNK d   0       4.268  -0.695  -4.533  0.00  0.00     0.142 A 
ATOM     21  H   UNK d   0       4.385  -0.776  -6.671  0.00  0.00     0.069 H 
ATOM     22  C   UNK d   0       4.371  -1.435  -3.340  0.00  0.00     0.018 A 
ATOM     23  O   UNK d   0       3.984   0.624  -4.483  0.00  0.00    -0.422 OA
ATOM     24  C   UNK d   0       4.666  -2.803  -3.387  0.00  0.00    -0.048 A 
ATOM     25  C   UNK d   0       4.165  -0.751  -2.061  0.00  0.00    -0.044 A 
ATOM     26  C   UNK d   0       4.846  -3.416  -4.592  0.00  0.00    -0.019 A 
ATOM     27  H   UNK d   0       4.744  -3.371  -2.472  0.00  0.00     0.063 H 
ATOM     28  H   UNK d   0       5.069  -4.472  -4.628  0.00  0.00     0.065 H 
ATOM     29  C   UNK d   0       3.881   0.577  -2.082  0.00  0.00     0.024 A 
ATOM     30  H   UNK d   0       4.236  -1.289  -1.127  0.00  0.00     0.063 H 
ATOM     31  C   UNK d   0       3.795   1.256  -3.314  0.00  0.00     0.337 A 
ATOM     32  H   UNK d   0       3.724   1.111  -1.157  0.00  0.00     0.069 H 
ATOM     33  O   UNK d   0       3.540   2.448  -3.318  0.00  0.00    -0.245 OA
ENDBRANCH   1  18
TORSDOF 6
ENDMDL
MODEL 5
REMARK VINA RESULT:      -6.1      4.853      7.425
REMARK  4 active torsions:
REMARK  status: ('A' for Active; 'I' for Inactive)
REMARK    1  A    between atoms: CB_1  and  CA_2 
REMARK       I    between atoms: CA_2  and  C_4 
REMARK       I    between atoms: CA_2  and  N_6 
REMARK       I    between atoms: N_6  and  C_7 
REMARK    2  A    between atoms: C_7  and  C_9 
REMARK    3  A    between atoms: C_9  and  O_10 
REMARK    4  A    between atoms: O_10  and  C_11 
ROOT
ATOM      1  O   UNK d   0       6.459  -5.361  -5.941  0.00  0.00    -0.483 OA
ENDROOT
BRANCH   1   2
ATOM      2  C   UNK d   0       5.355  -6.261  -6.048  0.00  0.00     0.165 C 
ATOM      3  H   UNK d   0       5.104  -6.406  -7.099  0.00  0.00     0.080 H 
ATOM      4  H   UNK d   0       4.495  -5.846  -5.523  0.00  0.00     0.080 H 
BRANCH   2   5
ATOM      5  C   UNK d   0       5.727  -7.587  -5.435  0.00  0.00     0.251 C 
ATOM      6  N   ALA d   1       4.763  -8.419  -4.993  0.00  0.00    -0.305 N 
ATOM      7  CA  ALA d   1       5.125  -9.707  -4.397  0.00  0.00     0.060 C 
ATOM      8  H   ALA d   1       3.831  -8.163  -5.067  0.00  0.00     0.149 HD
ATOM      9  HA  ALA d   1       6.055  -9.601  -3.838  0.00  0.00     0.056 H 
ATOM     10  C   ALA d   1       4.028 -10.156  -3.466  0.00  0.00     0.062 C 
ATOM     11  O   ALA d   1       3.045  -9.470  -3.317  0.00  0.00    -0.548 OA
ATOM     12  OXT ALA d   1       4.143 -11.318  -2.804  0.00  0.00    -0.548 OA
ATOM     13  O   UNK d   0       6.893  -7.904  -5.339  0.00  0.00    -0.272 OA
BRANCH   7  14
ATOM     14  CB  ALA d   1       5.312 -10.748  -5.503  0.00  0.00    -0.041 C 
ATOM     15  HB1 ALA d   1       5.413 -11.738  -5.057  0.00  0.00     0.025 H 
ATOM     16  HB2 ALA d   1       4.447 -10.734  -6.165  0.00  0.00     0.025 H 
ATOM     17  HB3 ALA d   1       6.211 -10.514  -6.074  0.00  0.00     0.025 H 
ENDBRANCH   7  14
ENDBRANCH   2   5
ENDBRANCH   1   2
BRANCH   1  18
ATOM     18  C   UNK d   0       6.287  -4.266  -5.156  0.00  0.00     0.125 A 
ATOM     19  C   UNK d   0       5.008  -3.803  -4.894  0.00  0.00     0.023 A 
ATOM     20  C   UNK d   0       4.831  -2.686  -4.094  0.00  0.00     0.142 A 
ATOM     21  H   UNK d   0       4.151  -4.313  -5.311  0.00  0.00     0.069 H 
ATOM     22  C   UNK d   0       5.957  -2.033  -3.558  0.00  0.00     0.018 A 
ATOM     23  O   UNK d   0       3.592  -2.218  -3.825  0.00  0.00    -0.422 OA
ATOM     24  C   UNK d   0       7.242  -2.514  -3.834  0.00  0.00    -0.048 A 
ATOM     25  C   UNK d   0       5.758  -0.853  -2.713  0.00  0.00    -0.044 A 
ATOM     26  C   UNK d   0       7.398  -3.620  -4.618  0.00  0.00    -0.019 A 
ATOM     27  H   UNK d   0       8.107  -2.015  -3.423  0.00  0.00     0.063 H 
ATOM     28  H   UNK d   0       8.390  -3.993  -4.828  0.00  0.00     0.065 H 
ATOM     29  C   UNK d   0       4.487  -0.436  -2.482  0.00  0.00     0.024 A 
ATOM     30  H   UNK d   0       6.601  -0.330  -2.286  0.00  0.00     0.063 H 
ATOM     31  C   UNK d   0       3.404  -1.137  -3.052  0.00  0.00     0.337 A 
ATOM     32  H   UNK d   0       4.305   0.431  -1.864  0.00  0.00     0.069 H 
ATOM     33  O   UNK d   0       2.269  -0.752  -2.836  0.00  0.00    -0.245 OA
ENDBRANCH   1  18
TORSDOF 6
ENDMDL
MODEL 6
REMARK VINA RESULT:      -6.1      4.979      7.793
REMARK  4 active torsions:
REMARK  status: ('A' for Active; 'I' for Inactive)
REMARK    1  A    between atoms: CB_1  and  CA_2 
REMARK       I    between atoms: CA_2  and  C_4 
REMARK       I    between atoms: CA_2  and  N_6 
REMARK       I    between atoms: N_6  and  C_7 
REMARK    2  A    between atoms: C_7  and  C_9 
REMARK    3  A    between atoms: C_9  and  O_10 
REMARK    4  A    between atoms: O_10  and  C_11 
ROOT
ATOM      1  O   UNK d   0       8.262  -3.691  -4.946  0.00  0.00    -0.483 OA
ENDROOT
BRANCH   1   2
ATOM      2  C   UNK d   0       9.426  -3.460  -4.150  0.00  0.00     0.165 C 
ATOM      3  H   UNK d   0       9.376  -2.462  -3.714  0.00  0.00     0.080 H 
ATOM      4  H   UNK d   0      10.315  -3.542  -4.774  0.00  0.00     0.080 H 
BRANCH   2   5
ATOM      5  C   UNK d   0       9.490  -4.486  -3.047  0.00  0.00     0.251 C 
ATOM      6  N   ALA d   1       9.432  -5.800  -3.344  0.00  0.00    -0.305 N 
ATOM      7  CA  ALA d   1       9.494  -6.796  -2.273  0.00  0.00     0.060 C 
ATOM      8  H   ALA d   1       9.346  -6.084  -4.268  0.00  0.00     0.149 HD
ATOM      9  HA  ALA d   1       8.985  -6.412  -1.389  0.00  0.00     0.056 H 
ATOM     10  C   ALA d   1       8.822  -8.066  -2.729  0.00  0.00     0.062 C 
ATOM     11  O   ALA d   1       8.342  -8.131  -3.835  0.00  0.00    -0.548 OA
ATOM     12  OXT ALA d   1       8.760  -9.125  -1.906  0.00  0.00    -0.548 OA
ATOM     13  O   UNK d   0       9.593  -4.130  -1.893  0.00  0.00    -0.272 OA
BRANCH   7  14
ATOM     14  CB  ALA d   1      10.957  -7.088  -1.932  0.00  0.00    -0.041 C 
ATOM     15  HB1 ALA d   1      11.223  -8.082  -2.294  0.00  0.00     0.025 H 
ATOM     16  HB2 ALA d   1      11.597  -6.345  -2.406  0.00  0.00     0.025 H 
ATOM     17  HB3 ALA d   1      11.093  -7.049  -0.850  0.00  0.00     0.025 H 
ENDBRANCH   7  14
ENDBRANCH   2   5
ENDBRANCH   1   2
BRANCH   1  18
ATOM     18  C   UNK d   0       7.093  -3.163  -4.496  0.00  0.00     0.125 A 
ATOM     19  C   UNK d   0       7.109  -1.991  -3.758  0.00  0.00     0.023 A 
ATOM     20  C   UNK d   0       5.917  -1.451  -3.299  0.00  0.00     0.142 A 
ATOM     21  H   UNK d   0       8.046  -1.498  -3.543  0.00  0.00     0.069 H 
ATOM     22  C   UNK d   0       4.705  -2.105  -3.589  0.00  0.00     0.018 A 
ATOM     23  O   UNK d   0       5.909  -0.309  -2.578  0.00  0.00    -0.422 OA
ATOM     24  C   UNK d   0       4.709  -3.289  -4.335  0.00  0.00    -0.048 A 
ATOM     25  C   UNK d   0       3.452  -1.526  -3.098  0.00  0.00    -0.044 A 
ATOM     26  C   UNK d   0       5.890  -3.802  -4.785  0.00  0.00    -0.019 A 
ATOM     27  H   UNK d   0       3.779  -3.791  -4.558  0.00  0.00     0.063 H 
ATOM     28  H   UNK d   0       5.892  -4.714  -5.365  0.00  0.00     0.065 H 
ATOM     29  C   UNK d   0       3.515  -0.375  -2.380  0.00  0.00     0.024 A 
ATOM     30  H   UNK d   0       2.504  -2.002  -3.303  0.00  0.00     0.063 H 
ATOM     31  C   UNK d   0       4.764   0.226  -2.125  0.00  0.00     0.337 A 
ATOM     32  H   UNK d   0       2.609   0.078  -2.003  0.00  0.00     0.069 H 
ATOM     33  O   UNK d   0       4.806   1.258  -1.479  0.00  0.00    -0.245 OA
ENDBRANCH   1  18
TORSDOF 6
ENDMDL
MODEL 7
REMARK VINA RESULT:      -5.9      4.180      7.010
REMARK  4 active torsions:
REMARK  status: ('A' for Active; 'I' for Inactive)
REMARK    1  A    between atoms: CB_1  and  CA_2 
REMARK       I    between atoms: CA_2  and  C_4 
REMARK       I    between atoms: CA_2  and  N_6 
REMARK       I    between atoms: N_6  and  C_7 
REMARK    2  A    between atoms: C_7  and  C_9 
REMARK    3  A    between atoms: C_9  and  O_10 
REMARK    4  A    between atoms: O_10  and  C_11 
ROOT
ATOM      1  O   UNK d   0       5.970  -3.979  -6.061  0.00  0.00    -0.483 OA
ENDROOT
BRANCH   1   2
ATOM      2  C   UNK d   0       4.634  -3.500  -5.898  0.00  0.00     0.165 C 
ATOM      3  H   UNK d   0       3.942  -4.342  -5.913  0.00  0.00     0.080 H 
ATOM      4  H   UNK d   0       4.392  -2.816  -6.711  0.00  0.00     0.080 H 
BRANCH   2   5
ATOM      5  C   UNK d   0       4.517  -2.778  -4.581  0.00  0.00     0.251 C 
ATOM      6  N   ALA d   1       4.717  -1.446  -4.523  0.00  0.00    -0.305 N 
ATOM      7  CA  ALA d   1       4.604  -0.744  -3.243  0.00  0.00     0.060 C 
ATOM      8  H   ALA d   1       4.939  -0.953  -5.329  0.00  0.00     0.149 HD
ATOM      9  HA  ALA d   1       4.969  -1.387  -2.441  0.00  0.00     0.056 H 
ATOM     10  C   ALA d   1       5.428   0.518  -3.288  0.00  0.00     0.062 C 
ATOM     11  O   ALA d   1       6.044   0.801  -4.287  0.00  0.00    -0.548 OA
ATOM     12  OXT ALA d   1       5.474   1.328  -2.218  0.00  0.00    -0.548 OA
ATOM     13  O   UNK d   0       4.244  -3.394  -3.573  0.00  0.00    -0.272 OA
BRANCH   7  14
ATOM     14  CB  ALA d   1       3.139  -0.387  -2.983  0.00  0.00    -0.041 C 
ATOM     15  HB1 ALA d   1       2.923  -0.492  -1.919  0.00  0.00     0.025 H 
ATOM     16  HB2 ALA d   1       2.955   0.641  -3.291  0.00  0.00     0.025 H 
ATOM     17  HB3 ALA d   1       2.495  -1.059  -3.552  0.00  0.00     0.025 H 
ENDBRANCH   7  14
ENDBRANCH   2   5
ENDBRANCH   1   2
BRANCH   1  18
ATOM     18  C   UNK d   0       6.207  -5.272  -5.719  0.00  0.00     0.125 A 
ATOM     19  C   UNK d   0       5.157  -6.176  -5.680  0.00  0.00     0.023 A 
ATOM     20  C   UNK d   0       5.398  -7.495  -5.331  0.00  0.00     0.142 A 
ATOM     21  H   UNK d   0       4.155  -5.853  -5.923  0.00  0.00     0.069 H 
ATOM     22  C   UNK d   0       6.709  -7.900  -5.019  0.00  0.00     0.018 A 
ATOM     23  O   UNK d   0       4.389  -8.393  -5.288  0.00  0.00    -0.422 OA
ATOM     24  C   UNK d   0       7.758  -6.973  -5.063  0.00  0.00    -0.048 A 
ATOM     25  C   UNK d   0       6.952  -9.297  -4.651  0.00  0.00    -0.044 A 
ATOM     26  C   UNK d   0       7.504  -5.680  -5.415  0.00  0.00    -0.019 A 
ATOM     27  H   UNK d   0       8.764  -7.283  -4.824  0.00  0.00     0.063 H 
ATOM     28  H   UNK d   0       8.314  -4.966  -5.452  0.00  0.00     0.065 H 
ATOM     29  C   UNK d   0       5.894 -10.148  -4.628  0.00  0.00     0.024 A 
ATOM     30  H   UNK d   0       7.946  -9.641  -4.406  0.00  0.00     0.063 H 
ATOM     31  C   UNK d   0       4.606  -9.674  -4.951  0.00  0.00     0.337 A 
ATOM     32  H   UNK d   0       6.038 -11.184  -4.361  0.00  0.00     0.069 H 
ATOM     33  O   UNK d   0       3.665 -10.448  -4.926  0.00  0.00    -0.245 OA
ENDBRANCH   1  18
TORSDOF 6
ENDMDL
MODEL 8
REMARK VINA RESULT:      -5.8      2.341      3.619
REMARK  4 active torsions:
REMARK  status: ('A' for Active; 'I' for Inactive)
REMARK    1  A    between atoms: CB_1  and  CA_2 
REMARK       I    between atoms: CA_2  and  C_4 
REMARK       I    between atoms: CA_2  and  N_6 
REMARK       I    between atoms: N_6  and  C_7 
REMARK    2  A    between atoms: C_7  and  C_9 
REMARK    3  A    between atoms: C_9  and  O_10 
REMARK    4  A    between atoms: O_10  and  C_11 
ROOT
ATOM      1  O   UNK d   0       3.750  -1.021  -8.424  0.00  0.00    -0.483 OA
ENDROOT
BRANCH   1   2
ATOM      2  C   UNK d   0       2.395  -0.853  -8.847  0.00  0.00     0.165 C 
ATOM      3  H   UNK d   0       2.181   0.208  -8.968  0.00  0.00     0.080 H 
ATOM      4  H   UNK d   0       1.726  -1.277  -8.100  0.00  0.00     0.080 H 
BRANCH   2   5
ATOM      5  C   UNK d   0       2.190  -1.559 -10.163  0.00  0.00     0.251 C 
ATOM      6  N   ALA d   1       1.075  -2.288 -10.371  0.00  0.00    -0.305 N 
ATOM      7  CA  ALA d   1       0.877  -2.974 -11.649  0.00  0.00     0.060 C 
ATOM      8  H   ALA d   1       0.407  -2.360  -9.671  0.00  0.00     0.149 HD
ATOM      9  HA  ALA d   1       1.837  -3.324 -12.028  0.00  0.00     0.056 H 
ATOM     10  C   ALA d   1      -0.044  -4.150 -11.450  0.00  0.00     0.062 C 
ATOM     11  O   ALA d   1      -0.488  -4.390 -10.352  0.00  0.00    -0.548 OA
ATOM     12  OXT ALA d   1      -0.371  -4.931 -12.492  0.00  0.00    -0.548 OA
ATOM     13  O   UNK d   0       3.029  -1.472 -11.035  0.00  0.00    -0.272 OA
BRANCH   7  14
ATOM     14  CB  ALA d   1       0.254  -2.005 -12.657  0.00  0.00    -0.041 C 
ATOM     15  HB1 ALA d   1      -0.223  -1.182 -12.124  0.00  0.00     0.025 H 
ATOM     16  HB2 ALA d   1       1.032  -1.612 -13.311  0.00  0.00     0.025 H 
ATOM     17  HB3 ALA d   1      -0.492  -2.531 -13.254  0.00  0.00     0.025 H 
ENDBRANCH   7  14
ENDBRANCH   2   5
ENDBRANCH   1   2
BRANCH   1  18
ATOM     18  C   UNK d   0       3.963  -1.186  -7.092  0.00  0.00     0.125 A 
ATOM     19  C   UNK d   0       3.640  -0.164  -6.213  0.00  0.00     0.023 A 
ATOM     20  C   UNK d   0       3.857  -0.332  -4.855  0.00  0.00     0.142 A 
ATOM     21  H   UNK d   0       3.220   0.758  -6.586  0.00  0.00     0.069 H 
ATOM     22  C   UNK d   0       4.405  -1.540  -4.385  0.00  0.00     0.018 A 
ATOM     23  O   UNK d   0       3.550   0.651  -3.980  0.00  0.00    -0.422 OA
ATOM     24  C   UNK d   0       4.725  -2.561  -5.288  0.00  0.00    -0.048 A 
ATOM     25  C   UNK d   0       4.630  -1.706  -2.948  0.00  0.00    -0.044 A 
ATOM     26  C   UNK d   0       4.499  -2.383  -6.621  0.00  0.00    -0.019 A 
ATOM     27  H   UNK d   0       5.145  -3.489  -4.928  0.00  0.00     0.063 H 
ATOM     28  H   UNK d   0       4.742  -3.172  -7.317  0.00  0.00     0.065 H 
ATOM     29  C   UNK d   0       4.298  -0.679  -2.123  0.00  0.00     0.024 A 
ATOM     30  H   UNK d   0       5.048  -2.621  -2.554  0.00  0.00     0.063 H 
ATOM     31  C   UNK d   0       3.755   0.505  -2.662  0.00  0.00     0.337 A 
ATOM     32  H   UNK d   0       4.452  -0.768  -1.058  0.00  0.00     0.069 H 
ATOM     33  O   UNK d   0       3.461   1.419  -1.911  0.00  0.00    -0.245 OA
ENDBRANCH   1  18
TORSDOF 6
ENDMDL
MODEL 9
REMARK VINA RESULT:      -5.8      5.263      7.529
REMARK  4 active torsions:
REMARK  status: ('A' for Active; 'I' for Inactive)
REMARK    1  A    between atoms: CB_1  and  CA_2 
REMARK       I    between atoms: CA_2  and  C_4 
REMARK       I    between atoms: CA_2  and  N_6 
REMARK       I    between atoms: N_6  and  C_7 
REMARK    2  A    between atoms: C_7  and  C_9 
REMARK    3  A    between atoms: C_9  and  O_10 
REMARK    4  A    between atoms: O_10  and  C_11 
ROOT
ATOM      1  O   UNK d   0       7.584   2.155  -3.583  0.00  0.00    -0.483 OA
ENDROOT
BRANCH   1   2
ATOM      2  C   UNK d   0       8.956   1.789  -3.744  0.00  0.00     0.165 C 
ATOM      3  H   UNK d   0       9.145   1.539  -4.788  0.00  0.00     0.080 H 
ATOM      4  H   UNK d   0       9.177   0.926  -3.117  0.00  0.00     0.080 H 
BRANCH   2   5
ATOM      5  C   UNK d   0       9.834   2.944  -3.337  0.00  0.00     0.251 C 
ATOM      6  N   ALA d   1       9.396   4.210  -3.490  0.00  0.00    -0.305 N 
ATOM      7  CA  ALA d   1      10.250   5.332  -3.095  0.00  0.00     0.060 C 
ATOM      8  H   ALA d   1       8.517   4.377  -3.866  0.00  0.00     0.149 HD
ATOM      9  HA  ALA d   1      11.292   5.086  -3.297  0.00  0.00     0.056 H 
ATOM     10  C   ALA d   1       9.862   6.559  -3.881  0.00  0.00     0.062 C 
ATOM     11  O   ALA d   1       8.965   6.500  -4.687  0.00  0.00    -0.548 OA
ATOM     12  OXT ALA d   1      10.513   7.716  -3.684  0.00  0.00    -0.548 OA
ATOM     13  O   UNK d   0      10.934   2.735  -2.873  0.00  0.00    -0.272 OA
BRANCH   7  14
ATOM     14  CB  ALA d   1      10.072   5.608  -1.601  0.00  0.00    -0.041 C 
ATOM     15  HB1 ALA d   1      10.428   4.750  -1.028  0.00  0.00     0.025 H 
ATOM     16  HB2 ALA d   1      10.645   6.492  -1.323  0.00  0.00     0.025 H 
ATOM     17  HB3 ALA d   1       9.016   5.775  -1.385  0.00  0.00     0.025 H 
ENDBRANCH   7  14
ENDBRANCH   2   5
ENDBRANCH   1   2
BRANCH   1  18
ATOM     18  C   UNK d   0       6.694   1.145  -3.398  0.00  0.00     0.125 A 
ATOM     19  C   UNK d   0       6.847  -0.041  -4.099  0.00  0.00     0.023 A 
ATOM     20  C   UNK d   0       5.939  -1.072  -3.911  0.00  0.00     0.142 A 
ATOM     21  H   UNK d   0       7.670  -0.161  -4.787  0.00  0.00     0.069 H 
ATOM     22  C   UNK d   0       4.872  -0.899  -3.010  0.00  0.00     0.018 A 
ATOM     23  O   UNK d   0       6.069  -2.237  -4.583  0.00  0.00    -0.422 OA
ATOM     24  C   UNK d   0       4.733   0.307  -2.312  0.00  0.00    -0.048 A 
ATOM     25  C   UNK d   0       3.919  -1.995  -2.820  0.00  0.00    -0.044 A 
ATOM     26  C   UNK d   0       5.639   1.309  -2.503  0.00  0.00    -0.019 A 
ATOM     27  H   UNK d   0       3.915   0.441  -1.620  0.00  0.00     0.063 H 
ATOM     28  H   UNK d   0       5.534   2.237  -1.962  0.00  0.00     0.065 H 
ATOM     29  C   UNK d   0       4.108  -3.139  -3.526  0.00  0.00     0.024 A 
ATOM     30  H   UNK d   0       3.089  -1.895  -2.136  0.00  0.00     0.063 H 
ATOM     31  C   UNK d   0       5.199  -3.244  -4.413  0.00  0.00     0.337 A 
ATOM     32  H   UNK d   0       3.424  -3.967  -3.409  0.00  0.00     0.069 H 
ATOM     33  O   UNK d   0       5.357  -4.277  -5.040  0.00  0.00    -0.245 OA
ENDBRANCH   1  18
TORSDOF 6
ENDMDL
MODEL 10
REMARK VINA RESULT:      -5.8      5.317      6.837
REMARK  4 active torsions:
REMARK  status: ('A' for Active; 'I' for Inactive)
REMARK    1  A    between atoms: CB_1  and  CA_2 
REMARK       I    between atoms: CA_2  and  C_4 
REMARK       I    between atoms: CA_2  and  N_6 
REMARK       I    between atoms: N_6  and  C_7 
REMARK    2  A    between atoms: C_7  and  C_9 
REMARK    3  A    between atoms: C_9  and  O_10 
REMARK    4  A    between atoms: O_10  and  C_11 
ROOT
ATOM      1  O   UNK d   0       9.434   0.440  -5.170  0.00  0.00    -0.483 OA
ENDROOT
BRANCH   1   2
ATOM      2  C   UNK d   0       9.314   1.727  -5.780  0.00  0.00     0.165 C 
ATOM      3  H   UNK d   0       8.270   2.039  -5.768  0.00  0.00     0.080 H 
ATOM      4  H   UNK d   0       9.666   1.674  -6.810  0.00  0.00     0.080 H 
BRANCH   2   5
ATOM      5  C   UNK d   0      10.146   2.724  -5.015  0.00  0.00     0.251 C 
ATOM      6  N   ALA d   1       9.587   3.868  -4.571  0.00  0.00    -0.305 N 
ATOM      7  CA  ALA d   1      10.394   4.837  -3.827  0.00  0.00     0.060 C 
ATOM      8  H   ALA d   1       8.650   4.049  -4.746  0.00  0.00     0.149 HD
ATOM      9  HA  ALA d   1      11.411   4.842  -4.222  0.00  0.00     0.056 H 
ATOM     10  C   ALA d   1       9.791   6.211  -3.974  0.00  0.00     0.062 C 
ATOM     11  O   ALA d   1       8.790   6.363  -4.631  0.00  0.00    -0.548 OA
ATOM     12  OXT ALA d   1      10.367   7.264  -3.373  0.00  0.00    -0.548 OA
ATOM     13  O   UNK d   0      11.317   2.498  -4.799  0.00  0.00    -0.272 OA
BRANCH   7  14
ATOM     14  CB  ALA d   1      10.424   4.449  -2.347  0.00  0.00    -0.041 C 
ATOM     15  HB1 ALA d   1       9.406   4.430  -1.956  0.00  0.00     0.025 H 
ATOM     16  HB2 ALA d   1      10.873   3.463  -2.239  0.00  0.00     0.025 H 
ATOM     17  HB3 ALA d   1      11.013   5.180  -1.792  0.00  0.00     0.025 H 
ENDBRANCH   7  14
ENDBRANCH   2   5
ENDBRANCH   1   2
BRANCH   1  18
ATOM     18  C   UNK d   0       8.332  -0.051  -4.546  0.00  0.00     0.125 A 
ATOM     19  C   UNK d   0       7.383   0.823  -4.039  0.00  0.00     0.023 A 
ATOM     20  C   UNK d   0       6.258   0.322  -3.403  0.00  0.00     0.142 A 
ATOM     21  H   UNK d   0       7.520   1.889  -4.141  0.00  0.00     0.069 H 
ATOM     22  C   UNK d   0       6.094  -1.070  -3.280  0.00  0.00     0.018 A 
ATOM     23  O   UNK d   0       5.320   1.156  -2.902  0.00  0.00    -0.422 OA
ATOM     24  C   UNK d   0       7.064  -1.938  -3.798  0.00  0.00    -0.048 A 
ATOM     25  C   UNK d   0       4.902  -1.587  -2.606  0.00  0.00    -0.044 A 
ATOM     26  C   UNK d   0       8.162  -1.429  -4.427  0.00  0.00    -0.019 A 
ATOM     27  H   UNK d   0       6.939  -3.006  -3.704  0.00  0.00     0.063 H 
ATOM     28  H   UNK d   0       8.907  -2.098  -4.830  0.00  0.00     0.065 H 
ATOM     29  C   UNK d   0       3.998  -0.695  -2.125  0.00  0.00     0.024 A 
ATOM     30  H   UNK d   0       4.745  -2.650  -2.494  0.00  0.00     0.063 H 
ATOM     31  C   UNK d   0       4.225   0.687  -2.283  0.00  0.00     0.337 A 
ATOM     32  H   UNK d   0       3.107  -1.043  -1.623  0.00  0.00     0.069 H 
ATOM     33  O   UNK d   0       3.406   1.477  -1.847  0.00  0.00    -0.245 OA
ENDBRANCH   1  18
TORSDOF 6
ENDMDL
