MODEL 1
REMARK VINA RESULT:      -7.2      0.000      0.000
REMARK  4 active torsions:
REMARK  status: ('A' for Active; 'I' for Inactive)
REMARK    1  A    between atoms: C_1  and  C_2 
REMARK    2  A    between atoms: C_2  and  C_3 
REMARK    3  A    between atoms: N_23  and  C_26 
REMARK    4  A    between atoms: C_29  and  C_32 
ROOT
ATOM      1  C   LIG d   1       6.659  -0.301  -5.215  0.00  0.00     0.033 C 
ATOM      2  C   LIG d   1       7.528  -1.568  -4.956  0.00  0.00    -0.032 A 
ATOM      3  C   LIG d   1       8.881  -1.555  -4.854  0.00  0.00    -0.057 A 
ATOM      4  C   LIG d   1       9.541  -2.768  -4.683  0.00  0.00    -0.061 A 
ATOM      5  C   LIG d   1       8.815  -3.944  -4.629  0.00  0.00    -0.061 A 
ATOM      6  C   LIG d   1       7.432  -3.937  -4.713  0.00  0.00    -0.058 A 
ATOM      7  C   LIG d   1       6.777  -2.736  -4.849  0.00  0.00    -0.035 A 
ATOM      8  C   LIG d   1       5.264  -2.613  -4.774  0.00  0.00     0.022 C 
ATOM      9  C   LIG d   1       5.101  -1.541  -3.679  0.00  0.00    -0.035 A 
ATOM     10  C   LIG d   1       5.796  -0.346  -3.946  0.00  0.00    -0.032 A 
ATOM     11  C   LIG d   1       5.688   0.729  -3.099  0.00  0.00    -0.057 A 
ATOM     12  C   LIG d   1       4.934   0.600  -1.941  0.00  0.00    -0.061 A 
ATOM     13  C   LIG d   1       4.300  -0.589  -1.637  0.00  0.00    -0.061 A 
ATOM     14  C   LIG d   1       4.361  -1.700  -2.548  0.00  0.00    -0.058 A 
ATOM     15  C   LIG d   1       4.726  -1.774  -5.933  0.00  0.00     0.059 C 
ATOM     16  H   LIG d   1       3.897  -1.149  -5.599  0.00  0.00     0.041 H 
ATOM     17  C   LIG d   1       5.898  -0.888  -6.371  0.00  0.00     0.062 C 
ATOM     18  H   LIG d   1       6.560  -1.680  -6.722  0.00  0.00     0.041 H 
ATOM     19  C   LIG d   1       5.404  -0.331  -7.627  0.00  0.00     0.231 C 
ATOM     20  O   LIG d   1       5.612   0.768  -8.095  0.00  0.00    -0.275 OA
ATOM     21  N   LIG d   1       4.649  -1.355  -8.152  0.00  0.00    -0.210 N 
ATOM     22  C   LIG d   1       4.414  -2.392  -7.265  0.00  0.00     0.231 C 
ATOM     23  O   LIG d   1       4.006  -3.512  -7.480  0.00  0.00    -0.275 OA
ATOM     24  H   LIG d   1       9.432  -0.627  -4.905  0.00  0.00     0.062 H 
ATOM     25  H   LIG d   1      10.617  -2.792  -4.593  0.00  0.00     0.062 H 
ATOM     26  H   LIG d   1       9.335  -4.885  -4.519  0.00  0.00     0.062 H 
ATOM     27  H   LIG d   1       6.875  -4.862  -4.673  0.00  0.00     0.062 H 
ATOM     28  H   LIG d   1       4.741  -3.552  -4.595  0.00  0.00     0.041 H 
ATOM     29  H   LIG d   1       6.184   1.660  -3.329  0.00  0.00     0.062 H 
ATOM     30  H   LIG d   1       4.841   1.441  -1.270  0.00  0.00     0.062 H 
ATOM     31  H   LIG d   1       3.732  -0.680  -0.722  0.00  0.00     0.062 H 
ATOM     32  H   LIG d   1       3.868  -2.637  -2.337  0.00  0.00     0.062 H 
ENDROOT
BRANCH  21  33
ATOM     33  C   LIG d   1       4.189  -1.373  -9.477  0.00  0.00     0.044 A 
ATOM     34  C   LIG d   1       2.927  -0.880  -9.782  0.00  0.00    -0.040 A 
ATOM     35  C   LIG d   1       2.479  -0.894 -11.088  0.00  0.00    -0.057 A 
ATOM     36  H   LIG d   1       2.298  -0.483  -8.999  0.00  0.00     0.064 H 
ATOM     37  C   LIG d   1       3.282  -1.408 -12.090  0.00  0.00    -0.050 A 
ATOM     38  H   LIG d   1       1.499  -0.507 -11.327  0.00  0.00     0.062 H 
ATOM     39  C   LIG d   1       4.536  -1.904 -11.789  0.00  0.00    -0.057 A 
ATOM     40  C   LIG d   1       4.992  -1.889 -10.485  0.00  0.00    -0.040 A 
ATOM     41  H   LIG d   1       5.160  -2.305 -12.573  0.00  0.00     0.062 H 
ATOM     42  H   LIG d   1       5.973  -2.276 -10.251  0.00  0.00     0.064 H 
BRANCH  37  43
ATOM     43  C   LIG d   1       2.788  -1.427 -13.514  0.00  0.00    -0.040 C 
ATOM     44  H   LIG d   1       3.192  -2.300 -14.027  0.00  0.00     0.028 H 
ATOM     45  H   LIG d   1       1.698  -1.476 -13.520  0.00  0.00     0.028 H 
ATOM     46  H   LIG d   1       3.113  -0.522 -14.024  0.00  0.00     0.028 H 
ENDBRANCH  37  43
ENDBRANCH  21  33
BRANCH   1  47
ATOM     47  C   LIG d   1       7.390   1.017  -5.482  0.00  0.00    -0.041 C 
ATOM     48  H   LIG d   1       7.831   1.382  -4.556  0.00  0.00     0.027 H 
ATOM     49  H   LIG d   1       6.683   1.754  -5.864  0.00  0.00     0.027 H 
BRANCH  47  50
ATOM     50  C   LIG d   1       8.494   0.786  -6.516  0.00  0.00    -0.064 C 
ATOM     51  H   LIG d   1       9.236   1.582  -6.439  0.00  0.00     0.023 H 
ATOM     52  H   LIG d   1       8.972  -0.175  -6.328  0.00  0.00     0.023 H 
ATOM     53  H   LIG d   1       8.061   0.788  -7.516  0.00  0.00     0.023 H 
ENDBRANCH  47  50
ENDBRANCH   1  47
TORSDOF 4
ENDMDL
MODEL 2
REMARK VINA RESULT:      -6.7      2.570      6.676
REMARK  4 active torsions:
REMARK  status: ('A' for Active; 'I' for Inactive)
REMARK    1  A    between atoms: C_1  and  C_2 
REMARK    2  A    between atoms: C_2  and  C_3 
REMARK    3  A    between atoms: N_23  and  C_26 
REMARK    4  A    between atoms: C_29  and  C_32 
ROOT
ATOM      1  C   LIG d   1       5.747  -2.329  -4.660  0.00  0.00     0.033 C 
ATOM      2  C   LIG d   1       5.448  -1.550  -5.976  0.00  0.00    -0.032 A 
ATOM      3  C   LIG d   1       4.531  -1.937  -6.898  0.00  0.00    -0.057 A 
ATOM      4  C   LIG d   1       4.406  -1.183  -8.060  0.00  0.00    -0.061 A 
ATOM      5  C   LIG d   1       5.211  -0.075  -8.252  0.00  0.00    -0.061 A 
ATOM      6  C   LIG d   1       6.128   0.318  -7.290  0.00  0.00    -0.058 A 
ATOM      7  C   LIG d   1       6.229  -0.407  -6.127  0.00  0.00    -0.035 A 
ATOM      8  C   LIG d   1       7.075   0.046  -4.948  0.00  0.00     0.022 C 
ATOM      9  C   LIG d   1       6.043   0.018  -3.805  0.00  0.00    -0.035 A 
ATOM     10  C   LIG d   1       5.400  -1.225  -3.650  0.00  0.00    -0.032 A 
ATOM     11  C   LIG d   1       4.507  -1.428  -2.627  0.00  0.00    -0.057 A 
ATOM     12  C   LIG d   1       4.199  -0.370  -1.784  0.00  0.00    -0.061 A 
ATOM     13  C   LIG d   1       4.775   0.873  -1.967  0.00  0.00    -0.061 A 
ATOM     14  C   LIG d   1       5.754   1.076  -3.000  0.00  0.00    -0.058 A 
ATOM     15  C   LIG d   1       7.951  -1.096  -4.433  0.00  0.00     0.059 C 
ATOM     16  H   LIG d   1       8.020  -1.062  -3.344  0.00  0.00     0.041 H 
ATOM     17  C   LIG d   1       7.236  -2.382  -4.866  0.00  0.00     0.062 C 
ATOM     18  H   LIG d   1       7.339  -2.253  -5.944  0.00  0.00     0.041 H 
ATOM     19  C   LIG d   1       8.247  -3.398  -4.588  0.00  0.00     0.231 C 
ATOM     20  O   LIG d   1       8.082  -4.539  -4.213  0.00  0.00    -0.275 OA
ATOM     21  N   LIG d   1       9.431  -2.749  -4.858  0.00  0.00    -0.210 N 
ATOM     22  C   LIG d   1       9.294  -1.383  -5.036  0.00  0.00     0.231 C 
ATOM     23  O   LIG d   1      10.076  -0.587  -5.509  0.00  0.00    -0.275 OA
ATOM     24  H   LIG d   1       3.914  -2.809  -6.734  0.00  0.00     0.062 H 
ATOM     25  H   LIG d   1       3.681  -1.461  -8.811  0.00  0.00     0.062 H 
ATOM     26  H   LIG d   1       5.125   0.493  -9.167  0.00  0.00     0.062 H 
ATOM     27  H   LIG d   1       6.755   1.184  -7.452  0.00  0.00     0.062 H 
ATOM     28  H   LIG d   1       7.588   0.997  -5.096  0.00  0.00     0.041 H 
ATOM     29  H   LIG d   1       4.051  -2.396  -2.483  0.00  0.00     0.062 H 
ATOM     30  H   LIG d   1       3.499  -0.521  -0.975  0.00  0.00     0.062 H 
ATOM     31  H   LIG d   1       4.510   1.691  -1.313  0.00  0.00     0.062 H 
ATOM     32  H   LIG d   1       6.224   2.035  -3.157  0.00  0.00     0.062 H 
ENDROOT
BRANCH  21  33
ATOM     33  C   LIG d   1      10.661  -3.411  -4.983  0.00  0.00     0.044 A 
ATOM     34  C   LIG d   1      11.517  -3.498  -3.892  0.00  0.00    -0.040 A 
ATOM     35  C   LIG d   1      12.726  -4.155  -4.017  0.00  0.00    -0.057 A 
ATOM     36  H   LIG d   1      11.236  -3.058  -2.947  0.00  0.00     0.064 H 
ATOM     37  C   LIG d   1      13.088  -4.715  -5.228  0.00  0.00    -0.050 A 
ATOM     38  H   LIG d   1      13.390  -4.228  -3.168  0.00  0.00     0.062 H 
ATOM     39  C   LIG d   1      12.241  -4.625  -6.316  0.00  0.00    -0.057 A 
ATOM     40  C   LIG d   1      11.029  -3.973  -6.197  0.00  0.00    -0.040 A 
ATOM     41  H   LIG d   1      12.527  -5.062  -7.261  0.00  0.00     0.062 H 
ATOM     42  H   LIG d   1      10.366  -3.904  -7.048  0.00  0.00     0.064 H 
BRANCH  37  43
ATOM     43  C   LIG d   1      14.410  -5.426  -5.362  0.00  0.00    -0.040 C 
ATOM     44  H   LIG d   1      14.728  -5.789  -4.384  0.00  0.00     0.028 H 
ATOM     45  H   LIG d   1      14.302  -6.270  -6.044  0.00  0.00     0.028 H 
ATOM     46  H   LIG d   1      15.156  -4.736  -5.754  0.00  0.00     0.028 H 
ENDBRANCH  37  43
ENDBRANCH  21  33
BRANCH   1  47
ATOM     47  C   LIG d   1       5.042  -3.671  -4.456  0.00  0.00    -0.041 C 
ATOM     48  H   LIG d   1       3.990  -3.499  -4.233  0.00  0.00     0.027 H 
ATOM     49  H   LIG d   1       5.507  -4.203  -3.626  0.00  0.00     0.027 H 
BRANCH  47  50
ATOM     50  C   LIG d   1       5.163  -4.509  -5.730  0.00  0.00    -0.064 C 
ATOM     51  H   LIG d   1       4.491  -5.366  -5.667  0.00  0.00     0.023 H 
ATOM     52  H   LIG d   1       4.894  -3.899  -6.592  0.00  0.00     0.023 H 
ATOM     53  H   LIG d   1       6.189  -4.860  -5.838  0.00  0.00     0.023 H 
ENDBRANCH  47  50
ENDBRANCH   1  47
TORSDOF 4
ENDMDL
MODEL 3
REMARK VINA RESULT:      -6.6      2.732      5.797
REMARK  4 active torsions:
REMARK  status: ('A' for Active; 'I' for Inactive)
REMARK    1  A    between atoms: C_1  and  C_2 
REMARK    2  A    between atoms: C_2  and  C_3 
REMARK    3  A    between atoms: N_23  and  C_26 
REMARK    4  A    between atoms: C_29  and  C_32 
ROOT
ATOM      1  C   LIG d   1       4.557  -1.033  -4.962  0.00  0.00     0.033 C 
ATOM      2  C   LIG d   1       4.145  -0.444  -6.345  0.00  0.00    -0.032 A 
ATOM      3  C   LIG d   1       2.935   0.112  -6.605  0.00  0.00    -0.057 A 
ATOM      4  C   LIG d   1       2.674   0.545  -7.901  0.00  0.00    -0.061 A 
ATOM      5  C   LIG d   1       3.635   0.393  -8.884  0.00  0.00    -0.061 A 
ATOM      6  C   LIG d   1       4.873  -0.159  -8.596  0.00  0.00    -0.058 A 
ATOM      7  C   LIG d   1       5.145  -0.556  -7.308  0.00  0.00    -0.035 A 
ATOM      8  C   LIG d   1       6.526  -1.007  -6.862  0.00  0.00     0.022 C 
ATOM      9  C   LIG d   1       6.776  -0.076  -5.661  0.00  0.00    -0.035 A 
ATOM     10  C   LIG d   1       5.770  -0.135  -4.677  0.00  0.00    -0.032 A 
ATOM     11  C   LIG d   1       5.887   0.582  -3.513  0.00  0.00    -0.057 A 
ATOM     12  C   LIG d   1       6.984   1.417  -3.345  0.00  0.00    -0.061 A 
ATOM     13  C   LIG d   1       7.944   1.532  -4.331  0.00  0.00    -0.061 A 
ATOM     14  C   LIG d   1       7.857   0.740  -5.528  0.00  0.00    -0.058 A 
ATOM     15  C   LIG d   1       6.445  -2.312  -6.070  0.00  0.00     0.059 C 
ATOM     16  H   LIG d   1       7.165  -2.305  -5.250  0.00  0.00     0.041 H 
ATOM     17  C   LIG d   1       5.019  -2.357  -5.507  0.00  0.00     0.062 C 
ATOM     18  H   LIG d   1       4.487  -2.430  -6.456  0.00  0.00     0.041 H 
ATOM     19  C   LIG d   1       4.934  -3.727  -5.009  0.00  0.00     0.231 C 
ATOM     20  O   LIG d   1       4.332  -4.137  -4.040  0.00  0.00    -0.275 OA
ATOM     21  N   LIG d   1       5.699  -4.438  -5.905  0.00  0.00    -0.210 N 
ATOM     22  C   LIG d   1       6.446  -3.645  -6.759  0.00  0.00     0.231 C 
ATOM     23  O   LIG d   1       7.016  -3.944  -7.786  0.00  0.00    -0.275 OA
ATOM     24  H   LIG d   1       2.195   0.217  -5.826  0.00  0.00     0.062 H 
ATOM     25  H   LIG d   1       1.723   0.998  -8.140  0.00  0.00     0.062 H 
ATOM     26  H   LIG d   1       3.417   0.710  -9.894  0.00  0.00     0.062 H 
ATOM     27  H   LIG d   1       5.616  -0.276  -9.373  0.00  0.00     0.062 H 
ATOM     28  H   LIG d   1       7.286  -0.981  -7.644  0.00  0.00     0.041 H 
ATOM     29  H   LIG d   1       5.138   0.500  -2.741  0.00  0.00     0.062 H 
ATOM     30  H   LIG d   1       7.086   1.983  -2.431  0.00  0.00     0.062 H 
ATOM     31  H   LIG d   1       8.782   2.200  -4.194  0.00  0.00     0.062 H 
ATOM     32  H   LIG d   1       8.599   0.805  -6.310  0.00  0.00     0.062 H 
ENDROOT
BRANCH  21  33
ATOM     33  C   LIG d   1       5.696  -5.838  -5.980  0.00  0.00     0.044 A 
ATOM     34  C   LIG d   1       6.759  -6.565  -5.458  0.00  0.00    -0.040 A 
ATOM     35  C   LIG d   1       6.750  -7.944  -5.529  0.00  0.00    -0.057 A 
ATOM     36  H   LIG d   1       7.589  -6.052  -4.995  0.00  0.00     0.064 H 
ATOM     37  C   LIG d   1       5.690  -8.601  -6.127  0.00  0.00    -0.050 A 
ATOM     38  H   LIG d   1       7.574  -8.511  -5.120  0.00  0.00     0.062 H 
ATOM     39  C   LIG d   1       4.634  -7.880  -6.651  0.00  0.00    -0.057 A 
ATOM     40  C   LIG d   1       4.634  -6.501  -6.580  0.00  0.00    -0.040 A 
ATOM     41  H   LIG d   1       3.808  -8.396  -7.118  0.00  0.00     0.062 H 
ATOM     42  H   LIG d   1       3.807  -5.938  -6.989  0.00  0.00     0.064 H 
BRANCH  37  43
ATOM     43  C   LIG d   1       5.687 -10.106  -6.207  0.00  0.00    -0.040 C 
ATOM     44  H   LIG d   1       6.295 -10.514  -5.399  0.00  0.00     0.028 H 
ATOM     45  H   LIG d   1       4.664 -10.473  -6.112  0.00  0.00     0.028 H 
ATOM     46  H   LIG d   1       6.098 -10.420  -7.165  0.00  0.00     0.028 H 
ENDBRANCH  37  43
ENDBRANCH  21  33
BRANCH   1  47
ATOM     47  C   LIG d   1       3.489  -1.086  -3.868  0.00  0.00    -0.041 C 
ATOM     48  H   LIG d   1       2.765  -1.864  -4.104  0.00  0.00     0.027 H 
ATOM     49  H   LIG d   1       2.982  -0.123  -3.809  0.00  0.00     0.027 H 
BRANCH  47  50
ATOM     50  C   LIG d   1       4.151  -1.396  -2.524  0.00  0.00    -0.064 C 
ATOM     51  H   LIG d   1       4.574  -2.401  -2.551  0.00  0.00     0.023 H 
ATOM     52  H   LIG d   1       4.944  -0.673  -2.334  0.00  0.00     0.023 H 
ATOM     53  H   LIG d   1       3.407  -1.336  -1.730  0.00  0.00     0.023 H 
ENDBRANCH  47  50
ENDBRANCH   1  47
TORSDOF 4
ENDMDL
MODEL 4
REMARK VINA RESULT:      -6.5      4.141      7.691
REMARK  4 active torsions:
REMARK  status: ('A' for Active; 'I' for Inactive)
REMARK    1  A    between atoms: C_1  and  C_2 
REMARK    2  A    between atoms: C_2  and  C_3 
REMARK    3  A    between atoms: N_23  and  C_26 
REMARK    4  A    between atoms: C_29  and  C_32 
ROOT
ATOM      1  C   LIG d   1       9.709   3.031  -7.685  0.00  0.00     0.033 C 
ATOM      2  C   LIG d   1      11.185   2.729  -7.290  0.00  0.00    -0.032 A 
ATOM      3  C   LIG d   1      12.062   2.058  -8.079  0.00  0.00    -0.057 A 
ATOM      4  C   LIG d   1      13.335   1.801  -7.579  0.00  0.00    -0.061 A 
ATOM      5  C   LIG d   1      13.672   2.221  -6.305  0.00  0.00    -0.061 A 
ATOM      6  C   LIG d   1      12.770   2.923  -5.521  0.00  0.00    -0.058 A 
ATOM      7  C   LIG d   1      11.524   3.206  -6.026  0.00  0.00    -0.035 A 
ATOM      8  C   LIG d   1      10.537   4.116  -5.313  0.00  0.00     0.022 C 
ATOM      9  C   LIG d   1      10.219   5.142  -6.416  0.00  0.00    -0.035 A 
ATOM     10  C   LIG d   1       9.757   4.565  -7.615  0.00  0.00    -0.032 A 
ATOM     11  C   LIG d   1       9.363   5.355  -8.665  0.00  0.00    -0.057 A 
ATOM     12  C   LIG d   1       9.485   6.732  -8.553  0.00  0.00    -0.061 A 
ATOM     13  C   LIG d   1       9.997   7.308  -7.407  0.00  0.00    -0.061 A 
ATOM     14  C   LIG d   1      10.358   6.489  -6.280  0.00  0.00    -0.058 A 
ATOM     15  C   LIG d   1       9.150   3.475  -5.252  0.00  0.00     0.059 C 
ATOM     16  H   LIG d   1       8.375   4.231  -5.387  0.00  0.00     0.041 H 
ATOM     17  C   LIG d   1       9.111   2.481  -6.419  0.00  0.00     0.062 C 
ATOM     18  H   LIG d   1       9.883   1.800  -6.060  0.00  0.00     0.041 H 
ATOM     19  C   LIG d   1       7.892   1.729  -6.135  0.00  0.00     0.231 C 
ATOM     20  O   LIG d   1       7.102   1.253  -6.922  0.00  0.00    -0.275 OA
ATOM     21  N   LIG d   1       7.858   1.689  -4.760  0.00  0.00    -0.210 N 
ATOM     22  C   LIG d   1       8.775   2.529  -4.150  0.00  0.00     0.231 C 
ATOM     23  O   LIG d   1       9.154   2.549  -3.000  0.00  0.00    -0.275 OA
ATOM     24  H   LIG d   1      11.780   1.733  -9.069  0.00  0.00     0.062 H 
ATOM     25  H   LIG d   1      14.059   1.275  -8.185  0.00  0.00     0.062 H 
ATOM     26  H   LIG d   1      14.654   1.998  -5.915  0.00  0.00     0.062 H 
ATOM     27  H   LIG d   1      13.043   3.243  -4.525  0.00  0.00     0.062 H 
ATOM     28  H   LIG d   1      10.901   4.532  -4.373  0.00  0.00     0.041 H 
ATOM     29  H   LIG d   1       8.966   4.911  -9.566  0.00  0.00     0.062 H 
ATOM     30  H   LIG d   1       9.175   7.363  -9.374  0.00  0.00     0.062 H 
ATOM     31  H   LIG d   1      10.103   8.381  -7.342  0.00  0.00     0.062 H 
ATOM     32  H   LIG d   1      10.752   6.915  -5.370  0.00  0.00     0.062 H 
ENDROOT
BRANCH  21  33
ATOM     33  C   LIG d   1       7.004   0.846  -4.034  0.00  0.00     0.044 A 
ATOM     34  C   LIG d   1       5.954   1.384  -3.301  0.00  0.00    -0.040 A 
ATOM     35  C   LIG d   1       5.111   0.550  -2.592  0.00  0.00    -0.057 A 
ATOM     36  H   LIG d   1       5.794   2.452  -3.289  0.00  0.00     0.064 H 
ATOM     37  C   LIG d   1       5.318  -0.817  -2.603  0.00  0.00    -0.050 A 
ATOM     38  H   LIG d   1       4.291   0.967  -2.025  0.00  0.00     0.062 H 
ATOM     39  C   LIG d   1       6.366  -1.354  -3.327  0.00  0.00    -0.057 A 
ATOM     40  C   LIG d   1       7.209  -0.527  -4.042  0.00  0.00    -0.040 A 
ATOM     41  H   LIG d   1       6.525  -2.422  -3.333  0.00  0.00     0.062 H 
ATOM     42  H   LIG d   1       8.027  -0.948  -4.609  0.00  0.00     0.064 H 
BRANCH  37  43
ATOM     43  C   LIG d   1       4.400  -1.723  -1.823  0.00  0.00    -0.040 C 
ATOM     44  H   LIG d   1       3.728  -1.120  -1.212  0.00  0.00     0.028 H 
ATOM     45  H   LIG d   1       3.815  -2.330  -2.515  0.00  0.00     0.028 H 
ATOM     46  H   LIG d   1       4.991  -2.373  -1.180  0.00  0.00     0.028 H 
ENDBRANCH  37  43
ENDBRANCH  21  33
BRANCH   1  47
ATOM     47  C   LIG d   1       9.190   2.436  -8.995  0.00  0.00    -0.041 C 
ATOM     48  H   LIG d   1       9.624   2.975  -9.836  0.00  0.00     0.027 H 
ATOM     49  H   LIG d   1       8.104   2.522  -9.029  0.00  0.00     0.027 H 
BRANCH  47  50
ATOM     50  C   LIG d   1       9.586   0.960  -9.076  0.00  0.00    -0.064 C 
ATOM     51  H   LIG d   1       9.988   0.745 -10.067  0.00  0.00     0.023 H 
ATOM     52  H   LIG d   1      10.344   0.746  -8.323  0.00  0.00     0.023 H 
ATOM     53  H   LIG d   1       8.709   0.338  -8.897  0.00  0.00     0.023 H 
ENDBRANCH  47  50
ENDBRANCH   1  47
TORSDOF 4
ENDMDL
MODEL 5
REMARK VINA RESULT:      -6.5      2.067      7.348
REMARK  4 active torsions:
REMARK  status: ('A' for Active; 'I' for Inactive)
REMARK    1  A    between atoms: C_1  and  C_2 
REMARK    2  A    between atoms: C_2  and  C_3 
REMARK    3  A    between atoms: N_23  and  C_26 
REMARK    4  A    between atoms: C_29  and  C_32 
ROOT
ATOM      1  C   LIG d   1       4.580  -0.715 -10.536  0.00  0.00     0.033 C 
ATOM      2  C   LIG d   1       3.259  -1.480 -10.847  0.00  0.00    -0.032 A 
ATOM      3  C   LIG d   1       2.248  -0.978 -11.602  0.00  0.00    -0.057 A 
ATOM      4  C   LIG d   1       1.095  -1.742 -11.751  0.00  0.00    -0.061 A 
ATOM      5  C   LIG d   1       1.001  -2.974 -11.130  0.00  0.00    -0.061 A 
ATOM      6  C   LIG d   1       2.051  -3.480 -10.380  0.00  0.00    -0.058 A 
ATOM      7  C   LIG d   1       3.203  -2.741 -10.259  0.00  0.00    -0.035 A 
ATOM      8  C   LIG d   1       4.464  -3.286  -9.607  0.00  0.00     0.022 C 
ATOM      9  C   LIG d   1       5.506  -3.047 -10.716  0.00  0.00    -0.035 A 
ATOM     10  C   LIG d   1       5.576  -1.709 -11.151  0.00  0.00    -0.032 A 
ATOM     11  C   LIG d   1       6.508  -1.325 -12.082  0.00  0.00    -0.057 A 
ATOM     12  C   LIG d   1       7.341  -2.286 -12.637  0.00  0.00    -0.061 A 
ATOM     13  C   LIG d   1       7.238  -3.613 -12.265  0.00  0.00    -0.061 A 
ATOM     14  C   LIG d   1       6.303  -4.013 -11.248  0.00  0.00    -0.058 A 
ATOM     15  C   LIG d   1       5.034  -2.288  -8.600  0.00  0.00     0.059 C 
ATOM     16  H   LIG d   1       6.124  -2.294  -8.632  0.00  0.00     0.041 H 
ATOM     17  C   LIG d   1       4.510  -0.917  -9.047  0.00  0.00     0.062 C 
ATOM     18  H   LIG d   1       3.449  -1.100  -8.874  0.00  0.00     0.041 H 
ATOM     19  C   LIG d   1       4.859  -0.074  -7.907  0.00  0.00     0.231 C 
ATOM     20  O   LIG d   1       5.194   1.091  -7.909  0.00  0.00    -0.275 OA
ATOM     21  N   LIG d   1       4.713  -0.920  -6.831  0.00  0.00    -0.210 N 
ATOM     22  C   LIG d   1       4.550  -2.250  -7.180  0.00  0.00     0.231 C 
ATOM     23  O   LIG d   1       4.168  -3.181  -6.506  0.00  0.00    -0.275 OA
ATOM     24  H   LIG d   1       2.337  -0.011 -12.074  0.00  0.00     0.062 H 
ATOM     25  H   LIG d   1       0.275  -1.374 -12.350  0.00  0.00     0.062 H 
ATOM     26  H   LIG d   1       0.093  -3.552 -11.231  0.00  0.00     0.062 H 
ATOM     27  H   LIG d   1       1.965  -4.443  -9.896  0.00  0.00     0.062 H 
ATOM     28  H   LIG d   1       4.382  -4.314  -9.252  0.00  0.00     0.041 H 
ATOM     29  H   LIG d   1       6.591  -0.290 -12.380  0.00  0.00     0.062 H 
ATOM     30  H   LIG d   1       8.079  -1.993 -13.369  0.00  0.00     0.062 H 
ATOM     31  H   LIG d   1       7.880  -4.353 -12.720  0.00  0.00     0.062 H 
ATOM     32  H   LIG d   1       6.209  -5.041 -10.934  0.00  0.00     0.062 H 
ENDROOT
BRANCH  21  33
ATOM     33  C   LIG d   1       4.687  -0.477  -5.501  0.00  0.00     0.044 A 
ATOM     34  C   LIG d   1       3.485  -0.098  -4.917  0.00  0.00    -0.040 A 
ATOM     35  C   LIG d   1       3.463   0.332  -3.605  0.00  0.00    -0.057 A 
ATOM     36  H   LIG d   1       2.569  -0.145  -5.487  0.00  0.00     0.064 H 
ATOM     37  C   LIG d   1       4.637   0.397  -2.876  0.00  0.00    -0.050 A 
ATOM     38  H   LIG d   1       2.528   0.623  -3.148  0.00  0.00     0.062 H 
ATOM     39  C   LIG d   1       5.835   0.026  -3.457  0.00  0.00    -0.057 A 
ATOM     40  C   LIG d   1       5.864  -0.410  -4.767  0.00  0.00    -0.040 A 
ATOM     41  H   LIG d   1       6.750   0.078  -2.886  0.00  0.00     0.062 H 
ATOM     42  H   LIG d   1       6.801  -0.701  -5.219  0.00  0.00     0.064 H 
BRANCH  37  43
ATOM     43  C   LIG d   1       4.609   0.872  -1.446  0.00  0.00    -0.040 C 
ATOM     44  H   LIG d   1       4.631   0.012  -0.777  0.00  0.00     0.028 H 
ATOM     45  H   LIG d   1       5.479   1.502  -1.256  0.00  0.00     0.028 H 
ATOM     46  H   LIG d   1       3.700   1.447  -1.272  0.00  0.00     0.028 H 
ENDBRANCH  37  43
ENDBRANCH  21  33
BRANCH   1  47
ATOM     47  C   LIG d   1       4.691   0.732 -11.019  0.00  0.00    -0.041 C 
ATOM     48  H   LIG d   1       4.691   0.753 -12.109  0.00  0.00     0.027 H 
ATOM     49  H   LIG d   1       5.618   1.169 -10.648  0.00  0.00     0.027 H 
BRANCH  47  50
ATOM     50  C   LIG d   1       3.502   1.538 -10.494  0.00  0.00    -0.064 C 
ATOM     51  H   LIG d   1       3.690   1.833  -9.462  0.00  0.00     0.023 H 
ATOM     52  H   LIG d   1       3.368   2.429 -11.108  0.00  0.00     0.023 H 
ATOM     53  H   LIG d   1       2.601   0.927 -10.539  0.00  0.00     0.023 H 
ENDBRANCH  47  50
ENDBRANCH   1  47
TORSDOF 4
ENDMDL
MODEL 6
REMARK VINA RESULT:      -6.5      3.877      7.379
REMARK  4 active torsions:
REMARK  status: ('A' for Active; 'I' for Inactive)
REMARK    1  A    between atoms: C_1  and  C_2 
REMARK    2  A    between atoms: C_2  and  C_3 
REMARK    3  A    between atoms: N_23  and  C_26 
REMARK    4  A    between atoms: C_29  and  C_32 
ROOT
ATOM      1  C   LIG d   1       6.021  -6.707  -6.286  0.00  0.00     0.033 C 
ATOM      2  C   LIG d   1       6.733  -7.587  -5.215  0.00  0.00    -0.032 A 
ATOM      3  C   LIG d   1       6.232  -8.752  -4.733  0.00  0.00    -0.057 A 
ATOM      4  C   LIG d   1       6.941  -9.409  -3.731  0.00  0.00    -0.061 A 
ATOM      5  C   LIG d   1       8.118  -8.865  -3.251  0.00  0.00    -0.061 A 
ATOM      6  C   LIG d   1       8.625  -7.684  -3.770  0.00  0.00    -0.058 A 
ATOM      7  C   LIG d   1       7.943  -7.051  -4.782  0.00  0.00    -0.035 A 
ATOM      8  C   LIG d   1       8.508  -5.854  -5.529  0.00  0.00     0.022 C 
ATOM      9  C   LIG d   1       8.407  -6.333  -6.990  0.00  0.00    -0.035 A 
ATOM     10  C   LIG d   1       7.110  -6.730  -7.369  0.00  0.00    -0.032 A 
ATOM     11  C   LIG d   1       6.845  -7.111  -8.661  0.00  0.00    -0.057 A 
ATOM     12  C   LIG d   1       7.889  -7.161  -9.574  0.00  0.00    -0.061 A 
ATOM     13  C   LIG d   1       9.177  -6.836  -9.197  0.00  0.00    -0.061 A 
ATOM     14  C   LIG d   1       9.451  -6.379  -7.861  0.00  0.00    -0.058 A 
ATOM     15  C   LIG d   1       7.472  -4.735  -5.630  0.00  0.00     0.059 C 
ATOM     16  H   LIG d   1       7.540  -4.238  -6.599  0.00  0.00     0.041 H 
ATOM     17  C   LIG d   1       6.111  -5.429  -5.499  0.00  0.00     0.062 C 
ATOM     18  H   LIG d   1       6.222  -5.781  -4.473  0.00  0.00     0.041 H 
ATOM     19  C   LIG d   1       5.207  -4.294  -5.330  0.00  0.00     0.231 C 
ATOM     20  O   LIG d   1       4.066  -4.178  -5.721  0.00  0.00    -0.275 OA
ATOM     21  N   LIG d   1       5.964  -3.391  -4.619  0.00  0.00    -0.210 N 
ATOM     22  C   LIG d   1       7.305  -3.725  -4.533  0.00  0.00     0.231 C 
ATOM     23  O   LIG d   1       8.162  -3.284  -3.800  0.00  0.00    -0.275 OA
ATOM     24  H   LIG d   1       5.308  -9.159  -5.116  0.00  0.00     0.062 H 
ATOM     25  H   LIG d   1       6.573 -10.342  -3.330  0.00  0.00     0.062 H 
ATOM     26  H   LIG d   1       8.651  -9.368  -2.457  0.00  0.00     0.062 H 
ATOM     27  H   LIG d   1       9.544  -7.265  -3.384  0.00  0.00     0.062 H 
ATOM     28  H   LIG d   1       9.501  -5.543  -5.203  0.00  0.00     0.041 H 
ATOM     29  H   LIG d   1       5.841  -7.371  -8.960  0.00  0.00     0.062 H 
ATOM     30  H   LIG d   1       7.690  -7.458 -10.594  0.00  0.00     0.062 H 
ATOM     31  H   LIG d   1       9.982  -6.897  -9.915  0.00  0.00     0.062 H 
ATOM     32  H   LIG d   1      10.447  -6.112  -7.544  0.00  0.00     0.062 H 
ENDROOT
BRANCH  21  33
ATOM     33  C   LIG d   1       5.425  -2.254  -3.999  0.00  0.00     0.044 A 
ATOM     34  C   LIG d   1       5.766  -0.986  -4.454  0.00  0.00    -0.040 A 
ATOM     35  C   LIG d   1       5.229   0.131  -3.846  0.00  0.00    -0.057 A 
ATOM     36  H   LIG d   1       6.446  -0.875  -5.286  0.00  0.00     0.064 H 
ATOM     37  C   LIG d   1       4.363  -0.011  -2.777  0.00  0.00    -0.050 A 
ATOM     38  H   LIG d   1       5.490   1.117  -4.202  0.00  0.00     0.062 H 
ATOM     39  C   LIG d   1       4.027  -1.270  -2.319  0.00  0.00    -0.057 A 
ATOM     40  C   LIG d   1       4.556  -2.392  -2.926  0.00  0.00    -0.040 A 
ATOM     41  H   LIG d   1       3.350  -1.378  -1.484  0.00  0.00     0.062 H 
ATOM     42  H   LIG d   1       4.291  -3.376  -2.567  0.00  0.00     0.064 H 
BRANCH  37  43
ATOM     43  C   LIG d   1       3.784   1.212  -2.111  0.00  0.00    -0.040 C 
ATOM     44  H   LIG d   1       3.949   1.152  -1.036  0.00  0.00     0.028 H 
ATOM     45  H   LIG d   1       4.271   2.105  -2.504  0.00  0.00     0.028 H 
ATOM     46  H   LIG d   1       2.715   1.263  -2.312  0.00  0.00     0.028 H 
ENDBRANCH  37  43
ENDBRANCH  21  33
BRANCH   1  47
ATOM     47  C   LIG d   1       4.621  -7.131  -6.734  0.00  0.00    -0.041 C 
ATOM     48  H   LIG d   1       4.311  -6.522  -7.583  0.00  0.00     0.027 H 
ATOM     49  H   LIG d   1       3.918  -6.993  -5.913  0.00  0.00     0.027 H 
BRANCH  47  50
ATOM     50  C   LIG d   1       4.641  -8.604  -7.145  0.00  0.00    -0.064 C 
ATOM     51  H   LIG d   1       3.689  -8.867  -7.607  0.00  0.00     0.023 H 
ATOM     52  H   LIG d   1       5.449  -8.772  -7.858  0.00  0.00     0.023 H 
ATOM     53  H   LIG d   1       4.801  -9.225  -6.263  0.00  0.00     0.023 H 
ENDBRANCH  47  50
ENDBRANCH   1  47
TORSDOF 4
ENDMDL
MODEL 7
REMARK VINA RESULT:      -6.5      2.733      5.898
REMARK  4 active torsions:
REMARK  status: ('A' for Active; 'I' for Inactive)
REMARK    1  A    between atoms: C_1  and  C_2 
REMARK    2  A    between atoms: C_2  and  C_3 
REMARK    3  A    between atoms: N_23  and  C_26 
REMARK    4  A    between atoms: C_29  and  C_32 
ROOT
ATOM      1  C   LIG d   1       4.645  -1.243  -6.189  0.00  0.00     0.033 C 
ATOM      2  C   LIG d   1       4.381  -1.226  -4.654  0.00  0.00    -0.032 A 
ATOM      3  C   LIG d   1       3.212  -0.836  -4.087  0.00  0.00    -0.057 A 
ATOM      4  C   LIG d   1       3.129  -0.810  -2.698  0.00  0.00    -0.061 A 
ATOM      5  C   LIG d   1       4.226  -1.168  -1.937  0.00  0.00    -0.061 A 
ATOM      6  C   LIG d   1       5.406  -1.585  -2.533  0.00  0.00    -0.058 A 
ATOM      7  C   LIG d   1       5.478  -1.643  -3.904  0.00  0.00    -0.035 A 
ATOM      8  C   LIG d   1       6.663  -2.249  -4.639  0.00  0.00     0.022 C 
ATOM      9  C   LIG d   1       5.962  -3.285  -5.539  0.00  0.00    -0.035 A 
ATOM     10  C   LIG d   1       4.954  -2.738  -6.357  0.00  0.00    -0.032 A 
ATOM     11  C   LIG d   1       4.291  -3.522  -7.268  0.00  0.00    -0.057 A 
ATOM     12  C   LIG d   1       4.583  -4.877  -7.327  0.00  0.00    -0.061 A 
ATOM     13  C   LIG d   1       5.524  -5.437  -6.485  0.00  0.00    -0.061 A 
ATOM     14  C   LIG d   1       6.265  -4.611  -5.570  0.00  0.00    -0.058 A 
ATOM     15  C   LIG d   1       7.142  -1.326  -5.759  0.00  0.00     0.059 C 
ATOM     16  H   LIG d   1       7.449  -1.909  -6.628  0.00  0.00     0.041 H 
ATOM     17  C   LIG d   1       5.927  -0.461  -6.119  0.00  0.00     0.062 C 
ATOM     18  H   LIG d   1       5.838   0.071  -5.171  0.00  0.00     0.041 H 
ATOM     19  C   LIG d   1       6.525   0.557  -6.979  0.00  0.00     0.231 C 
ATOM     20  O   LIG d   1       6.034   1.113  -7.937  0.00  0.00    -0.275 OA
ATOM     21  N   LIG d   1       7.778   0.733  -6.436  0.00  0.00    -0.210 N 
ATOM     22  C   LIG d   1       8.122  -0.221  -5.493  0.00  0.00     0.231 C 
ATOM     23  O   LIG d   1       9.021  -0.212  -4.683  0.00  0.00    -0.275 OA
ATOM     24  H   LIG d   1       2.367  -0.553  -4.698  0.00  0.00     0.062 H 
ATOM     25  H   LIG d   1       2.210  -0.509  -2.216  0.00  0.00     0.062 H 
ATOM     26  H   LIG d   1       4.163  -1.124  -0.859  0.00  0.00     0.062 H 
ATOM     27  H   LIG d   1       6.259  -1.860  -1.928  0.00  0.00     0.062 H 
ATOM     28  H   LIG d   1       7.446  -2.643  -3.991  0.00  0.00     0.041 H 
ATOM     29  H   LIG d   1       3.551  -3.091  -7.925  0.00  0.00     0.062 H 
ATOM     30  H   LIG d   1       4.068  -5.502  -8.042  0.00  0.00     0.062 H 
ATOM     31  H   LIG d   1       5.728  -6.497  -6.531  0.00  0.00     0.062 H 
ATOM     32  H   LIG d   1       7.011  -5.023  -4.907  0.00  0.00     0.062 H 
ENDROOT
BRANCH  21  33
ATOM     33  C   LIG d   1       8.619   1.804  -6.772  0.00  0.00     0.044 A 
ATOM     34  C   LIG d   1       9.287   1.808  -7.991  0.00  0.00    -0.040 A 
ATOM     35  C   LIG d   1      10.110   2.866  -8.321  0.00  0.00    -0.057 A 
ATOM     36  H   LIG d   1       9.158   0.987  -8.680  0.00  0.00     0.064 H 
ATOM     37  C   LIG d   1      10.279   3.916  -7.436  0.00  0.00    -0.050 A 
ATOM     38  H   LIG d   1      10.626   2.873  -9.270  0.00  0.00     0.062 H 
ATOM     39  C   LIG d   1       9.620   3.912  -6.221  0.00  0.00    -0.057 A 
ATOM     40  C   LIG d   1       8.791   2.858  -5.886  0.00  0.00    -0.040 A 
ATOM     41  H   LIG d   1       9.754   4.732  -5.532  0.00  0.00     0.062 H 
ATOM     42  H   LIG d   1       8.276   2.857  -4.937  0.00  0.00     0.064 H 
BRANCH  37  43
ATOM     43  C   LIG d   1      11.183   5.066  -7.797  0.00  0.00    -0.040 C 
ATOM     44  H   LIG d   1      11.313   5.712  -6.929  0.00  0.00     0.028 H 
ATOM     45  H   LIG d   1      12.153   4.681  -8.112  0.00  0.00     0.028 H 
ATOM     46  H   LIG d   1      10.738   5.637  -8.612  0.00  0.00     0.028 H 
ENDBRANCH  37  43
ENDBRANCH  21  33
BRANCH   1  47
ATOM     47  C   LIG d   1       3.555  -0.678  -7.102  0.00  0.00    -0.041 C 
ATOM     48  H   LIG d   1       2.767  -1.419  -7.230  0.00  0.00     0.027 H 
ATOM     49  H   LIG d   1       3.984  -0.432  -8.073  0.00  0.00     0.027 H 
BRANCH  47  50
ATOM     50  C   LIG d   1       2.967   0.586  -6.471  0.00  0.00    -0.064 C 
ATOM     51  H   LIG d   1       3.684   1.009  -5.767  0.00  0.00     0.023 H 
ATOM     52  H   LIG d   1       2.751   1.315  -7.252  0.00  0.00     0.023 H 
ATOM     53  H   LIG d   1       2.046   0.334  -5.944  0.00  0.00     0.023 H 
ENDBRANCH  47  50
ENDBRANCH   1  47
TORSDOF 4
ENDMDL
MODEL 8
REMARK VINA RESULT:      -6.5      2.724      5.018
REMARK  4 active torsions:
REMARK  status: ('A' for Active; 'I' for Inactive)
REMARK    1  A    between atoms: C_1  and  C_2 
REMARK    2  A    between atoms: C_2  and  C_3 
REMARK    3  A    between atoms: N_23  and  C_26 
REMARK    4  A    between atoms: C_29  and  C_32 
ROOT
ATOM      1  C   LIG d   1       4.822  -0.900  -6.009  0.00  0.00     0.033 C 
ATOM      2  C   LIG d   1       6.192  -0.208  -6.275  0.00  0.00    -0.032 A 
ATOM      3  C   LIG d   1       6.427   0.645  -7.304  0.00  0.00    -0.057 A 
ATOM      4  C   LIG d   1       7.716   1.145  -7.464  0.00  0.00    -0.061 A 
ATOM      5  C   LIG d   1       8.716   0.762  -6.589  0.00  0.00    -0.061 A 
ATOM      6  C   LIG d   1       8.454  -0.094  -5.532  0.00  0.00    -0.058 A 
ATOM      7  C   LIG d   1       7.174  -0.563  -5.353  0.00  0.00    -0.035 A 
ATOM      8  C   LIG d   1       6.755  -1.361  -4.129  0.00  0.00     0.022 C 
ATOM      9  C   LIG d   1       5.552  -0.540  -3.629  0.00  0.00    -0.035 A 
ATOM     10  C   LIG d   1       4.551  -0.348  -4.602  0.00  0.00    -0.032 A 
ATOM     11  C   LIG d   1       3.384   0.301  -4.285  0.00  0.00    -0.057 A 
ATOM     12  C   LIG d   1       3.229   0.821  -3.008  0.00  0.00    -0.061 A 
ATOM     13  C   LIG d   1       4.231   0.696  -2.065  0.00  0.00    -0.061 A 
ATOM     14  C   LIG d   1       5.432  -0.033  -2.372  0.00  0.00    -0.058 A 
ATOM     15  C   LIG d   1       5.971  -2.610  -4.533  0.00  0.00     0.059 C 
ATOM     16  H   LIG d   1       5.164  -2.799  -3.824  0.00  0.00     0.041 H 
ATOM     17  C   LIG d   1       5.384  -2.291  -5.913  0.00  0.00     0.062 C 
ATOM     18  H   LIG d   1       6.324  -2.213  -6.460  0.00  0.00     0.041 H 
ATOM     19  C   LIG d   1       4.894  -3.598  -6.342  0.00  0.00     0.231 C 
ATOM     20  O   LIG d   1       3.918  -3.851  -7.015  0.00  0.00    -0.275 OA
ATOM     21  N   LIG d   1       5.809  -4.472  -5.801  0.00  0.00    -0.210 N 
ATOM     22  C   LIG d   1       6.670  -3.889  -4.886  0.00  0.00     0.231 C 
ATOM     23  O   LIG d   1       7.708  -4.314  -4.429  0.00  0.00    -0.275 OA
ATOM     24  H   LIG d   1       5.635   0.929  -7.981  0.00  0.00     0.062 H 
ATOM     25  H   LIG d   1       7.934   1.832  -8.269  0.00  0.00     0.062 H 
ATOM     26  H   LIG d   1       9.720   1.136  -6.733  0.00  0.00     0.062 H 
ATOM     27  H   LIG d   1       9.244  -0.390  -4.857  0.00  0.00     0.062 H 
ATOM     28  H   LIG d   1       7.550  -1.523  -3.400  0.00  0.00     0.041 H 
ATOM     29  H   LIG d   1       2.599   0.406  -5.019  0.00  0.00     0.062 H 
ATOM     30  H   LIG d   1       2.313   1.332  -2.749  0.00  0.00     0.062 H 
ATOM     31  H   LIG d   1       4.103   1.123  -1.081  0.00  0.00     0.062 H 
ATOM     32  H   LIG d   1       6.225  -0.152  -1.650  0.00  0.00     0.062 H 
ENDROOT
BRANCH  21  33
ATOM     33  C   LIG d   1       5.894  -5.824  -6.167  0.00  0.00     0.044 A 
ATOM     34  C   LIG d   1       6.792  -6.222  -7.149  0.00  0.00    -0.040 A 
ATOM     35  C   LIG d   1       6.878  -7.554  -7.503  0.00  0.00    -0.057 A 
ATOM     36  H   LIG d   1       7.426  -5.492  -7.630  0.00  0.00     0.064 H 
ATOM     37  C   LIG d   1       6.063  -8.488  -6.890  0.00  0.00    -0.050 A 
ATOM     38  H   LIG d   1       7.579  -7.866  -8.264  0.00  0.00     0.062 H 
ATOM     39  C   LIG d   1       5.164  -8.093  -5.918  0.00  0.00    -0.057 A 
ATOM     40  C   LIG d   1       5.077  -6.764  -5.554  0.00  0.00    -0.040 A 
ATOM     41  H   LIG d   1       4.529  -8.825  -5.441  0.00  0.00     0.062 H 
ATOM     42  H   LIG d   1       4.375  -6.456  -4.793  0.00  0.00     0.064 H 
BRANCH  37  43
ATOM     43  C   LIG d   1       6.155  -9.940  -7.284  0.00  0.00    -0.040 C 
ATOM     44  H   LIG d   1       7.145 -10.321  -7.036  0.00  0.00     0.028 H 
ATOM     45  H   LIG d   1       5.400 -10.512  -6.743  0.00  0.00     0.028 H 
ATOM     46  H   LIG d   1       5.985 -10.038  -8.356  0.00  0.00     0.028 H 
ENDBRANCH  37  43
ENDBRANCH  21  33
BRANCH   1  47
ATOM     47  C   LIG d   1       3.709  -0.687  -7.038  0.00  0.00    -0.041 C 
ATOM     48  H   LIG d   1       3.329   0.331  -6.957  0.00  0.00     0.027 H 
ATOM     49  H   LIG d   1       2.900  -1.393  -6.850  0.00  0.00     0.027 H 
BRANCH  47  50
ATOM     50  C   LIG d   1       4.266  -0.912  -8.445  0.00  0.00    -0.064 C 
ATOM     51  H   LIG d   1       4.217   0.019  -9.010  0.00  0.00     0.023 H 
ATOM     52  H   LIG d   1       5.304  -1.240  -8.376  0.00  0.00     0.023 H 
ATOM     53  H   LIG d   1       3.676  -1.676  -8.951  0.00  0.00     0.023 H 
ENDBRANCH  47  50
ENDBRANCH   1  47
TORSDOF 4
ENDMDL
MODEL 9
REMARK VINA RESULT:      -6.4      2.446      6.664
REMARK  4 active torsions:
REMARK  status: ('A' for Active; 'I' for Inactive)
REMARK    1  A    between atoms: C_1  and  C_2 
REMARK    2  A    between atoms: C_2  and  C_3 
REMARK    3  A    between atoms: N_23  and  C_26 
REMARK    4  A    between atoms: C_29  and  C_32 
ROOT
ATOM      1  C   LIG d   1       6.750  -0.258  -5.189  0.00  0.00     0.033 C 
ATOM      2  C   LIG d   1       5.794  -0.541  -3.992  0.00  0.00    -0.032 A 
ATOM      3  C   LIG d   1       5.489   0.367  -3.030  0.00  0.00    -0.057 A 
ATOM      4  C   LIG d   1       4.668  -0.036  -1.981  0.00  0.00    -0.061 A 
ATOM      5  C   LIG d   1       4.194  -1.334  -1.937  0.00  0.00    -0.061 A 
ATOM      6  C   LIG d   1       4.499  -2.242  -2.939  0.00  0.00    -0.058 A 
ATOM      7  C   LIG d   1       5.282  -1.836  -3.993  0.00  0.00    -0.035 A 
ATOM      8  C   LIG d   1       5.523  -2.703  -5.218  0.00  0.00     0.022 C 
ATOM      9  C   LIG d   1       5.094  -1.752  -6.351  0.00  0.00    -0.035 A 
ATOM     10  C   LIG d   1       5.767  -0.515  -6.340  0.00  0.00    -0.032 A 
ATOM     11  C   LIG d   1       5.547   0.409  -7.331  0.00  0.00    -0.057 A 
ATOM     12  C   LIG d   1       4.604   0.133  -8.310  0.00  0.00    -0.061 A 
ATOM     13  C   LIG d   1       3.891  -1.050  -8.295  0.00  0.00    -0.061 A 
ATOM     14  C   LIG d   1       4.159  -2.047  -7.294  0.00  0.00    -0.058 A 
ATOM     15  C   LIG d   1       7.010  -2.751  -5.570  0.00  0.00     0.059 C 
ATOM     16  H   LIG d   1       7.146  -2.748  -6.652  0.00  0.00     0.041 H 
ATOM     17  C   LIG d   1       7.610  -1.473  -4.970  0.00  0.00     0.062 C 
ATOM     18  H   LIG d   1       7.438  -1.708  -3.919  0.00  0.00     0.041 H 
ATOM     19  C   LIG d   1       9.043  -1.720  -5.103  0.00  0.00     0.231 C 
ATOM     20  O   LIG d   1       9.926  -0.919  -5.322  0.00  0.00    -0.275 OA
ATOM     21  N   LIG d   1       9.148  -3.079  -4.918  0.00  0.00    -0.210 N 
ATOM     22  C   LIG d   1       7.933  -3.744  -4.927  0.00  0.00     0.231 C 
ATOM     23  O   LIG d   1       7.668  -4.868  -4.562  0.00  0.00    -0.275 OA
ATOM     24  H   LIG d   1       5.873   1.375  -3.078  0.00  0.00     0.062 H 
ATOM     25  H   LIG d   1       4.402   0.665  -1.203  0.00  0.00     0.062 H 
ATOM     26  H   LIG d   1       3.576  -1.646  -1.108  0.00  0.00     0.062 H 
ATOM     27  H   LIG d   1       4.126  -3.255  -2.892  0.00  0.00     0.062 H 
ATOM     28  H   LIG d   1       5.017  -3.669  -5.197  0.00  0.00     0.041 H 
ATOM     29  H   LIG d   1       6.098   1.338  -7.346  0.00  0.00     0.062 H 
ATOM     30  H   LIG d   1       4.426   0.854  -9.095  0.00  0.00     0.062 H 
ATOM     31  H   LIG d   1       3.147  -1.242  -9.054  0.00  0.00     0.062 H 
ATOM     32  H   LIG d   1       3.621  -2.983  -7.265  0.00  0.00     0.062 H 
ENDROOT
BRANCH  21  33
ATOM     33  C   LIG d   1      10.368  -3.735  -4.699  0.00  0.00     0.044 A 
ATOM     34  C   LIG d   1      11.061  -4.291  -5.767  0.00  0.00    -0.040 A 
ATOM     35  C   LIG d   1      12.265  -4.931  -5.549  0.00  0.00    -0.057 A 
ATOM     36  H   LIG d   1      10.660  -4.219  -6.768  0.00  0.00     0.064 H 
ATOM     37  C   LIG d   1      12.776  -5.028  -4.267  0.00  0.00    -0.050 A 
ATOM     38  H   LIG d   1      12.807  -5.360  -6.379  0.00  0.00     0.062 H 
ATOM     39  C   LIG d   1      12.086  -4.481  -3.202  0.00  0.00    -0.057 A 
ATOM     40  C   LIG d   1      10.884  -3.835  -3.414  0.00  0.00    -0.040 A 
ATOM     41  H   LIG d   1      12.487  -4.559  -2.203  0.00  0.00     0.062 H 
ATOM     42  H   LIG d   1      10.346  -3.407  -2.581  0.00  0.00     0.064 H 
BRANCH  37  43
ATOM     43  C   LIG d   1      14.087  -5.733  -4.032  0.00  0.00    -0.040 C 
ATOM     44  H   LIG d   1      14.240  -6.484  -4.807  0.00  0.00     0.028 H 
ATOM     45  H   LIG d   1      14.900  -5.007  -4.065  0.00  0.00     0.028 H 
ATOM     46  H   LIG d   1      14.071  -6.216  -3.056  0.00  0.00     0.028 H 
ENDBRANCH  37  43
ENDBRANCH  21  33
BRANCH   1  47
ATOM     47  C   LIG d   1       7.475   1.090  -5.214  0.00  0.00    -0.041 C 
ATOM     48  H   LIG d   1       6.783   1.868  -5.534  0.00  0.00     0.027 H 
ATOM     49  H   LIG d   1       8.312   1.040  -5.909  0.00  0.00     0.027 H 
BRANCH  47  50
ATOM     50  C   LIG d   1       7.994   1.415  -3.812  0.00  0.00    -0.064 C 
ATOM     51  H   LIG d   1       7.214   1.921  -3.243  0.00  0.00     0.023 H 
ATOM     52  H   LIG d   1       8.273   0.491  -3.305  0.00  0.00     0.023 H 
ATOM     53  H   LIG d   1       8.867   2.064  -3.890  0.00  0.00     0.023 H 
ENDBRANCH  47  50
ENDBRANCH   1  47
TORSDOF 4
ENDMDL
MODEL 10
REMARK VINA RESULT:      -6.4      2.508      6.406
REMARK  4 active torsions:
REMARK  status: ('A' for Active; 'I' for Inactive)
REMARK    1  A    between atoms: C_1  and  C_2 
REMARK    2  A    between atoms: C_2  and  C_3 
REMARK    3  A    between atoms: N_23  and  C_26 
REMARK    4  A    between atoms: C_29  and  C_32 
ROOT
ATOM      1  C   LIG d   1       4.727  -0.881  -6.586  0.00  0.00     0.033 C 
ATOM      2  C   LIG d   1       4.068  -0.988  -5.179  0.00  0.00    -0.032 A 
ATOM      3  C   LIG d   1       3.081  -0.169  -4.736  0.00  0.00    -0.057 A 
ATOM      4  C   LIG d   1       2.622  -0.335  -3.433  0.00  0.00    -0.061 A 
ATOM      5  C   LIG d   1       3.179  -1.310  -2.626  0.00  0.00    -0.061 A 
ATOM      6  C   LIG d   1       4.172  -2.151  -3.101  0.00  0.00    -0.058 A 
ATOM      7  C   LIG d   1       4.602  -2.011  -4.399  0.00  0.00    -0.035 A 
ATOM      8  C   LIG d   1       5.556  -2.994  -5.059  0.00  0.00     0.022 C 
ATOM      9  C   LIG d   1       4.764  -3.382  -6.322  0.00  0.00    -0.035 A 
ATOM     10  C   LIG d   1       4.382  -2.281  -7.114  0.00  0.00    -0.032 A 
ATOM     11  C   LIG d   1       3.735  -2.471  -8.309  0.00  0.00    -0.057 A 
ATOM     12  C   LIG d   1       3.407  -3.762  -8.698  0.00  0.00    -0.061 A 
ATOM     13  C   LIG d   1       3.719  -4.845  -7.899  0.00  0.00    -0.061 A 
ATOM     14  C   LIG d   1       4.448  -4.658  -6.674  0.00  0.00    -0.058 A 
ATOM     15  C   LIG d   1       6.692  -2.260  -5.771  0.00  0.00     0.059 C 
ATOM     16  H   LIG d   1       6.948  -2.766  -6.703  0.00  0.00     0.041 H 
ATOM     17  C   LIG d   1       6.142  -0.861  -6.076  0.00  0.00     0.062 C 
ATOM     18  H   LIG d   1       6.026  -0.519  -5.047  0.00  0.00     0.041 H 
ATOM     19  C   LIG d   1       7.345  -0.148  -6.496  0.00  0.00     0.231 C 
ATOM     20  O   LIG d   1       7.447   0.728  -7.328  0.00  0.00    -0.275 OA
ATOM     21  N   LIG d   1       8.332  -0.707  -5.717  0.00  0.00    -0.210 N 
ATOM     22  C   LIG d   1       7.934  -1.847  -5.038  0.00  0.00     0.231 C 
ATOM     23  O   LIG d   1       8.470  -2.419  -4.115  0.00  0.00    -0.275 OA
ATOM     24  H   LIG d   1       2.662   0.591  -5.378  0.00  0.00     0.062 H 
ATOM     25  H   LIG d   1       1.833   0.297  -3.052  0.00  0.00     0.062 H 
ATOM     26  H   LIG d   1       2.834  -1.417  -1.608  0.00  0.00     0.062 H 
ATOM     27  H   LIG d   1       4.603  -2.908  -2.461  0.00  0.00     0.062 H 
ATOM     28  H   LIG d   1       5.863  -3.825  -4.422  0.00  0.00     0.041 H 
ATOM     29  H   LIG d   1       3.485  -1.628  -8.936  0.00  0.00     0.062 H 
ATOM     30  H   LIG d   1       2.899  -3.921  -9.639  0.00  0.00     0.062 H 
ATOM     31  H   LIG d   1       3.440  -5.842  -8.207  0.00  0.00     0.062 H 
ATOM     32  H   LIG d   1       4.712  -5.488  -6.036  0.00  0.00     0.062 H 
ENDROOT
BRANCH  21  33
ATOM     33  C   LIG d   1       9.615  -0.156  -5.586  0.00  0.00     0.044 A 
ATOM     34  C   LIG d   1       9.811   0.967  -4.792  0.00  0.00    -0.040 A 
ATOM     35  C   LIG d   1      11.076   1.505  -4.659  0.00  0.00    -0.057 A 
ATOM     36  H   LIG d   1       8.975   1.417  -4.275  0.00  0.00     0.064 H 
ATOM     37  C   LIG d   1      12.145   0.932  -5.325  0.00  0.00    -0.050 A 
ATOM     38  H   LIG d   1      11.231   2.375  -4.039  0.00  0.00     0.062 H 
ATOM     39  C   LIG d   1      11.952  -0.182  -6.119  0.00  0.00    -0.057 A 
ATOM     40  C   LIG d   1      10.690  -0.727  -6.252  0.00  0.00    -0.040 A 
ATOM     41  H   LIG d   1      12.788  -0.626  -6.638  0.00  0.00     0.062 H 
ATOM     42  H   LIG d   1      10.540  -1.599  -6.873  0.00  0.00     0.064 H 
BRANCH  37  43
ATOM     43  C   LIG d   1      13.523   1.525  -5.183  0.00  0.00    -0.040 C 
ATOM     44  H   LIG d   1      14.013   1.543  -6.157  0.00  0.00     0.028 H 
ATOM     45  H   LIG d   1      13.444   2.542  -4.798  0.00  0.00     0.028 H 
ATOM     46  H   LIG d   1      14.110   0.920  -4.492  0.00  0.00     0.028 H 
ENDBRANCH  37  43
ENDBRANCH  21  33
BRANCH   1  47
ATOM     47  C   LIG d   1       4.310   0.292  -7.476  0.00  0.00    -0.041 C 
ATOM     48  H   LIG d   1       4.776   0.189  -8.455  0.00  0.00     0.027 H 
ATOM     49  H   LIG d   1       4.630   1.228  -7.018  0.00  0.00     0.027 H 
BRANCH  47  50
ATOM     50  C   LIG d   1       2.788   0.297  -7.634  0.00  0.00    -0.064 C 
ATOM     51  H   LIG d   1       2.404   1.295  -7.425  0.00  0.00     0.023 H 
ATOM     52  H   LIG d   1       2.528   0.014  -8.654  0.00  0.00     0.023 H 
ATOM     53  H   LIG d   1       2.349  -0.416  -6.936  0.00  0.00     0.023 H 
ENDBRANCH  47  50
ENDBRANCH   1  47
TORSDOF 4
ENDMDL
