MODEL 1
REMARK VINA RESULT:      -8.4      0.000      0.000
REMARK  2 active torsions:
REMARK  status: ('A' for Active; 'I' for Inactive)
REMARK    1  A    between atoms: C_7  and  C_11 
REMARK    2  A    between atoms: C_11  and  C_12 
ROOT
ATOM      1  C   LIG d   1       4.458  -2.997  -6.280  0.00  0.00     0.119 C 
ATOM      2  H   LIG d   1       3.692  -2.723  -5.554  0.00  0.00     0.063 H 
ATOM      3  C   LIG d   1       4.194  -4.394  -6.796  0.00  0.00     0.237 C 
ATOM      4  O   LIG d   1       3.481  -5.157  -6.178  0.00  0.00    -0.274 OA
ATOM      5  N   LIG d   1       4.769  -4.775  -7.960  0.00  0.00    -0.306 N 
ATOM      6  C   LIG d   1       5.632  -3.819  -8.668  0.00  0.00     0.070 C 
ATOM      7  C   LIG d   1       4.983  -2.451  -8.601  0.00  0.00     0.131 A 
ATOM      8  N   LIG d   1       4.414  -2.070  -7.418  0.00  0.00    -0.282 N 
ATOM      9  C   LIG d   1       3.818  -0.865  -7.290  0.00  0.00     0.263 A 
ATOM     10  O   LIG d   1       3.311  -0.521  -6.238  0.00  0.00    -0.267 OA
ATOM     11  C   LIG d   1       3.807   0.015  -8.468  0.00  0.00     0.065 A 
ATOM     12  C   LIG d   1       3.216   1.276  -8.440  0.00  0.00    -0.047 A 
ATOM     13  C   LIG d   1       3.235   2.058  -9.574  0.00  0.00    -0.061 A 
ATOM     14  C   LIG d   1       3.837   1.600 -10.739  0.00  0.00    -0.060 A 
ATOM     15  C   LIG d   1       4.426   0.357 -10.786  0.00  0.00    -0.035 A 
ATOM     16  C   LIG d   1       4.420  -0.455  -9.649  0.00  0.00     0.078 A 
ATOM     17  N   LIG d   1       4.986  -1.690  -9.654  0.00  0.00    -0.232 NA
ATOM     18  H   LIG d   1       4.616  -5.663  -8.320  0.00  0.00     0.149 HD
ATOM     19  H   LIG d   1       6.611  -3.784  -8.192  0.00  0.00     0.054 H 
ATOM     20  H   LIG d   1       5.740  -4.122  -9.710  0.00  0.00     0.054 H 
ATOM     21  H   LIG d   1       2.746   1.638  -7.537  0.00  0.00     0.063 H 
ATOM     22  H   LIG d   1       2.777   3.038  -9.557  0.00  0.00     0.062 H 
ATOM     23  H   LIG d   1       3.843   2.226 -11.618  0.00  0.00     0.062 H 
ATOM     24  H   LIG d   1       4.891   0.012 -11.697  0.00  0.00     0.064 H 
ENDROOT
BRANCH   1  25
ATOM     25  C   LIG d   1       5.837  -2.941  -5.622  0.00  0.00     0.004 C 
ATOM     26  H   LIG d   1       6.604  -3.150  -6.368  0.00  0.00     0.034 H 
ATOM     27  H   LIG d   1       5.892  -3.686  -4.828  0.00  0.00     0.034 H 
BRANCH  25  28
ATOM     28  C   LIG d   1       6.062  -1.568  -5.042  0.00  0.00    -0.020 A 
ATOM     29  C   LIG d   1       5.444  -1.023  -3.832  0.00  0.00     0.003 A 
ATOM     30  C   LIG d   1       5.953   0.280  -3.688  0.00  0.00     0.047 A 
ATOM     31  C   LIG d   1       4.533  -1.521  -2.898  0.00  0.00    -0.052 A 
ATOM     32  C   LIG d   1       5.542   1.059  -2.613  0.00  0.00    -0.038 A 
ATOM     33  N   LIG d   1       6.816   0.497  -4.740  0.00  0.00    -0.360 N 
ATOM     34  C   LIG d   1       4.642   0.548  -1.703  0.00  0.00    -0.060 A 
ATOM     35  H   LIG d   1       5.924   2.062  -2.491  0.00  0.00     0.064 H 
ATOM     36  C   LIG d   1       4.141  -0.739  -1.849  0.00  0.00    -0.061 A 
ATOM     37  H   LIG d   1       4.323   1.154  -0.868  0.00  0.00     0.062 H 
ATOM     38  H   LIG d   1       3.441  -1.126  -1.124  0.00  0.00     0.062 H 
ATOM     39  C   LIG d   1       6.868  -0.615  -5.535  0.00  0.00     0.006 A 
ATOM     40  H   LIG d   1       7.313   1.315  -4.893  0.00  0.00     0.165 HD
ATOM     41  H   LIG d   1       7.469  -0.711  -6.428  0.00  0.00     0.081 H 
ATOM     42  H   LIG d   1       4.139  -2.522  -3.005  0.00  0.00     0.062 H 
ENDBRANCH  25  28
ENDBRANCH   1  25
TORSDOF 2
ENDMDL
MODEL 2
REMARK VINA RESULT:      -8.2      1.573      5.570
REMARK  2 active torsions:
REMARK  status: ('A' for Active; 'I' for Inactive)
REMARK    1  A    between atoms: C_7  and  C_11 
REMARK    2  A    between atoms: C_11  and  C_12 
ROOT
ATOM      1  C   LIG d   1       5.733  -2.836  -7.486  0.00  0.00     0.119 C 
ATOM      2  H   LIG d   1       6.469  -2.122  -7.857  0.00  0.00     0.063 H 
ATOM      3  C   LIG d   1       6.329  -4.226  -7.481  0.00  0.00     0.237 C 
ATOM      4  O   LIG d   1       7.306  -4.482  -8.152  0.00  0.00    -0.274 OA
ATOM      5  N   LIG d   1       5.750  -5.177  -6.712  0.00  0.00    -0.306 N 
ATOM      6  C   LIG d   1       4.562  -4.821  -5.922  0.00  0.00     0.070 C 
ATOM      7  C   LIG d   1       4.783  -3.447  -5.322  0.00  0.00     0.131 A 
ATOM      8  N   LIG d   1       5.358  -2.489  -6.109  0.00  0.00    -0.282 N 
ATOM      9  C   LIG d   1       5.585  -1.245  -5.637  0.00  0.00     0.263 A 
ATOM     10  O   LIG d   1       6.096  -0.389  -6.335  0.00  0.00    -0.267 OA
ATOM     11  C   LIG d   1       5.188  -0.964  -4.249  0.00  0.00     0.065 A 
ATOM     12  C   LIG d   1       5.381   0.287  -3.666  0.00  0.00    -0.047 A 
ATOM     13  C   LIG d   1       4.990   0.493  -2.361  0.00  0.00    -0.061 A 
ATOM     14  C   LIG d   1       4.408  -0.532  -1.627  0.00  0.00    -0.060 A 
ATOM     15  C   LIG d   1       4.209  -1.774  -2.185  0.00  0.00    -0.035 A 
ATOM     16  C   LIG d   1       4.597  -2.009  -3.506  0.00  0.00     0.078 A 
ATOM     17  N   LIG d   1       4.424  -3.222  -4.094  0.00  0.00    -0.232 NA
ATOM     18  H   LIG d   1       6.111  -6.077  -6.683  0.00  0.00     0.149 HD
ATOM     19  H   LIG d   1       3.684  -4.803  -6.567  0.00  0.00     0.054 H 
ATOM     20  H   LIG d   1       4.418  -5.551  -5.125  0.00  0.00     0.054 H 
ATOM     21  H   LIG d   1       5.832   1.088  -4.232  0.00  0.00     0.063 H 
ATOM     22  H   LIG d   1       5.137   1.462  -1.904  0.00  0.00     0.062 H 
ATOM     23  H   LIG d   1       4.107  -0.353  -0.605  0.00  0.00     0.062 H 
ATOM     24  H   LIG d   1       3.756  -2.564  -1.604  0.00  0.00     0.064 H 
ENDROOT
BRANCH   1  25
ATOM     25  C   LIG d   1       4.492  -2.810  -8.380  0.00  0.00     0.004 C 
ATOM     26  H   LIG d   1       3.602  -2.685  -7.763  0.00  0.00     0.034 H 
ATOM     27  H   LIG d   1       4.422  -3.747  -8.932  0.00  0.00     0.034 H 
BRANCH  25  28
ATOM     28  C   LIG d   1       4.595  -1.660  -9.350  0.00  0.00    -0.020 A 
ATOM     29  C   LIG d   1       4.031  -0.320  -9.174  0.00  0.00     0.003 A 
ATOM     30  C   LIG d   1       4.383   0.404 -10.328  0.00  0.00     0.047 A 
ATOM     31  C   LIG d   1       3.283   0.294  -8.167  0.00  0.00    -0.052 A 
ATOM     32  C   LIG d   1       3.980   1.729 -10.451  0.00  0.00    -0.038 A 
ATOM     33  N   LIG d   1       5.107  -0.445 -11.135  0.00  0.00    -0.360 N 
ATOM     34  C   LIG d   1       3.243   2.316  -9.445  0.00  0.00    -0.060 A 
ATOM     35  H   LIG d   1       4.242   2.296 -11.331  0.00  0.00     0.064 H 
ATOM     36  C   LIG d   1       2.897   1.597  -8.308  0.00  0.00    -0.061 A 
ATOM     37  H   LIG d   1       2.931   3.345  -9.542  0.00  0.00     0.062 H 
ATOM     38  H   LIG d   1       2.324   2.074  -7.528  0.00  0.00     0.062 H 
ATOM     39  C   LIG d   1       5.223  -1.670 -10.535  0.00  0.00     0.006 A 
ATOM     40  H   LIG d   1       5.479  -0.210 -11.999  0.00  0.00     0.165 HD
ATOM     41  H   LIG d   1       5.744  -2.519 -10.956  0.00  0.00     0.081 H 
ATOM     42  H   LIG d   1       3.011  -0.259  -7.280  0.00  0.00     0.062 H 
ENDBRANCH  25  28
ENDBRANCH   1  25
TORSDOF 2
ENDMDL
MODEL 3
REMARK VINA RESULT:      -8.1      2.037      2.604
REMARK  2 active torsions:
REMARK  status: ('A' for Active; 'I' for Inactive)
REMARK    1  A    between atoms: C_7  and  C_11 
REMARK    2  A    between atoms: C_11  and  C_12 
ROOT
ATOM      1  C   LIG d   1       6.497  -2.546  -6.908  0.00  0.00     0.119 C 
ATOM      2  H   LIG d   1       5.648  -3.227  -6.851  0.00  0.00     0.063 H 
ATOM      3  C   LIG d   1       7.572  -3.143  -7.789  0.00  0.00     0.237 C 
ATOM      4  O   LIG d   1       7.585  -4.333  -8.028  0.00  0.00    -0.274 OA
ATOM      5  N   LIG d   1       8.517  -2.324  -8.305  0.00  0.00    -0.306 N 
ATOM      6  C   LIG d   1       8.465  -0.891  -7.980  0.00  0.00     0.070 C 
ATOM      7  C   LIG d   1       7.019  -0.443  -8.034  0.00  0.00     0.131 A 
ATOM      8  N   LIG d   1       6.071  -1.271  -7.501  0.00  0.00    -0.282 N 
ATOM      9  C   LIG d   1       4.764  -0.934  -7.516  0.00  0.00     0.263 A 
ATOM     10  O   LIG d   1       3.917  -1.668  -7.041  0.00  0.00    -0.267 OA
ATOM     11  C   LIG d   1       4.404   0.355  -8.126  0.00  0.00     0.065 A 
ATOM     12  C   LIG d   1       3.084   0.795  -8.195  0.00  0.00    -0.047 A 
ATOM     13  C   LIG d   1       2.805   2.011  -8.778  0.00  0.00    -0.061 A 
ATOM     14  C   LIG d   1       3.825   2.798  -9.295  0.00  0.00    -0.060 A 
ATOM     15  C   LIG d   1       5.136   2.381  -9.237  0.00  0.00    -0.035 A 
ATOM     16  C   LIG d   1       5.445   1.151  -8.651  0.00  0.00     0.078 A 
ATOM     17  N   LIG d   1       6.724   0.700  -8.577  0.00  0.00    -0.232 NA
ATOM     18  H   LIG d   1       9.217  -2.676  -8.877  0.00  0.00     0.149 HD
ATOM     19  H   LIG d   1       8.863  -0.726  -6.980  0.00  0.00     0.054 H 
ATOM     20  H   LIG d   1       9.051  -0.328  -8.707  0.00  0.00     0.054 H 
ATOM     21  H   LIG d   1       2.286   0.187  -7.794  0.00  0.00     0.063 H 
ATOM     22  H   LIG d   1       1.781   2.356  -8.834  0.00  0.00     0.062 H 
ATOM     23  H   LIG d   1       3.588   3.749  -9.749  0.00  0.00     0.062 H 
ATOM     24  H   LIG d   1       5.921   3.002  -9.643  0.00  0.00     0.064 H 
ENDROOT
BRANCH   1  25
ATOM     25  C   LIG d   1       7.057  -2.301  -5.506  0.00  0.00     0.004 C 
ATOM     26  H   LIG d   1       7.616  -1.364  -5.496  0.00  0.00     0.034 H 
ATOM     27  H   LIG d   1       7.720  -3.121  -5.230  0.00  0.00     0.034 H 
BRANCH  25  28
ATOM     28  C   LIG d   1       5.921  -2.217  -4.519  0.00  0.00    -0.020 A 
ATOM     29  C   LIG d   1       5.576  -1.063  -3.686  0.00  0.00     0.003 A 
ATOM     30  C   LIG d   1       4.451  -1.450  -2.933  0.00  0.00     0.047 A 
ATOM     31  C   LIG d   1       6.113   0.216  -3.527  0.00  0.00    -0.052 A 
ATOM     32  C   LIG d   1       3.887  -0.548  -2.037  0.00  0.00    -0.038 A 
ATOM     33  N   LIG d   1       4.148  -2.744  -3.293  0.00  0.00    -0.360 N 
ATOM     34  C   LIG d   1       4.434   0.708  -1.896  0.00  0.00    -0.060 A 
ATOM     35  H   LIG d   1       3.025  -0.833  -1.452  0.00  0.00     0.064 H 
ATOM     36  C   LIG d   1       5.544   1.086  -2.640  0.00  0.00    -0.061 A 
ATOM     37  H   LIG d   1       3.995   1.407  -1.199  0.00  0.00     0.062 H 
ATOM     38  H   LIG d   1       5.956   2.076  -2.521  0.00  0.00     0.062 H 
ATOM     39  C   LIG d   1       5.034  -3.184  -4.239  0.00  0.00     0.006 A 
ATOM     40  H   LIG d   1       3.415  -3.266  -2.931  0.00  0.00     0.165 HD
ATOM     41  H   LIG d   1       5.021  -4.165  -4.692  0.00  0.00     0.081 H 
ATOM     42  H   LIG d   1       6.976   0.516  -4.103  0.00  0.00     0.062 H 
ENDBRANCH  25  28
ENDBRANCH   1  25
TORSDOF 2
ENDMDL
MODEL 4
REMARK VINA RESULT:      -8.0      2.570      5.714
REMARK  2 active torsions:
REMARK  status: ('A' for Active; 'I' for Inactive)
REMARK    1  A    between atoms: C_7  and  C_11 
REMARK    2  A    between atoms: C_11  and  C_12 
ROOT
ATOM      1  C   LIG d   1       7.908  -1.073  -6.822  0.00  0.00     0.119 C 
ATOM      2  H   LIG d   1       8.461  -0.134  -6.853  0.00  0.00     0.063 H 
ATOM      3  C   LIG d   1       8.875  -2.234  -6.757  0.00  0.00     0.237 C 
ATOM      4  O   LIG d   1      10.035  -2.092  -7.085  0.00  0.00    -0.274 OA
ATOM      5  N   LIG d   1       8.421  -3.432  -6.325  0.00  0.00    -0.306 N 
ATOM      6  C   LIG d   1       7.007  -3.558  -5.945  0.00  0.00     0.070 C 
ATOM      7  C   LIG d   1       6.609  -2.318  -5.172  0.00  0.00     0.131 A 
ATOM      8  N   LIG d   1       7.062  -1.109  -5.622  0.00  0.00    -0.282 N 
ATOM      9  C   LIG d   1       6.746   0.035  -4.980  0.00  0.00     0.263 A 
ATOM     10  O   LIG d   1       7.147   1.114  -5.378  0.00  0.00    -0.267 OA
ATOM     11  C   LIG d   1       5.898  -0.070  -3.783  0.00  0.00     0.065 A 
ATOM     12  C   LIG d   1       5.518   1.050  -3.048  0.00  0.00    -0.047 A 
ATOM     13  C   LIG d   1       4.722   0.891  -1.935  0.00  0.00    -0.061 A 
ATOM     14  C   LIG d   1       4.298  -0.371  -1.543  0.00  0.00    -0.060 A 
ATOM     15  C   LIG d   1       4.664  -1.491  -2.256  0.00  0.00    -0.035 A 
ATOM     16  C   LIG d   1       5.471  -1.356  -3.388  0.00  0.00     0.078 A 
ATOM     17  N   LIG d   1       5.858  -2.435  -4.118  0.00  0.00    -0.232 NA
ATOM     18  H   LIG d   1       9.018  -4.196  -6.267  0.00  0.00     0.149 HD
ATOM     19  H   LIG d   1       6.392  -3.645  -6.841  0.00  0.00     0.054 H 
ATOM     20  H   LIG d   1       6.871  -4.440  -5.318  0.00  0.00     0.054 H 
ATOM     21  H   LIG d   1       5.844   2.035  -3.348  0.00  0.00     0.063 H 
ATOM     22  H   LIG d   1       4.424   1.758  -1.361  0.00  0.00     0.062 H 
ATOM     23  H   LIG d   1       3.675  -0.478  -0.668  0.00  0.00     0.062 H 
ATOM     24  H   LIG d   1       4.328  -2.468  -1.941  0.00  0.00     0.064 H 
ENDROOT
BRANCH   1  25
ATOM     25  C   LIG d   1       7.034  -1.199  -8.072  0.00  0.00     0.004 C 
ATOM     26  H   LIG d   1       6.168  -1.822  -7.849  0.00  0.00     0.034 H 
ATOM     27  H   LIG d   1       7.613  -1.656  -8.875  0.00  0.00     0.034 H 
BRANCH  25  28
ATOM     28  C   LIG d   1       6.571   0.170  -8.501  0.00  0.00    -0.020 A 
ATOM     29  C   LIG d   1       5.184   0.634  -8.577  0.00  0.00     0.003 A 
ATOM     30  C   LIG d   1       5.244   1.967  -9.022  0.00  0.00     0.047 A 
ATOM     31  C   LIG d   1       3.946   0.043  -8.315  0.00  0.00    -0.052 A 
ATOM     32  C   LIG d   1       4.064   2.683  -9.194  0.00  0.00    -0.038 A 
ATOM     33  N   LIG d   1       6.574   2.277  -9.197  0.00  0.00    -0.360 N 
ATOM     34  C   LIG d   1       2.854   2.081  -8.929  0.00  0.00    -0.060 A 
ATOM     35  H   LIG d   1       4.097   3.707  -9.536  0.00  0.00     0.064 H 
ATOM     36  C   LIG d   1       2.799   0.764  -8.491  0.00  0.00    -0.061 A 
ATOM     37  H   LIG d   1       1.939   2.638  -9.063  0.00  0.00     0.062 H 
ATOM     38  H   LIG d   1       1.842   0.309  -8.283  0.00  0.00     0.062 H 
ATOM     39  C   LIG d   1       7.350   1.194  -8.882  0.00  0.00     0.006 A 
ATOM     40  H   LIG d   1       6.912   3.134  -9.499  0.00  0.00     0.165 HD
ATOM     41  H   LIG d   1       8.428   1.168  -8.932  0.00  0.00     0.081 H 
ATOM     42  H   LIG d   1       3.896  -0.981  -7.974  0.00  0.00     0.062 H 
ENDBRANCH  25  28
ENDBRANCH   1  25
TORSDOF 2
ENDMDL
MODEL 5
REMARK VINA RESULT:      -7.9      2.159      6.298
REMARK  2 active torsions:
REMARK  status: ('A' for Active; 'I' for Inactive)
REMARK    1  A    between atoms: C_7  and  C_11 
REMARK    2  A    between atoms: C_11  and  C_12 
ROOT
ATOM      1  C   LIG d   1       4.512  -0.914  -4.726  0.00  0.00     0.119 C 
ATOM      2  H   LIG d   1       4.804  -1.842  -5.218  0.00  0.00     0.063 H 
ATOM      3  C   LIG d   1       3.867  -1.224  -3.394  0.00  0.00     0.237 C 
ATOM      4  O   LIG d   1       3.428  -2.332  -3.162  0.00  0.00    -0.274 OA
ATOM      5  N   LIG d   1       3.790  -0.243  -2.466  0.00  0.00    -0.306 N 
ATOM      6  C   LIG d   1       4.329   1.085  -2.796  0.00  0.00     0.070 C 
ATOM      7  C   LIG d   1       5.636   0.898  -3.538  0.00  0.00     0.131 A 
ATOM      8  N   LIG d   1       5.702  -0.088  -4.481  0.00  0.00    -0.282 N 
ATOM      9  C   LIG d   1       6.836  -0.309  -5.178  0.00  0.00     0.263 A 
ATOM     10  O   LIG d   1       6.899  -1.187  -6.020  0.00  0.00    -0.267 OA
ATOM     11  C   LIG d   1       7.992   0.551  -4.884  0.00  0.00     0.065 A 
ATOM     12  C   LIG d   1       9.209   0.403  -5.545  0.00  0.00    -0.047 A 
ATOM     13  C   LIG d   1      10.258   1.238  -5.228  0.00  0.00    -0.061 A 
ATOM     14  C   LIG d   1      10.112   2.220  -4.258  0.00  0.00    -0.060 A 
ATOM     15  C   LIG d   1       8.917   2.382  -3.593  0.00  0.00    -0.035 A 
ATOM     16  C   LIG d   1       7.838   1.548  -3.897  0.00  0.00     0.078 A 
ATOM     17  N   LIG d   1       6.643   1.671  -3.261  0.00  0.00    -0.232 NA
ATOM     18  H   LIG d   1       3.387  -0.411  -1.600  0.00  0.00     0.149 HD
ATOM     19  H   LIG d   1       3.621   1.622  -3.427  0.00  0.00     0.054 H 
ATOM     20  H   LIG d   1       4.505   1.649  -1.879  0.00  0.00     0.054 H 
ATOM     21  H   LIG d   1       9.329  -0.360  -6.301  0.00  0.00     0.063 H 
ATOM     22  H   LIG d   1      11.205   1.126  -5.739  0.00  0.00     0.062 H 
ATOM     23  H   LIG d   1      10.944   2.866  -4.022  0.00  0.00     0.062 H 
ATOM     24  H   LIG d   1       8.815   3.150  -2.841  0.00  0.00     0.064 H 
ENDROOT
BRANCH   1  25
ATOM     25  C   LIG d   1       3.526  -0.149  -5.611  0.00  0.00     0.004 C 
ATOM     26  H   LIG d   1       3.693   0.923  -5.498  0.00  0.00     0.034 H 
ATOM     27  H   LIG d   1       2.506  -0.390  -5.312  0.00  0.00     0.034 H 
BRANCH  25  28
ATOM     28  C   LIG d   1       3.736  -0.540  -7.051  0.00  0.00    -0.020 A 
ATOM     29  C   LIG d   1       3.696   0.354  -8.210  0.00  0.00     0.003 A 
ATOM     30  C   LIG d   1       3.947  -0.455  -9.334  0.00  0.00     0.047 A 
ATOM     31  C   LIG d   1       3.473   1.723  -8.374  0.00  0.00    -0.052 A 
ATOM     32  C   LIG d   1       3.972   0.123 -10.599  0.00  0.00    -0.038 A 
ATOM     33  N   LIG d   1       4.126  -1.741  -8.876  0.00  0.00    -0.360 N 
ATOM     34  C   LIG d   1       3.750   1.475 -10.737  0.00  0.00    -0.060 A 
ATOM     35  H   LIG d   1       4.163  -0.486 -11.469  0.00  0.00     0.064 H 
ATOM     36  C   LIG d   1       3.501   2.270  -9.625  0.00  0.00    -0.061 A 
ATOM     37  H   LIG d   1       3.770   1.923 -11.720  0.00  0.00     0.062 H 
ATOM     38  H   LIG d   1       3.335   3.329  -9.751  0.00  0.00     0.062 H 
ATOM     39  C   LIG d   1       3.996  -1.772  -7.514  0.00  0.00     0.006 A 
ATOM     40  H   LIG d   1       4.315  -2.510  -9.435  0.00  0.00     0.165 HD
ATOM     41  H   LIG d   1       4.089  -2.658  -6.902  0.00  0.00     0.081 H 
ATOM     42  H   LIG d   1       3.279   2.347  -7.513  0.00  0.00     0.062 H 
ENDBRANCH  25  28
ENDBRANCH   1  25
TORSDOF 2
ENDMDL
MODEL 6
REMARK VINA RESULT:      -7.8      2.638      6.632
REMARK  2 active torsions:
REMARK  status: ('A' for Active; 'I' for Inactive)
REMARK    1  A    between atoms: C_7  and  C_11 
REMARK    2  A    between atoms: C_11  and  C_12 
ROOT
ATOM      1  C   LIG d   1       4.433   0.382  -8.384  0.00  0.00     0.119 C 
ATOM      2  H   LIG d   1       3.456   0.851  -8.500  0.00  0.00     0.063 H 
ATOM      3  C   LIG d   1       5.519   1.367  -8.759  0.00  0.00     0.237 C 
ATOM      4  O   LIG d   1       5.263   2.342  -9.435  0.00  0.00    -0.274 OA
ATOM      5  N   LIG d   1       6.780   1.138  -8.326  0.00  0.00    -0.306 N 
ATOM      6  C   LIG d   1       7.043  -0.060  -7.516  0.00  0.00     0.070 C 
ATOM      7  C   LIG d   1       5.903  -0.231  -6.533  0.00  0.00     0.131 A 
ATOM      8  N   LIG d   1       4.631  -0.009  -6.982  0.00  0.00    -0.282 N 
ATOM      9  C   LIG d   1       3.569  -0.142  -6.159  0.00  0.00     0.263 A 
ATOM     10  O   LIG d   1       2.435   0.053  -6.555  0.00  0.00    -0.267 OA
ATOM     11  C   LIG d   1       3.836  -0.535  -4.767  0.00  0.00     0.065 A 
ATOM     12  C   LIG d   1       2.811  -0.697  -3.837  0.00  0.00    -0.047 A 
ATOM     13  C   LIG d   1       3.120  -1.066  -2.546  0.00  0.00    -0.061 A 
ATOM     14  C   LIG d   1       4.439  -1.276  -2.167  0.00  0.00    -0.060 A 
ATOM     15  C   LIG d   1       5.466  -1.121  -3.071  0.00  0.00    -0.035 A 
ATOM     16  C   LIG d   1       5.179  -0.747  -4.386  0.00  0.00     0.078 A 
ATOM     17  N   LIG d   1       6.162  -0.579  -5.309  0.00  0.00    -0.232 NA
ATOM     18  H   LIG d   1       7.497   1.753  -8.545  0.00  0.00     0.149 HD
ATOM     19  H   LIG d   1       7.103  -0.935  -8.163  0.00  0.00     0.054 H 
ATOM     20  H   LIG d   1       7.980   0.061  -6.973  0.00  0.00     0.054 H 
ATOM     21  H   LIG d   1       1.783  -0.534  -4.126  0.00  0.00     0.063 H 
ATOM     22  H   LIG d   1       2.327  -1.192  -1.821  0.00  0.00     0.062 H 
ATOM     23  H   LIG d   1       4.663  -1.565  -1.151  0.00  0.00     0.062 H 
ATOM     24  H   LIG d   1       6.487  -1.288  -2.765  0.00  0.00     0.064 H 
ENDROOT
BRANCH   1  25
ATOM     25  C   LIG d   1       4.524  -0.852  -9.282  0.00  0.00     0.004 C 
ATOM     26  H   LIG d   1       4.981  -1.672  -8.728  0.00  0.00     0.034 H 
ATOM     27  H   LIG d   1       5.132  -0.622 -10.157  0.00  0.00     0.034 H 
BRANCH  25  28
ATOM     28  C   LIG d   1       3.140  -1.256  -9.722  0.00  0.00    -0.020 A 
ATOM     29  C   LIG d   1       2.649  -2.623  -9.906  0.00  0.00     0.003 A 
ATOM     30  C   LIG d   1       1.309  -2.503 -10.319  0.00  0.00     0.047 A 
ATOM     31  C   LIG d   1       3.221  -3.888  -9.759  0.00  0.00    -0.052 A 
ATOM     32  C   LIG d   1       0.569  -3.652 -10.576  0.00  0.00    -0.038 A 
ATOM     33  N   LIG d   1       1.022  -1.158 -10.377  0.00  0.00    -0.360 N 
ATOM     34  C   LIG d   1       1.153  -4.890 -10.424  0.00  0.00    -0.060 A 
ATOM     35  H   LIG d   1      -0.460  -3.574 -10.894  0.00  0.00     0.064 H 
ATOM     36  C   LIG d   1       2.476  -5.004 -10.017  0.00  0.00    -0.061 A 
ATOM     37  H   LIG d   1       0.577  -5.782 -10.624  0.00  0.00     0.062 H 
ATOM     38  H   LIG d   1       2.917  -5.982  -9.897  0.00  0.00     0.062 H 
ATOM     39  C   LIG d   1       2.124  -0.430 -10.018  0.00  0.00     0.006 A 
ATOM     40  H   LIG d   1       0.166  -0.782 -10.634  0.00  0.00     0.165 HD
ATOM     41  H   LIG d   1       2.169   0.649  -9.979  0.00  0.00     0.081 H 
ATOM     42  H   LIG d   1       4.249  -3.984  -9.442  0.00  0.00     0.062 H 
ENDBRANCH  25  28
ENDBRANCH   1  25
TORSDOF 2
ENDMDL
MODEL 7
REMARK VINA RESULT:      -7.7      5.118      7.132
REMARK  2 active torsions:
REMARK  status: ('A' for Active; 'I' for Inactive)
REMARK    1  A    between atoms: C_7  and  C_11 
REMARK    2  A    between atoms: C_11  and  C_12 
ROOT
ATOM      1  C   LIG d   1       9.399   2.647  -4.573  0.00  0.00     0.119 C 
ATOM      2  H   LIG d   1       9.680   1.671  -4.970  0.00  0.00     0.063 H 
ATOM      3  C   LIG d   1      10.342   3.032  -3.455  0.00  0.00     0.237 C 
ATOM      4  O   LIG d   1      11.012   2.191  -2.893  0.00  0.00    -0.274 OA
ATOM      5  N   LIG d   1      10.424   4.334  -3.095  0.00  0.00    -0.306 N 
ATOM      6  C   LIG d   1       9.587   5.316  -3.799  0.00  0.00     0.070 C 
ATOM      7  C   LIG d   1       9.594   4.977  -5.275  0.00  0.00     0.131 A 
ATOM      8  N   LIG d   1       9.500   3.660  -5.631  0.00  0.00    -0.282 N 
ATOM      9  C   LIG d   1       9.502   3.288  -6.929  0.00  0.00     0.263 A 
ATOM     10  O   LIG d   1       9.417   2.117  -7.249  0.00  0.00    -0.267 OA
ATOM     11  C   LIG d   1       9.608   4.352  -7.939  0.00  0.00     0.065 A 
ATOM     12  C   LIG d   1       9.621   4.074  -9.304  0.00  0.00    -0.047 A 
ATOM     13  C   LIG d   1       9.722   5.110 -10.205  0.00  0.00    -0.061 A 
ATOM     14  C   LIG d   1       9.811   6.424  -9.765  0.00  0.00    -0.060 A 
ATOM     15  C   LIG d   1       9.799   6.719  -8.420  0.00  0.00    -0.035 A 
ATOM     16  C   LIG d   1       9.698   5.686  -7.486  0.00  0.00     0.078 A 
ATOM     17  N   LIG d   1       9.688   5.933  -6.150  0.00  0.00    -0.232 NA
ATOM     18  H   LIG d   1      11.022   4.614  -2.385  0.00  0.00     0.149 HD
ATOM     19  H   LIG d   1       8.567   5.271  -3.417  0.00  0.00     0.054 H 
ATOM     20  H   LIG d   1       9.991   6.318  -3.651  0.00  0.00     0.054 H 
ATOM     21  H   LIG d   1       9.553   3.053  -9.652  0.00  0.00     0.063 H 
ATOM     22  H   LIG d   1       9.734   4.898 -11.266  0.00  0.00     0.062 H 
ATOM     23  H   LIG d   1       9.889   7.224 -10.485  0.00  0.00     0.062 H 
ATOM     24  H   LIG d   1       9.869   7.745  -8.090  0.00  0.00     0.064 H 
ENDROOT
BRANCH   1  25
ATOM     25  C   LIG d   1       7.965   2.595  -4.043  0.00  0.00     0.004 C 
ATOM     26  H   LIG d   1       7.299   3.096  -4.747  0.00  0.00     0.034 H 
ATOM     27  H   LIG d   1       7.916   3.099  -3.077  0.00  0.00     0.034 H 
BRANCH  25  28
ATOM     28  C   LIG d   1       7.539   1.158  -3.885  0.00  0.00    -0.020 A 
ATOM     29  C   LIG d   1       6.354   0.675  -3.174  0.00  0.00     0.003 A 
ATOM     30  C   LIG d   1       6.372  -0.727  -3.295  0.00  0.00     0.047 A 
ATOM     31  C   LIG d   1       5.321   1.299  -2.471  0.00  0.00    -0.052 A 
ATOM     32  C   LIG d   1       5.356  -1.475  -2.711  0.00  0.00    -0.038 A 
ATOM     33  N   LIG d   1       7.490  -1.056  -4.028  0.00  0.00    -0.360 N 
ATOM     34  C   LIG d   1       4.347  -0.838  -2.023  0.00  0.00    -0.060 A 
ATOM     35  H   LIG d   1       5.358  -2.552  -2.796  0.00  0.00     0.064 H 
ATOM     36  C   LIG d   1       4.333   0.545  -1.905  0.00  0.00    -0.061 A 
ATOM     37  H   LIG d   1       3.558  -1.421  -1.570  0.00  0.00     0.062 H 
ATOM     38  H   LIG d   1       3.532   1.028  -1.366  0.00  0.00     0.062 H 
ATOM     39  C   LIG d   1       8.173   0.080  -4.371  0.00  0.00     0.006 A 
ATOM     40  H   LIG d   1       7.755  -1.958  -4.266  0.00  0.00     0.165 HD
ATOM     41  H   LIG d   1       9.087   0.104  -4.946  0.00  0.00     0.081 H 
ATOM     42  H   LIG d   1       5.304   2.375  -2.376  0.00  0.00     0.062 H 
ENDBRANCH  25  28
ENDBRANCH   1  25
TORSDOF 2
ENDMDL
MODEL 8
REMARK VINA RESULT:      -7.7      2.396      5.395
REMARK  2 active torsions:
REMARK  status: ('A' for Active; 'I' for Inactive)
REMARK    1  A    between atoms: C_7  and  C_11 
REMARK    2  A    between atoms: C_11  and  C_12 
ROOT
ATOM      1  C   LIG d   1       4.746  -3.303  -7.064  0.00  0.00     0.119 C 
ATOM      2  H   LIG d   1       4.360  -4.240  -6.661  0.00  0.00     0.063 H 
ATOM      3  C   LIG d   1       3.891  -2.860  -8.230  0.00  0.00     0.237 C 
ATOM      4  O   LIG d   1       3.172  -3.650  -8.806  0.00  0.00    -0.274 OA
ATOM      5  N   LIG d   1       3.944  -1.565  -8.618  0.00  0.00    -0.306 N 
ATOM      6  C   LIG d   1       4.836  -0.647  -7.895  0.00  0.00     0.070 C 
ATOM      7  C   LIG d   1       4.734  -0.950  -6.414  0.00  0.00     0.131 A 
ATOM      8  N   LIG d   1       4.691  -2.261  -6.030  0.00  0.00    -0.282 N 
ATOM      9  C   LIG d   1       4.599  -2.602  -4.727  0.00  0.00     0.263 A 
ATOM     10  O   LIG d   1       4.563  -3.768  -4.381  0.00  0.00    -0.267 OA
ATOM     11  C   LIG d   1       4.547  -1.510  -3.743  0.00  0.00     0.065 A 
ATOM     12  C   LIG d   1       4.448  -1.755  -2.375  0.00  0.00    -0.047 A 
ATOM     13  C   LIG d   1       4.403  -0.693  -1.499  0.00  0.00    -0.061 A 
ATOM     14  C   LIG d   1       4.454   0.613  -1.967  0.00  0.00    -0.060 A 
ATOM     15  C   LIG d   1       4.551   0.875  -3.315  0.00  0.00    -0.035 A 
ATOM     16  C   LIG d   1       4.599  -0.184  -4.224  0.00  0.00     0.078 A 
ATOM     17  N   LIG d   1       4.690   0.030  -5.563  0.00  0.00    -0.232 NA
ATOM     18  H   LIG d   1       3.405  -1.248  -9.360  0.00  0.00     0.149 HD
ATOM     19  H   LIG d   1       5.863  -0.792  -8.229  0.00  0.00     0.054 H 
ATOM     20  H   LIG d   1       4.531   0.384  -8.080  0.00  0.00     0.054 H 
ATOM     21  H   LIG d   1       4.409  -2.769  -2.005  0.00  0.00     0.063 H 
ATOM     22  H   LIG d   1       4.327  -0.878  -0.436  0.00  0.00     0.062 H 
ATOM     23  H   LIG d   1       4.418   1.433  -1.266  0.00  0.00     0.062 H 
ATOM     24  H   LIG d   1       4.590   1.895  -3.667  0.00  0.00     0.064 H 
ENDROOT
BRANCH   1  25
ATOM     25  C   LIG d   1       6.191  -3.496  -7.527  0.00  0.00     0.004 C 
ATOM     26  H   LIG d   1       6.770  -2.603  -7.291  0.00  0.00     0.034 H 
ATOM     27  H   LIG d   1       6.208  -3.666  -8.603  0.00  0.00     0.034 H 
BRANCH  25  28
ATOM     28  C   LIG d   1       6.790  -4.684  -6.819  0.00  0.00    -0.020 A 
ATOM     29  C   LIG d   1       7.640  -4.649  -5.627  0.00  0.00     0.003 A 
ATOM     30  C   LIG d   1       7.954  -5.989  -5.333  0.00  0.00     0.047 A 
ATOM     31  C   LIG d   1       8.140  -3.625  -4.820  0.00  0.00    -0.052 A 
ATOM     32  C   LIG d   1       8.760  -6.277  -4.237  0.00  0.00    -0.038 A 
ATOM     33  N   LIG d   1       7.333  -6.768  -6.284  0.00  0.00    -0.360 N 
ATOM     34  C   LIG d   1       9.242  -5.250  -3.455  0.00  0.00    -0.060 A 
ATOM     35  H   LIG d   1       9.009  -7.300  -4.001  0.00  0.00     0.064 H 
ATOM     36  C   LIG d   1       8.931  -3.929  -3.748  0.00  0.00    -0.061 A 
ATOM     37  H   LIG d   1       9.868  -5.475  -2.604  0.00  0.00     0.062 H 
ATOM     38  H   LIG d   1       9.312  -3.137  -3.122  0.00  0.00     0.062 H 
ATOM     39  C   LIG d   1       6.645  -5.974  -7.160  0.00  0.00     0.006 A 
ATOM     40  H   LIG d   1       7.377  -7.736  -6.326  0.00  0.00     0.165 HD
ATOM     41  H   LIG d   1       6.070  -6.332  -8.002  0.00  0.00     0.081 H 
ATOM     42  H   LIG d   1       7.901  -2.595  -5.042  0.00  0.00     0.062 H 
ENDBRANCH  25  28
ENDBRANCH   1  25
TORSDOF 2
ENDMDL
MODEL 9
REMARK VINA RESULT:      -7.5      3.942      5.596
REMARK  2 active torsions:
REMARK  status: ('A' for Active; 'I' for Inactive)
REMARK    1  A    between atoms: C_7  and  C_11 
REMARK    2  A    between atoms: C_11  and  C_12 
ROOT
ATOM      1  C   LIG d   1       7.926  -1.347  -5.634  0.00  0.00     0.119 C 
ATOM      2  H   LIG d   1       7.027  -0.970  -6.122  0.00  0.00     0.063 H 
ATOM      3  C   LIG d   1       8.627  -2.329  -6.546  0.00  0.00     0.237 C 
ATOM      4  O   LIG d   1       8.034  -2.852  -7.465  0.00  0.00    -0.274 OA
ATOM      5  N   LIG d   1       9.931  -2.610  -6.315  0.00  0.00    -0.306 N 
ATOM      6  C   LIG d   1      10.606  -1.957  -5.184  0.00  0.00     0.070 C 
ATOM      7  C   LIG d   1      10.164  -0.509  -5.137  0.00  0.00     0.131 A 
ATOM      8  N   LIG d   1       8.844  -0.234  -5.360  0.00  0.00    -0.282 N 
ATOM      9  C   LIG d   1       8.383   1.035  -5.334  0.00  0.00     0.263 A 
ATOM     10  O   LIG d   1       7.208   1.284  -5.530  0.00  0.00    -0.267 OA
ATOM     11  C   LIG d   1       9.355   2.103  -5.056  0.00  0.00     0.065 A 
ATOM     12  C   LIG d   1       8.983   3.445  -5.009  0.00  0.00    -0.047 A 
ATOM     13  C   LIG d   1       9.936   4.403  -4.745  0.00  0.00    -0.061 A 
ATOM     14  C   LIG d   1      11.259   4.044  -4.526  0.00  0.00    -0.060 A 
ATOM     15  C   LIG d   1      11.647   2.723  -4.568  0.00  0.00    -0.035 A 
ATOM     16  C   LIG d   1      10.699   1.732  -4.834  0.00  0.00     0.078 A 
ATOM     17  N   LIG d   1      11.040   0.418  -4.889  0.00  0.00    -0.232 NA
ATOM     18  H   LIG d   1      10.411  -3.232  -6.885  0.00  0.00     0.149 HD
ATOM     19  H   LIG d   1      10.331  -2.455  -4.255  0.00  0.00     0.054 H 
ATOM     20  H   LIG d   1      11.686  -2.007  -5.322  0.00  0.00     0.054 H 
ATOM     21  H   LIG d   1       7.955   3.731  -5.179  0.00  0.00     0.063 H 
ATOM     22  H   LIG d   1       9.651   5.446  -4.708  0.00  0.00     0.062 H 
ATOM     23  H   LIG d   1      11.993   4.808  -4.320  0.00  0.00     0.062 H 
ATOM     24  H   LIG d   1      12.678   2.456  -4.395  0.00  0.00     0.064 H 
ENDROOT
BRANCH   1  25
ATOM     25  C   LIG d   1       7.549  -2.040  -4.323  0.00  0.00     0.004 C 
ATOM     26  H   LIG d   1       8.045  -1.538  -3.491  0.00  0.00     0.034 H 
ATOM     27  H   LIG d   1       7.866  -3.082  -4.358  0.00  0.00     0.034 H 
BRANCH  25  28
ATOM     28  C   LIG d   1       6.056  -1.973  -4.130  0.00  0.00    -0.020 A 
ATOM     29  C   LIG d   1       5.316  -0.925  -3.424  0.00  0.00     0.003 A 
ATOM     30  C   LIG d   1       3.958  -1.286  -3.505  0.00  0.00     0.047 A 
ATOM     31  C   LIG d   1       5.686   0.244  -2.756  0.00  0.00    -0.052 A 
ATOM     32  C   LIG d   1       2.999  -0.470  -2.916  0.00  0.00    -0.038 A 
ATOM     33  N   LIG d   1       3.894  -2.467  -4.211  0.00  0.00    -0.360 N 
ATOM     34  C   LIG d   1       3.387   0.678  -2.261  0.00  0.00    -0.060 A 
ATOM     35  H   LIG d   1       1.953  -0.736  -2.970  0.00  0.00     0.064 H 
ATOM     36  C   LIG d   1       4.728   1.031  -2.183  0.00  0.00    -0.061 A 
ATOM     37  H   LIG d   1       2.640   1.311  -1.804  0.00  0.00     0.062 H 
ATOM     38  H   LIG d   1       5.014   1.937  -1.671  0.00  0.00     0.062 H 
ATOM     39  C   LIG d   1       5.153  -2.860  -4.575  0.00  0.00     0.006 A 
ATOM     40  H   LIG d   1       3.078  -2.948  -4.419  0.00  0.00     0.165 HD
ATOM     41  H   LIG d   1       5.385  -3.753  -5.137  0.00  0.00     0.081 H 
ATOM     42  H   LIG d   1       6.727   0.524  -2.691  0.00  0.00     0.062 H 
ENDBRANCH  25  28
ENDBRANCH   1  25
TORSDOF 2
ENDMDL
MODEL 10
REMARK VINA RESULT:      -7.4      4.207      6.597
REMARK  2 active torsions:
REMARK  status: ('A' for Active; 'I' for Inactive)
REMARK    1  A    between atoms: C_7  and  C_11 
REMARK    2  A    between atoms: C_11  and  C_12 
ROOT
ATOM      1  C   LIG d   1       8.854  -1.866  -5.680  0.00  0.00     0.119 C 
ATOM      2  H   LIG d   1       8.469  -2.872  -5.850  0.00  0.00     0.063 H 
ATOM      3  C   LIG d   1       9.024  -1.155  -7.004  0.00  0.00     0.237 C 
ATOM      4  O   LIG d   1       9.082  -1.783  -8.040  0.00  0.00    -0.274 OA
ATOM      5  N   LIG d   1       9.110   0.195  -7.008  0.00  0.00    -0.306 N 
ATOM      6  C   LIG d   1       9.042   0.912  -5.726  0.00  0.00     0.070 C 
ATOM      7  C   LIG d   1       7.972   0.262  -4.873  0.00  0.00     0.131 A 
ATOM      8  N   LIG d   1       7.900  -1.103  -4.866  0.00  0.00    -0.282 N 
ATOM      9  C   LIG d   1       6.970  -1.746  -4.128  0.00  0.00     0.263 A 
ATOM     10  O   LIG d   1       6.903  -2.961  -4.118  0.00  0.00    -0.267 OA
ATOM     11  C   LIG d   1       6.043  -0.922  -3.337  0.00  0.00     0.065 A 
ATOM     12  C   LIG d   1       5.046  -1.488  -2.545  0.00  0.00    -0.047 A 
ATOM     13  C   LIG d   1       4.207  -0.667  -1.824  0.00  0.00    -0.061 A 
ATOM     14  C   LIG d   1       4.346   0.713  -1.882  0.00  0.00    -0.060 A 
ATOM     15  C   LIG d   1       5.325   1.291  -2.659  0.00  0.00    -0.035 A 
ATOM     16  C   LIG d   1       6.189   0.480  -3.399  0.00  0.00     0.078 A 
ATOM     17  N   LIG d   1       7.165   1.010  -4.181  0.00  0.00    -0.232 NA
ATOM     18  H   LIG d   1       9.215   0.682  -7.841  0.00  0.00     0.149 HD
ATOM     19  H   LIG d   1      10.004   0.850  -5.219  0.00  0.00     0.054 H 
ATOM     20  H   LIG d   1       8.786   1.957  -5.902  0.00  0.00     0.054 H 
ATOM     21  H   LIG d   1       4.933  -2.561  -2.496  0.00  0.00     0.063 H 
ATOM     22  H   LIG d   1       3.431  -1.102  -1.209  0.00  0.00     0.062 H 
ATOM     23  H   LIG d   1       3.679   1.341  -1.311  0.00  0.00     0.062 H 
ATOM     24  H   LIG d   1       5.424   2.365  -2.695  0.00  0.00     0.064 H 
ENDROOT
BRANCH   1  25
ATOM     25  C   LIG d   1      10.201  -1.945  -4.959  0.00  0.00     0.004 C 
ATOM     26  H   LIG d   1      10.112  -1.489  -3.973  0.00  0.00     0.034 H 
ATOM     27  H   LIG d   1      10.954  -1.411  -5.538  0.00  0.00     0.034 H 
BRANCH  25  28
ATOM     28  C   LIG d   1      10.607  -3.388  -4.810  0.00  0.00    -0.020 A 
ATOM     29  C   LIG d   1      10.330  -4.256  -3.663  0.00  0.00     0.003 A 
ATOM     30  C   LIG d   1      10.898  -5.505  -3.975  0.00  0.00     0.047 A 
ATOM     31  C   LIG d   1       9.673  -4.075  -2.445  0.00  0.00    -0.052 A 
ATOM     32  C   LIG d   1      10.795  -6.548  -3.061  0.00  0.00    -0.038 A 
ATOM     33  N   LIG d   1      11.472  -5.390  -5.221  0.00  0.00    -0.360 N 
ATOM     34  C   LIG d   1      10.141  -6.348  -1.865  0.00  0.00    -0.060 A 
ATOM     35  H   LIG d   1      11.227  -7.512  -3.287  0.00  0.00     0.064 H 
ATOM     36  C   LIG d   1       9.583  -5.113  -1.561  0.00  0.00    -0.061 A 
ATOM     37  H   LIG d   1      10.062  -7.159  -1.156  0.00  0.00     0.062 H 
ATOM     38  H   LIG d   1       9.070  -4.974  -0.621  0.00  0.00     0.062 H 
ATOM     39  C   LIG d   1      11.289  -4.122  -5.703  0.00  0.00     0.006 A 
ATOM     40  H   LIG d   1      11.937  -6.101  -5.688  0.00  0.00     0.165 HD
ATOM     41  H   LIG d   1      11.641  -3.766  -6.660  0.00  0.00     0.081 H 
ATOM     42  H   LIG d   1       9.236  -3.117  -2.202  0.00  0.00     0.062 H 
ENDBRANCH  25  28
ENDBRANCH   1  25
TORSDOF 2
ENDMDL
