MODEL 1
REMARK VINA RESULT:      -6.3      0.000      0.000
REMARK  4 active torsions:
REMARK  status: ('A' for Active; 'I' for Inactive)
REMARK    1  A    between atoms: C_1  and  O_2 
REMARK    2  A    between atoms: O_2  and  C_3 
REMARK    3  A    between atoms: C_6  and  C_9 
REMARK    4  A    between atoms: C_18  and  O_21 
ROOT
ATOM      1  C   LIG d   1       7.264   1.079  -3.560  0.00  0.00     0.091 C 
ATOM      2  H   LIG d   1       7.753   0.782  -2.633  0.00  0.00     0.065 H 
ATOM      3  C   LIG d   1       6.936  -0.162  -4.390  0.00  0.00     0.003 C 
ATOM      4  C   LIG d   1       5.819  -0.934  -3.734  0.00  0.00    -0.037 A 
ATOM      5  C   LIG d   1       5.605  -2.250  -4.113  0.00  0.00    -0.058 A 
ATOM      6  C   LIG d   1       4.590  -2.984  -3.534  0.00  0.00    -0.061 A 
ATOM      7  C   LIG d   1       3.783  -2.404  -2.573  0.00  0.00    -0.061 A 
ATOM      8  C   LIG d   1       3.995  -1.094  -2.195  0.00  0.00    -0.053 A 
ATOM      9  C   LIG d   1       5.016  -0.355  -2.774  0.00  0.00     0.011 A 
ATOM     10  C   LIG d   1       5.220   1.069  -2.330  0.00  0.00     0.184 C 
ATOM     11  H   LIG d   1       5.701   1.078  -1.352  0.00  0.00     0.096 H 
ATOM     12  O   LIG d   1       6.042   1.765  -3.267  0.00  0.00    -0.339 OA
ATOM     13  H   LIG d   1       6.627   0.141  -5.391  0.00  0.00     0.034 H 
ATOM     14  H   LIG d   1       7.820  -0.796  -4.461  0.00  0.00     0.034 H 
ATOM     15  H   LIG d   1       6.237  -2.703  -4.863  0.00  0.00     0.062 H 
ATOM     16  H   LIG d   1       4.427  -4.010  -3.830  0.00  0.00     0.062 H 
ATOM     17  H   LIG d   1       2.985  -2.976  -2.119  0.00  0.00     0.062 H 
ATOM     18  H   LIG d   1       3.363  -0.642  -1.445  0.00  0.00     0.062 H 
ENDROOT
BRANCH   1  19
ATOM     19  C   LIG d   1       8.177   1.987  -4.345  0.00  0.00    -0.018 A 
ATOM     20  C   LIG d   1       8.243   1.877  -5.722  0.00  0.00    -0.053 A 
ATOM     21  C   LIG d   1       9.083   2.703  -6.442  0.00  0.00    -0.020 A 
ATOM     22  H   LIG d   1       7.641   1.140  -6.233  0.00  0.00     0.062 H 
ATOM     23  C   LIG d   1       9.852   3.653  -5.786  0.00  0.00     0.120 A 
ATOM     24  H   LIG d   1       9.137   2.612  -7.517  0.00  0.00     0.065 H 
ATOM     25  C   LIG d   1       9.783   3.762  -4.404  0.00  0.00    -0.020 A 
ATOM     26  C   LIG d   1       8.946   2.928  -3.688  0.00  0.00    -0.053 A 
ATOM     27  H   LIG d   1      10.385   4.496  -3.889  0.00  0.00     0.065 H 
ATOM     28  H   LIG d   1       8.892   3.013  -2.612  0.00  0.00     0.062 H 
BRANCH  23  29
ATOM     29  O   LIG d   1      10.674   4.471  -6.494  0.00  0.00    -0.495 OA
BRANCH  29  30
ATOM     30  C   LIG d   1      10.054   5.427  -7.355  0.00  0.00     0.079 C 
ATOM     31  H   LIG d   1       9.181   5.851  -6.858  0.00  0.00     0.066 H 
ATOM     32  H   LIG d   1      10.764   6.223  -7.585  0.00  0.00     0.066 H 
ATOM     33  H   LIG d   1       9.745   4.938  -8.278  0.00  0.00     0.066 H 
ENDBRANCH  29  30
ENDBRANCH  23  29
ENDBRANCH   1  19
BRANCH  10  34
ATOM     34  O   LIG d   1       3.952   1.723  -2.240  0.00  0.00    -0.363 OA
ATOM     35  H   LIG d   1       3.718   2.007  -1.345  0.00  0.00     0.213 HD
ENDBRANCH  10  34
TORSDOF 4
ENDMDL
MODEL 2
REMARK VINA RESULT:      -6.2      4.997      6.859
REMARK  4 active torsions:
REMARK  status: ('A' for Active; 'I' for Inactive)
REMARK    1  A    between atoms: C_1  and  O_2 
REMARK    2  A    between atoms: O_2  and  C_3 
REMARK    3  A    between atoms: C_6  and  C_9 
REMARK    4  A    between atoms: C_18  and  O_21 
ROOT
ATOM      1  C   LIG d   1       3.980  -0.745  -6.603  0.00  0.00     0.091 C 
ATOM      2  H   LIG d   1       4.186  -1.762  -6.269  0.00  0.00     0.065 H 
ATOM      3  C   LIG d   1       3.050  -0.054  -5.605  0.00  0.00     0.003 C 
ATOM      4  C   LIG d   1       3.794   0.229  -4.325  0.00  0.00    -0.037 A 
ATOM      5  C   LIG d   1       3.068   0.521  -3.181  0.00  0.00    -0.058 A 
ATOM      6  C   LIG d   1       3.718   0.787  -1.993  0.00  0.00    -0.061 A 
ATOM      7  C   LIG d   1       5.099   0.763  -1.944  0.00  0.00    -0.061 A 
ATOM      8  C   LIG d   1       5.824   0.472  -3.082  0.00  0.00    -0.053 A 
ATOM      9  C   LIG d   1       5.173   0.202  -4.276  0.00  0.00     0.011 A 
ATOM     10  C   LIG d   1       5.998  -0.118  -5.494  0.00  0.00     0.184 C 
ATOM     11  H   LIG d   1       6.380  -1.135  -5.416  0.00  0.00     0.096 H 
ATOM     12  O   LIG d   1       5.203  -0.002  -6.674  0.00  0.00    -0.339 OA
ATOM     13  H   LIG d   1       2.693   0.884  -6.031  0.00  0.00     0.034 H 
ATOM     14  H   LIG d   1       2.199  -0.701  -5.393  0.00  0.00     0.034 H 
ATOM     15  H   LIG d   1       1.989   0.538  -3.220  0.00  0.00     0.062 H 
ATOM     16  H   LIG d   1       3.149   1.013  -1.104  0.00  0.00     0.062 H 
ATOM     17  H   LIG d   1       5.612   0.973  -1.016  0.00  0.00     0.062 H 
ATOM     18  H   LIG d   1       6.903   0.454  -3.043  0.00  0.00     0.062 H 
ENDROOT
BRANCH   1  19
ATOM     19  C   LIG d   1       3.330  -0.780  -7.962  0.00  0.00    -0.018 A 
ATOM     20  C   LIG d   1       2.761   0.367  -8.485  0.00  0.00    -0.053 A 
ATOM     21  C   LIG d   1       2.160   0.336  -9.727  0.00  0.00    -0.020 A 
ATOM     22  H   LIG d   1       2.784   1.287  -7.918  0.00  0.00     0.062 H 
ATOM     23  C   LIG d   1       2.137  -0.843 -10.458  0.00  0.00     0.120 A 
ATOM     24  H   LIG d   1       1.712   1.232 -10.133  0.00  0.00     0.065 H 
ATOM     25  C   LIG d   1       2.709  -1.992  -9.931  0.00  0.00    -0.020 A 
ATOM     26  C   LIG d   1       3.303  -1.958  -8.685  0.00  0.00    -0.053 A 
ATOM     27  H   LIG d   1       2.688  -2.914 -10.494  0.00  0.00     0.065 H 
ATOM     28  H   LIG d   1       3.749  -2.852  -8.274  0.00  0.00     0.062 H 
BRANCH  23  29
ATOM     29  O   LIG d   1       1.551  -0.874 -11.683  0.00  0.00    -0.495 OA
BRANCH  29  30
ATOM     30  C   LIG d   1       0.970  -2.114 -12.094  0.00  0.00     0.079 C 
ATOM     31  H   LIG d   1       1.675  -2.652 -12.727  0.00  0.00     0.066 H 
ATOM     32  H   LIG d   1       0.739  -2.715 -11.214  0.00  0.00     0.066 H 
ATOM     33  H   LIG d   1       0.055  -1.919 -12.651  0.00  0.00     0.066 H 
ENDBRANCH  29  30
ENDBRANCH  23  29
ENDBRANCH   1  19
BRANCH  10  34
ATOM     34  O   LIG d   1       7.095   0.795  -5.575  0.00  0.00    -0.363 OA
ATOM     35  H   LIG d   1       7.397   0.968  -6.478  0.00  0.00     0.213 HD
ENDBRANCH  10  34
TORSDOF 4
ENDMDL
MODEL 3
REMARK VINA RESULT:      -6.0      5.024      5.826
REMARK  4 active torsions:
REMARK  status: ('A' for Active; 'I' for Inactive)
REMARK    1  A    between atoms: C_1  and  O_2 
REMARK    2  A    between atoms: O_2  and  C_3 
REMARK    3  A    between atoms: C_6  and  C_9 
REMARK    4  A    between atoms: C_18  and  O_21 
ROOT
ATOM      1  C   LIG d   1       3.969   0.297  -6.892  0.00  0.00     0.091 C 
ATOM      2  H   LIG d   1       4.278   1.279  -6.533  0.00  0.00     0.065 H 
ATOM      3  C   LIG d   1       4.887  -0.777  -6.308  0.00  0.00     0.003 C 
ATOM      4  C   LIG d   1       4.616  -0.934  -4.833  0.00  0.00    -0.037 A 
ATOM      5  C   LIG d   1       5.555  -1.583  -4.047  0.00  0.00    -0.058 A 
ATOM      6  C   LIG d   1       5.336  -1.745  -2.694  0.00  0.00    -0.061 A 
ATOM      7  C   LIG d   1       4.176  -1.258  -2.120  0.00  0.00    -0.061 A 
ATOM      8  C   LIG d   1       3.241  -0.611  -2.902  0.00  0.00    -0.053 A 
ATOM      9  C   LIG d   1       3.459  -0.445  -4.262  0.00  0.00     0.011 A 
ATOM     10  C   LIG d   1       2.418   0.272  -5.080  0.00  0.00     0.184 C 
ATOM     11  H   LIG d   1       2.482   1.343  -4.888  0.00  0.00     0.096 H 
ATOM     12  O   LIG d   1       2.628   0.027  -6.470  0.00  0.00    -0.339 OA
ATOM     13  H   LIG d   1       4.702  -1.726  -6.812  0.00  0.00     0.034 H 
ATOM     14  H   LIG d   1       5.927  -0.486  -6.456  0.00  0.00     0.034 H 
ATOM     15  H   LIG d   1       6.461  -1.962  -4.496  0.00  0.00     0.062 H 
ATOM     16  H   LIG d   1       6.071  -2.250  -2.084  0.00  0.00     0.062 H 
ATOM     17  H   LIG d   1       4.001  -1.385  -1.062  0.00  0.00     0.062 H 
ATOM     18  H   LIG d   1       2.335  -0.232  -2.454  0.00  0.00     0.062 H 
ENDROOT
BRANCH   1  19
ATOM     19  C   LIG d   1       4.042   0.263  -8.397  0.00  0.00    -0.018 A 
ATOM     20  C   LIG d   1       4.360  -0.917  -9.046  0.00  0.00    -0.053 A 
ATOM     21  C   LIG d   1       4.433  -0.949 -10.425  0.00  0.00    -0.020 A 
ATOM     22  H   LIG d   1       4.555  -1.811  -8.474  0.00  0.00     0.062 H 
ATOM     23  C   LIG d   1       4.176   0.199 -11.160  0.00  0.00     0.120 A 
ATOM     24  H   LIG d   1       4.686  -1.869 -10.931  0.00  0.00     0.065 H 
ATOM     25  C   LIG d   1       3.857   1.381 -10.507  0.00  0.00    -0.020 A 
ATOM     26  C   LIG d   1       3.791   1.409  -9.127  0.00  0.00    -0.053 A 
ATOM     27  H   LIG d   1       3.662   2.278 -11.076  0.00  0.00     0.065 H 
ATOM     28  H   LIG d   1       3.543   2.329  -8.618  0.00  0.00     0.062 H 
BRANCH  23  29
ATOM     29  O   LIG d   1       4.241   0.167 -12.517  0.00  0.00    -0.495 OA
BRANCH  29  30
ATOM     30  C   LIG d   1       3.772  -1.019 -13.162  0.00  0.00     0.079 C 
ATOM     31  H   LIG d   1       2.738  -0.876 -13.475  0.00  0.00     0.066 H 
ATOM     32  H   LIG d   1       4.391  -1.226 -14.036  0.00  0.00     0.066 H 
ATOM     33  H   LIG d   1       3.831  -1.856 -12.468  0.00  0.00     0.066 H 
ENDBRANCH  29  30
ENDBRANCH  23  29
ENDBRANCH   1  19
BRANCH  10  34
ATOM     34  O   LIG d   1       1.120  -0.198  -4.710  0.00  0.00    -0.363 OA
ATOM     35  H   LIG d   1       0.565   0.471  -4.285  0.00  0.00     0.213 HD
ENDBRANCH  10  34
TORSDOF 4
ENDMDL
MODEL 4
REMARK VINA RESULT:      -6.0      4.069      7.649
REMARK  4 active torsions:
REMARK  status: ('A' for Active; 'I' for Inactive)
REMARK    1  A    between atoms: C_1  and  O_2 
REMARK    2  A    between atoms: O_2  and  C_3 
REMARK    3  A    between atoms: C_6  and  C_9 
REMARK    4  A    between atoms: C_18  and  O_21 
ROOT
ATOM      1  C   LIG d   1       5.469  -3.102  -5.074  0.00  0.00     0.091 C 
ATOM      2  H   LIG d   1       6.461  -3.263  -4.652  0.00  0.00     0.065 H 
ATOM      3  C   LIG d   1       4.472  -2.815  -3.951  0.00  0.00     0.003 C 
ATOM      4  C   LIG d   1       4.740  -1.451  -3.367  0.00  0.00    -0.037 A 
ATOM      5  C   LIG d   1       4.199  -1.137  -2.130  0.00  0.00    -0.058 A 
ATOM      6  C   LIG d   1       4.422   0.104  -1.568  0.00  0.00    -0.061 A 
ATOM      7  C   LIG d   1       5.188   1.037  -2.242  0.00  0.00    -0.061 A 
ATOM      8  C   LIG d   1       5.727   0.725  -3.474  0.00  0.00    -0.053 A 
ATOM      9  C   LIG d   1       5.506  -0.522  -4.039  0.00  0.00     0.011 A 
ATOM     10  C   LIG d   1       6.117  -0.826  -5.382  0.00  0.00     0.184 C 
ATOM     11  H   LIG d   1       7.183  -1.016  -5.259  0.00  0.00     0.096 H 
ATOM     12  O   LIG d   1       5.495  -1.975  -5.957  0.00  0.00    -0.339 OA
ATOM     13  H   LIG d   1       3.458  -2.846  -4.349  0.00  0.00     0.034 H 
ATOM     14  H   LIG d   1       4.577  -3.569  -3.171  0.00  0.00     0.034 H 
ATOM     15  H   LIG d   1       3.602  -1.867  -1.604  0.00  0.00     0.062 H 
ATOM     16  H   LIG d   1       4.000   0.344  -0.604  0.00  0.00     0.062 H 
ATOM     17  H   LIG d   1       5.363   2.010  -1.806  0.00  0.00     0.062 H 
ATOM     18  H   LIG d   1       6.324   1.455  -4.000  0.00  0.00     0.062 H 
ENDROOT
BRANCH   1  19
ATOM     19  C   LIG d   1       5.038  -4.330  -5.834  0.00  0.00    -0.018 A 
ATOM     20  C   LIG d   1       4.270  -4.201  -6.977  0.00  0.00    -0.053 A 
ATOM     21  C   LIG d   1       3.869  -5.325  -7.671  0.00  0.00    -0.020 A 
ATOM     22  H   LIG d   1       3.981  -3.219  -7.323  0.00  0.00     0.062 H 
ATOM     23  C   LIG d   1       4.246  -6.584  -7.230  0.00  0.00     0.120 A 
ATOM     24  H   LIG d   1       3.265  -5.223  -8.561  0.00  0.00     0.065 H 
ATOM     25  C   LIG d   1       5.017  -6.712  -6.083  0.00  0.00    -0.020 A 
ATOM     26  C   LIG d   1       5.410  -5.584  -5.388  0.00  0.00    -0.053 A 
ATOM     27  H   LIG d   1       5.308  -7.691  -5.733  0.00  0.00     0.065 H 
ATOM     28  H   LIG d   1       6.011  -5.683  -4.495  0.00  0.00     0.062 H 
BRANCH  23  29
ATOM     29  O   LIG d   1       3.857  -7.691  -7.915  0.00  0.00    -0.495 OA
BRANCH  29  30
ATOM     30  C   LIG d   1       3.405  -7.498  -9.257  0.00  0.00     0.079 C 
ATOM     31  H   LIG d   1       2.558  -6.812  -9.259  0.00  0.00     0.066 H 
ATOM     32  H   LIG d   1       4.214  -7.078  -9.856  0.00  0.00     0.066 H 
ATOM     33  H   LIG d   1       3.100  -8.455  -9.679  0.00  0.00     0.066 H 
ENDBRANCH  29  30
ENDBRANCH  23  29
ENDBRANCH   1  19
BRANCH  10  34
ATOM     34  O   LIG d   1       5.932   0.293  -6.250  0.00  0.00    -0.363 OA
ATOM     35  H   LIG d   1       5.190   0.197  -6.865  0.00  0.00     0.213 HD
ENDBRANCH  10  34
TORSDOF 4
ENDMDL
MODEL 5
REMARK VINA RESULT:      -6.0      1.657      2.420
REMARK  4 active torsions:
REMARK  status: ('A' for Active; 'I' for Inactive)
REMARK    1  A    between atoms: C_1  and  O_2 
REMARK    2  A    between atoms: O_2  and  C_3 
REMARK    3  A    between atoms: C_6  and  C_9 
REMARK    4  A    between atoms: C_18  and  O_21 
ROOT
ATOM      1  C   LIG d   1       7.520   1.015  -4.470  0.00  0.00     0.091 C 
ATOM      2  H   LIG d   1       7.040   0.853  -5.435  0.00  0.00     0.065 H 
ATOM      3  C   LIG d   1       6.464   1.379  -3.425  0.00  0.00     0.003 C 
ATOM      4  C   LIG d   1       5.622   0.170  -3.107  0.00  0.00    -0.037 A 
ATOM      5  C   LIG d   1       4.407   0.353  -2.466  0.00  0.00    -0.058 A 
ATOM      6  C   LIG d   1       3.613  -0.734  -2.158  0.00  0.00    -0.061 A 
ATOM      7  C   LIG d   1       4.032  -2.009  -2.489  0.00  0.00    -0.061 A 
ATOM      8  C   LIG d   1       5.242  -2.192  -3.127  0.00  0.00    -0.053 A 
ATOM      9  C   LIG d   1       6.040  -1.102  -3.440  0.00  0.00     0.011 A 
ATOM     10  C   LIG d   1       7.351  -1.342  -4.142  0.00  0.00     0.184 C 
ATOM     11  H   LIG d   1       7.162  -1.568  -5.191  0.00  0.00     0.096 H 
ATOM     12  O   LIG d   1       8.180  -0.184  -4.049  0.00  0.00    -0.339 OA
ATOM     13  H   LIG d   1       6.957   1.726  -2.517  0.00  0.00     0.034 H 
ATOM     14  H   LIG d   1       5.826   2.172  -3.815  0.00  0.00     0.034 H 
ATOM     15  H   LIG d   1       4.080   1.349  -2.209  0.00  0.00     0.062 H 
ATOM     16  H   LIG d   1       2.666  -0.587  -1.661  0.00  0.00     0.062 H 
ATOM     17  H   LIG d   1       3.414  -2.862  -2.247  0.00  0.00     0.062 H 
ATOM     18  H   LIG d   1       5.569  -3.188  -3.384  0.00  0.00     0.062 H 
ENDROOT
BRANCH   1  19
ATOM     19  C   LIG d   1       8.525   2.132  -4.586  0.00  0.00    -0.018 A 
ATOM     20  C   LIG d   1       8.803   2.685  -5.823  0.00  0.00    -0.053 A 
ATOM     21  C   LIG d   1       9.728   3.704  -5.932  0.00  0.00    -0.020 A 
ATOM     22  H   LIG d   1       8.301   2.315  -6.704  0.00  0.00     0.062 H 
ATOM     23  C   LIG d   1      10.369   4.184  -4.799  0.00  0.00     0.120 A 
ATOM     24  H   LIG d   1       9.949   4.132  -6.899  0.00  0.00     0.065 H 
ATOM     25  C   LIG d   1      10.087   3.628  -3.559  0.00  0.00    -0.020 A 
ATOM     26  C   LIG d   1       9.166   2.604  -3.456  0.00  0.00    -0.053 A 
ATOM     27  H   LIG d   1      10.589   3.995  -2.675  0.00  0.00     0.065 H 
ATOM     28  H   LIG d   1       8.946   2.171  -2.491  0.00  0.00     0.062 H 
BRANCH  23  29
ATOM     29  O   LIG d   1      11.275   5.191  -4.904  0.00  0.00    -0.495 OA
BRANCH  29  30
ATOM     30  C   LIG d   1      11.167   6.262  -3.963  0.00  0.00     0.079 C 
ATOM     31  H   LIG d   1      11.967   6.181  -3.228  0.00  0.00     0.066 H 
ATOM     32  H   LIG d   1      11.248   7.215  -4.487  0.00  0.00     0.066 H 
ATOM     33  H   LIG d   1      10.202   6.206  -3.459  0.00  0.00     0.066 H 
ENDBRANCH  29  30
ENDBRANCH  23  29
ENDBRANCH   1  19
BRANCH  10  34
ATOM     34  O   LIG d   1       8.018  -2.449  -3.531  0.00  0.00    -0.363 OA
ATOM     35  H   LIG d   1       8.888  -2.231  -3.167  0.00  0.00     0.213 HD
ENDBRANCH  10  34
TORSDOF 4
ENDMDL
MODEL 6
REMARK VINA RESULT:      -5.8      3.686      6.138
REMARK  4 active torsions:
REMARK  status: ('A' for Active; 'I' for Inactive)
REMARK    1  A    between atoms: C_1  and  O_2 
REMARK    2  A    between atoms: O_2  and  C_3 
REMARK    3  A    between atoms: C_6  and  C_9 
REMARK    4  A    between atoms: C_18  and  O_21 
ROOT
ATOM      1  C   LIG d   1       7.220  -2.105  -3.472  0.00  0.00     0.091 C 
ATOM      2  H   LIG d   1       7.568  -1.979  -2.447  0.00  0.00     0.065 H 
ATOM      3  C   LIG d   1       5.702  -2.296  -3.481  0.00  0.00     0.003 C 
ATOM      4  C   LIG d   1       5.023  -0.998  -3.124  0.00  0.00    -0.037 A 
ATOM      5  C   LIG d   1       3.694  -1.027  -2.732  0.00  0.00    -0.058 A 
ATOM      6  C   LIG d   1       3.041   0.143  -2.401  0.00  0.00    -0.061 A 
ATOM      7  C   LIG d   1       3.715   1.349  -2.461  0.00  0.00    -0.061 A 
ATOM      8  C   LIG d   1       5.039   1.378  -2.851  0.00  0.00    -0.053 A 
ATOM      9  C   LIG d   1       5.698   0.203  -3.182  0.00  0.00     0.011 A 
ATOM     10  C   LIG d   1       7.144   0.276  -3.596  0.00  0.00     0.184 C 
ATOM     11  H   LIG d   1       7.765   0.434  -2.714  0.00  0.00     0.096 H 
ATOM     12  O   LIG d   1       7.535  -0.937  -4.238  0.00  0.00    -0.339 OA
ATOM     13  H   LIG d   1       5.382  -2.611  -4.474  0.00  0.00     0.034 H 
ATOM     14  H   LIG d   1       5.428  -3.060  -2.753  0.00  0.00     0.034 H 
ATOM     15  H   LIG d   1       3.168  -1.969  -2.685  0.00  0.00     0.062 H 
ATOM     16  H   LIG d   1       2.006   0.117  -2.095  0.00  0.00     0.062 H 
ATOM     17  H   LIG d   1       3.207   2.267  -2.205  0.00  0.00     0.062 H 
ATOM     18  H   LIG d   1       5.565   2.320  -2.899  0.00  0.00     0.062 H 
ENDROOT
BRANCH   1  19
ATOM     19  C   LIG d   1       7.885  -3.309  -4.089  0.00  0.00    -0.018 A 
ATOM     20  C   LIG d   1       7.207  -4.069  -5.024  0.00  0.00    -0.053 A 
ATOM     21  C   LIG d   1       7.813  -5.176  -5.586  0.00  0.00    -0.020 A 
ATOM     22  H   LIG d   1       6.201  -3.800  -5.311  0.00  0.00     0.062 H 
ATOM     23  C   LIG d   1       9.107  -5.518  -5.222  0.00  0.00     0.120 A 
ATOM     24  H   LIG d   1       7.281  -5.772  -6.313  0.00  0.00     0.065 H 
ATOM     25  C   LIG d   1       9.785  -4.753  -4.284  0.00  0.00    -0.020 A 
ATOM     26  C   LIG d   1       9.172  -3.651  -3.719  0.00  0.00    -0.053 A 
ATOM     27  H   LIG d   1      10.791  -5.020  -3.993  0.00  0.00     0.065 H 
ATOM     28  H   LIG d   1       9.700  -3.055  -2.989  0.00  0.00     0.062 H 
BRANCH  23  29
ATOM     29  O   LIG d   1       9.707  -6.603  -5.778  0.00  0.00    -0.495 OA
BRANCH  29  30
ATOM     30  C   LIG d   1      10.700  -7.268  -4.995  0.00  0.00     0.079 C 
ATOM     31  H   LIG d   1      10.645  -8.342  -5.175  0.00  0.00     0.066 H 
ATOM     32  H   LIG d   1      11.688  -6.902  -5.275  0.00  0.00     0.066 H 
ATOM     33  H   LIG d   1      10.524  -7.066  -3.938  0.00  0.00     0.066 H 
ENDBRANCH  29  30
ENDBRANCH  23  29
ENDBRANCH   1  19
BRANCH  10  34
ATOM     34  O   LIG d   1       7.322   1.367  -4.503  0.00  0.00    -0.363 OA
ATOM     35  H   LIG d   1       7.927   2.050  -4.183  0.00  0.00     0.213 HD
ENDBRANCH  10  34
TORSDOF 4
ENDMDL
MODEL 7
REMARK VINA RESULT:      -5.8      4.620      6.571
REMARK  4 active torsions:
REMARK  status: ('A' for Active; 'I' for Inactive)
REMARK    1  A    between atoms: C_1  and  O_2 
REMARK    2  A    between atoms: O_2  and  C_3 
REMARK    3  A    between atoms: C_6  and  C_9 
REMARK    4  A    between atoms: C_18  and  O_21 
ROOT
ATOM      1  C   LIG d   1       6.607  -2.079  -4.455  0.00  0.00     0.091 C 
ATOM      2  H   LIG d   1       7.220  -1.270  -4.853  0.00  0.00     0.065 H 
ATOM      3  C   LIG d   1       6.146  -1.726  -3.040  0.00  0.00     0.003 C 
ATOM      4  C   LIG d   1       5.126  -0.618  -3.096  0.00  0.00    -0.037 A 
ATOM      5  C   LIG d   1       4.843   0.088  -1.937  0.00  0.00    -0.058 A 
ATOM      6  C   LIG d   1       3.912   1.107  -1.954  0.00  0.00    -0.061 A 
ATOM      7  C   LIG d   1       3.259   1.425  -3.130  0.00  0.00    -0.061 A 
ATOM      8  C   LIG d   1       3.541   0.723  -4.285  0.00  0.00    -0.053 A 
ATOM      9  C   LIG d   1       4.477  -0.300  -4.271  0.00  0.00     0.011 A 
ATOM     10  C   LIG d   1       4.761  -1.038  -5.553  0.00  0.00     0.184 C 
ATOM     11  H   LIG d   1       5.378  -0.415  -6.200  0.00  0.00     0.096 H 
ATOM     12  O   LIG d   1       5.448  -2.259  -5.277  0.00  0.00    -0.339 OA
ATOM     13  H   LIG d   1       5.700  -2.606  -2.574  0.00  0.00     0.034 H 
ATOM     14  H   LIG d   1       7.003  -1.400  -2.450  0.00  0.00     0.034 H 
ATOM     15  H   LIG d   1       5.354  -0.160  -1.019  0.00  0.00     0.062 H 
ATOM     16  H   LIG d   1       3.695   1.656  -1.049  0.00  0.00     0.062 H 
ATOM     17  H   LIG d   1       2.528   2.220  -3.146  0.00  0.00     0.062 H 
ATOM     18  H   LIG d   1       3.030   0.971  -5.203  0.00  0.00     0.062 H 
ENDROOT
BRANCH   1  19
ATOM     19  C   LIG d   1       7.409  -3.354  -4.424  0.00  0.00    -0.018 A 
ATOM     20  C   LIG d   1       8.507  -3.459  -3.590  0.00  0.00    -0.053 A 
ATOM     21  C   LIG d   1       9.247  -4.625  -3.565  0.00  0.00    -0.020 A 
ATOM     22  H   LIG d   1       8.789  -2.627  -2.962  0.00  0.00     0.062 H 
ATOM     23  C   LIG d   1       8.881  -5.697  -4.366  0.00  0.00     0.120 A 
ATOM     24  H   LIG d   1      10.107  -4.704  -2.917  0.00  0.00     0.065 H 
ATOM     25  C   LIG d   1       7.778  -5.589  -5.201  0.00  0.00    -0.020 A 
ATOM     26  C   LIG d   1       7.045  -4.418  -5.228  0.00  0.00    -0.053 A 
ATOM     27  H   LIG d   1       7.493  -6.419  -5.831  0.00  0.00     0.065 H 
ATOM     28  H   LIG d   1       6.186  -4.334  -5.878  0.00  0.00     0.062 H 
BRANCH  23  29
ATOM     29  O   LIG d   1       9.604  -6.847  -4.338  0.00  0.00    -0.495 OA
BRANCH  29  30
ATOM     30  C   LIG d   1       9.718  -7.511  -3.077  0.00  0.00     0.079 C 
ATOM     31  H   LIG d   1       8.760  -7.470  -2.558  0.00  0.00     0.066 H 
ATOM     32  H   LIG d   1      10.000  -8.551  -3.240  0.00  0.00     0.066 H 
ATOM     33  H   LIG d   1      10.479  -7.017  -2.475  0.00  0.00     0.066 H 
ENDBRANCH  29  30
ENDBRANCH  23  29
ENDBRANCH   1  19
BRANCH  10  34
ATOM     34  O   LIG d   1       3.528  -1.331  -6.213  0.00  0.00    -0.363 OA
ATOM     35  H   LIG d   1       3.630  -1.591  -7.140  0.00  0.00     0.213 HD
ENDBRANCH  10  34
TORSDOF 4
ENDMDL
MODEL 8
REMARK VINA RESULT:      -5.6      4.504      5.750
REMARK  4 active torsions:
REMARK  status: ('A' for Active; 'I' for Inactive)
REMARK    1  A    between atoms: C_1  and  O_2 
REMARK    2  A    between atoms: O_2  and  C_3 
REMARK    3  A    between atoms: C_6  and  C_9 
REMARK    4  A    between atoms: C_18  and  O_21 
ROOT
ATOM      1  C   LIG d   1       7.322  -2.108  -4.297  0.00  0.00     0.091 C 
ATOM      2  H   LIG d   1       7.339  -1.433  -5.152  0.00  0.00     0.065 H 
ATOM      3  C   LIG d   1       6.967  -1.327  -3.031  0.00  0.00     0.003 C 
ATOM      4  C   LIG d   1       5.518  -0.913  -3.076  0.00  0.00    -0.037 A 
ATOM      5  C   LIG d   1       5.083   0.086  -2.219  0.00  0.00    -0.058 A 
ATOM      6  C   LIG d   1       3.762   0.487  -2.233  0.00  0.00    -0.061 A 
ATOM      7  C   LIG d   1       2.870  -0.111  -3.104  0.00  0.00    -0.061 A 
ATOM      8  C   LIG d   1       3.302  -1.106  -3.957  0.00  0.00    -0.053 A 
ATOM      9  C   LIG d   1       4.629  -1.509  -3.946  0.00  0.00     0.011 A 
ATOM     10  C   LIG d   1       5.064  -2.593  -4.897  0.00  0.00     0.184 C 
ATOM     11  H   LIG d   1       5.146  -2.181  -5.903  0.00  0.00     0.096 H 
ATOM     12  O   LIG d   1       6.329  -3.121  -4.499  0.00  0.00    -0.339 OA
ATOM     13  H   LIG d   1       7.137  -1.956  -2.156  0.00  0.00     0.034 H 
ATOM     14  H   LIG d   1       7.595  -0.439  -2.964  0.00  0.00     0.034 H 
ATOM     15  H   LIG d   1       5.780   0.553  -1.541  0.00  0.00     0.062 H 
ATOM     16  H   LIG d   1       3.427   1.267  -1.566  0.00  0.00     0.062 H 
ATOM     17  H   LIG d   1       1.835   0.199  -3.115  0.00  0.00     0.062 H 
ATOM     18  H   LIG d   1       2.605  -1.573  -4.636  0.00  0.00     0.062 H 
ENDROOT
BRANCH   1  19
ATOM     19  C   LIG d   1       8.675  -2.752  -4.133  0.00  0.00    -0.018 A 
ATOM     20  C   LIG d   1       9.706  -2.421  -4.993  0.00  0.00    -0.053 A 
ATOM     21  C   LIG d   1      10.944  -3.013  -4.848  0.00  0.00    -0.020 A 
ATOM     22  H   LIG d   1       9.540  -1.701  -5.782  0.00  0.00     0.062 H 
ATOM     23  C   LIG d   1      11.159  -3.932  -3.831  0.00  0.00     0.120 A 
ATOM     24  H   LIG d   1      11.748  -2.758  -5.524  0.00  0.00     0.065 H 
ATOM     25  C   LIG d   1      10.123  -4.263  -2.969  0.00  0.00    -0.020 A 
ATOM     26  C   LIG d   1       8.884  -3.672  -3.122  0.00  0.00    -0.053 A 
ATOM     27  H   LIG d   1      10.285  -4.982  -2.180  0.00  0.00     0.065 H 
ATOM     28  H   LIG d   1       8.077  -3.928  -2.451  0.00  0.00     0.062 H 
BRANCH  23  29
ATOM     29  O   LIG d   1      12.379  -4.512  -3.684  0.00  0.00    -0.495 OA
BRANCH  29  30
ATOM     30  C   LIG d   1      12.423  -5.941  -3.681  0.00  0.00     0.079 C 
ATOM     31  H   LIG d   1      11.411  -6.334  -3.577  0.00  0.00     0.066 H 
ATOM     32  H   LIG d   1      12.855  -6.292  -4.619  0.00  0.00     0.066 H 
ATOM     33  H   LIG d   1      13.035  -6.284  -2.848  0.00  0.00     0.066 H 
ENDBRANCH  29  30
ENDBRANCH  23  29
ENDBRANCH   1  19
BRANCH  10  34
ATOM     34  O   LIG d   1       4.094  -3.643  -4.892  0.00  0.00    -0.363 OA
ATOM     35  H   LIG d   1       3.199  -3.352  -5.115  0.00  0.00     0.213 HD
ENDBRANCH  10  34
TORSDOF 4
ENDMDL
MODEL 9
REMARK VINA RESULT:      -5.5      5.340      7.456
REMARK  4 active torsions:
REMARK  status: ('A' for Active; 'I' for Inactive)
REMARK    1  A    between atoms: C_1  and  O_2 
REMARK    2  A    between atoms: O_2  and  C_3 
REMARK    3  A    between atoms: C_6  and  C_9 
REMARK    4  A    between atoms: C_18  and  O_21 
ROOT
ATOM      1  C   LIG d   1       3.168   0.029  -7.617  0.00  0.00     0.091 C 
ATOM      2  H   LIG d   1       2.151   0.380  -7.788  0.00  0.00     0.065 H 
ATOM      3  C   LIG d   1       3.360  -1.336  -8.279  0.00  0.00     0.003 C 
ATOM      4  C   LIG d   1       3.379  -1.178  -9.779  0.00  0.00    -0.037 A 
ATOM      5  C   LIG d   1       3.189  -2.300 -10.570  0.00  0.00    -0.058 A 
ATOM      6  C   LIG d   1       3.202  -2.191 -11.946  0.00  0.00    -0.061 A 
ATOM      7  C   LIG d   1       3.408  -0.958 -12.537  0.00  0.00    -0.061 A 
ATOM      8  C   LIG d   1       3.597   0.160 -11.750  0.00  0.00    -0.053 A 
ATOM      9  C   LIG d   1       3.581   0.053 -10.367  0.00  0.00     0.011 A 
ATOM     10  C   LIG d   1       3.785   1.296  -9.542  0.00  0.00     0.184 C 
ATOM     11  H   LIG d   1       2.873   1.893  -9.556  0.00  0.00     0.096 H 
ATOM     12  O   LIG d   1       4.102   0.949  -8.195  0.00  0.00    -0.339 OA
ATOM     13  H   LIG d   1       4.304  -1.770  -7.949  0.00  0.00     0.034 H 
ATOM     14  H   LIG d   1       2.540  -1.996  -7.995  0.00  0.00     0.034 H 
ATOM     15  H   LIG d   1       3.027  -3.262 -10.108  0.00  0.00     0.062 H 
ATOM     16  H   LIG d   1       3.052  -3.067 -12.560  0.00  0.00     0.062 H 
ATOM     17  H   LIG d   1       3.421  -0.869 -13.614  0.00  0.00     0.062 H 
ATOM     18  H   LIG d   1       3.758   1.122 -12.212  0.00  0.00     0.062 H 
ENDROOT
BRANCH   1  19
ATOM     19  C   LIG d   1       3.422  -0.086  -6.136  0.00  0.00    -0.018 A 
ATOM     20  C   LIG d   1       2.515   0.447  -5.237  0.00  0.00    -0.053 A 
ATOM     21  C   LIG d   1       2.748   0.348  -3.880  0.00  0.00    -0.020 A 
ATOM     22  H   LIG d   1       1.628   0.945  -5.598  0.00  0.00     0.062 H 
ATOM     23  C   LIG d   1       3.885  -0.298  -3.416  0.00  0.00     0.120 A 
ATOM     24  H   LIG d   1       2.043   0.769  -3.179  0.00  0.00     0.065 H 
ATOM     25  C   LIG d   1       4.793  -0.833  -4.320  0.00  0.00    -0.020 A 
ATOM     26  C   LIG d   1       4.558  -0.725  -5.677  0.00  0.00    -0.053 A 
ATOM     27  H   LIG d   1       5.682  -1.331  -3.963  0.00  0.00     0.065 H 
ATOM     28  H   LIG d   1       5.264  -1.141  -6.382  0.00  0.00     0.062 H 
BRANCH  23  29
ATOM     29  O   LIG d   1       4.113  -0.402  -2.081  0.00  0.00    -0.495 OA
BRANCH  29  30
ATOM     30  C   LIG d   1       4.666   0.742  -1.426  0.00  0.00     0.079 C 
ATOM     31  H   LIG d   1       5.513   1.116  -2.002  0.00  0.00     0.066 H 
ATOM     32  H   LIG d   1       3.905   1.520  -1.351  0.00  0.00     0.066 H 
ATOM     33  H   LIG d   1       4.999   0.463  -0.427  0.00  0.00     0.066 H 
ENDBRANCH  29  30
ENDBRANCH  23  29
ENDBRANCH   1  19
BRANCH  10  34
ATOM     34  O   LIG d   1       4.859   2.060 -10.096  0.00  0.00    -0.363 OA
ATOM     35  H   LIG d   1       4.663   2.444 -10.962  0.00  0.00     0.213 HD
ENDBRANCH  10  34
TORSDOF 4
ENDMDL
MODEL 10
REMARK VINA RESULT:      -5.5      5.670      7.625
REMARK  4 active torsions:
REMARK  status: ('A' for Active; 'I' for Inactive)
REMARK    1  A    between atoms: C_1  and  O_2 
REMARK    2  A    between atoms: O_2  and  C_3 
REMARK    3  A    between atoms: C_6  and  C_9 
REMARK    4  A    between atoms: C_18  and  O_21 
ROOT
ATOM      1  C   LIG d   1       3.681  -0.756  -7.760  0.00  0.00     0.091 C 
ATOM      2  H   LIG d   1       4.488  -0.240  -8.279  0.00  0.00     0.065 H 
ATOM      3  C   LIG d   1       2.349  -0.449  -8.444  0.00  0.00     0.003 C 
ATOM      4  C   LIG d   1       2.292  -1.140  -9.783  0.00  0.00    -0.037 A 
ATOM      5  C   LIG d   1       1.348  -0.723 -10.709  0.00  0.00    -0.058 A 
ATOM      6  C   LIG d   1       1.268  -1.336 -11.943  0.00  0.00    -0.061 A 
ATOM      7  C   LIG d   1       2.130  -2.371 -12.256  0.00  0.00    -0.061 A 
ATOM      8  C   LIG d   1       3.070  -2.786 -11.335  0.00  0.00    -0.053 A 
ATOM      9  C   LIG d   1       3.154  -2.170 -10.095  0.00  0.00     0.011 A 
ATOM     10  C   LIG d   1       4.197  -2.647  -9.119  0.00  0.00     0.184 C 
ATOM     11  H   LIG d   1       5.176  -2.277  -9.425  0.00  0.00     0.096 H 
ATOM     12  O   LIG d   1       3.901  -2.170  -7.807  0.00  0.00    -0.339 OA
ATOM     13  H   LIG d   1       1.529  -0.803  -7.819  0.00  0.00     0.034 H 
ATOM     14  H   LIG d   1       2.254   0.628  -8.589  0.00  0.00     0.034 H 
ATOM     15  H   LIG d   1       0.676   0.085 -10.465  0.00  0.00     0.062 H 
ATOM     16  H   LIG d   1       0.533  -1.008 -12.663  0.00  0.00     0.062 H 
ATOM     17  H   LIG d   1       2.068  -2.854 -13.221  0.00  0.00     0.062 H 
ATOM     18  H   LIG d   1       3.742  -3.594 -11.580  0.00  0.00     0.062 H 
ENDROOT
BRANCH   1  19
ATOM     19  C   LIG d   1       3.631  -0.300  -6.324  0.00  0.00    -0.018 A 
ATOM     20  C   LIG d   1       2.538   0.413  -5.864  0.00  0.00    -0.053 A 
ATOM     21  C   LIG d   1       2.492   0.837  -4.551  0.00  0.00    -0.020 A 
ATOM     22  H   LIG d   1       1.723   0.642  -6.535  0.00  0.00     0.062 H 
ATOM     23  C   LIG d   1       3.536   0.537  -3.688  0.00  0.00     0.120 A 
ATOM     24  H   LIG d   1       1.640   1.398  -4.194  0.00  0.00     0.065 H 
ATOM     25  C   LIG d   1       4.631  -0.179  -4.152  0.00  0.00    -0.020 A 
ATOM     26  C   LIG d   1       4.675  -0.595  -5.468  0.00  0.00    -0.053 A 
ATOM     27  H   LIG d   1       5.448  -0.409  -3.484  0.00  0.00     0.065 H 
ATOM     28  H   LIG d   1       5.527  -1.152  -5.830  0.00  0.00     0.062 H 
BRANCH  23  29
ATOM     29  O   LIG d   1       3.489   0.948  -2.394  0.00  0.00    -0.495 OA
BRANCH  29  30
ATOM     30  C   LIG d   1       4.681   0.790  -1.620  0.00  0.00     0.079 C 
ATOM     31  H   LIG d   1       4.892  -0.271  -1.491  0.00  0.00     0.066 H 
ATOM     32  H   LIG d   1       5.514   1.267  -2.136  0.00  0.00     0.066 H 
ATOM     33  H   LIG d   1       4.544   1.256  -0.644  0.00  0.00     0.066 H 
ENDBRANCH  29  30
ENDBRANCH  23  29
ENDBRANCH   1  19
BRANCH  10  34
ATOM     34  O   LIG d   1       4.214  -4.077  -9.107  0.00  0.00    -0.363 OA
ATOM     35  H   LIG d   1       4.074  -4.479  -9.975  0.00  0.00     0.213 HD
ENDBRANCH  10  34
TORSDOF 4
ENDMDL
