MODEL 1
REMARK VINA RESULT:      -6.8      0.000      0.000
REMARK  4 active torsions:
REMARK  status: ('A' for Active; 'I' for Inactive)
REMARK    1  A    between atoms: C_7  and  N_21 
REMARK    2  A    between atoms: C_9  and  N_11 
REMARK    3  A    between atoms: N_11  and  C_12 
REMARK    4  A    between atoms: C_15  and  C_18 
ROOT
ATOM      1  C   LIG d   1       4.293  -1.076  -2.018  0.00  0.00    -0.061 A 
ATOM      2  C   LIG d   1       4.072   0.295  -1.937  0.00  0.00    -0.056 A 
ATOM      3  C   LIG d   1       4.927   1.180  -2.523  0.00  0.00     0.011 A 
ATOM      4  C   LIG d   1       6.047   0.704  -3.218  0.00  0.00     0.219 A 
ATOM      5  C   LIG d   1       6.270  -0.693  -3.300  0.00  0.00     0.086 A 
ATOM      6  C   LIG d   1       5.372  -1.574  -2.688  0.00  0.00    -0.045 A 
ATOM      7  C   LIG d   1       7.408  -1.151  -4.008  0.00  0.00     0.138 A 
ATOM      8  N   LIG d   1       8.209  -0.252  -4.559  0.00  0.00    -0.156 NA
ATOM      9  C   LIG d   1       7.962   1.051  -4.458  0.00  0.00     0.379 A 
ATOM     10  N   LIG d   1       6.918   1.533  -3.812  0.00  0.00    -0.174 N 
ATOM     11  H   LIG d   1       3.602  -1.757  -1.541  0.00  0.00     0.062 H 
ATOM     12  H   LIG d   1       3.209   0.664  -1.401  0.00  0.00     0.062 H 
ATOM     13  H   LIG d   1       4.743   2.242  -2.451  0.00  0.00     0.068 H 
ATOM     14  H   LIG d   1       5.533  -2.640  -2.743  0.00  0.00     0.063 H 
ATOM     15  H   LIG d   1       6.780   2.491  -3.765  0.00  0.00     0.457 HD
ENDROOT
BRANCH   9  16
ATOM     16  N   LIG d   1       8.839   1.941  -5.057  0.00  0.00    -0.244 N 
ATOM     17  H   LIG d   1       9.138   1.789  -5.968  0.00  0.00     0.159 HD
BRANCH  16  18
ATOM     18  C   LIG d   1       9.289   3.054  -4.354  0.00  0.00     0.037 A 
ATOM     19  C   LIG d   1       9.106   4.330  -4.880  0.00  0.00    -0.040 A 
ATOM     20  C   LIG d   1       9.543   5.425  -4.191  0.00  0.00    -0.051 A 
ATOM     21  H   LIG d   1       8.614   4.454  -5.834  0.00  0.00     0.064 H 
ATOM     22  C   LIG d   1      10.184   5.262  -2.957  0.00  0.00    -0.003 A 
ATOM     23  H   LIG d   1       9.396   6.414  -4.598  0.00  0.00     0.062 H 
ATOM     24  C   LIG d   1      10.371   3.977  -2.433  0.00  0.00    -0.051 A 
ATOM     25  C   LIG d   1       9.926   2.888  -3.127  0.00  0.00    -0.040 A 
ATOM     26  H   LIG d   1      10.865   3.849  -1.482  0.00  0.00     0.062 H 
ATOM     27  H   LIG d   1      10.070   1.896  -2.723  0.00  0.00     0.064 H 
BRANCH  22  28
ATOM     28  C   LIG d   1      10.661   6.439  -2.213  0.00  0.00     0.072 C 
ATOM     29  O   LIG d   1      11.586   7.107  -2.653  0.00  0.00    -0.545 OA
ATOM     30  O   LIG d   1      10.131   6.750  -1.154  0.00  0.00    -0.545 OA
ENDBRANCH  22  28
ENDBRANCH  16  18
ENDBRANCH   9  16
BRANCH   7  31
ATOM     31  N   LIG d   1       7.675  -2.498  -4.119  0.00  0.00    -0.342 N 
ATOM     32  H   LIG d   1       7.349  -3.115  -3.446  0.00  0.00     0.144 HD
ATOM     33  H   LIG d   1       8.190  -2.830  -4.872  0.00  0.00     0.144 HD
ENDBRANCH   7  31
TORSDOF 4
ENDMDL
MODEL 2
REMARK VINA RESULT:      -6.7      7.313      8.774
REMARK  4 active torsions:
REMARK  status: ('A' for Active; 'I' for Inactive)
REMARK    1  A    between atoms: C_7  and  N_21 
REMARK    2  A    between atoms: C_9  and  N_11 
REMARK    3  A    between atoms: N_11  and  C_12 
REMARK    4  A    between atoms: C_15  and  C_18 
ROOT
ATOM      1  C   LIG d   1       4.658  -1.788  -2.483  0.00  0.00    -0.061 A 
ATOM      2  C   LIG d   1       3.319  -1.413  -2.418  0.00  0.00    -0.056 A 
ATOM      3  C   LIG d   1       2.724  -0.751  -3.451  0.00  0.00     0.011 A 
ATOM      4  C   LIG d   1       3.470  -0.441  -4.596  0.00  0.00     0.219 A 
ATOM      5  C   LIG d   1       4.832  -0.823  -4.660  0.00  0.00     0.086 A 
ATOM      6  C   LIG d   1       5.413  -1.503  -3.583  0.00  0.00    -0.045 A 
ATOM      7  C   LIG d   1       5.567  -0.500  -5.828  0.00  0.00     0.138 A 
ATOM      8  N   LIG d   1       4.944   0.145  -6.804  0.00  0.00    -0.156 NA
ATOM      9  C   LIG d   1       3.662   0.485  -6.701  0.00  0.00     0.379 A 
ATOM     10  N   LIG d   1       2.932   0.209  -5.638  0.00  0.00    -0.174 N 
ATOM     11  H   LIG d   1       5.107  -2.308  -1.650  0.00  0.00     0.062 H 
ATOM     12  H   LIG d   1       2.743  -1.651  -1.536  0.00  0.00     0.062 H 
ATOM     13  H   LIG d   1       1.685  -0.466  -3.386  0.00  0.00     0.068 H 
ATOM     14  H   LIG d   1       6.451  -1.798  -3.622  0.00  0.00     0.063 H 
ATOM     15  H   LIG d   1       2.000   0.478  -5.609  0.00  0.00     0.457 HD
ENDROOT
BRANCH   9  16
ATOM     16  N   LIG d   1       3.068   1.158  -7.756  0.00  0.00    -0.244 N 
ATOM     17  H   LIG d   1       2.753   2.068  -7.636  0.00  0.00     0.159 HD
BRANCH  16  18
ATOM     18  C   LIG d   1       2.924   0.530  -8.990  0.00  0.00     0.037 A 
ATOM     19  C   LIG d   1       3.672   0.963 -10.081  0.00  0.00    -0.040 A 
ATOM     20  C   LIG d   1       3.536   0.347 -11.293  0.00  0.00    -0.051 A 
ATOM     21  H   LIG d   1       4.363   1.786  -9.970  0.00  0.00     0.064 H 
ATOM     22  C   LIG d   1       2.637  -0.717 -11.438  0.00  0.00    -0.003 A 
ATOM     23  H   LIG d   1       4.120   0.680 -12.137  0.00  0.00     0.062 H 
ATOM     24  C   LIG d   1       1.883  -1.146 -10.339  0.00  0.00    -0.051 A 
ATOM     25  C   LIG d   1       2.028  -0.527  -9.130  0.00  0.00    -0.040 A 
ATOM     26  H   LIG d   1       1.189  -1.965 -10.447  0.00  0.00     0.062 H 
ATOM     27  H   LIG d   1       1.448  -0.858  -8.281  0.00  0.00     0.064 H 
BRANCH  22  28
ATOM     28  C   LIG d   1       2.484  -1.381 -12.742  0.00  0.00     0.072 C 
ATOM     29  O   LIG d   1       3.281  -1.151 -13.642  0.00  0.00    -0.545 OA
ATOM     30  O   LIG d   1       1.562  -2.162 -12.927  0.00  0.00    -0.545 OA
ENDBRANCH  22  28
ENDBRANCH  16  18
ENDBRANCH   9  16
BRANCH   7  31
ATOM     31  N   LIG d   1       6.895  -0.846  -5.946  0.00  0.00    -0.342 N 
ATOM     32  H   LIG d   1       7.427  -0.488  -6.673  0.00  0.00     0.144 HD
ATOM     33  H   LIG d   1       7.299  -1.447  -5.300  0.00  0.00     0.144 HD
ENDBRANCH   7  31
TORSDOF 4
ENDMDL
MODEL 3
REMARK VINA RESULT:      -6.5      7.012      8.550
REMARK  4 active torsions:
REMARK  status: ('A' for Active; 'I' for Inactive)
REMARK    1  A    between atoms: C_7  and  N_21 
REMARK    2  A    between atoms: C_9  and  N_11 
REMARK    3  A    between atoms: N_11  and  C_12 
REMARK    4  A    between atoms: C_15  and  C_18 
ROOT
ATOM      1  C   LIG d   1       4.307  -1.152  -1.663  0.00  0.00    -0.061 A 
ATOM      2  C   LIG d   1       4.571   0.198  -1.876  0.00  0.00    -0.056 A 
ATOM      3  C   LIG d   1       4.799   0.680  -3.130  0.00  0.00     0.011 A 
ATOM      4  C   LIG d   1       4.768  -0.196  -4.224  0.00  0.00     0.219 A 
ATOM      5  C   LIG d   1       4.499  -1.569  -4.006  0.00  0.00     0.086 A 
ATOM      6  C   LIG d   1       4.268  -2.032  -2.705  0.00  0.00    -0.045 A 
ATOM      7  C   LIG d   1       4.472  -2.436  -5.126  0.00  0.00     0.138 A 
ATOM      8  N   LIG d   1       4.701  -1.919  -6.325  0.00  0.00    -0.156 NA
ATOM      9  C   LIG d   1       4.949  -0.622  -6.485  0.00  0.00     0.379 A 
ATOM     10  N   LIG d   1       4.985   0.228  -5.478  0.00  0.00    -0.174 N 
ATOM     11  H   LIG d   1       4.134  -1.510  -0.658  0.00  0.00     0.062 H 
ATOM     12  H   LIG d   1       4.595   0.873  -1.033  0.00  0.00     0.062 H 
ATOM     13  H   LIG d   1       5.002   1.729  -3.280  0.00  0.00     0.068 H 
ATOM     14  H   LIG d   1       4.063  -3.077  -2.528  0.00  0.00     0.063 H 
ATOM     15  H   LIG d   1       5.171   1.165  -5.644  0.00  0.00     0.457 HD
ENDROOT
BRANCH   9  16
ATOM     16  N   LIG d   1       5.180  -0.144  -7.765  0.00  0.00    -0.244 N 
ATOM     17  H   LIG d   1       5.969   0.390  -7.948  0.00  0.00     0.159 HD
BRANCH  16  18
ATOM     18  C   LIG d   1       4.281  -0.431  -8.788  0.00  0.00     0.037 A 
ATOM     19  C   LIG d   1       2.953  -0.029  -8.678  0.00  0.00    -0.040 A 
ATOM     20  C   LIG d   1       2.069  -0.304  -9.682  0.00  0.00    -0.051 A 
ATOM     21  H   LIG d   1       2.621   0.505  -7.799  0.00  0.00     0.064 H 
ATOM     22  C   LIG d   1       2.498  -1.000 -10.819  0.00  0.00    -0.003 A 
ATOM     23  H   LIG d   1       1.040   0.012  -9.598  0.00  0.00     0.062 H 
ATOM     24  C   LIG d   1       3.833  -1.406 -10.923  0.00  0.00    -0.051 A 
ATOM     25  C   LIG d   1       4.712  -1.122  -9.917  0.00  0.00    -0.040 A 
ATOM     26  H   LIG d   1       4.168  -1.943 -11.798  0.00  0.00     0.062 H 
ATOM     27  H   LIG d   1       5.743  -1.435  -9.997  0.00  0.00     0.064 H 
BRANCH  22  28
ATOM     28  C   LIG d   1       1.547  -1.302 -11.901  0.00  0.00     0.072 C 
ATOM     29  O   LIG d   1       0.379  -0.950 -11.804  0.00  0.00    -0.545 OA
ATOM     30  O   LIG d   1       1.925  -1.906 -12.896  0.00  0.00    -0.545 OA
ENDBRANCH  22  28
ENDBRANCH  16  18
ENDBRANCH   9  16
BRANCH   7  31
ATOM     31  N   LIG d   1       4.217  -3.781  -4.974  0.00  0.00    -0.342 N 
ATOM     32  H   LIG d   1       4.696  -4.430  -5.512  0.00  0.00     0.144 HD
ATOM     33  H   LIG d   1       3.558  -4.080  -4.327  0.00  0.00     0.144 HD
ENDBRANCH   7  31
TORSDOF 4
ENDMDL
MODEL 4
REMARK VINA RESULT:      -6.3      7.314      9.024
REMARK  4 active torsions:
REMARK  status: ('A' for Active; 'I' for Inactive)
REMARK    1  A    between atoms: C_7  and  N_21 
REMARK    2  A    between atoms: C_9  and  N_11 
REMARK    3  A    between atoms: N_11  and  C_12 
REMARK    4  A    between atoms: C_15  and  C_18 
ROOT
ATOM      1  C   LIG d   1       3.260  -1.690 -13.334  0.00  0.00    -0.061 A 
ATOM      2  C   LIG d   1       4.181  -0.650 -13.255  0.00  0.00    -0.056 A 
ATOM      3  C   LIG d   1       4.323   0.077 -12.110  0.00  0.00     0.011 A 
ATOM      4  C   LIG d   1       3.530  -0.226 -10.995  0.00  0.00     0.219 A 
ATOM      5  C   LIG d   1       2.593  -1.285 -11.078  0.00  0.00     0.086 A 
ATOM      6  C   LIG d   1       2.473  -2.012 -12.268  0.00  0.00    -0.045 A 
ATOM      7  C   LIG d   1       1.802  -1.574  -9.938  0.00  0.00     0.138 A 
ATOM      8  N   LIG d   1       1.977  -0.838  -8.850  0.00  0.00    -0.156 NA
ATOM      9  C   LIG d   1       2.869   0.148  -8.816  0.00  0.00     0.379 A 
ATOM     10  N   LIG d   1       3.631   0.458  -9.846  0.00  0.00    -0.174 N 
ATOM     11  H   LIG d   1       3.164  -2.249 -14.254  0.00  0.00     0.062 H 
ATOM     12  H   LIG d   1       4.793  -0.416 -14.114  0.00  0.00     0.062 H 
ATOM     13  H   LIG d   1       5.042   0.881 -12.064  0.00  0.00     0.068 H 
ATOM     14  H   LIG d   1       1.762  -2.821 -12.341  0.00  0.00     0.063 H 
ATOM     15  H   LIG d   1       4.267   1.187  -9.774  0.00  0.00     0.457 HD
ENDROOT
BRANCH   9  16
ATOM     16  N   LIG d   1       3.004   0.880  -7.647  0.00  0.00    -0.244 N 
ATOM     17  H   LIG d   1       2.942   1.848  -7.671  0.00  0.00     0.159 HD
BRANCH  16  18
ATOM     18  C   LIG d   1       3.228   0.228  -6.439  0.00  0.00     0.037 A 
ATOM     19  C   LIG d   1       4.239  -0.725  -6.341  0.00  0.00    -0.040 A 
ATOM     20  C   LIG d   1       4.464  -1.364  -5.155  0.00  0.00    -0.051 A 
ATOM     21  H   LIG d   1       4.847  -0.957  -7.203  0.00  0.00     0.064 H 
ATOM     22  C   LIG d   1       3.672  -1.066  -4.040  0.00  0.00    -0.003 A 
ATOM     23  H   LIG d   1       5.251  -2.099  -5.079  0.00  0.00     0.062 H 
ATOM     24  C   LIG d   1       2.654  -0.111  -4.144  0.00  0.00    -0.051 A 
ATOM     25  C   LIG d   1       2.438   0.527  -5.332  0.00  0.00    -0.040 A 
ATOM     26  H   LIG d   1       2.042   0.120  -3.286  0.00  0.00     0.062 H 
ATOM     27  H   LIG d   1       1.653   1.264  -5.413  0.00  0.00     0.064 H 
BRANCH  22  28
ATOM     28  C   LIG d   1       3.910  -1.756  -2.761  0.00  0.00     0.072 C 
ATOM     29  O   LIG d   1       3.791  -2.972  -2.692  0.00  0.00    -0.545 OA
ATOM     30  O   LIG d   1       4.225  -1.114  -1.769  0.00  0.00    -0.545 OA
ENDBRANCH  22  28
ENDBRANCH  16  18
ENDBRANCH   9  16
BRANCH   7  31
ATOM     31  N   LIG d   1       0.874  -2.592  -9.961  0.00  0.00    -0.342 N 
ATOM     32  H   LIG d   1       1.142  -3.497  -9.742  0.00  0.00     0.144 HD
ATOM     33  H   LIG d   1      -0.048  -2.403 -10.196  0.00  0.00     0.144 HD
ENDBRANCH   7  31
TORSDOF 4
ENDMDL
MODEL 5
REMARK VINA RESULT:      -6.3      7.714      9.862
REMARK  4 active torsions:
REMARK  status: ('A' for Active; 'I' for Inactive)
REMARK    1  A    between atoms: C_7  and  N_21 
REMARK    2  A    between atoms: C_9  and  N_11 
REMARK    3  A    between atoms: N_11  and  C_12 
REMARK    4  A    between atoms: C_15  and  C_18 
ROOT
ATOM      1  C   LIG d   1       3.903  -0.978  -1.962  0.00  0.00    -0.061 A 
ATOM      2  C   LIG d   1       4.545  -2.122  -2.427  0.00  0.00    -0.056 A 
ATOM      3  C   LIG d   1       4.719  -2.336  -3.762  0.00  0.00     0.011 A 
ATOM      4  C   LIG d   1       4.246  -1.391  -4.682  0.00  0.00     0.219 A 
ATOM      5  C   LIG d   1       3.594  -0.227  -4.207  0.00  0.00     0.086 A 
ATOM      6  C   LIG d   1       3.431  -0.037  -2.830  0.00  0.00    -0.045 A 
ATOM      7  C   LIG d   1       3.124   0.715  -5.156  0.00  0.00     0.138 A 
ATOM      8  N   LIG d   1       3.317   0.461  -6.442  0.00  0.00    -0.156 NA
ATOM      9  C   LIG d   1       3.935  -0.646  -6.844  0.00  0.00     0.379 A 
ATOM     10  N   LIG d   1       4.392  -1.555  -6.005  0.00  0.00    -0.174 N 
ATOM     11  H   LIG d   1       3.774  -0.833  -0.899  0.00  0.00     0.062 H 
ATOM     12  H   LIG d   1       4.910  -2.851  -1.719  0.00  0.00     0.062 H 
ATOM     13  H   LIG d   1       5.218  -3.229  -4.108  0.00  0.00     0.068 H 
ATOM     14  H   LIG d   1       2.935   0.847  -2.458  0.00  0.00     0.063 H 
ATOM     15  H   LIG d   1       4.836  -2.347  -6.346  0.00  0.00     0.457 HD
ENDROOT
BRANCH   9  16
ATOM     16  N   LIG d   1       4.106  -0.853  -8.203  0.00  0.00    -0.244 N 
ATOM     17  H   LIG d   1       4.867  -0.465  -8.662  0.00  0.00     0.159 HD
BRANCH  16  18
ATOM     18  C   LIG d   1       3.185  -1.620  -8.912  0.00  0.00     0.037 A 
ATOM     19  C   LIG d   1       3.367  -2.995  -9.024  0.00  0.00    -0.040 A 
ATOM     20  C   LIG d   1       2.463  -3.751  -9.715  0.00  0.00    -0.051 A 
ATOM     21  H   LIG d   1       4.222  -3.466  -8.562  0.00  0.00     0.064 H 
ATOM     22  C   LIG d   1       1.357  -3.139 -10.318  0.00  0.00    -0.003 A 
ATOM     23  H   LIG d   1       2.602  -4.819  -9.798  0.00  0.00     0.062 H 
ATOM     24  C   LIG d   1       1.180  -1.755 -10.206  0.00  0.00    -0.051 A 
ATOM     25  C   LIG d   1       2.086  -1.007  -9.509  0.00  0.00    -0.040 A 
ATOM     26  H   LIG d   1       0.329  -1.280 -10.669  0.00  0.00     0.062 H 
ATOM     27  H   LIG d   1       1.951   0.061  -9.422  0.00  0.00     0.064 H 
BRANCH  22  28
ATOM     28  C   LIG d   1       0.383  -3.950 -11.066  0.00  0.00     0.072 C 
ATOM     29  O   LIG d   1      -0.517  -4.528 -10.471  0.00  0.00    -0.545 OA
ATOM     30  O   LIG d   1       0.473  -4.046 -12.282  0.00  0.00    -0.545 OA
ENDBRANCH  22  28
ENDBRANCH  16  18
ENDBRANCH   9  16
BRANCH   7  31
ATOM     31  N   LIG d   1       2.481   1.865  -4.752  0.00  0.00    -0.342 N 
ATOM     32  H   LIG d   1       2.734   2.721  -5.131  0.00  0.00     0.144 HD
ATOM     33  H   LIG d   1       1.775   1.818  -4.087  0.00  0.00     0.144 HD
ENDBRANCH   7  31
TORSDOF 4
ENDMDL
MODEL 6
REMARK VINA RESULT:      -6.2      7.192      8.859
REMARK  4 active torsions:
REMARK  status: ('A' for Active; 'I' for Inactive)
REMARK    1  A    between atoms: C_7  and  N_21 
REMARK    2  A    between atoms: C_9  and  N_11 
REMARK    3  A    between atoms: N_11  and  C_12 
REMARK    4  A    between atoms: C_15  and  C_18 
ROOT
ATOM      1  C   LIG d   1       1.904  -2.585 -12.401  0.00  0.00    -0.061 A 
ATOM      2  C   LIG d   1       1.088  -2.996 -11.352  0.00  0.00    -0.056 A 
ATOM      3  C   LIG d   1       1.122  -2.362 -10.145  0.00  0.00     0.011 A 
ATOM      4  C   LIG d   1       1.992  -1.280  -9.956  0.00  0.00     0.219 A 
ATOM      5  C   LIG d   1       2.823  -0.863 -11.025  0.00  0.00     0.086 A 
ATOM      6  C   LIG d   1       2.762  -1.535 -12.251  0.00  0.00    -0.045 A 
ATOM      7  C   LIG d   1       3.694   0.233 -10.811  0.00  0.00     0.138 A 
ATOM      8  N   LIG d   1       3.691   0.815  -9.620  0.00  0.00    -0.156 NA
ATOM      9  C   LIG d   1       2.894   0.391  -8.644  0.00  0.00     0.379 A 
ATOM     10  N   LIG d   1       2.064  -0.623  -8.788  0.00  0.00    -0.174 N 
ATOM     11  H   LIG d   1       1.861  -3.106 -13.346  0.00  0.00     0.062 H 
ATOM     12  H   LIG d   1       0.416  -3.829 -11.496  0.00  0.00     0.062 H 
ATOM     13  H   LIG d   1       0.482  -2.692  -9.340  0.00  0.00     0.068 H 
ATOM     14  H   LIG d   1       3.392  -1.225 -13.072  0.00  0.00     0.063 H 
ATOM     15  H   LIG d   1       1.502  -0.897  -8.047  0.00  0.00     0.457 HD
ENDROOT
BRANCH   9  16
ATOM     16  N   LIG d   1       2.938   1.042  -7.422  0.00  0.00    -0.244 N 
ATOM     17  H   LIG d   1       2.793   2.000  -7.377  0.00  0.00     0.159 HD
BRANCH  16  18
ATOM     18  C   LIG d   1       3.189   0.322  -6.258  0.00  0.00     0.037 A 
ATOM     19  C   LIG d   1       4.190  -0.645  -6.242  0.00  0.00    -0.040 A 
ATOM     20  C   LIG d   1       4.443  -1.351  -5.100  0.00  0.00    -0.051 A 
ATOM     21  H   LIG d   1       4.771  -0.835  -7.133  0.00  0.00     0.064 H 
ATOM     22  C   LIG d   1       3.686  -1.107  -3.947  0.00  0.00    -0.003 A 
ATOM     23  H   LIG d   1       5.223  -2.098  -5.087  0.00  0.00     0.062 H 
ATOM     24  C   LIG d   1       2.677  -0.138  -3.969  0.00  0.00    -0.051 A 
ATOM     25  C   LIG d   1       2.435   0.567  -5.113  0.00  0.00    -0.040 A 
ATOM     26  H   LIG d   1       2.092   0.053  -3.082  0.00  0.00     0.062 H 
ATOM     27  H   LIG d   1       1.656   1.316  -5.131  0.00  0.00     0.064 H 
BRANCH  22  28
ATOM     28  C   LIG d   1       3.952  -1.869  -2.716  0.00  0.00     0.072 C 
ATOM     29  O   LIG d   1       3.829  -3.087  -2.712  0.00  0.00    -0.545 OA
ATOM     30  O   LIG d   1       4.296  -1.285  -1.698  0.00  0.00    -0.545 OA
ENDBRANCH  22  28
ENDBRANCH  16  18
ENDBRANCH   9  16
BRANCH   7  31
ATOM     31  N   LIG d   1       4.525   0.681 -11.814  0.00  0.00    -0.342 N 
ATOM     32  H   LIG d   1       4.475   0.287 -12.698  0.00  0.00     0.144 HD
ATOM     33  H   LIG d   1       5.160   1.393 -11.636  0.00  0.00     0.144 HD
ENDBRANCH   7  31
TORSDOF 4
ENDMDL
MODEL 7
REMARK VINA RESULT:      -6.2      5.312      7.620
REMARK  4 active torsions:
REMARK  status: ('A' for Active; 'I' for Inactive)
REMARK    1  A    between atoms: C_7  and  N_21 
REMARK    2  A    between atoms: C_9  and  N_11 
REMARK    3  A    between atoms: N_11  and  C_12 
REMARK    4  A    between atoms: C_15  and  C_18 
ROOT
ATOM      1  C   LIG d   1       4.342   0.675  -1.988  0.00  0.00    -0.061 A 
ATOM      2  C   LIG d   1       3.966  -0.663  -1.923  0.00  0.00    -0.056 A 
ATOM      3  C   LIG d   1       4.705  -1.631  -2.534  0.00  0.00     0.011 A 
ATOM      4  C   LIG d   1       5.862  -1.276  -3.241  0.00  0.00     0.219 A 
ATOM      5  C   LIG d   1       6.244   0.086  -3.306  0.00  0.00     0.086 A 
ATOM      6  C   LIG d   1       5.463   1.056  -2.667  0.00  0.00    -0.045 A 
ATOM      7  C   LIG d   1       7.417   0.421  -4.026  0.00  0.00     0.138 A 
ATOM      8  N   LIG d   1       8.101  -0.556  -4.603  0.00  0.00    -0.156 NA
ATOM      9  C   LIG d   1       7.707  -1.823  -4.516  0.00  0.00     0.379 A 
ATOM     10  N   LIG d   1       6.624  -2.191  -3.859  0.00  0.00    -0.174 N 
ATOM     11  H   LIG d   1       3.737   1.425  -1.499  0.00  0.00     0.062 H 
ATOM     12  H   LIG d   1       3.074  -0.937  -1.378  0.00  0.00     0.062 H 
ATOM     13  H   LIG d   1       4.400  -2.665  -2.475  0.00  0.00     0.068 H 
ATOM     14  H   LIG d   1       5.745   2.097  -2.711  0.00  0.00     0.063 H 
ATOM     15  H   LIG d   1       6.375  -3.128  -3.824  0.00  0.00     0.457 HD
ENDROOT
BRANCH   9  16
ATOM     16  N   LIG d   1       8.465  -2.799  -5.142  0.00  0.00    -0.244 N 
ATOM     17  H   LIG d   1       8.636  -2.743  -6.095  0.00  0.00     0.159 HD
BRANCH  16  18
ATOM     18  C   LIG d   1       8.983  -3.858  -4.403  0.00  0.00     0.037 A 
ATOM     19  C   LIG d   1       9.953  -3.620  -3.433  0.00  0.00    -0.040 A 
ATOM     20  C   LIG d   1      10.460  -4.657  -2.703  0.00  0.00    -0.051 A 
ATOM     21  H   LIG d   1      10.302  -2.614  -3.255  0.00  0.00     0.064 H 
ATOM     22  C   LIG d   1      10.010  -5.962  -2.938  0.00  0.00    -0.003 A 
ATOM     23  H   LIG d   1      11.209  -4.471  -1.948  0.00  0.00     0.062 H 
ATOM     24  C   LIG d   1       9.038  -6.198  -3.917  0.00  0.00    -0.051 A 
ATOM     25  C   LIG d   1       8.532  -5.154  -4.640  0.00  0.00    -0.040 A 
ATOM     26  H   LIG d   1       8.689  -7.203  -4.101  0.00  0.00     0.062 H 
ATOM     27  H   LIG d   1       7.782  -5.335  -5.395  0.00  0.00     0.064 H 
BRANCH  22  28
ATOM     28  C   LIG d   1      10.558  -7.083  -2.156  0.00  0.00     0.072 C 
ATOM     29  O   LIG d   1      10.556  -7.033  -0.934  0.00  0.00    -0.545 OA
ATOM     30  O   LIG d   1      11.014  -8.063  -2.729  0.00  0.00    -0.545 OA
ENDBRANCH  22  28
ENDBRANCH  16  18
ENDBRANCH   9  16
BRANCH   7  31
ATOM     31  N   LIG d   1       7.836   1.730  -4.124  0.00  0.00    -0.342 N 
ATOM     32  H   LIG d   1       8.782   1.933  -4.196  0.00  0.00     0.144 HD
ATOM     33  H   LIG d   1       7.185   2.450  -4.122  0.00  0.00     0.144 HD
ENDBRANCH   7  31
TORSDOF 4
ENDMDL
MODEL 8
REMARK VINA RESULT:      -6.0      7.023      8.615
REMARK  4 active torsions:
REMARK  status: ('A' for Active; 'I' for Inactive)
REMARK    1  A    between atoms: C_7  and  N_21 
REMARK    2  A    between atoms: C_9  and  N_11 
REMARK    3  A    between atoms: N_11  and  C_12 
REMARK    4  A    between atoms: C_15  and  C_18 
ROOT
ATOM      1  C   LIG d   1       4.818  -2.769  -3.181  0.00  0.00    -0.061 A 
ATOM      2  C   LIG d   1       4.963  -3.283  -4.466  0.00  0.00    -0.056 A 
ATOM      3  C   LIG d   1       4.575  -2.565  -5.558  0.00  0.00     0.011 A 
ATOM      4  C   LIG d   1       4.021  -1.289  -5.386  0.00  0.00     0.219 A 
ATOM      5  C   LIG d   1       3.875  -0.767  -4.077  0.00  0.00     0.086 A 
ATOM      6  C   LIG d   1       4.284  -1.530  -2.977  0.00  0.00    -0.045 A 
ATOM      7  C   LIG d   1       3.312   0.525  -3.927  0.00  0.00     0.138 A 
ATOM      8  N   LIG d   1       2.950   1.182  -5.019  0.00  0.00    -0.156 NA
ATOM      9  C   LIG d   1       3.106   0.655  -6.230  0.00  0.00     0.379 A 
ATOM     10  N   LIG d   1       3.624  -0.542  -6.427  0.00  0.00    -0.174 N 
ATOM     11  H   LIG d   1       5.130  -3.360  -2.331  0.00  0.00     0.062 H 
ATOM     12  H   LIG d   1       5.390  -4.266  -4.599  0.00  0.00     0.062 H 
ATOM     13  H   LIG d   1       4.694  -2.977  -6.549  0.00  0.00     0.068 H 
ATOM     14  H   LIG d   1       4.176  -1.142  -1.976  0.00  0.00     0.063 H 
ATOM     15  H   LIG d   1       3.717  -0.886  -7.329  0.00  0.00     0.457 HD
ENDROOT
BRANCH   9  16
ATOM     16  N   LIG d   1       2.708   1.393  -7.332  0.00  0.00    -0.244 N 
ATOM     17  H   LIG d   1       2.317   2.273  -7.211  0.00  0.00     0.159 HD
BRANCH  16  18
ATOM     18  C   LIG d   1       2.868   0.874  -8.613  0.00  0.00     0.037 A 
ATOM     19  C   LIG d   1       3.880   1.358  -9.437  0.00  0.00    -0.040 A 
ATOM     20  C   LIG d   1       4.043   0.848 -10.694  0.00  0.00    -0.051 A 
ATOM     21  H   LIG d   1       4.539   2.137  -9.082  0.00  0.00     0.064 H 
ATOM     22  C   LIG d   1       3.185  -0.157 -11.155  0.00  0.00    -0.003 A 
ATOM     23  H   LIG d   1       4.831   1.221 -11.331  0.00  0.00     0.062 H 
ATOM     24  C   LIG d   1       2.166  -0.639 -10.325  0.00  0.00    -0.051 A 
ATOM     25  C   LIG d   1       2.013  -0.126  -9.068  0.00  0.00    -0.040 A 
ATOM     26  H   LIG d   1       1.502  -1.414 -10.678  0.00  0.00     0.062 H 
ATOM     27  H   LIG d   1       1.227  -0.497  -8.427  0.00  0.00     0.064 H 
BRANCH  22  28
ATOM     28  C   LIG d   1       3.355  -0.707 -12.510  0.00  0.00     0.072 C 
ATOM     29  O   LIG d   1       4.288  -0.334 -13.209  0.00  0.00    -0.545 OA
ATOM     30  O   LIG d   1       2.563  -1.536 -12.938  0.00  0.00    -0.545 OA
ENDBRANCH  22  28
ENDBRANCH  16  18
ENDBRANCH   9  16
BRANCH   7  31
ATOM     31  N   LIG d   1       3.145   1.082  -2.679  0.00  0.00    -0.342 N 
ATOM     32  H   LIG d   1       3.919   1.327  -2.149  0.00  0.00     0.144 HD
ATOM     33  H   LIG d   1       2.252   1.231  -2.329  0.00  0.00     0.144 HD
ENDBRANCH   7  31
TORSDOF 4
ENDMDL
MODEL 9
REMARK VINA RESULT:      -5.9      2.538      3.722
REMARK  4 active torsions:
REMARK  status: ('A' for Active; 'I' for Inactive)
REMARK    1  A    between atoms: C_7  and  N_21 
REMARK    2  A    between atoms: C_9  and  N_11 
REMARK    3  A    between atoms: N_11  and  C_12 
REMARK    4  A    between atoms: C_15  and  C_18 
ROOT
ATOM      1  C   LIG d   1       3.249  -1.766  -2.772  0.00  0.00    -0.061 A 
ATOM      2  C   LIG d   1       4.284  -2.689  -2.888  0.00  0.00    -0.056 A 
ATOM      3  C   LIG d   1       5.568  -2.283  -3.100  0.00  0.00     0.011 A 
ATOM      4  C   LIG d   1       5.852  -0.914  -3.203  0.00  0.00     0.219 A 
ATOM      5  C   LIG d   1       4.798   0.024  -3.083  0.00  0.00     0.086 A 
ATOM      6  C   LIG d   1       3.491  -0.427  -2.865  0.00  0.00    -0.045 A 
ATOM      7  C   LIG d   1       5.109   1.402  -3.190  0.00  0.00     0.138 A 
ATOM      8  N   LIG d   1       6.372   1.747  -3.396  0.00  0.00    -0.156 NA
ATOM      9  C   LIG d   1       7.331   0.832  -3.502  0.00  0.00     0.379 A 
ATOM     10  N   LIG d   1       7.098  -0.463  -3.410  0.00  0.00    -0.174 N 
ATOM     11  H   LIG d   1       2.239  -2.114  -2.608  0.00  0.00     0.062 H 
ATOM     12  H   LIG d   1       4.065  -3.744  -2.810  0.00  0.00     0.062 H 
ATOM     13  H   LIG d   1       6.360  -3.011  -3.189  0.00  0.00     0.068 H 
ATOM     14  H   LIG d   1       2.680   0.280  -2.774  0.00  0.00     0.063 H 
ATOM     15  H   LIG d   1       7.831  -1.093  -3.495  0.00  0.00     0.457 HD
ENDROOT
BRANCH   9  16
ATOM     16  N   LIG d   1       8.632   1.257  -3.718  0.00  0.00    -0.244 N 
ATOM     17  H   LIG d   1       9.346   0.948  -3.138  0.00  0.00     0.159 HD
BRANCH  16  18
ATOM     18  C   LIG d   1       8.915   2.127  -4.766  0.00  0.00     0.037 A 
ATOM     19  C   LIG d   1       8.727   1.713  -6.082  0.00  0.00    -0.040 A 
ATOM     20  C   LIG d   1       9.000   2.565  -7.114  0.00  0.00    -0.051 A 
ATOM     21  H   LIG d   1       8.362   0.717  -6.287  0.00  0.00     0.064 H 
ATOM     22  C   LIG d   1       9.477   3.854  -6.847  0.00  0.00    -0.003 A 
ATOM     23  H   LIG d   1       8.849   2.245  -8.134  0.00  0.00     0.062 H 
ATOM     24  C   LIG d   1       9.670   4.265  -5.522  0.00  0.00    -0.051 A 
ATOM     25  C   LIG d   1       9.390   3.408  -4.496  0.00  0.00    -0.040 A 
ATOM     26  H   LIG d   1      10.038   5.258  -5.313  0.00  0.00     0.062 H 
ATOM     27  H   LIG d   1       9.537   3.724  -3.474  0.00  0.00     0.064 H 
BRANCH  22  28
ATOM     28  C   LIG d   1       9.776   4.774  -7.956  0.00  0.00     0.072 C 
ATOM     29  O   LIG d   1      10.753   5.508  -7.894  0.00  0.00    -0.545 OA
ATOM     30  O   LIG d   1       9.049   4.805  -8.939  0.00  0.00    -0.545 OA
ENDBRANCH  22  28
ENDBRANCH  16  18
ENDBRANCH   9  16
BRANCH   7  31
ATOM     31  N   LIG d   1       4.124   2.359  -3.083  0.00  0.00    -0.342 N 
ATOM     32  H   LIG d   1       4.259   3.133  -2.514  0.00  0.00     0.144 HD
ATOM     33  H   LIG d   1       3.295   2.260  -3.578  0.00  0.00     0.144 HD
ENDBRANCH   7  31
TORSDOF 4
ENDMDL
MODEL 10
REMARK VINA RESULT:      -5.9      5.059      6.198
REMARK  4 active torsions:
REMARK  status: ('A' for Active; 'I' for Inactive)
REMARK    1  A    between atoms: C_7  and  N_21 
REMARK    2  A    between atoms: C_9  and  N_11 
REMARK    3  A    between atoms: N_11  and  C_12 
REMARK    4  A    between atoms: C_15  and  C_18 
ROOT
ATOM      1  C   LIG d   1       1.688  -0.907 -10.729  0.00  0.00    -0.061 A 
ATOM      2  C   LIG d   1       2.043  -2.227 -10.467  0.00  0.00    -0.056 A 
ATOM      3  C   LIG d   1       2.751  -2.556  -9.350  0.00  0.00     0.011 A 
ATOM      4  C   LIG d   1       3.129  -1.550  -8.450  0.00  0.00     0.219 A 
ATOM      5  C   LIG d   1       2.767  -0.207  -8.718  0.00  0.00     0.086 A 
ATOM      6  C   LIG d   1       2.039   0.096  -9.874  0.00  0.00    -0.045 A 
ATOM      7  C   LIG d   1       3.160   0.792  -7.794  0.00  0.00     0.138 A 
ATOM      8  N   LIG d   1       3.848   0.423  -6.724  0.00  0.00    -0.156 NA
ATOM      9  C   LIG d   1       4.166  -0.851  -6.510  0.00  0.00     0.379 A 
ATOM     10  N   LIG d   1       3.826  -1.821  -7.336  0.00  0.00    -0.174 N 
ATOM     11  H   LIG d   1       1.130  -0.673 -11.625  0.00  0.00     0.062 H 
ATOM     12  H   LIG d   1       1.752  -3.003 -11.160  0.00  0.00     0.062 H 
ATOM     13  H   LIG d   1       3.019  -3.584  -9.160  0.00  0.00     0.068 H 
ATOM     14  H   LIG d   1       1.758   1.116 -10.088  0.00  0.00     0.063 H 
ATOM     15  H   LIG d   1       4.082  -2.735  -7.139  0.00  0.00     0.457 HD
ENDROOT
BRANCH   9  16
ATOM     16  N   LIG d   1       4.887  -1.172  -5.372  0.00  0.00    -0.244 N 
ATOM     17  H   LIG d   1       4.639  -1.947  -4.842  0.00  0.00     0.159 HD
BRANCH  16  18
ATOM     18  C   LIG d   1       5.968  -0.385  -4.987  0.00  0.00     0.037 A 
ATOM     19  C   LIG d   1       5.893   0.379  -3.826  0.00  0.00    -0.040 A 
ATOM     20  C   LIG d   1       6.953   1.150  -3.443  0.00  0.00    -0.051 A 
ATOM     21  H   LIG d   1       4.994   0.361  -3.225  0.00  0.00     0.064 H 
ATOM     22  C   LIG d   1       8.115   1.177  -4.224  0.00  0.00    -0.003 A 
ATOM     23  H   LIG d   1       6.895   1.739  -2.539  0.00  0.00     0.062 H 
ATOM     24  C   LIG d   1       8.185   0.410  -5.393  0.00  0.00    -0.051 A 
ATOM     25  C   LIG d   1       7.122  -0.362  -5.766  0.00  0.00    -0.040 A 
ATOM     26  H   LIG d   1       9.079   0.429  -5.998  0.00  0.00     0.062 H 
ATOM     27  H   LIG d   1       7.175  -0.954  -6.668  0.00  0.00     0.064 H 
BRANCH  22  28
ATOM     28  C   LIG d   1       9.258   2.009  -3.816  0.00  0.00     0.072 C 
ATOM     29  O   LIG d   1      10.391   1.701  -4.161  0.00  0.00    -0.545 OA
ATOM     30  O   LIG d   1       9.076   3.007  -3.133  0.00  0.00    -0.545 OA
ENDBRANCH  22  28
ENDBRANCH  16  18
ENDBRANCH   9  16
BRANCH   7  31
ATOM     31  N   LIG d   1       2.837   2.115  -8.004  0.00  0.00    -0.342 N 
ATOM     32  H   LIG d   1       2.167   2.545  -7.450  0.00  0.00     0.144 HD
ATOM     33  H   LIG d   1       3.279   2.618  -8.706  0.00  0.00     0.144 HD
ENDBRANCH   7  31
TORSDOF 4
ENDMDL
